#------------------------------------------------------------------------------
#$Date: 2020-03-07 08:00:48 +0200 (Sat, 07 Mar 2020) $
#$Revision: 249179 $
#$URL: file:///home/coder/svn-repositories/cod/cif/2/02/19/2021994.cif $
#------------------------------------------------------------------------------
#
# This file is available in the Crystallography Open Database (COD),
# http://www.crystallography.net/. The original data for this entry
# were provided by IUCr Journals, http://journals.iucr.org/.
#
# The file may be used within the scientific community so long as
# proper attribution is given to the journal article from which the
# data were obtained.
#
data_2021994
loop_
_publ_author_name
'Patricio-Rangel, Emmanuel Blas'
'Tlahuextl, Margarita'
'Tlahuext, Hugo'
'Tapia-Benavides, Antonio Rafael'
_publ_section_title
;
 Synthesis and crystallographic studies of two new 1,3,5-triazines
;
_journal_coeditor_code           SK3746
_journal_issue                   4
_journal_name_full               'Acta Crystallographica Section C'
_journal_page_first
;
;
_journal_paper_doi               10.1107/S2053229620002508
_journal_volume                  76
_journal_year                    2020
_chemical_formula_iupac          'C11 H9 Cl2 N6 +, Cl -'
_chemical_formula_moiety         'C11 H9 Cl2 N6 +, Cl -'
_chemical_formula_sum            'C11 H9 Cl3 N6'
_chemical_formula_weight         331.59
_chemical_name_systematic
'2-{[(4,6-Dichloro-1,3,5-triazin-2-yl)amino]methyl}-1<i>H</i>-benzimidazol-3-ium chloride'
_space_group_crystal_system      triclinic
_space_group_IT_number           2
_space_group_name_Hall           '-P 1'
_space_group_name_H-M_alt        'P -1'
_atom_sites_solution_hydrogens   mixed
_audit_creation_method
;
Olex2 1.2
(compiled 2018.05.29 svn.r3508 for OlexSys, GUI svn.r5506)
;
_cell_angle_alpha                97.006(5)
_cell_angle_beta                 104.543(5)
_cell_angle_gamma                91.138(5)
_cell_formula_units_Z            2
_cell_length_a                   8.1958(5)
_cell_length_b                   8.4184(5)
_cell_length_c                   10.5965(6)
_cell_measurement_reflns_used    5550
_cell_measurement_temperature    293(2)
_cell_measurement_theta_max      25.5930
_cell_measurement_theta_min      3.6250
_cell_volume                     701.43(7)
_computing_cell_refinement
;
CrysAlis PRO (Agilent, 2014)
;
_computing_data_collection
;
CrysAlis PRO (Agilent, 2014)
;
_computing_data_reduction
;
CrysAlis PRO (Agilent, 2014)
;
_computing_molecular_graphics
;
OLEX2 (Dolomanov <i>et al.</i>,  2009)
;
_computing_publication_material
;
OLEX2 (Dolomanov <i>et al.</i>,  2009)
;
_computing_structure_refinement
;
SHELXL2018 (Sheldrick, 2015a)
;
_computing_structure_solution
;
SHELXT (Sheldrick, 2015b)
;
_diffrn_ambient_temperature      293.0
_diffrn_detector_area_resol_mean 10.3659
_diffrn_measured_fraction_theta_full 0.998
_diffrn_measured_fraction_theta_max 0.998
_diffrn_measurement_device       'four-circle diffractometer'
_diffrn_measurement_device_type  'Agilent Xcalibur Atlas Gemini'
_diffrn_measurement_method       '\w scans'
_diffrn_radiation_type           MoK\a
_diffrn_radiation_wavelength     0.71073
_diffrn_reflns_av_R_equivalents  0.0464
_diffrn_reflns_av_unetI/netI     0.0255
_diffrn_reflns_limit_h_max       9
_diffrn_reflns_limit_h_min       -9
_diffrn_reflns_limit_k_max       10
_diffrn_reflns_limit_k_min       -10
_diffrn_reflns_limit_l_max       12
_diffrn_reflns_limit_l_min       -12
_diffrn_reflns_number            21243
_diffrn_reflns_theta_full        24.999
_diffrn_reflns_theta_max         24.999
_diffrn_reflns_theta_min         3.355
_exptl_absorpt_coefficient_mu    0.651
_exptl_absorpt_correction_T_max  1.00000
_exptl_absorpt_correction_T_min  0.65290
_exptl_absorpt_correction_type   multi-scan
_exptl_absorpt_process_details
;
(CrysAlis PRO; Agilent, 2014)
;
_exptl_crystal_colour            'clear light white'
_exptl_crystal_density_diffrn    1.570
_exptl_crystal_description       plate
_exptl_crystal_F_000             336
_exptl_crystal_size_max          0.17
_exptl_crystal_size_mid          0.15
_exptl_crystal_size_min          0.13
_refine_diff_density_max         0.181
_refine_diff_density_min         -0.294
_refine_ls_extinction_method     none
_refine_ls_goodness_of_fit_ref   1.060
_refine_ls_hydrogen_treatment    mixed
_refine_ls_matrix_type           full
_refine_ls_number_parameters     190
_refine_ls_number_reflns         2455
_refine_ls_number_restraints     3
_refine_ls_restrained_S_all      1.059
_refine_ls_R_factor_all          0.0504
_refine_ls_R_factor_gt           0.0346
_refine_ls_shift/su_max          0.000
_refine_ls_shift/su_mean         0.000
_refine_ls_structure_factor_coef Fsqd
_refine_ls_weighting_details
'w=1/[\s^2^(Fo^2^)+(0.0347P)^2^+0.2894P] where P=(Fo^2^+2Fc^2^)/3'
_refine_ls_weighting_scheme      calc
_refine_ls_wR_factor_gt          0.0769
_refine_ls_wR_factor_ref         0.0872
_reflns_number_gt                1929
_reflns_number_total             2455
_reflns_threshold_expression     'I > 2\s(I)'
_cod_data_source_file            sk3746sup1.cif
_cod_data_source_block           pr109_grande2_05072018
_cod_database_code               2021994
_shelx_space_group_comment
;
The symmetry employed for this shelxl refinement is uniquely defined
by the following loop, which should always be used as a source of
symmetry information in preference to the above space-group names.
They are only intended as comments.
;
_shelx_estimated_absorpt_t_min   0.897
_shelx_estimated_absorpt_t_max   0.920
_shelx_hkl_file
;
   0   0   2 611.208 110.926  13
   0   0   2 528.614 152.279   9
   0   0  -2 540.574 100.264  10
   0   0  -2 426.477 101.417   1
   0   0   2 520.070 125.643  15
   0   0   2 496.337 92.6551  10
   0   0  -2 594.911 101.302   8
   0   0  -2 505.680 119.787   5
   0   0  -3 4630.63 326.854   1
   0   0   3 4345.72 224.894   6
   0   0  -3 4601.00 233.384   6
   0   0  -3 4443.10 288.598  13
   0   0  -3 4469.93 342.323  15
   0   0  -3 4010.59 300.491  12
   0   0   3 4197.07 295.900  13
   0   0   3 4675.52 363.166  15
   0   0   3 4733.53 440.914   9
   0   0   3 4319.74 284.768  10
   0   0  -3 4659.09 354.716   5
   0   0  -3 4081.07 286.635   8
   0   0   4 6667.35 319.698   6
   0   0  -4 6962.22 465.807   1
   0   0   4 6751.38 610.447   9
   0   0  -4 6739.07 481.175  15
   0   0   4 6283.10 457.926   1
   0   0  -4 6748.67 404.773  13
   0   0  -4 6470.80 482.576   5
   0   0   4 6567.59 404.194  10
   0   0  -4 6305.52 313.724   6
   0   0   4 6801.43 438.596  13
   0   0  -4 6531.73 437.438  12
   0   0   4 6173.13 496.346  15
   0   0  -4 6141.53 393.529   8
   0   0  -5 12393.9 898.929   7
   0   0   5 13341.1 953.579   9
   0   0   5 13145.3 799.894  15
   0   0   5 12128.2 712.123   1
   0   0  -5 13244.8 754.236  15
   0   0   5 12872.4 683.118  13
   0   0   5 13150.4 811.222   5
   0   0  -5 13470.5 776.747   5
   0   0  -5 12511.5 681.338   1
   0   0  -5 12259.6 475.232   6
   0   0  -5 11702.6 598.895   8
   0   0  -5 12028.9 594.969  13
   0   0   5 11767.4 598.212  10
   0   0  -5 12274.7 668.725  12
   0   0   6 5950.50 522.635  13
   0   0  -6 5780.73 676.501   7
   0   0  -6 5761.58 347.920   6
   0   0  -6 5544.66 520.126   1
   0   0   6 5350.95 451.817  10
   0   0   6 4628.53 504.843   1
   0   0  -6 6218.26 570.501  15
   0   0  -6 5287.67 483.501  12
   0   0  -6 6632.20 609.849   5
   0   0  -6 6035.14 463.316   8
   0   0  -6 5422.93 440.270  13
   0   0   6 6158.62 735.475   9
   0   0   6 6139.23 630.793   5
   0   0   6 6246.77 635.195  15
   0   0   7 1310.55 255.476  10
   0   0   7 1040.94 325.551   5
   0   0   7 1236.47 308.507   1
   0   0   7 959.157 331.897  15
   0   0  -7 1507.86 278.518   8
   0   0  -7 1323.51 341.653   5
   0   0   7 1099.31 270.114  13
   0   0  -7 1314.72 318.883  15
   0   0  -7 996.022 286.646   1
   0   0  -7 1263.36 392.321   9
   0   0  -7 1227.74 278.785  12
   0   0  -7 1276.21 340.511   7
   0   0  -7 971.507 171.409   6
   0   0   7 1194.81 440.590   9
   0   0  -7 1419.52 270.425  13
   0   0   8 1833.76 376.642   1
   0   0   8 1416.18 474.868   9
   0   0   8 1704.38 455.587  15
   0   0  -8 1332.97 375.765   7
   0   0  -8 2125.04 437.487   5
   0   0  -8 1694.75 305.184  13
   0   0   8 1731.23 442.949   5
   0   0  -8 1223.40 180.730   6
   0   0  -8 1452.00 315.651  12
   0   0  -8 1607.90 278.550   8
   0   0   8 1729.60 299.762  10
   0   0   8 1751.89 358.919  13
   0   0  -8 1592.34 373.635   1
   0   0  -9-23.7118 242.014   1
   0   0   9 62.6686 102.513  10
   0   0   9 153.125 217.232  15
   0   0   9-59.4170 287.217   5
   0   0  -9 95.1529 152.016  13
   0   0  -9 59.6919 142.037  12
   0   0   9 28.1932 165.521  13
   0   0   9-334.331 279.346   9
   0   0  -9 57.0570 133.330   8
   0   0  -9 125.728 83.6651   6
   0   0 -10 8205.61 822.007   1
   0   0  10 9061.46 729.373  10
   0   0  10 6695.09 897.021  15
   0   0  10 8084.50 1164.55   9
   0   0 -10 7797.22 770.517  12
   0   0 -10 8378.46 625.191   8
   0   0 -11 3390.20 609.279   1
   0   0  11 3579.43 688.230  15
   0   0  11 4191.93 928.574   9
   0   0  12-33.5123 173.166   9
   0   0 -12-119.331 243.015   1
   0   0 -13-223.903 179.094   1
   0   0  13-178.507 260.411  15
   0   0 -14 151.060 286.055   1
   0  -1  14 204.594 508.026  15
   0   1 -14 380.599 254.048   1
   0   1 -13 266.376 299.275   1
   0  -1  13 28.3145 221.141  15
   0  -1  12 681.618 398.374  13
   0   1 -12 473.361 351.274  11
   0  -1  12-285.397 277.265  15
   0  -1  12 631.131 297.413   5
   0  -1  12 706.846 503.296   9
   0   1 -12-296.406 222.114   1
   0  -1  11-483.053 240.850   5
   0   1 -11 618.972 302.299   1
   0  -1  11 416.208 390.925   9
   0  -1  11-152.948 266.907  15
   0  -1  11 25.2360 186.813  13
   0   1 -10 1603.45 379.580   1
   0  -1  10 1601.03 335.406  10
   0  -1  10 1530.35 635.040   9
   0   1 -10 1147.63 313.976  12
   0   1 -10 2037.97 321.055   8
   0   1 -10 1498.69 233.691   6
   0  -1  10 1569.01 511.683   5
   0  -1  10 1132.42 437.078  15
   0  -1  10 1715.27 438.092  13
   0   1  -9-119.575 164.000  12
   0  -1   9-494.583 411.758   9
   0  -1   9 225.600 286.240  15
   0   1  -9 112.263 137.710   8
   0  -1   9-0.72515 156.423  10
   0   1  -9-178.766 191.787  13
   0  -1   9 189.901 250.469   5
   0   1  -9 44.9700 224.739   1
   0  -1   9 172.169 116.604   1
   0   1  -9 259.712 135.394   6
   0  -1   9 124.377 170.575  13
   0   1  -8 1062.21 226.980   8
   0   1  -8 848.540 294.897   1
   0   1  -8 780.435 202.845   6
   0  -1   8 912.105 399.109  15
   0  -1   8 640.818 224.221   1
   0   1  -8 888.786 321.618   5
   0  -1   8 966.697 342.682   5
   0   1  -8 941.093 321.851  15
   0  -1   8 1286.21 308.027  10
   0  -1   8 774.692 293.653  13
   0   1  -8 1040.77 278.420  13
   0  -1   8 841.495 396.908   9
   0   1  -8 844.901 245.986  12
   0   1  -8 759.907 281.468   7
   0  -1   7 16899.5 1299.36   9
   0  -1   7 15066.9 863.540  10
   0  -1   7 15548.4 1035.78   5
   0  -1   7 15221.4 949.617  13
   0   1  -7 15805.2 909.564  10
   0   1  -7 15347.4 1154.99   9
   0   1  -7 15754.3 1027.22  15
   0   1  -7 14875.0 937.541   5
   0   1  -7 15205.2 709.886   6
   0   1  -7 14695.8 1144.72   7
   0   1  -7 15064.3 824.668   1
   0  -1   7 13851.3 863.306   1
   0   1  -7 13568.5 808.437  12
   0   1  -7 14510.8 698.253   8
   0  -1   7 14529.1 1084.48  15
   0   1  -7 15488.4 850.209  13
   0   1  -6 30051.0 945.797   6
   0  -1   6 28895.0 1204.54  13
   0   1  -6 31233.1 1236.89   5
   0   1  -6 32982.3 1391.43  15
   0   1  -6 31459.2 959.102   8
   0  -1   6 31489.9 1178.12   8
   0  -1   6 30919.6 1157.69  10
   0   1  -6 31536.3 1178.08  10
   0   1  -6 31182.1 1132.43  13
   0   1  -6 31888.9 1082.35   1
   0  -1   6 28658.5 1115.74   1
   0  -1   6 30199.3 1567.83   9
   0  -1   6 32171.1 1344.06   5
   0  -1   6 30635.4 1432.81  15
   0   1  -5 37857.4 976.563   8
   0   1  -5 37452.1 1150.48  13
   0   1  -5 39534.9 1388.17  15
   0  -1   5 36313.1 1113.49   1
   0   1  -5 38380.6 998.490   6
   0  -1   5 39240.8 1206.37   8
   0  -1   5 39338.6 1605.34   9
   0  -1   5 37690.6 1178.97  10
   0   1  -5 38029.1 1191.13  10
   0  -1   5 37735.3 1257.27  13
   0   1  -5 38142.8 1064.27   1
   0  -1   5 38319.4 1448.96  15
   0   1  -5 37481.4 1233.22   5
   0  -1   5 38127.7 1307.58   5
   0   1  -4 154588. 1874.48   6
   0  -1   4 156299. 2613.74  15
   0   1  -4 156467. 2177.86  10
   0  -1   4 159525. 2870.65   9
   0   1  -4 154234. 1875.91   1
   0  -1   4 157073. 2322.26   5
   0  -1   4 148122. 1945.43   1
   0   1  -4 155945. 2159.38  13
   0  -1   4 156444. 2195.57  10
   0  -1   4 151297. 2262.85  13
   0   1  -4 149335. 2187.11   5
   0   1  -4 153182. 1773.04   8
   0  -1   4 149424. 2044.67   8
   0  -1   3 780.113 131.639   1
   0  -1   3 623.319 220.097   9
   0   1  -3 697.796 122.983   8
   0   1  -3 889.958 172.870  13
   0  -1   3 1239.16 262.647  15
   0   1  -3 724.274 143.608  11
   0   1  -3 894.808 137.345   1
   0  -1   3 645.374 135.654   8
   0   1  -3 929.714 180.790   5
   0   1  -3 827.126 172.203  10
   0  -1   3 749.708 154.225  10
   0   1  -3 744.102 143.101   6
   0  -1   3 505.008 147.469  13
   0  -1   2 88772.6 989.429   1
   0   1  -2 87870.9 1028.12  11
   0  -1   2 93072.1 1544.03   9
   0  -1   2 89604.6 1344.32  10
   0  -1   2 92873.3 1353.79  13
   0   1  -2 89015.4 996.499   1
   0   1  -2 88281.4 1235.65   5
   0   1  -2 95308.8 1399.06   2
   0  -1   2 91647.3 1507.36  15
   0  -1   2 88550.2 1101.26   8
   0  -1  -1 7565.01 364.681   1
   0   1   1 8300.73 382.783  12
   0   1   1 8499.71 406.766   2
   0   1   1 8167.35 371.765   7
   0   1   2 17259.3 685.133   7
   0  -1  -2 16460.9 620.753   1
   0   1   2 16615.4 602.942  12
   0   1   2 17007.5 442.441   6
   0   1   2 17300.5 680.797   9
   0  -1  -2 16303.5 391.275  15
   0   1   2 16145.7 412.880  15
   0   1   3 123.064 95.0115  15
   0   1   3 137.588 66.4314   6
   0   1   3 260.169 169.098   7
   0   1   3 168.022 119.002  12
   0  -1  -3 168.577 69.8334  13
   0   1   3-1.36364 173.640   9
   0  -1  -3 102.826 105.246   7
   0  -1  -3 114.224 118.643  12
   0  -1  -3 138.024 129.997   5
   0  -1  -3 72.3758 139.893   1
   0  -1  -3 174.003 88.5973  15
   0  -1  -4 40248.3 1196.92  12
   0  -1  -4 41000.6 1322.45   5
   0   1   4 44589.1 1242.44  12
   0   1   4 41986.2 794.174   6
   0   1   4 41429.0 1483.51   9
   0  -1  -4 39914.2 872.676  13
   0  -1  -4 40423.5 1008.03  15
   0  -1  -4 42253.2 1468.91   7
   0   1   4 40476.9 1094.43  15
   0  -1  -4 42229.0 1243.25   1
   0   1   4 42979.5 1462.22   7
   0   1   5 15458.2 653.956  10
   0   1   5 16622.9 1076.88   9
   0   1   5 15628.9 514.803   6
   0  -1  -5 15629.1 897.943   5
   0   1   5 15557.7 794.118  15
   0  -1  -5 15948.7 606.715  13
   0  -1  -5 16125.0 850.398   1
   0   1   5 16380.3 915.202   1
   0  -1  -5 14971.8 811.656  12
   0  -1  -5 13848.9 959.208   7
   0  -1  -5 16543.2 754.136  15
   0   1   5 16619.8 1038.96   7
   0   1   6 3793.73 501.077   1
   0   1   6 3476.61 343.304  10
   0  -1  -6 3575.22 444.789  12
   0  -1  -6 3759.66 499.191   5
   0  -1  -6 4241.77 599.949   7
   0   1   6 3366.17 434.734  15
   0  -1  -6 3603.06 414.479   8
   0   1   6 3607.78 260.514   6
   0  -1  -6 3550.03 392.197  15
   0  -1  -6 3884.45 484.359   1
   0  -1  -6 3633.45 323.894  13
   0   1   6 3915.90 627.318   9
   0  -1  -7 667.570 199.016   8
   0  -1  -7 636.412 266.138   9
   0  -1  -7 620.556 228.508  12
   0  -1  -7 526.710 288.257   7
   0   1   7 555.928 332.556   9
   0   1   7 464.454 260.861  15
   0   1   7 624.650 243.520   1
   0   1   7 554.342 173.736  10
   0  -1  -7 605.415 271.748   1
   0  -1  -7 558.275 180.020  13
   0  -1  -7 634.231 253.870   5
   0   1   7 583.087 121.349   6
   0   1   8 7492.59 577.319  10
   0  -1  -8 7499.79 747.124   1
   0   1   8 8040.69 1009.83   9
   0  -1  -8 7316.45 523.612  13
   0   1   8 8472.40 844.286   1
   0  -1  -8 7074.04 699.700  12
   0  -1  -8 6284.85 830.922   7
   0  -1  -8 6544.93 591.792   8
   0   1   8 6850.31 743.849  15
   0  -1  -9 68.7918 140.928  13
   0  -1  -9-118.053 161.904   8
   0   1   9 234.304 233.861  15
   0   1   9-195.894 419.756   9
   0  -1  -9-47.2742 207.312  12
   0   1   9-94.5567 122.906  10
   0  -1  -9 8.66287 261.473   1
   0   1  10 1914.94 598.018   9
   0   1  10 1003.53 268.667  10
   0  -1 -10 1290.59 313.144   8
   0  -1 -10 1397.90 381.825  12
   0  -1 -10 1510.40 492.867   1
   0   1  10 1529.61 422.956  15
   0   1  11 3905.53 676.719  15
   0   1  11 5115.50 994.085   9
   0  -1 -11 4795.30 704.090   1
   0   1  12 563.617 469.345   9
   0   1  12 657.485 344.641  15
   0  -1 -12 394.688 265.336   1
   0  -1 -13 1034.16 346.319   1
   0  -2  14-42.4656 287.407  15
   0  -2  13 1676.57 596.893  15
   0   2 -13 2026.38 520.545   1
   0  -2  13 3327.86 761.549   5
   0  -2  12 2654.70 777.971   9
   0  -2  12 2025.65 615.401   5
   0  -2  12 2351.68 637.251  15
   0   2 -12 2937.92 638.014   2
   0   2 -12 2385.65 522.847   1
   0  -2  12 2752.21 563.512  13
   0  -2  11 582.284 466.100   9
   0  -2  11 125.350 278.187  13
   0   2 -11 1193.66 434.578   2
   0   2 -11 1114.95 328.653  11
   0   2 -11 817.255 312.899   1
   0  -2  11 793.345 351.955  15
   0  -2  11 813.495 418.608   5
   0  -2  10 480.459 287.561  13
   0  -2  10 183.800 315.282  15
   0   2 -10 242.298 239.901   1
   0   2 -10 256.588 153.882   6
   0  -2  10 303.964 249.751   1
   0   2 -10 232.394 176.193   8
   0   2 -10 939.235 366.850   2
   0  -2  10 651.937 312.937  10
   0   2 -10 251.139 198.372  11
   0  -2  10 242.104 325.624   9
   0   2 -10 249.953 172.320  12
   0  -2  10-296.174 244.194   5
   0   2  -9 2794.75 463.272  13
   0   2  -9 1846.18 373.428  11
   0   2  -9 1537.73 354.872   1
   0  -2   9 1512.15 348.087   1
   0  -2   9 2435.14 509.000  13
   0   2  -9 2092.52 527.590  14
   0   2  -9 1846.63 367.904  12
   0  -2   9 1849.57 420.309  10
   0   2  -9 1791.13 419.803  10
   0  -2   9 1804.13 524.315  15
   0  -2   9 2225.52 603.709   9
   0  -2   9 2328.95 534.712   5
   0   2  -9 1775.71 321.820   6
   0   2  -9 2182.18 334.061   8
   0   2  -8 1984.78 367.321  11
   0  -2   8 2701.46 628.547   9
   0   2  -8 2967.43 541.697  15
   0   2  -8 2495.87 414.054  13
   0  -2   8 2498.42 438.171   8
   0   2  -8 2568.72 447.335  10
   0   2  -8 2177.03 297.344   8
   0   2  -8 2589.49 433.704   5
   0  -2   8 1938.47 457.347  13
   0  -2   8 2414.19 500.888   5
   0  -2   8 2063.29 493.693  15
   0  -2   8 2295.74 371.613   1
   0   2  -8 2223.49 497.963  14
   0   2  -8 2530.21 356.915   6
   0   2  -8 2419.22 382.825   1
   0  -2   8 3040.85 470.787  10
   0   2  -7 714.038 260.271  10
   0  -2   7 524.292 183.987  10
   0   2  -7 673.905 253.226   5
   0   2  -7 951.698 328.685   9
   0   2  -7 436.593 250.232   2
   0  -2   7 860.532 389.717   9
   0   2  -7 648.979 179.006   8
   0  -2   7 643.684 281.516   5
   0   2  -7 526.695 191.850   1
   0  -2   7 655.163 206.937   1
   0   2  -7 191.049 172.817  11
   0  -2   7 782.655 241.373   8
   0  -2   7 904.172 321.247  15
   0   2  -7 493.442 214.020  14
   0   2  -7 782.152 198.223   6
   0  -2   7 713.868 287.675  13
   0   2  -7 671.544 235.699  13
   0   2  -7 529.564 264.972  15
   0  -2   6 1021.27 306.838  13
   0   2  -6 978.013 335.414   9
   0   2  -6 1184.40 345.531   2
   0  -2   6 1240.79 394.657  15
   0   2  -6 785.195 227.267  14
   0   2  -6 1243.89 286.404   5
   0   2  -6 752.608 209.889  11
   0   2  -6 999.564 205.718   8
   0  -2   6 1140.28 385.409   9
   0   2  -6 1173.28 244.453   1
   0  -2   6 898.184 247.616   8
   0   2  -6 947.666 244.708  13
   0   2  -6 925.794 225.952   6
   0  -2   6 919.128 292.910   5
   0   2  -6 1969.43 358.872  10
   0  -2   6 1139.11 271.274  10
   0   2  -6 1256.95 352.762  15
   0  -2   6 1163.66 232.965   1
   0   2  -5 23895.1 794.976   8
   0   2  -5 24394.9 838.841  11
   0   2  -5 26308.7 1102.29  10
   0  -2   5 25307.3 1098.50  10
   0  -2   5 24886.6 1297.51   9
   0  -2   5 23189.8 1072.67  13
   0   2  -5 23345.8 1030.96  14
   0   2  -5 25514.5 858.429   1
   0   2  -5 25768.0 1066.04   5
   0   2  -5 26853.1 1073.70  13
   0   2  -5 23896.8 956.648   6
   0  -2   5 23726.8 1041.43   5
   0   2  -5 28865.8 1224.20   2
   0  -2   5 23957.6 1241.17  15
   0  -2   5 24900.4 868.890   1
   0  -2   5 24849.6 987.879   8
   0  -2   4 8552.31 575.731   5
   0   2  -4 8136.30 453.783   1
   0   2  -4 8674.81 573.713   5
   0  -2   4 9127.86 720.569   9
   0  -2   4 8474.52 687.057  15
   0   2  -4 8579.87 538.420  14
   0  -2   4 7998.55 597.662  10
   0  -2   4 8702.21 625.346  13
   0   2  -4 8505.59 436.094  11
   0   2  -4 8148.93 673.195   9
   0   2  -4 8207.10 444.965   8
   0  -2   4 8052.55 439.360   1
   0   2  -4 9397.23 604.465  13
   0   2  -4 8552.89 616.535  10
   0   2  -4 8613.29 639.103   2
   0  -2   4 8623.42 528.596   8
   0  -2   3 18584.2 882.202   9
   0  -2   3 18169.2 667.868   8
   0   2  -3 17149.0 716.800   5
   0   2  -3 18640.3 550.603  11
   0  -2   3 18259.8 894.854  15
   0  -2   3 17641.6 799.579  13
   0   2  -3 18478.6 883.520   9
   0   2  -3 18752.2 787.708   2
   0   2  -3 17379.0 606.383   8
   0  -2   3 15931.3 589.235  11
   0  -2   3 17953.3 825.064  10
   0  -2   3 18430.7 587.208   1
   0   2  -3 17418.9 607.050  14
   0  -2   2 963741. 5597.43  15
   0   2  -2 914353. 4642.30   2
   0  -2   2 986927. 5548.08   9
   0  -2   2 945789. 3405.21  14
   0  -2   2 960044. 5212.18  13
   0  -2   1 9415.51 474.388  13
   0   2  -1 9132.42 440.226   2
   0  -2   1 9899.68 503.239  15
   0   2  -1 9274.28 275.054   3
   0  -2   1 10107.2 270.407  14
   0  -2   1 9058.20 524.775  10
   0  -2   1 9535.96 232.648   3
   0  -2   0 21256.0 561.290  15
   0   2   0 19885.5 517.489  15
   0  -2   0 19376.9 553.029   3
   0  -2   0 20413.5 740.083  10
   0   2   0 20539.5 571.749   3
   0  -2  -1 21023.5 771.045   1
   0   2   1 20570.7 812.057  12
   0   2   1 20875.3 777.175   2
   0   2   1 21697.0 745.914   7
   0  -2  -1 20630.0 762.761   3
   0   2   1 21301.9 724.473  10
   0  -2  -2 148261. 2228.26   1
   0   2   2 145265. 1863.09  10
   0   2   2 142753. 2197.45   7
   0  -2  -2 145089. 2129.77   7
   0  -2  -2 144548. 2406.99   3
   0   2   2 143604. 2255.80  12
   0   2   3 12098.0 742.999   7
   0   2   3 10601.2 343.660  15
   0  -2  -3 11671.4 704.996  12
   0   2   3 11092.7 711.659   9
   0  -2  -3 11736.5 706.055   1
   0   2   3 11180.9 682.147  12
   0  -2  -3 12382.0 727.436   7
   0   2   4 77241.0 2056.07   7
   0  -2  -4 75895.3 2027.23   7
   0  -2  -4 76097.6 1967.38   5
   0   2   4 78496.8 1874.88  12
   0   2   4 75859.7 1238.34  15
   0  -2  -4 75869.6 1869.50   1
   0  -2  -4 76405.3 1909.14  12
   0   2   4 75860.6 2055.03   9
   0  -2  -4 73720.1 1227.24  13
   0   2   4 76510.9 1334.46   6
   0  -2  -5 1100.29 313.026   1
   0   2   5 978.242 171.041   6
   0   2   5 1095.50 189.251  15
   0  -2  -5 930.095 162.250  13
   0  -2  -5 797.627 236.582  12
   0  -2  -5 744.708 251.819   7
   0   2   5 1171.36 318.246  12
   0  -2  -5 786.591 256.397   5
   0   2   5 1005.61 342.404   9
   0   2   5 879.838 311.768   7
   0   2   6 11010.6 887.848   1
   0   2   6 11538.5 846.106  12
   0  -2  -6 10354.4 935.100   7
   0   2   6 12235.5 1043.58   9
   0   2   6 12204.6 1008.29   7
   0   2   6 11775.0 699.191  15
   0  -2  -6 11462.6 866.308   1
   0   2   6 11423.5 531.374   6
   0  -2  -6 12267.1 883.735  12
   0  -2  -6 10952.3 508.695  13
   0  -2  -6 11331.5 888.803   5
   0  -2  -7-78.9685 102.934  13
   0  -2  -7-133.464 159.796   7
   0  -2  -7-166.154 169.319  12
   0   2   7 144.518 127.282  15
   0   2   7 90.7261 362.249   9
   0   2   7-5.30735 43.4573   6
   0  -2  -7-106.292 228.559   1
   0  -2  -7-84.0632 155.951   5
   0   2   7 36.1719 148.512   1
   0   2   7 97.4836 111.071  10
   0   2   8 11961.0 473.527   6
   0   2   8 12132.8 721.393  10
   0  -2  -8 12548.0 1014.25   1
   0   2   8 13458.7 1282.63   9
   0  -2  -8 11153.6 950.043  12
   0  -2  -8 12665.4 594.540  13
   0  -2  -8 11817.6 1163.83   7
   0  -2  -8 13494.8 991.022   8
   0   2   8 12019.4 901.901  15
   0   2   9 7969.22 608.956  10
   0  -2  -9 6776.96 718.297   8
   0   2   9 8075.53 1118.12   9
   0   2   9 8315.58 811.010  15
   0  -2  -9 7418.32 467.057  13
   0  -2  -9 7135.74 818.546  12
   0  -2  -9 8601.15 899.563   1
   0   2  10 1494.56 510.921   9
   0   2  10 1138.96 415.412  15
   0  -2 -10 1563.89 467.856   1
   0  -2 -11 764.541 395.072   1
   0   2  11 601.392 485.862   9
   0   2  11 686.845 329.583  15
   0  -2 -12 496.108 405.278   1
   0   2  12-25.7444 231.868   9
   0   3 -13-4.34194 224.765   1
   0  -3  13-19.6117 260.926  15
   0  -3  13 323.784 278.339   5
   0   3 -12-225.461 218.281   1
   0  -3  12 217.230 310.722   9
   0  -3  12-121.003 255.394  13
   0  -3  12-470.531 392.633  15
   0  -3  12-66.0638 205.257   5
   0   3 -12 650.256 418.183   2
   0  -3  11 703.635 378.260  13
   0   3 -11 561.132 241.069  11
   0  -3  11 817.981 539.102   9
   0   3 -11 401.243 207.367   1
   0  -3  11 876.653 451.065  15
   0  -3  11-328.396 357.600   5
   0   3 -11 598.262 367.911   2
   0   3 -10 591.809 219.292   6
   0  -3  10 448.304 208.556   1
   0   3 -10 579.618 318.188  14
   0  -3  10 632.206 266.100   8
   0  -3  10 1261.58 332.859  10
   0   3 -10 857.806 382.607  10
   0  -3  10 815.157 440.964   9
   0  -3  10 381.155 458.154  15
   0  -3  10 680.948 346.057   5
   0   3 -10 781.879 289.442   1
   0  -3  10 858.281 368.635  13
   0   3 -10 757.835 235.761  11
   0   3 -10 637.938 204.702   8
   0   3 -10 1281.95 487.050   2
   0   3  -9 99.9938 125.285   6
   0   3  -9 73.0906 165.396  11
   0  -3   9 117.311 214.234   8
   0  -3   9-308.047 373.684   5
   0  -3   9 259.441 271.682  15
   0   3  -9 177.666 166.522   8
   0   3  -9 362.099 359.412   2
   0  -3   9-205.145 238.216   9
   0  -3   9 153.120 203.429  13
   0   3  -9-79.9625 209.577  14
   0  -3   9 137.697 183.600   1
   0   3  -9 331.134 245.791   1
   0  -3   9-196.601 200.151  10
   0   3  -9 219.475 233.729  10
   0  -3   8 11055.0 1147.56  15
   0  -3   8 9400.12 917.180  13
   0  -3   8 11327.4 937.639   8
   0   3  -8 11236.1 922.490   5
   0  -3   8 11330.8 978.444   5
   0   3  -8 10102.0 658.880   8
   0   3  -8 11378.1 959.564  10
   0  -3   8 11089.6 1187.71   9
   0   3  -8 10846.6 763.976   1
   0   3  -8 11417.2 1036.43   2
   0  -3   8 10811.6 945.528  10
   0   3  -8 11697.9 695.438  11
   0   3  -8 9695.75 886.020  14
   0  -3   8 11245.9 773.089   1
   0   3  -8 11210.0 827.562   6
   0   3  -7 2916.36 445.179  13
   0   3  -7 2262.03 414.175   5
   0   3  -7 2044.44 436.795   2
   0  -3   7 1736.15 393.516   5
   0   3  -7 2297.80 454.970  10
   0   3  -7 1653.20 358.453  14
   0   3  -7 1910.83 362.318   6
   0   3  -7 2363.65 484.255   9
   0  -3   7 2107.24 425.245  10
   0  -3   7 2239.25 462.732  13
   0   3  -7 2346.54 306.841  11
   0   3  -7 1888.75 334.818   1
   0  -3   7 2366.66 404.486   8
   0  -3   7 2525.94 565.085   9
   0   3  -7 2055.91 295.728   8
   0   3  -7 2618.17 493.010  15
   0  -3   7 2389.36 545.409  15
   0  -3   7 2025.49 313.120   1
   0  -3   6 33949.8 1349.61   8
   0   3  -6 35426.0 1524.99   2
   0  -3   6 34264.8 1697.76  15
   0   3  -6 36176.4 1050.10  11
   0   3  -6 33862.4 1482.67  10
   0   3  -6 31798.4 1245.58  14
   0   3  -6 34583.8 1394.13  13
   0  -3   6 35904.6 1442.99   5
   0   3  -6 35349.9 1701.34   9
   0   3  -6 36526.4 1444.37   5
   0  -3   6 33588.9 1491.80  13
   0  -3   6 34186.5 1714.49   9
   0   3  -6 32315.2 1062.96   8
   0   3  -6 32295.6 1315.86   6
   0  -3   6 35260.1 1522.51  10
   0  -3   6 32664.0 1088.85   1
   0  -3   5 8744.78 734.915  13
   0   3  -5 7944.85 514.047   8
   0   3  -5 8105.21 555.699  14
   0   3  -5 8100.08 699.903   2
   0  -3   5 7192.18 472.882   1
   0  -3   5 7697.43 794.095  15
   0   3  -5 7166.14 418.586  11
   0   3  -5 7583.34 699.915  10
   0  -3   5 8030.61 782.560   9
   0  -3   5 7729.84 593.814   8
   0   3  -5 8271.45 667.284  13
   0   3  -5 7290.35 647.695   5
   0  -3   5 8238.46 718.301  10
   0  -3   5 6805.70 615.875   5
   0   3  -5 7987.45 764.600   9
   0   3  -4 22759.8 671.625  11
   0  -3   4 22362.6 1153.71   9
   0   3  -4 23102.1 1138.47  10
   0  -3   4 22677.3 978.579   5
   0  -3   4 26446.1 1209.73  10
   0   3  -4 22697.9 1169.56   9
   0   3  -4 24498.5 1062.60   2
   0   3  -4 23484.8 1019.58   5
   0  -3   4 21656.6 1077.58  13
   0   3  -4 21433.2 726.683  14
   0  -3   4 23483.0 1221.35  15
   0  -3   4 21472.3 821.362  11
   0  -3   4 22591.8 919.121   8
   0  -3   4 22763.0 779.201   1
   0   3  -3 42274.2 1450.96   9
   0  -3   3 40030.6 1207.07   5
   0  -3   3 42427.5 1070.08  11
   0  -3   3 42238.0 1452.08  10
   0   3  -3 40697.0 1228.83   2
   0  -3   3 40927.4 1357.20  13
   0  -3   3 39755.1 845.381  14
   0  -3   3 41875.3 1468.43  15
   0   3  -3 37497.8 1214.22   5
   0   3  -3 40589.7 734.157   3
   0  -3   3 38814.0 1078.82   8
   0   3  -3 38112.2 702.036  14
   0  -3   2 89510.5 1560.23   8
   0  -3   2 86299.9 1065.59  14
   0  -3   2 92374.4 2045.78  10
   0   3  -2 88647.2 1040.59   3
   0   3  -2 96391.9 1990.82   9
   0  -3   2 94976.5 1894.06  13
   0  -3   2 91516.2 1960.35  15
   0  -3   2 87338.1 1338.69  11
   0   3  -2 90316.4 1728.46   2
   0   3  -2 93027.2 1853.35  15
   0  -3   1 45656.6 1398.46  10
   0  -3   1 45880.2 1229.48  13
   0  -3   1 45061.5 1198.23  15
   0   3  -1 42504.1 1102.19  15
   0   3  -1 44207.2 821.083   3
   0   3  -1 45791.0 1174.95   2
   0  -3   1 41802.4 662.063   3
   0  -3   0 58672.6 1147.79   3
   0   3   0 61563.8 1197.06   3
   0  -3   0 60161.5 1288.43  13
   0   3   0 59910.7 1390.10   2
   0  -3   0 59004.8 1157.66  15
   0   3   0 56889.8 1054.99  15
   0  -3   0 60319.6 1566.11  10
   0   3   1 3319.63 370.003  10
   0  -3  -1 3408.64 377.436  10
   0  -3  -1 3304.47 379.718   1
   0   3   1 3329.26 370.667   7
   0  -3  -1 3308.80 223.263  15
   0   3   1 3855.83 427.851   2
   0   3   1 3645.67 449.135  12
   0  -3  -1 2993.25 347.587   3
   0   3   2 3195.55 367.013  10
   0   3   2 3253.35 407.047   7
   0  -3  -2 3493.46 435.830   1
   0  -3  -2 2925.79 379.605   3
   0   3   2 3267.60 430.084  12
   0   3   2 3420.76 459.398   2
   0  -3  -2 3301.36 362.659   7
   0  -3  -3 12912.8 845.687  12
   0  -3  -3 12038.1 811.084   1
   0   3   3 10971.8 640.762  10
   0   3   3 11360.5 791.293   7
   0   3   3 11663.4 815.942  12
   0  -3  -3 13124.4 790.167   7
   0  -3  -3 11923.5 868.636   3
   0  -3  -4 209.590 178.455   1
   0   3   4 83.3078 127.015   6
   0   3   4 102.481 215.203   7
   0   3   4 482.798 160.795  10
   0  -3  -4 413.914 185.330   3
   0  -3  -4 212.808 181.587  12
   0   3   4 401.897 255.122   9
   0   3   4 468.326 222.798  12
   0  -3  -4 135.994 138.885   7
   0  -3  -5 2639.54 461.516  12
   0   3   5 3168.51 528.805   7
   0   3   5 2412.01 477.919   9
   0  -3  -5 2442.83 468.836   2
   0  -3  -5 2730.06 528.030   3
   0  -3  -5 2433.52 264.066  13
   0  -3  -5 3056.20 472.042   7
   0   3   5 2512.01 443.019  12
   0   3   5 2838.92 334.400   6
   0  -3  -5 2625.16 464.505   5
   0  -3  -5 2502.56 444.664   1
   0  -3  -6 693.845 334.916   2
   0  -3  -6 636.228 147.339  13
   0  -3  -6 907.569 388.168   1
   0   3   6 580.013 223.128   1
   0   3   6 557.023 182.810   6
   0  -3  -6 437.302 250.066   5
   0  -3  -6 859.192 361.862   3
   0   3   6 607.738 141.202  15
   0   3   6 869.226 349.171  12
   0   3   6 797.761 399.010   7
   0   3   6 157.182 356.676   9
   0  -3  -6 526.730 269.098  12
   0  -3  -6 653.919 258.369   7
   0   3   7 358.346 189.803  15
   0   3   7 259.236 335.960   7
   0   3   7 317.743 393.864   9
   0   3   7 456.201 329.414  12
   0  -3  -7 383.354 296.412  12
   0  -3  -7 246.873 112.038  13
   0  -3  -7 67.4622 349.810   1
   0   3   7 281.587 159.147   6
   0  -3  -7 346.317 284.773   7
   0   3   8 893.202 234.250  10
   0   3   8 1183.64 542.811   9
   0   3   8 1037.28 260.898  15
   0  -3  -8 992.084 420.992  12
   0  -3  -8 995.302 161.810  13
   0   3   8 1381.53 226.857   6
   0   3   8 1209.24 405.650  12
   0  -3  -8 973.778 376.609   1
   0  -3  -9 5108.01 691.255   8
   0   3   9 4862.49 573.453  15
   0  -3  -9 5165.45 721.273   1
   0   3   9 5444.18 935.745   9
   0   3   9 4432.63 289.153   6
   0   3   9 5089.34 493.313  10
   0  -3 -10 238.644 344.171   1
   0   3  10 84.3909 103.501  15
   0  -3 -11 164.977 235.218   1
   0   3  11 105.435 189.822   9
   0   3  12 482.863 390.162   9
   0  -3 -12 283.291 249.764   1
   0  -4  13-66.2763 155.574   5
   0  -4  13 975.618 400.843  13
   0   4 -12 235.528 349.070  10
   0  -4  12-430.160 419.902  15
   0  -4  12 367.484 267.617   9
   0  -4  12 442.017 260.315  13
   0  -4  12 526.095 357.687   5
   0   4 -12 296.045 291.654   2
   0   4 -11 2069.59 560.630  10
   0  -4  11 2680.39 801.914  15
   0  -4  11 2777.41 517.050   8
   0  -4  11 2224.79 662.780  13
   0  -4  11 3517.57 868.956   9
   0   4 -11 2228.20 571.551   2
   0  -4  11 2681.41 628.423   5
   0  -4  10 833.716 237.409   1
   0  -4  10 1500.13 533.411  13
   0  -4  10 1187.16 413.387   5
   0  -4  10 1524.54 489.706   9
   0   4 -10 1192.68 499.450   2
   0   4 -10 1033.60 325.485  14
   0   4 -10 1326.87 320.666   6
   0  -4  10 767.164 353.648   8
   0   4 -10 1429.19 273.551  11
   0   4 -10 1719.11 514.674  10
   0  -4  10 137.339 354.481  15
   0   4  -9 168.566 372.822   2
   0  -4   9 283.828 256.140   5
   0  -4   9-146.658 351.015  15
   0  -4   9 446.814 276.297   8
   0   4  -9 69.3179 140.821  11
   0   4  -9-202.405 160.548   6
   0   4  -9-179.466 277.429  10
   0  -4   9 335.403 148.796   1
   0  -4   9-219.646 308.105  13
   0   4  -9 33.7797 180.344  14
   0  -4   9-338.013 303.998   9
   0   4  -8 4725.10 410.161  11
   0  -4   8 5320.70 733.815  10
   0  -4   8 4797.11 776.398  15
   0   4  -8 4548.02 615.952   6
   0  -4   8 4455.40 648.084   8
   0  -4   8 4635.61 669.306   5
   0  -4   8 4781.22 736.794  13
   0  -4   8 4210.06 803.006   9
   0   4  -8 4998.81 729.531  10
   0   4  -8 4762.57 714.232   2
   0  -4   8 4132.49 475.867   1
   0   4  -8 4740.37 569.678  14
   0   4  -7 3229.51 530.221   5
   0   4  -7 2538.43 491.326   2
   0  -4   7 2681.97 464.274   8
   0   4  -7 2873.45 308.825  11
   0  -4   7 3018.70 365.342   1
   0  -4   7 2823.87 603.552  15
   0  -4   7 2174.51 552.461   9
   0  -4   7 2738.24 496.225   5
   0  -4   7 2496.57 522.138  13
   0   4  -7 3033.93 567.164   9
   0   4  -7 2559.98 385.393  14
   0   4  -7 2926.02 482.190   6
   0  -4   7 2828.44 506.372  10
   0   4  -7 2715.30 518.687  10
   0  -4   6 320.322 410.568  15
   0   4  -6 326.628 230.924   2
   0   4  -6 414.945 123.334  14
   0  -4   6 235.319 176.703   8
   0   4  -6 218.723 273.526  10
   0   4  -6 367.605 215.144   9
   0  -4   6 433.297 149.695   1
   0  -4   6 300.533 268.028   9
   0   4  -6 368.547 259.039  15
   0  -4   6 437.540 190.324  10
   0  -4   6 228.976 216.034  13
   0   4  -6 325.128 177.766   5
   0  -4   6 177.022 240.958   5
   0  -4   5 3638.86 556.019  13
   0  -4   5 4263.35 400.016   1
   0  -4   5 4368.09 432.643  11
   0   4  -5 3689.77 564.358  10
   0   4  -5 3931.57 322.231   3
   0  -4   5 3551.91 593.433  15
   0   4  -5 3942.24 553.087   2
   0  -4   5 4314.49 523.711   5
   0   4  -5 3303.83 537.005   9
   0  -4   5 3769.79 538.566  10
   0  -4   5 3575.35 443.555   8
   0   4  -5 5040.23 347.099  14
   0   4  -5 3229.32 472.863   5
   0   4  -4 206019. 3718.14   9
   0  -4   4 203008. 3696.83  10
   0   4  -4 185655. 3206.54   5
   0   4  -4 200588. 3678.59  10
   0  -4   4 202155. 3280.27   2
   0  -4   4 188468. 2833.56   8
   0  -4   4 199233. 3748.36  15
   0  -4   4 204747. 2754.78  11
   0   4  -4 198618. 3150.97   2
   0   4  -4 199670. 3504.04  15
   0  -4   4 196088. 3467.50  13
   0  -4   4 189829. 2435.85   1
   0   4  -4 194280. 1926.26   3
   0  -4   4 197102. 3084.74   5
   0   4  -4 190399. 1589.63  14
   0  -4   3 2209.23 412.151  10
   0   4  -3 2053.63 393.573   2
   0  -4   3 2039.20 354.997   5
   0  -4   3 1948.49 205.180  14
   0   4  -3 1901.72 348.268   9
   0   4  -3 1963.34 208.326   3
   0  -4   3 2321.00 450.183  15
   0  -4   3 2061.50 359.807   8
   0  -4   3 2315.80 459.213  13
   0   4  -3 1788.49 352.155  15
   0  -4   3 2300.96 295.650  11
   0  -4   2 4799.63 298.962  14
   0  -4   2 5383.29 558.150  15
   0   4  -2 4704.14 292.594   3
   0  -4   2 5507.05 582.018  13
   0  -4   2 5512.44 480.103   8
   0  -4   2 4932.23 514.952   5
   0   4  -2 5513.96 513.999   2
   0  -4   2 4756.48 574.699  10
   0   4  -2 4715.68 468.284  15
   0  -4   1 14275.6 782.266  15
   0  -4   1 14960.6 945.957  10
   0   4  -1 14752.9 711.175  15
   0  -4   1 14054.0 468.447   3
   0  -4   1 14714.8 816.276  13
   0   4  -1 13847.1 772.988   2
   0   4  -1 13940.0 560.066   3
   0  -4   0 8933.54 614.777  13
   0  -4   0 7769.53 505.890  15
   0   4   0 8963.73 714.302  10
   0  -4   0 8227.31 491.777   3
   0   4   0 9667.13 683.555   2
   0  -4   0 8824.12 708.655  10
   0   4   1 16181.5 921.836  10
   0  -4  -1 17184.6 857.990   3
   0   4   1 17264.9 1038.78  12
   0   4   1 18571.3 998.554   2
   0  -4  -1 16770.9 600.962  15
   0  -4  -1 17493.7 965.767   1
   0   4   1 16989.7 903.179   7
   0  -4  -1 17577.4 986.469  10
   0  -4  -2 93216.4 2292.50   1
   0   4   2 84772.4 2064.71  10
   0   4   2 90533.3 2177.64   7
   0  -4  -2 93428.8 2153.97   2
   0  -4  -2 86591.2 2211.93   3
   0   4   2 89410.9 2411.82  12
   0   4   2 92174.4 2411.94   2
   0  -4  -3 2052.24 336.832   7
   0   4   3 1758.46 369.371   7
   0  -4  -3 1822.75 375.116   2
   0   4   3 1700.60 415.170  12
   0  -4  -3 1320.69 329.481   3
   0   4   3 1388.84 451.705   2
   0   4   3 1519.97 308.153  10
   0  -4  -3 1596.03 417.854   1
   0  -4  -4 23234.0 1292.58   2
   0   4   4 21187.7 1230.17   9
   0   4   4 19561.7 1193.74   7
   0  -4  -4 20476.9 1131.53   7
   0  -4  -4 22436.7 1254.34   1
   0   4   4 20783.3 1027.53  10
   0   4   4 22069.8 1274.47  12
   0  -4  -4 21603.6 1368.18   3
   0   4   5 1780.68 433.905   7
   0   4   5 1710.41 336.863  10
   0   4   5 1551.53 460.491  12
   0   4   5 1987.81 514.921   9
   0  -4  -5 2445.95 503.486   3
   0  -4  -5 1683.48 464.245   1
   0  -4  -5 1394.50 359.772   7
   0   4   5 2266.20 370.981   6
   0   4   5 2103.32 423.349   1
   0  -4  -5 2284.13 465.172   2
   0   4   6 3042.33 580.609  12
   0   4   6 2429.73 545.544   9
   0  -4  -6 2280.32 265.945  13
   0   4   6 2546.55 388.459  10
   0  -4  -6 2837.33 584.526   1
   0  -4  -6 2585.96 578.643   3
   0   4   6 3220.68 413.700   6
   0   4   6 2900.90 610.677   7
   0  -4  -6 3105.94 542.096   7
   0   4   7 4510.55 519.092  10
   0   4   7 4423.07 461.058   6
   0  -4  -7 4402.86 318.951  13
   0   4   7 5520.38 835.274   9
   0  -4  -7 4635.58 714.233   1
   0  -4  -7 5499.83 789.583  12
   0   4   7 5258.74 758.502  12
   0  -4  -7 3918.59 650.566   7
   0   4   7 4736.70 780.776   7
   0   4   8 121.319 321.667   9
   0   4   8 379.445 295.174   7
   0   4   8 84.5048 122.576   6
   0  -4  -8-36.6313 315.479   1
   0   4   8 103.528 67.8464  10
   0   4   8-89.3273 269.654  12
   0   4   9 857.110 425.643   9
   0  -4  -9 1286.33 451.789   1
   0   4   9 448.205 368.557  12
   0   4   9 692.445 201.968  10
   0   4  10 1137.91 601.186   9
   0  -4 -10 449.627 306.890   1
   0  -4 -11 3739.74 790.119   1
   0   4  11 2789.95 845.542   9
   0  -5  13-195.291 463.768   5
   0  -5  13 1466.46 535.159  13
   0   5 -12 232.172 195.322   2
   0   5 -12-400.445 285.938  10
   0  -5  12 117.873 201.532  13
   0  -5  12 226.062 330.721   9
   0  -5  12 728.910 367.659   5
   0  -5  12 119.683 219.931  15
   0   5 -11 168.562 200.138   2
   0  -5  11 124.865 234.819  13
   0  -5  11 2.70176 217.382   8
   0  -5  11 302.969 259.059  15
   0  -5  11 650.725 375.038   9
   0  -5  11 418.215 301.233   5
   0   5 -11 81.9884 237.001  10
   0  -5  10 411.708 224.500   8
   0   5 -10 500.849 399.072   2
   0  -5  10 29.2740 282.542  13
   0  -5  10 1300.03 512.470  15
   0  -5  10 424.155 433.491   9
   0  -5  10 446.829 365.319   5
   0   5 -10 329.766 353.155  10
   0  -5   9 1165.11 400.132   5
   0   5  -9 1166.29 410.827   2
   0   5  -9 1370.97 300.518  14
   0   5  -9 913.125 389.988  10
   0  -5   9 1031.00 382.206   8
   0  -5   9 1710.06 552.100  13
   0  -5   9 1152.61 491.415  15
   0  -5   9 1598.23 596.798   9
   0  -5   9 834.270 245.446   1
   0  -5   8 20471.9 1364.41   8
   0  -5   8 20788.7 1383.96   5
   0  -5   8 20834.7 1517.97  13
   0   5  -8 21753.7 1465.90   2
   0   5  -8 19663.0 1361.80   6
   0  -5   8 18557.5 1553.96   9
   0   5  -8 20742.4 1506.03  10
   0  -5   8 18094.1 963.451   1
   0  -5   8 18794.7 1610.54  15
   0   5  -8 20375.1 961.565  14
   0   5  -7 142.290 202.463   6
   0   5  -7-210.739 238.294   9
   0  -5   7 439.285 237.216   8
   0   5  -7-25.6230 286.097  10
   0  -5   7 428.874 411.253  15
   0  -5   7-119.529 309.742   5
   0   5  -7 276.114 151.239  14
   0   5  -7 255.522 173.045   3
   0   5  -7 639.885 379.879   2
   0  -5   7 196.573 300.738  13
   0  -5   7 167.831 148.772   1
   0  -5   6 12588.4 1175.31  15
   0  -5   6 12078.1 954.509   5
   0   5  -6 12517.8 609.936   3
   0   5  -6 12654.3 996.559   2
   0  -5   6 11579.9 783.376  11
   0   5  -6 13933.3 1166.90  10
   0   5  -6 11130.9 1048.70   9
   0  -5   6 11895.0 697.362   1
   0   5  -6 11740.4 493.029  14
   0  -5   6 11830.0 1071.07  10
   0  -5   6 12197.2 1049.46  13
   0  -5   6 12924.0 918.426   8
   0   5  -6 12498.5 1017.71   5
   0  -5   5 1950.84 469.937  13
   0   5  -5 2047.02 454.413   2
   0  -5   5 1920.47 328.826  11
   0  -5   5 2003.60 414.538   8
   0   5  -5 1739.31 398.767   9
   0   5  -5 1920.36 256.796   3
   0   5  -5 2153.40 511.530  10
   0   5  -5 2266.69 442.320  15
   0  -5   5 1666.82 363.418   5
   0  -5   5 1807.68 390.995   2
   0  -5   5 2310.80 543.918  15
   0  -5   5 1915.49 293.557   1
   0  -5   5 2146.11 480.975  10
   0  -5   4 20348.4 1322.37  15
   0  -5   4 22696.0 1184.91   2
   0  -5   4 21582.7 1295.79  13
   0   5  -4 20678.8 1333.56  10
   0  -5   4 19007.2 1007.87   8
   0  -5   4 17418.9 596.111  14
   0   5  -4 19549.4 673.398   3
   0  -5   4 19818.9 1099.58   5
   0   5  -4 20004.7 1122.38   2
   0  -5   4 22193.9 1005.51  11
   0   5  -4 22328.3 1308.07   9
   0   5  -4 20654.0 1193.75  15
   0  -5   4 20214.2 1305.62  10
   0  -5   3 47686.3 1515.84   8
   0  -5   3 50535.1 1984.16  10
   0   5  -3 45530.0 958.747   3
   0  -5   3 46799.1 1608.60   2
   0  -5   3 48202.5 1804.18  13
   0  -5   3 43712.5 971.195  14
   0   5  -3 47691.3 1693.08  15
   0  -5   3 49392.7 1354.19  11
   0  -5   3 44047.6 1785.85  15
   0   5  -3 47022.2 1776.26   9
   0   5  -3 46840.5 1611.82   2
   0  -5   3 46353.0 1650.67   5
   0   5  -2 22449.5 1062.24  15
   0  -5   2 21670.1 464.612   3
   0   5  -2 23853.9 1143.59   2
   0  -5   2 24044.4 1227.61   5
   0   5  -2 22117.2 694.033   3
   0  -5   2 22793.1 1325.18  10
   0  -5   2 23441.1 1064.23   8
   0  -5   2 22769.5 719.504  14
   0  -5   2 23682.9 1218.80  13
   0  -5   2 25645.3 1172.09   2
   0  -5   2 23226.7 1190.42  15
   0   5  -1 8068.58 687.631   2
   0  -5   1 8334.14 713.953  13
   0   5  -1 7552.96 463.133   3
   0  -5   1 7965.50 403.201   3
   0  -5   1 8239.40 798.579  10
   0  -5   1 8104.11 666.241  15
   0  -5   1 7509.66 650.006   2
   0  -5   0 7236.48 657.221   1
   0   5   0 7481.75 767.793  12
   0  -5   0 5846.09 306.888   4
   0  -5   0 6540.75 595.579   2
   0  -5   0 6563.25 596.101  13
   0   5   0 4975.90 616.014  10
   0   5   0 7203.29 665.282   2
   0  -5   0 6707.99 709.886  10
   0  -5   0 6096.97 517.495  15
   0  -5   0 6052.05 459.186   3
   0  -5  -1 787.945 181.035  15
   0   5   1 882.976 346.164  12
   0  -5  -1 568.800 286.566   1
   0   5   1 515.820 276.464  10
   0  -5  -1 627.157 219.600   3
   0   5   1 644.300 269.544   7
   0  -5  -1 678.537 253.563   2
   0   5   1 1037.05 334.428   2
   0  -5  -1 652.456 249.944  13
   0  -5  -2 255.117 173.380   3
   0  -5  -2 273.740 218.715  13
   0   5   2 90.1361 272.261   2
   0   5   2 101.137 236.700  10
   0  -5  -2 331.592 188.407   2
   0   5   2 706.512 275.958   7
   0   5   2 498.766 331.642  12
   0  -5  -2 361.536 300.143   1
   0   5   3 127.025 188.903  10
   0  -5  -3-200.725 203.444   3
   0   5   3-112.217 267.783   7
   0  -5  -3 5.20307 226.039   1
   0   5   3-20.5820 248.906  12
   0   5   3-88.2699 227.301   2
   0  -5  -3 37.8429 183.701   2
   0  -5  -4 518.841 346.813   1
   0  -5  -4 774.392 281.913   2
   0   5   4 1138.56 314.060   7
   0  -5  -4 823.180 336.213   3
   0   5   4 588.365 322.844  12
   0   5   4 314.783 246.114  10
   0   5   4 744.974 340.615   9
   0   5   5 5.81983 205.164  10
   0  -5  -5-40.3659 342.323   1
   0   5   5-31.8649 283.962   9
   0  -5  -5 149.523 164.663   3
   0   5   5 193.045 274.599  12
   0   5   5-28.0574 259.278   7
   0  -5  -5-268.325 204.180   7
   0   5   5-111.806 238.838   6
   0  -5  -6 560.420 375.649   1
   0   5   6 318.084 305.623   7
   0   5   6 77.9982 353.542   9
   0   5   6 239.279 393.008  12
   0  -5  -6 663.422 279.893   7
   0   5   6 412.490 284.220   6
   0   5   6 426.614 233.900  10
   0   5   7 12172.8 895.269  10
   0   5   7 10791.8 1180.62   7
   0  -5  -7 11335.6 1152.77   1
   0   5   7 11079.9 1232.76   9
   0   5   7 11733.2 1174.04  12
   0  -5  -7 10297.4 508.848  13
   0   5   7 11774.5 840.544   6
   0  -5  -7 10311.2 442.670  13
   0   5   8 541.630 359.829  12
   0  -5  -8 401.365 386.563   1
   0   5   8 513.067 294.897   7
   0   5   8 194.928 340.822   9
   0   5   8 263.184 176.960  10
   0   5   8 503.863 216.361   6
   0  -5  -9 539.300 410.780   1
   0   5   9-274.222 332.570   9
   0   5   9 685.216 403.456   7
   0   5   9 374.340 390.842  12
   0   5  10 407.180 307.097   9
   0  -5 -10 74.9842 310.658   1
   0   5  11 492.668 470.111   9
   0  -6  12 1442.17 534.778   5
   0  -6  12 1664.59 649.327  13
   0   6 -12 1995.13 558.354  10
   0  -6  11 308.750 268.603   5
   0   6 -11 376.080 216.660   3
   0  -6  11 389.137 413.600  15
   0   6 -11 62.7402 352.998   2
   0  -6  11 563.071 344.383  13
   0   6 -11 749.796 446.327  10
   0  -6  11 619.130 296.450   8
   0  -6  10 692.282 432.513  15
   0  -6  10 401.850 449.980  13
   0   6 -10 584.110 252.663   3
   0   6 -10 413.594 426.467  10
   0  -6  10 160.087 248.848   5
   0  -6  10 444.313 251.363   8
   0   6 -10 1131.32 507.444   2
   0  -6   9 2510.18 670.344  13
   0  -6   9 3721.35 882.183  15
   0   6  -9 2897.20 408.831   3
   0  -6   9 2886.68 621.335   5
   0  -6   9 3357.13 632.043   8
   0   6  -9 3087.50 681.667  10
   0   6  -9 2219.26 562.535   2
   0   6  -8 271.385 82.6667  14
   0  -6   8 951.665 389.899  13
   0  -6   8-9.57924 78.9579   1
   0   6  -8 173.159 172.678   3
   0  -6   8-396.258 534.286  15
   0  -6   8-16.4379 216.155   8
   0   6  -8 343.064 350.585  10
   0  -6   8 135.912 202.556   5
   0   6  -8 191.669 272.186   2
   0   6  -7 293.810 359.048  10
   0  -6   7 317.914 368.590  13
   0  -6   7 49.9879 170.484   1
   0  -6   7 49.9473 357.596  15
   0  -6   7 162.091 270.208   8
   0  -6   7 371.317 343.792   5
   0   6  -7 128.076 183.800   3
   0   6  -7 167.049 279.589   2
   0  -6   7 218.956 199.226  11
   0   6  -6 11968.7 634.055   3
   0  -6   6 10683.6 1199.62  15
   0  -6   6 12377.2 1013.36   5
   0  -6   6 12683.8 1161.61  13
   0  -6   6 12119.6 990.276   8
   0   6  -6 13355.6 1259.05  10
   0  -6   6 12248.7 870.337  11
   0   6  -6 11870.9 1041.98   2
   0   6  -6 12041.6 1141.19   9
   0  -6   6 12048.4 756.712   1
   0   6  -5 2423.91 575.595  10
   0   6  -5 2403.88 279.402   3
   0  -6   5 2334.61 600.559  13
   0   6  -5 2021.04 445.666   9
   0  -6   5 2222.36 618.803  15
   0   6  -5 2541.51 523.401   2
   0   6  -5 2248.94 467.424  15
   0  -6   5 2278.64 470.790   8
   0  -6   5 3035.71 434.302  11
   0  -6   5 2145.82 324.891   1
   0  -6   5 2883.47 509.676   5
   0  -6   4 1434.32 400.425   8
   0  -6   4 1813.81 342.398  11
   0  -6   4 1875.15 497.704  13
   0   6  -4 1637.65 220.549   3
   0  -6   4 1638.46 482.019  15
   0   6  -4 1514.03 412.236   9
   0  -6   4 1423.81 356.392   2
   0   6  -4 1495.29 349.826  15
   0  -6   4 1232.01 175.055  14
   0   6  -4 1355.73 432.017  10
   0   6  -4 2079.34 438.478   2
   0  -6   4 1576.19 384.834   5
   0  -6   3 8927.22 768.587   8
   0   6  -3 10008.0 817.431  15
   0  -6   3 9087.25 831.443   5
   0   6  -3 8086.37 404.728   3
   0  -6   3 9783.93 939.929  13
   0  -6   3 9042.38 789.426   2
   0  -6   3 8248.58 463.685  14
   0   6  -3 9095.16 843.978   9
   0  -6   3 9722.58 678.612  11
   0   6  -3 9520.46 822.952   2
   0  -6   3 8731.38 964.862  10
   0  -6   3 8375.97 878.529  15
   0   6  -3 8017.85 906.463  10
   0  -6   2 445.127 80.0706   3
   0   6  -2 380.423 130.903   3
   0   6  -2 237.712 267.352   2
   0   6  -2 513.667 309.818  10
   0  -6   2 476.061 168.291  14
   0  -6   2 128.475 254.993   5
   0  -6   2 461.575 294.225  10
   0  -6   2 540.121 295.086  15
   0  -6   2 408.363 254.618   2
   0  -6   2 617.481 338.735   8
   0  -6   2 162.260 321.601  13
   0   6  -1-270.577 302.838  10
   0  -6   1-336.372 247.877   2
   0   6  -1-54.1552 267.904   2
   0  -6   1 39.6235 81.3312   3
   0  -6   1-25.0793 201.095  10
   0  -6   1-14.0032 297.356  13
   0  -6   1-5.53873 207.953  15
   0  -6   0 19746.2 1337.13  10
   0  -6   0 20303.2 1155.23   2
   0   6   0 17831.1 1241.80  10
   0   6   0 21179.2 1247.97   2
   0  -6   0 19858.1 1137.13  13
   0   6   0 20208.2 1382.24  12
   0  -6   0 19065.0 1162.08   1
   0  -6   0 19271.9 994.432  15
   0  -6   0 20024.9 874.207   3
   0   6   1 1531.16 401.329  10
   0   6   1 1769.38 466.983   2
   0  -6  -1 1390.91 268.200  15
   0   6   1 1853.77 482.668  12
   0  -6  -1 1211.98 264.275   3
   0   6   1 1838.35 420.991   7
   0  -6  -1 1858.82 453.634   1
   0  -6  -1 1612.43 370.274  13
   0  -6  -1 1774.87 389.635   2
   0   6   2 28291.3 1672.35  12
   0  -6  -2 27377.8 1222.24  13
   0   6   2 25787.8 1572.39   2
   0   6   2 25985.9 1435.74  10
   0   6   2 26291.2 1440.08   7
   0  -6  -2 25031.9 1331.28   3
   0  -6  -2 28171.7 1519.36   1
   0  -6  -2 27318.0 1384.75   2
   0   6   3 503.703 317.509  12
   0   6   3 149.226 279.109  10
   0  -6  -3 157.596 168.123   3
   0  -6  -3 371.667 219.435  13
   0  -6  -3 93.0813 348.489   1
   0   6   3 470.312 288.752   7
   0   6   3 373.943 417.324   2
   0   6   4 1779.22 439.238  10
   0  -6  -4 1908.70 338.648  13
   0   6   4 1670.40 517.995  12
   0  -6  -4 1738.41 429.925   3
   0   6   4 1646.08 495.682   7
   0  -6  -4 2264.72 556.900   1
   0   6   5 2061.47 571.972  12
   0  -6  -5 3178.35 657.697   1
   0   6   5 2310.92 484.136  10
   0   6   5 2056.82 531.401   7
   0  -6  -5 2557.68 349.975  13
   0   6   5 2637.81 554.486   9
   0  -6  -6 65.5355 139.415  13
   0   6   6-34.5821 313.322  12
   0   6   6-301.534 286.000   9
   0  -6  -6 206.848 399.320   1
   0   6   6 329.353 265.489   6
   0   6   6 27.0550 270.724   7
   0   6   6-40.0091 163.083  10
   0  -6  -7 2064.44 580.103   1
   0   6   7 1526.37 547.363  12
   0   6   7 2330.71 605.681   7
   0   6   7 1637.53 403.194   6
   0   6   7 2245.99 420.472  10
   0   6   7 3034.57 647.069   9
   0   6   8 1649.29 570.745  12
   0   6   8 1759.26 339.922   6
   0   6   8 1398.88 551.776   9
   0  -6  -8 1593.89 609.496   1
   0   6   8 1338.51 546.274   7
   0  -6  -9 1412.37 548.203   1
   0   6   9 1729.37 661.096   7
   0   6   9 1979.63 621.680   9
   0   6   9 1804.69 524.246  12
   0   6  10 712.758 435.175   9
   0   6  10-91.4865 215.792  12
   0   7 -12-428.312 457.848  10
   0  -7  12-1278.91 454.102   5
   0  -7  11 430.707 318.242   5
   0  -7  11-241.851 453.755  13
   0   7 -11 489.325 505.251  10
   0  -7  11-310.138 299.768   8
   0   7 -10 1438.09 583.099   2
   0  -7  10 1552.37 565.825   8
   0  -7  10 1689.66 626.497  13
   0  -7  10 1891.59 487.407   5
   0   7 -10 644.063 449.938  10
   0  -7  10 1589.66 647.587  15
   0   7  -9 1280.03 529.071   2
   0   7  -9 1222.16 496.140  10
   0  -7   9 844.349 533.824  15
   0  -7   9 951.351 366.781   5
   0  -7   9 965.044 444.527  13
   0  -7   9 1774.31 503.958   8
   0   7  -8 1911.22 514.315   2
   0   7  -8 1298.90 546.732  10
   0   7  -8 1772.27 319.114   3
   0  -7   8 1943.04 518.209   8
   0  -7   8 1790.47 631.452  13
   0  -7   8 1548.29 630.603  15
   0  -7   8 1420.91 430.906   5
   0   7  -7-7.55310 151.560   3
   0  -7   7 55.7252 204.847   5
   0   7  -7-103.815 133.371   4
   0  -7   7 537.583 386.702  15
   0   7  -7 8.31448 257.705   2
   0   7  -7-29.5686 344.078  10
   0  -7   7 300.933 157.739  11
   0  -7   7 703.182 283.615   8
   0  -7   7-27.7934 69.7486   1
   0  -7   7-29.4918 288.795  13
   0  -7   6 11925.9 927.114  11
   0  -7   6 12938.2 1270.72  13
   0   7  -6 12057.1 1294.31  10
   0   7  -6 10634.6 539.593   4
   0  -7   6 11239.2 1031.17   5
   0   7  -6 11636.4 601.143   3
   0   7  -6 11642.3 1091.20   2
   0  -7   6 12928.4 1082.42   8
   0  -7   6 11326.7 1278.27  15
   0  -7   6 10770.3 763.756   1
   0  -7   5 7868.32 1007.68  13
   0   7  -5 7710.17 844.029   2
   0   7  -5 6850.35 872.318   9
   0   7  -5 7423.76 975.969  10
   0   7  -5 6045.92 373.557   3
   0  -7   5 7575.20 987.857  15
   0  -7   5 6824.61 801.935   5
   0  -7   5 8083.29 754.116  11
   0  -7   5 6737.17 784.028   8
   0  -7   4 7123.00 936.624  15
   0   7  -4 8709.56 1051.27  10
   0  -7   4 8564.85 740.665  11
   0  -7   4 8446.70 840.240   8
   0  -7   4 6310.00 369.502  14
   0   7  -4 6416.22 808.539   9
   0   7  -4 7020.61 815.981   2
   0  -7   4 8216.49 868.537   5
   0  -7   4 8174.02 987.296  13
   0  -7   3 6028.98 595.282  11
   0  -7   3 5463.48 757.938  15
   0   7  -3 5172.97 670.978   9
   0   7  -3 6010.49 747.379   2
   0   7  -3 5671.38 827.096  10
   0  -7   3 4761.03 702.183   5
   0  -7   3 5882.43 832.122  13
   0  -7   3 5707.29 439.863  14
   0  -7   3 5854.98 695.633   8
   0  -7   2 4422.75 704.217  13
   0   7  -2 4815.83 791.604  10
   0  -7   2 4861.82 666.912   8
   0  -7   2 5023.35 437.264  14
   0  -7   2 4415.64 683.924   5
   0   7  -2 4418.28 659.200   2
   0  -7   2 4239.00 652.504  15
   0  -7   1 1149.59 361.118  15
   0   7  -1 854.410 387.922   2
   0  -7   1 1438.43 412.570   1
   0   7  -1 915.188 387.688  10
   0  -7   1 773.030 395.150  13
   0  -7   1 1046.02 170.655   3
   0   7  -1 1444.43 461.468  12
   0   7   0 725.295 320.044   7
   0  -7   0 902.386 280.999  15
   0  -7   0 778.355 222.904   3
   0  -7   0 803.339 317.153   1
   0   7   0 760.022 367.321   2
   0  -7   0 1184.41 415.149  13
   0   7   0 348.527 311.826  10
   0   7   0 939.691 439.417  12
   0  -7  -1 126.760 288.412   1
   0  -7  -1 110.236 113.515  15
   0  -7  -1 40.1567 93.4514   4
   0   7   1 235.403 309.816   2
   0  -7  -1 54.4011 117.613   3
   0   7   1 148.665 286.005  10
   0  -7  -1 106.516 251.484  13
   0   7   1-112.429 375.691  12
   0   7   1-81.0103 263.328   7
   0   7   2-59.9973 238.871   7
   0   7   2-40.6579 280.268  12
   0  -7  -2 121.624 230.460  13
   0   7   2-117.150 315.446  10
   0  -7  -2 8.88814 290.982   1
   0  -7  -2-33.1674 61.4172   3
   0   7   2 45.2264 308.712   2
   0  -7  -3 447.115 335.447   1
   0   7   3 287.863 343.248   2
   0   7   3 275.403 381.798  12
   0  -7  -3 104.582 202.552  13
   0  -7  -3 63.8103 156.783   3
   0   7   3 303.634 214.027  10
   0   7   3 12.7852 262.442   7
   0  -7  -4 396.498 445.321   1
   0  -7  -4 403.252 236.559  13
   0   7   4 533.624 283.233   7
   0   7   4-67.9222 294.500  12
   0   7   4 320.076 267.415  10
   0  -7  -4-436.949 225.084   3
   0   7   5 3130.37 718.555  12
   0  -7  -5 2961.50 429.509  13
   0   7   5 2718.98 631.250   7
   0   7   5 2746.28 536.679  10
   0   7   5 3231.35 645.311   9
   0  -7  -5 3724.15 708.451   1
   0  -7  -6 63.7970 302.947   1
   0   7   6 125.835 316.694   7
   0   7   6-214.417 313.788  12
   0   7   6-142.578 182.311   6
   0   7   6 51.3068 109.785  10
   0   7   7 1746.27 422.793   6
   0   7   7 656.758 356.436   9
   0   7   7 1145.50 571.144  12
   0  -7  -7 1844.78 589.785   1
   0   7   7 1428.57 417.797  10
   0   7   7 862.606 486.668   7
   0   7   8 198.615 179.105  12
   0  -7  -8 494.907 237.906   1
   0   7   8 866.113 402.274   7
   0   7   8 259.549 249.008   9
   0   7   9 104.676 339.406   9
   0   7   9 3.81425 388.592   7
   0   7   9-247.069 206.104  12
   0   7  10 28.4045 320.463  12
   0  -8  11 2309.38 645.559   8
   0  -8  11 1584.95 487.750   5
   0  -8  10-329.271 323.668   5
   0  -8  10-973.819 423.844   8
   0   8  -9 377.907 346.346   2
   0  -8   9 907.983 379.281   8
   0  -8   9 257.579 534.697  15
   0  -8   9 375.799 320.050   5
   0   8  -9-167.505 279.425  10
   0  -8   9 513.438 454.992  13
   0  -8   8 1968.84 528.312   5
   0  -8   8 1463.08 692.341  15
   0   8  -8 1947.14 662.941  10
   0  -8   8 1574.91 675.448  13
   0   8  -8 2410.41 584.560   2
   0  -8   8 1876.96 527.208   8
   0  -8   7 2158.68 709.893  15
   0  -8   7 4123.66 681.725   8
   0  -8   7 2486.48 729.848  13
   0   8  -7 3253.81 839.252  10
   0   8  -7 3293.64 712.745   2
   0  -8   7 2046.09 520.599   5
   0   8  -6 21.7310 261.886   2
   0  -8   6-25.1377 181.311  15
   0   8  -6-94.3027 212.897  10
   0  -8   6-62.7254 205.239   5
   0  -8   6 111.263 341.388  13
   0  -8   6-165.965 322.605   8
   0   8  -5-60.6223 264.833  10
   0   8  -5 205.896 300.796   2
   0  -8   5-272.899 245.798   5
   0  -8   5 447.732 339.204   8
   0  -8   5-71.5707 110.449  11
   0  -8   5-176.937 304.549  15
   0  -8   5 408.730 430.514  13
   0  -8   4 78.3294 42.5392  14
   0  -8   4-35.4907 347.489  15
   0   8  -4 207.737 267.709  10
   0  -8   4 79.1694 200.158   5
   0   8  -4-33.2338 304.307   2
   0  -8   4-65.8219 390.928  13
   0   8  -4 254.357 210.797   9
   0  -8   4-73.2103 260.676   8
   0  -8   3 480.068 154.942  14
   0  -8   3 45.8994 374.586  15
   0  -8   3 1131.09 434.784   8
   0   8  -3 634.896 366.199   2
   0  -8   3 185.685 454.874  13
   0   8  -3 837.532 424.749  10
   0  -8   3 520.329 324.380   5
   0   8  -3 927.405 310.241   9
   0   8  -2 1734.68 613.879  12
   0  -8   2 1636.06 416.131   1
   0  -8   2 1514.53 452.885  15
   0  -8   2 1663.70 461.142   8
   0   8  -2 2221.07 547.814   2
   0  -8   2 1982.57 506.660   5
   0  -8   2 1661.01 303.062  14
   0  -8   2 1987.28 596.863  13
   0   8  -2 994.530 496.357  10
   0  -8   1-14.2414 263.542   8
   0  -8   1-470.137 267.947   1
   0  -8   1-1.12603 318.940  13
   0  -8   1-3.55605 75.1085   3
   0  -8   1 58.4360 134.117  15
   0   8  -1 311.050 289.924  10
   0   8  -1-349.713 362.656  12
   0   8  -1 305.519 295.670   2
   0  -8   0 8625.30 773.486  15
   0   8   0 8564.21 1094.95  12
   0   8   0 6410.94 902.531  10
   0  -8   0 7615.95 890.539  13
   0   8   0 8472.52 995.251   2
   0  -8   0 7362.75 901.069   1
   0   8   0 7680.97 897.540   7
   0  -8   0 6661.09 538.789   3
   0   8   1 1430.88 607.361  12
   0  -8  -1 1109.65 159.424   4
   0  -8  -1 1576.00 317.704  15
   0  -8  -1 1452.07 494.152   1
   0   8   1 794.827 488.944   2
   0  -8  -1 1426.59 462.987  13
   0   8   1 1183.77 462.652  10
   0  -8  -1 1344.56 279.024   3
   0   8   1 845.738 411.921   7
   0   8   2 2396.45 575.459   7
   0  -8  -2 2618.69 605.630   1
   0   8   2 2480.55 665.424  12
   0  -8  -2 2902.38 562.525  13
   0   8   2 2143.85 574.342  10
   0  -8  -2 2174.07 333.347   4
   0  -8  -2 2389.09 448.290   3
   0   8   2 1793.26 590.501   2
   0  -8  -3-39.2570 116.006   4
   0   8   3-1.30428 240.794  10
   0   8   3-340.576 338.509   7
   0  -8  -3-332.804 271.235   3
   0  -8  -3-275.650 296.925  13
   0   8   3-19.4969 337.553  12
   0   8   3-356.605 341.895   2
   0  -8  -3 77.8439 170.102   1
   0  -8  -4 2558.05 625.148   1
   0   8   4 1965.43 586.428  12
   0   8   4 1748.34 465.452  10
   0  -8  -4 1854.13 422.746  13
   0   8   4 1750.72 505.670   9
   0   8   4 1140.02 482.066   7
   0  -8  -5 102.273 195.632   1
   0   8   5 547.122 478.979  12
   0   8   5 370.493 302.499   9
   0   8   5-126.405 180.448   7
   0   8   5-327.414 202.381  10
   0   8   6-159.384 325.663   9
   0   8   6 110.032 181.281  10
   0   8   6 16.5476 226.421  12
   0   8   6-41.6490 255.057   6
   0   8   6 454.631 252.643   7
   0  -8  -6 170.563 164.683   1
   0   8   7-311.420 266.921  12
   0   8   7 305.342 237.685   9
   0   8   7 555.568 363.363   7
   0  -8  -7 467.390 374.125   1
   0   8   8-83.5761 320.231   9
   0   8   8 358.527 278.457  12
   0   8   8 846.766 424.440   7
   0   8   9 344.007 453.288   9
   0  -9  10 5.48914 286.433   8
   0  -9   9-82.2166 329.908   8
   0  -9   9 730.876 305.883   5
   0  -9   8 2643.52 741.203  13
   0   9  -8 2331.85 668.829   2
   0  -9   8 2958.30 636.153   5
   0  -9   8 2859.08 791.743  15
   0  -9   8 1448.43 572.798   8
   0   9  -8 2492.87 789.522  10
   0  -9   7 361.804 306.124   8
   0   9  -7 991.008 462.934   2
   0   9  -7-24.1645 480.547  10
   0  -9   7 870.090 588.240  13
   0  -9   7 450.329 421.693  15
   0  -9   6 2163.80 582.762   5
   0  -9   6 2805.13 747.349  15
   0   9  -6 1737.97 652.927  10
   0  -9   6 2967.22 735.165  13
   0   9  -6 2520.48 562.676   2
   0  -9   6 3119.59 691.751   8
   0  -9   5-78.9671 357.585  13
   0  -9   5-98.2072 192.189   5
   0  -9   5-227.606 325.615   8
   0   9  -5-278.754 303.735   2
   0   9  -5-541.905 454.242  10
   0  -9   5-574.646 404.010  15
   0  -9   4 510.783 333.040   8
   0  -9   4 880.752 357.980   5
   0   9  -4 165.362 298.611   2
   0  -9   4 340.287 384.641  13
   0  -9   4 792.497 303.862   1
   0   9  -4 668.281 484.329  10
   0  -9   4 898.701 436.352  15
   0   9  -3 1167.97 496.554   2
   0  -9   3 369.017 491.122  13
   0  -9   3 375.878 278.125   1
   0   9  -3 593.494 473.108  12
   0  -9   3 467.859 306.239  15
   0   9  -3 91.4942 212.486  10
   0  -9   3 547.539 397.357   8
   0  -9   3 291.562 350.607   5
   0   9  -2 538.870 446.985   2
   0  -9   2 275.781 377.754  13
   0   9  -2 233.553 392.613  10
   0  -9   2 298.061 300.175   8
   0  -9   2 1062.30 405.296   5
   0  -9   2 279.472 254.705  15
   0  -9   2-25.1255 270.093   1
   0   9  -2 225.787 307.309  12
   0  -9   2 405.203 253.267  14
   0  -9   1 1786.85 341.066  14
   0   9  -1 1474.89 494.089  10
   0  -9   1 1039.96 446.142   1
   0   9  -1 1518.72 608.154   2
   0  -9   1 2226.87 580.677   8
   0  -9   1 2558.49 528.287  15
   0  -9   1 1265.60 517.464  13
   0   9  -1 2019.72 536.334   7
   0   9  -1 1634.67 616.571  12
   0  -9   0 413.921 402.346  13
   0  -9   0 1010.82 421.587   8
   0   9   0 513.432 368.241  10
   0  -9   0 845.778 392.268   1
   0  -9   0 556.396 273.272  15
   0   9   0 615.665 380.037   7
   0   9   0 268.729 370.960  12
   0   9   0 493.843 418.909   2
   0  -9  -1 936.293 403.067   1
   0  -9  -1 798.228 387.438  13
   0   9   1 922.255 384.015   7
   0   9   1 1303.10 595.661  12
   0   9   1 1453.08 508.675  10
   0   9   1 975.723 494.104   2
   0   9   2-65.8623 247.155  10
   0   9   2-563.284 375.116  12
   0  -9  -2 210.800 279.522   1
   0   9   2-69.7410 256.035   2
   0  -9  -2-48.2178 267.085  13
   0   9   2 172.224 294.993   7
   0  -9  -3 1809.84 496.859  13
   0   9   3 1246.07 601.599   2
   0  -9  -3 1829.78 621.226   1
   0   9   3 1541.91 632.523  12
   0   9   3 1876.45 548.343   7
   0   9   3 1235.88 444.877  10
   0   9   4-273.351 216.226   7
   0   9   4-5.82215 161.840  12
   0   9   4-4.52728 126.675  10
   0  -9  -4-12.9642 253.429   1
   0   9   4-87.7188 106.232   9
   0   9   5 879.315 343.979   9
   0   9   5-425.736 407.481   7
   0  -9  -5 115.702 393.404   1
   0   9   5 532.325 458.642  12
   0   9   5 128.184 148.953  10
   0   9   6-150.416 198.386   6
   0   9   6-140.591 192.323   9
   0   9   7 428.870 323.119   9
   0 -10   7 778.129 380.487   8
   0 -10   7 813.330 475.457  15
   0 -10   7 509.875 292.359   5
   0  10  -6 405.615 364.217   2
   0 -10   6 138.381 267.316   8
   0 -10   6-233.285 394.973  15
   0 -10   6 252.133 205.350   5
   0 -10   6 550.510 525.200  13
   0 -10   5 98.8963 176.557   5
   0  10  -5-185.030 294.395   2
   0 -10   5 504.588 454.403   8
   0  10  -5 522.161 320.289  10
   0 -10   5 971.933 431.161  15
   0 -10   5 490.947 437.853  13
   0  10  -5-49.9330 349.401  12
   0 -10   4-186.297 289.111   8
   0 -10   4-443.500 289.172   1
   0 -10   4 243.184 202.508  15
   0 -10   4 137.252 212.215   5
   0 -10   4 197.843 442.989  13
   0  10  -4 277.629 390.049  12
   0  10  -4 408.708 374.062   2
   0  10  -4-115.834 225.483  10
   0  10  -3 288.885 397.555   2
   0 -10   3 946.231 362.065   1
   0 -10   3 729.956 369.214   5
   0 -10   3 1240.06 524.293  13
   0 -10   3 541.640 375.078   8
   0  10  -3 783.975 399.155  10
   0  10  -3 599.613 395.475  12
   0 -10   3 491.956 396.262  15
   0 -10   2 4527.69 927.039  13
   0  10  -2 3733.85 823.239  10
   0 -10   2 5571.57 909.486   5
   0 -10   2 4413.45 705.794   1
   0  10  -2 5389.30 932.660   2
   0 -10   2 4769.46 740.283  15
   0 -10   2 5145.47 806.557   8
   0  10  -2 4511.63 939.819  12
   0 -10   1 2161.65 621.410   5
   0 -10   1 2419.34 628.667   1
   0  10  -1 2529.46 637.283  10
   0  10  -1 2808.44 739.473  12
   0 -10   1 3085.23 703.954   8
   0  10  -1 3004.38 773.466   2
   0  10  -1 3525.21 693.024   7
   0 -10   1 2837.82 736.532  13
   0  10   0 516.346 501.013   2
   0 -10   0 1250.04 530.417  13
   0 -10   0 2033.74 577.286   8
   0  10   0 1932.61 617.485   7
   0  10   0 1527.22 570.921  10
   0  10   0 1568.44 593.568  12
   0 -10   0 1359.73 500.719   1
   0  10   1 129.885 181.372   7
   0  10   1 304.388 425.299  12
   0 -10  -1 453.518 415.073  13
   0 -10  -1-471.709 382.316   1
   0  10   1 474.827 356.555  10
   0 -10  -1 675.755 410.184   8
   0  10   1 216.464 380.684   2
   0 -10  -2 459.132 407.142   1
   0  10   2 445.540 285.281   7
   0 -10  -2-326.936 383.024   8
   0  10   2 754.063 473.107   2
   0  10   2 467.536 396.392  12
   0 -10  -2 306.237 370.182  13
   0  10   2 60.0936 152.785  10
   0 -10  -3-310.717 285.890   8
   0  10   3 29.7709 176.995  10
   0 -10  -3 947.856 368.439   1
   0  10   3 841.681 474.893   2
   0  10   3-497.570 380.579   7
   0  10   4 470.279 265.004   9
   0  10   4 723.796 352.779  10
   0  10   5 542.987 412.706   6
   0 -11   6 953.001 566.942  15
   0 -11   5-57.6968 354.691  15
   0 -11   3 734.082 421.252  13
   0 -11   3 636.412 301.782   1
   0 -11   2-588.131 394.025   1
   0  11  -2-1298.22 547.376   7
   0  11  -1 928.661 372.920   7
   0 -11   1 529.741 302.020  13
   0 -11   1 481.207 297.090   1
   0 -11   0 565.797 349.299   1
   0 -11   0 580.063 347.465  13
   0  11   0 331.896 277.048  10
   0  11   0 114.046 457.872   7
   0 -11  -1 120.783 246.463  13
   0 -11  -1 125.996 248.060   1
   0  11   1-265.431 424.173   7
   0  11   2 236.104 305.450  10
   1 -11  -2-635.213 363.999   1
   1 -11  -1 1216.35 602.893  13
   1 -11  -1 1433.58 547.593   1
   1 -11   0 507.507 381.806   1
   1 -11   0 20.7064 499.458  13
   1 -11   1 707.625 458.890  13
   1 -11   1-462.846 286.526   1
  -1  11  -1 300.886 262.126   7
   1 -11   1 281.274 289.601   5
   1 -11   2-260.517 257.547   5
  -1  11  -2 445.767 374.652   7
   1 -11   2-228.605 257.884  13
   1 -11   3-702.040 405.070  13
   1 -11   3 743.176 337.670   5
   1 -11   4 410.654 264.981   5
   1 -11   4 460.756 354.055  15
   1 -11   5 79.4589 258.946  15
   1 -11   6 55.2036 431.184  15
  -1  10   5-482.369 404.992   6
  -1  10   5-642.622 460.488   9
  -1  10   5 140.746 183.432  10
   1 -10  -4 190.514 288.433   8
  -1  10   4 321.149 241.953   6
  -1  10   4-252.637 320.169  10
   1 -10  -4-115.757 375.610   1
   1 -10  -3 294.814 316.377   1
  -1  10   3 1034.13 609.224   2
  -1  10   3 820.306 456.423  10
   1 -10  -3 825.782 321.991   8
  -1  10   2 876.448 424.929  10
   1 -10  -2 542.383 370.773   8
  -1  10   2 421.847 456.744  12
   1 -10  -2 224.398 258.263  13
  -1  10   2 291.197 544.651   2
   1 -10  -2 889.624 406.090   1
  -1  10   2 204.550 220.045   7
   1 -10  -1 1267.39 448.203   1
  -1  10   1 832.123 574.711   2
   1 -10  -1 1451.49 547.805   8
  -1  10   1 1010.02 612.227  12
  -1  10   1 1457.23 529.152   7
   1 -10  -1 1171.85 434.285  13
  -1  10   1 80.5269 178.928  10
  -1  10   0 1127.43 496.849   2
  -1  10   0 389.877 412.350  12
   1 -10   0 536.842 322.209  13
  -1  10   0 1214.39 577.194  10
  -1  10   0 574.089 312.307   7
   1 -10   0 1132.23 493.993   8
   1 -10   0 468.284 377.353   1
   1 -10   0 1178.28 311.297  14
   1 -10   1 844.558 301.917   1
  -1  10  -1 941.706 460.298   2
   1 -10   1 265.587 345.516   5
  -1  10  -1 605.014 489.452  12
   1 -10   1 718.502 432.838   8
   1 -10   1 685.278 343.130  13
  -1  10  -1 913.263 339.411   7
  -1  10  -1 894.109 443.391  10
  -1  10  -2-235.155 269.526  12
   1 -10   2-133.391 347.153   8
   1 -10   2 34.0192 239.830   1
   1 -10   2 82.1446 196.883  15
   1 -10   2-515.645 412.496  13
  -1  10  -2 432.917 379.608   2
   1 -10   2 230.939 263.471   5
  -1  10  -2 328.439 254.067  10
  -1  10  -3 330.701 245.380  10
  -1  10  -3-67.8183 205.830   2
  -1  10  -3 826.827 527.427  12
   1 -10   3 631.823 323.411   5
   1 -10   3-69.7563 112.296   1
   1 -10   3-151.174 199.347   8
   1 -10   3-628.875 357.783  15
   1 -10   3-485.314 450.842  13
  -1  10  -4 198.913 377.129  12
  -1  10  -4-465.686 312.007  10
   1 -10   4 353.042 361.990  15
   1 -10   4 260.435 268.482   5
  -1  10  -4-295.214 326.244   2
   1 -10   4 441.564 355.051   8
   1 -10   4 253.610 438.674  13
   1 -10   5-61.8311 287.069   8
  -1  10  -5 129.311 186.315   2
  -1  10  -5-750.391 476.482  10
   1 -10   5 654.245 486.029  13
  -1  10  -5 488.203 446.350  12
   1 -10   5-267.854 217.645   5
   1 -10   5 831.125 501.777  15
   1 -10   6 585.027 502.932  15
  -1  10  -6-495.839 467.309  12
   1 -10   6 494.171 296.467   8
   1 -10   6-89.8457 144.616   5
  -1  10  -7-224.299 444.567  12
   1 -10   7 797.738 383.951   5
   1 -10   7 65.2355 204.655  15
  -1  10  -8 142.537 346.217  12
   1 -10   8 579.562 340.846   5
   1  -9  -7-365.289 220.537   8
  -1   9   7 601.140 435.418   9
   1  -9  -6 703.617 510.402   1
  -1   9   6-153.315 176.867  10
  -1   9   6 690.462 366.168   9
  -1   9   6 520.142 318.596   6
   1  -9  -6-33.2424 226.756   8
  -1   9   5-455.001 426.372  12
  -1   9   5-29.2736 321.006   9
   1  -9  -5-229.297 266.749   8
   1  -9  -5 217.889 209.682   1
  -1   9   5-9.69775 171.384  10
  -1   9   5 209.812 290.458   6
  -1   9   4 385.905 421.391  12
  -1   9   4 327.938 217.904  10
   1  -9  -4-20.8669 330.945   1
   1  -9  -4 195.306 312.179   8
  -1   9   4 291.541 233.673   7
  -1   9   4-254.531 377.065   2
  -1   9   3 749.155 412.687  12
   1  -9  -3 109.876 239.205  13
  -1   9   3 399.075 263.053   7
   1  -9  -3 264.375 320.420   8
  -1   9   3 1075.01 523.553   2
   1  -9  -3 1419.82 453.354   1
  -1   9   3 233.994 239.796  10
  -1   9   2 137.195 183.061   7
   1  -9  -2 487.258 331.898  13
  -1   9   2-118.043 268.975  10
   1  -9  -2 315.105 275.191   1
   1  -9  -2 78.1607 363.475   8
  -1   9   2 129.214 323.585   2
  -1   9   2 624.364 560.714  12
  -1   9   1 180.106 359.846  12
  -1   9   1 300.184 319.384  10
  -1   9   1 357.422 347.912   2
   1  -9  -1 692.836 326.999  13
   1  -9  -1 224.273 319.655   8
   1  -9  -1 311.594 242.853   1
  -1   9   1 334.467 300.918   7
   1  -9   0 554.741 317.286  13
  -1   9   0 915.943 299.760   7
   1  -9   0 633.585 252.311  14
  -1   9   0 653.038 481.734  12
  -1   9   0 654.317 376.533  10
   1  -9   0 606.559 387.672   1
  -1   9   0 271.063 419.732   2
   1  -9   0 346.953 331.429   8
   1  -9   0 503.255 254.732  15
   1  -9   1 1362.37 512.340  13
  -1   9  -1 777.117 406.750  12
   1  -9   1 1481.22 397.004  15
  -1   9  -1 461.083 352.940  10
   1  -9   1 693.665 347.766   1
   1  -9   1 1394.16 441.911   8
  -1   9  -1 1302.91 470.668   2
   1  -9   1 1168.63 340.285  14
  -1   9  -2 697.551 399.371  10
   1  -9   2-161.944 278.529   5
  -1   9  -2-304.032 335.204   2
   1  -9   2 488.074 301.043  15
   1  -9   2-502.294 393.960   8
   1  -9   2-227.242 164.261   1
   1  -9   2-65.4673 232.096  14
   1  -9   2 171.368 347.546  13
  -1   9  -2 962.711 463.101  12
   1  -9   3 1477.74 394.686   1
   1  -9   3 1344.47 507.262  15
   1  -9   3 1597.14 347.694  14
   1  -9   3 1460.18 557.823  13
   1  -9   3 1516.19 459.477   5
  -1   9  -3 1121.94 479.134  10
  -1   9  -3 1671.28 518.871   2
  -1   9  -3 1213.08 623.448  12
   1  -9   3 860.020 471.675   8
  -1   9  -4-370.126 362.390  12
   1  -9   4 406.362 245.487   5
  -1   9  -4 72.1442 182.989   2
   1  -9   4 53.9900 351.897  13
  -1   9  -4 320.994 334.771  10
   1  -9   4 131.078 274.000   8
   1  -9   4-487.798 337.620  15
   1  -9   4 292.117 174.064   1
   1  -9   5 149.858 152.684   1
  -1   9  -5 8.19843 270.782   2
   1  -9   5-280.094 476.400  15
  -1   9  -5 106.560 322.535  10
   1  -9   5 67.3541 216.395   8
   1  -9   5-164.542 401.959  13
  -1   9  -5 290.457 361.285  12
   1  -9   5 28.2098 113.070   5
  -1   9  -6-231.271 199.934   2
   1  -9   6-530.376 385.874  13
   1  -9   6 422.669 287.903   8
   1  -9   6 123.680 182.443   5
   1  -9   6 302.682 299.964  15
  -1   9  -6-35.3597 279.305  12
  -1   9  -6 29.1100 247.768  10
  -1   9  -7 661.173 445.468  10
  -1   9  -7 1388.57 476.035   2
   1  -9   7 753.005 496.435  13
   1  -9   7 1056.68 469.244   8
   1  -9   7 561.431 397.945   5
   1  -9   7 1100.03 529.202  15
   1  -9   8 725.221 353.532   8
   1  -9   8 436.727 600.692  15
   1  -9   8-360.930 299.825   5
  -1   9  -8 476.785 532.365  10
   1  -9   9 230.526 308.965   8
   1  -9   9 291.828 272.660   5
   1  -9  10 516.775 329.701   5
  -1   8   8 527.943 458.045  12
  -1   8   8-887.178 527.433   9
  -1   8   7-224.575 217.969   6
   1  -8  -7-37.9922 196.191   1
  -1   8   7-545.137 408.766  12
  -1   8   7 335.221 213.000   7
  -1   8   7-181.706 161.293  10
  -1   8   6-433.284 265.442  12
  -1   8   6 518.922 374.431   9
  -1   8   6-26.5644 265.003  10
  -1   8   6-1.35467 194.746   6
  -1   8   6-8.38539 78.5201   7
   1  -8  -6-64.1253 289.578   1
  -1   8   5 96.1906 195.433   7
   1  -8  -5 19.7451 137.535   1
  -1   8   5 161.450 158.105  10
  -1   8   5 544.363 350.471   6
  -1   8   4 1862.47 503.603   7
   1  -8  -4 1967.97 409.235  13
  -1   8   4 1323.59 426.643  10
  -1   8   4 1586.45 586.612  12
   1  -8  -4 1119.01 422.711   1
  -1   8   4 1308.39 617.532   2
   1  -8  -3 5818.27 706.772   3
   1  -8  -3 6375.59 780.531   8
  -1   8   3 5620.83 857.200  10
  -1   8   3 6170.48 940.690  12
   1  -8  -3 7276.97 943.241   1
   1  -8  -3 6941.39 751.920  13
  -1   8   3 6242.80 972.433   2
  -1   8   3 6481.32 847.330   7
  -1   8   2 6287.75 940.194   2
   1  -8  -2 4590.31 545.993   3
   1  -8  -2 5094.01 688.262  13
  -1   8   2 4597.78 678.761   7
   1  -8  -2 5200.85 715.191   8
   1  -8  -2 4978.10 745.895   1
  -1   8   2 3744.93 741.929  10
  -1   8   2 5711.13 906.094  12
   1  -8  -1 466.970 155.601   3
  -1   8   1 12.5661 284.885  10
   1  -8  -1 170.005 289.158   8
  -1   8   1 35.0116 361.151  12
   1  -8  -1-128.134 278.448   1
  -1   8   1 157.210 230.458   7
   1  -8  -1 190.657 265.461  13
  -1   8   1-429.358 424.539   2
   1  -8   0-210.568 235.875  15
   1  -8   0-119.706 255.865   1
   1  -8   0-348.410 405.487   8
  -1   8   0 157.321 398.011   2
  -1   8   0-35.6333 226.119  12
   1  -8   0-136.003 257.449  13
  -1   8   0-356.310 276.815  10
   1  -8   0-58.1807 47.0064   3
  -1   8   0 249.711 229.884   7
  -1   8  -1 3521.11 803.709  12
   1  -8   1 3014.28 616.845   8
   1  -8   1 3224.89 586.705  15
  -1   8  -1 3231.69 660.081   2
   1  -8   1 3677.11 480.487  14
  -1   8  -1 2490.08 630.547  10
   1  -8   1 3081.04 555.499   1
   1  -8   1 3399.88 660.901  13
   1  -8   2 316.132 236.701   5
   1  -8   2 323.799 357.737   8
   1  -8   2 324.362 256.774  15
  -1   8  -2-267.885 314.673  10
  -1   8  -2 476.664 241.298  15
   1  -8   2 80.4435 201.247  14
   1  -8   2 121.991 192.246   1
   1  -8   2 428.820 328.752  13
  -1   8  -2 245.688 349.285  12
  -1   8  -2 138.640 323.767   2
   1  -8   3-6.52195 328.043  15
   1  -8   3-218.414 293.211   8
   1  -8   3-6.71687 81.9753   5
   1  -8   3 129.653 342.736  13
   1  -8   3-115.265 133.797  14
   1  -8   3-53.3649 136.379   1
  -1   8  -3-88.6755 189.238  10
  -1   8  -3-309.408 301.315  12
  -1   8  -3-9.01696 176.266   2
   1  -8   4 96.9527 133.430   1
  -1   8  -4 185.813 177.783   2
  -1   8  -4 6.91890 195.616  12
   1  -8   4 140.777 206.932   5
   1  -8   4-55.1302 232.670  15
   1  -8   4 10.0084 315.112   8
   1  -8   4-284.667 274.062  13
   1  -8   4-36.2338 168.251  14
  -1   8  -4 265.743 244.874  10
   1  -8   5 66.1772 319.959  13
  -1   8  -5 73.6428 303.694  10
   1  -8   5 11.2147 367.927  15
   1  -8   5-364.430 308.052   8
   1  -8   5 50.7266 93.9399  14
  -1   8  -5 135.792 317.254   2
   1  -8   5 246.858 244.286   5
   1  -8   6-158.970 289.500  13
   1  -8   6 73.6843 237.825   5
   1  -8   6 31.8497 389.041  15
  -1   8  -6-431.858 362.061  10
  -1   8  -6 420.533 390.592   2
   1  -8   6 669.901 288.071   8
  -1   8  -7 257.619 338.419  10
   1  -8   7-445.162 296.010   8
   1  -8   7-256.609 432.294  13
   1  -8   7 56.3937 362.843  15
  -1   8  -7-180.115 259.217   2
   1  -8   7-156.119 159.858   5
   1  -8   8 5660.42 1038.07  13
   1  -8   8 6747.29 984.819   8
  -1   8  -8 5003.65 1011.23  10
  -1   8  -8 6802.82 1015.30   2
   1  -8   8 7023.22 1166.04  15
   1  -8   8 5638.38 822.953   5
  -1   8  -9 489.704 427.946  10
   1  -8   9-395.584 291.087   8
   1  -8   9 471.741 421.867  15
  -1   8  -9 401.092 327.454   2
   1  -8   9-228.968 295.738   5
   1  -8   9-730.812 556.359  13
  -1   8 -10-328.714 481.912  10
   1  -8  10 183.030 274.015   8
   1  -8  10-228.304 258.329   5
   1  -8  11 3064.50 867.200   8
   1  -8  11 1772.62 510.212   5
  -1   7   9 540.407 332.015   9
  -1   7   9-187.710 225.474  12
  -1   7   8 1061.20 433.369   7
   1  -7  -8 920.771 416.698   1
  -1   7   8 880.142 519.788  12
  -1   7   8 1156.28 461.231   9
  -1   7   8 1397.24 393.596   6
  -1   7   8 1510.83 414.456  10
  -1   7   7 647.663 417.627   9
  -1   7   7 241.000 310.092   7
  -1   7   7 799.248 381.253  12
  -1   7   7 314.661 239.508  10
   1  -7  -7 579.813 423.986   1
  -1   7   6-336.681 309.734  12
  -1   7   6 767.809 353.076   6
  -1   7   6 244.762 266.041   7
  -1   7   6-281.281 259.241   9
  -1   7   6-21.6936 211.477  10
   1  -7  -6 145.533 332.571   1
  -1   7   5 532.501 427.222  12
  -1   7   5 97.5810 205.234   6
   1  -7  -5 201.731 161.989  13
  -1   7   5 584.315 279.280  10
  -1   7   5 662.803 346.966   7
   1  -7  -5 220.411 290.446   1
  -1   7   4 250.925 261.918  10
  -1   7   4-17.3202 379.100  12
   1  -7  -4-407.239 337.824   1
  -1   7   4 412.414 537.419   2
   1  -7  -4 268.721 150.416  13
  -1   7   4 466.227 325.221   7
   1  -7  -4-52.6203 121.830   3
  -1   7   3 320.160 353.816  12
  -1   7   3 106.880 318.020   2
   1  -7  -3 102.034 237.707  13
   1  -7  -3 52.7419 141.232   3
  -1   7   3 474.930 293.807  10
   1  -7  -3-520.975 431.217   1
  -1   7   3 278.019 250.070   7
  -1   7   2 511.663 312.453  12
   1  -7  -2 841.442 381.243   1
   1  -7  -2 742.875 285.729  13
   1  -7  -2 533.726 195.393   3
  -1   7   2 872.441 340.095  10
  -1   7   2 979.157 275.534   7
  -1   7   2 961.671 447.210   2
   1  -7  -1 345.915 277.668   1
  -1   7   1-1.18336 312.637  10
  -1   7   1 152.758 317.828  12
   1  -7  -1 368.351 318.629  13
  -1   7   1 274.103 259.199   7
  -1   7   1 360.204 358.709   2
   1  -7  -1 340.725 290.323   8
   1  -7  -1 139.082 134.490  15
   1  -7  -1 153.729 95.3286   3
   1  -7   0 1656.44 363.190  15
  -1   7   0 973.554 255.102  15
   1  -7   0 1358.22 389.893   1
   1  -7   0 1158.55 181.671   3
   1  -7   0 1566.57 397.881   8
  -1   7   0 1240.49 440.668   2
   1  -7   0 969.484 384.396  13
  -1   7   0 808.234 425.822  12
  -1   7   0 710.371 335.938  10
  -1   7  -1 8265.56 885.226   2
  -1   7  -1 7869.43 949.790  12
   1  -7   1 8438.71 838.830  15
  -1   7  -1 6648.04 881.189  10
   1  -7   1 8363.31 818.770   8
   1  -7   1 9726.09 686.738  14
   1  -7   1 7518.71 735.604   1
  -1   7  -1 8008.31 729.279  15
   1  -7   1 7557.67 881.211  13
   1  -7   2 630.481 278.001  11
   1  -7   2 688.433 326.228  13
   1  -7   2 503.280 275.702   8
  -1   7  -2 578.159 274.137  15
   1  -7   2 349.793 205.238  14
  -1   7  -2 149.153 245.737   2
  -1   7  -2 166.085 326.314  10
   1  -7   2 112.452 210.353   1
   1  -7   2 604.742 357.373  15
   1  -7   2 367.878 276.777   5
  -1   7  -2 13.1447 316.383  12
   1  -7   3 1508.24 387.512   5
  -1   7  -3 1991.49 468.449   2
   1  -7   3 2386.01 462.287  11
   1  -7   3 2201.42 546.512  15
  -1   7  -3 2120.99 480.933   9
   1  -7   3 2080.20 463.430   8
   1  -7   3 2173.22 336.999  14
  -1   7  -3 1755.96 508.814  10
   1  -7   3 1878.40 364.513   1
  -1   7  -3 1658.13 494.111  12
   1  -7   3 2102.74 536.723  13
  -1   7  -3 1207.50 344.782  15
  -1   7  -4 158.106 167.495   9
   1  -7   4 311.465 371.764  15
   1  -7   4 540.457 280.377  11
   1  -7   4 17.9589 82.5566  14
  -1   7  -4 574.294 352.109   2
   1  -7   4 184.534 305.452   8
   1  -7   4 232.038 283.482   5
   1  -7   4 395.992 346.642  13
  -1   7  -4-55.9768 405.000  10
   1  -7   5-146.186 241.611   8
  -1   7  -5 218.275 278.983  10
   1  -7   5-165.179 128.425   1
   1  -7   5-276.970 149.570  14
   1  -7   5 257.067 324.686  13
   1  -7   5 192.550 230.955  11
   1  -7   5 59.3511 411.787  15
  -1   7  -5 91.4541 348.557   2
   1  -7   5-353.505 315.218   5
   1  -7   6 2691.75 670.518  13
  -1   7  -6 2885.12 348.165   4
   1  -7   6 3190.18 563.581   5
  -1   7  -6 4191.83 732.704   2
   1  -7   6 3150.44 556.201  11
   1  -7   6 2658.34 772.038  15
   1  -7   6 3273.21 649.688   8
  -1   7  -6 3177.20 718.885  10
   1  -7   6 3531.83 372.695   1
   1  -7   7 37.1479 357.610  15
   1  -7   7 373.341 229.125  11
  -1   7  -7 697.203 153.692   3
   1  -7   7 718.055 368.148   8
   1  -7   7 906.066 320.843   5
  -1   7  -7 977.113 509.595  10
  -1   7  -7 794.111 248.426   4
   1  -7   7 824.678 344.097  13
  -1   7  -7 557.688 368.472   2
   1  -7   8 342.541 415.610  13
   1  -7   8 123.373 216.841   5
  -1   7  -8 517.575 400.331  10
  -1   7  -8-168.799 241.023   4
   1  -7   8 564.195 361.717   8
   1  -7   8 563.311 421.570  15
  -1   7  -8-61.2265 339.363   2
   1  -7   9 325.923 324.552   8
  -1   7  -9 96.1975 352.185   2
  -1   7  -9 295.094 287.827  10
   1  -7   9 436.691 435.737  15
   1  -7   9-139.698 230.028   5
   1  -7   9-54.1004 179.598  13
   1  -7  10 392.430 271.691   8
   1  -7  10 134.680 160.598   5
  -1   7 -10-342.263 286.489  10
  -1   7 -10 694.235 372.351   2
   1  -7  10-479.300 429.603  13
   1  -7  10-532.549 504.309  15
   1  -7  11 933.906 393.899   8
   1  -7  11 789.763 333.842   5
  -1   7 -11 152.548 177.409  10
  -1   6  10 190.303 341.670  12
  -1   6  10-581.138 365.049   9
  -1   6   9 496.856 419.185   9
  -1   6   9-294.625 353.996  12
   1  -6  -9 562.194 481.241   1
  -1   6   8 804.481 442.741  12
   1  -6  -8 670.690 428.291   1
  -1   6   8-121.093 165.001   7
  -1   6   8 597.396 270.617   6
  -1   6   8 480.188 239.716  10
  -1   6   8 368.861 454.150   9
  -1   6   7 283.225 381.237   9
  -1   6   7-180.837 227.494  12
   1  -6  -7-229.991 321.072   1
  -1   6   7-198.557 271.301   6
  -1   6   7 728.433 306.117   7
  -1   6   7 257.971 171.863  10
   1  -6  -6 204.333 112.471  13
  -1   6   6 187.207 397.678  12
  -1   6   6 380.226 225.413  10
  -1   6   6 289.673 365.011   9
  -1   6   6 298.978 246.725   7
   1  -6  -6 593.755 352.901   1
  -1   6   6 123.817 284.129   6
   1  -6  -5 9244.42 577.677  13
  -1   6   5 8602.62 883.520   7
  -1   6   5 9275.75 1069.55  12
   1  -6  -5 7936.66 923.341   1
   1  -6  -5 8277.69 956.231   3
  -1   6   5 8025.67 850.288   6
  -1   6   5 6661.24 790.880  10
   1  -6  -4 19192.6 1311.00   1
  -1   6   4 19299.3 1512.71   2
   1  -6  -4 18068.9 1307.07   3
  -1   6   4 19530.5 1461.25  12
  -1   6   4 19999.0 1318.54  10
  -1   6   4 20768.2 1297.62   7
   1  -6  -4 20722.9 952.933  13
   1  -6  -3 2642.31 486.551   3
   1  -6  -3 2638.51 414.522  13
   1  -6  -3 2690.62 530.897   1
  -1   6   3 1923.71 477.105  10
  -1   6   3 2754.56 584.092  12
  -1   6   3 2740.97 592.150   2
  -1   6   3 2838.57 485.288   7
   1  -6  -2 284.827 216.676   2
   1  -6  -2 151.600 228.053   1
  -1   6   2 300.846 389.346  12
   1  -6  -2 3.16216 232.836  13
  -1   6   2-82.4676 168.685   7
   1  -6  -2 137.267 170.772   3
  -1   6   2-376.668 372.562   2
  -1   6   2 182.858 177.027  10
  -1   6   1 2667.51 522.137  10
   1  -6  -1 3179.51 495.284   2
   1  -6  -1 3888.82 547.165   1
  -1   6   1 3658.43 652.673  12
   1  -6  -1 3819.56 534.953   8
  -1   6   1 3331.52 584.916   2
   1  -6  -1 3788.00 519.201  13
   1  -6  -1 3933.00 453.939  15
   1  -6  -1 3014.66 380.655   3
  -1   6   1 3067.66 336.693  15
  -1   6   1 3875.01 508.491   7
  -1   6   0 1767.90 539.704  12
   1  -6   0 1934.25 410.561   8
   1  -6   0 1370.33 349.663   1
   1  -6   0 1329.95 380.209   2
  -1   6   0 1618.37 442.874  10
   1  -6   0 1284.22 323.355  15
  -1   6   0 1620.06 432.315   2
   1  -6   0 1172.96 413.515  13
   1  -6   0 1463.47 195.910   3
  -1   6   0 890.488 243.162  15
   1  -6   1 4322.96 594.094   2
   1  -6   1 5075.93 610.339   8
  -1   6  -1 4594.07 687.042  10
   1  -6   1 4631.24 499.169  11
   1  -6   1 4692.25 636.904  13
  -1   6  -1 5517.01 744.929  12
   1  -6   1 4310.62 513.243   1
  -1   6  -1 4162.94 491.023  15
   1  -6   1 5490.01 746.921  10
   1  -6   1 5863.34 503.102  14
  -1   6  -1 5059.09 651.010   2
   1  -6   1 5120.84 610.441  15
   1  -6   2 16273.1 1079.73   5
   1  -6   2 16042.0 903.852   1
  -1   6  -2 15108.6 1214.16  10
  -1   6  -2 17342.0 1237.64  12
   1  -6   2 16908.7 1110.71   2
   1  -6   2 18371.0 987.957  11
   1  -6   2 17769.8 1334.29  10
   1  -6   2 15408.2 1108.17  15
  -1   6  -2 15888.9 1053.49   2
   1  -6   2 16239.4 844.443  14
   1  -6   2 16208.8 1149.74  13
  -1   6  -2 16008.9 1038.10  15
   1  -6   2 17616.4 1048.95   8
   1  -6   3 1532.48 286.201  14
   1  -6   3 1668.47 421.180   8
  -1   6  -3 2483.71 468.331  15
   1  -6   3 1495.15 373.931   5
   1  -6   3 2164.09 509.509  10
   1  -6   3 1657.32 486.825  15
   1  -6   3 2180.07 492.209  13
  -1   6  -3 1876.48 517.075  10
  -1   6  -3 2145.63 447.873   9
  -1   6  -3 1434.02 396.600   2
   1  -6   3 2113.69 396.684  11
   1  -6   3 1782.42 392.432   2
  -1   6  -4-287.378 197.277   9
   1  -6   4-416.056 295.426   8
  -1   6  -4 222.963 222.488   2
   1  -6   4 17.1091 269.122  13
  -1   6  -4 173.038 194.744  15
  -1   6  -4-207.356 266.544  10
   1  -6   4-92.1726 77.6722  14
  -1   6  -4 13.7781 62.8760   4
   1  -6   4-110.161 158.215   5
   1  -6   4-27.8605 350.822  15
   1  -6   4 34.4717 159.730  11
  -1   6  -5 2725.08 205.866   3
  -1   6  -5 2593.16 530.040   9
  -1   6  -5 2717.34 627.961  10
  -1   6  -5 2727.98 522.914   2
   1  -6   5 3063.05 376.427  14
   1  -6   5 3456.37 351.688   1
  -1   6  -5 2717.39 332.815   4
   1  -6   5 3492.75 517.401  11
  -1   6  -5 2743.46 244.324   3
   1  -6   5 3053.62 679.314  15
   1  -6   5 2940.03 627.059  13
   1  -6   5 3184.21 549.845   8
   1  -6   5 2273.53 444.305   5
   1  -6   6 28788.0 1812.34  13
   1  -6   6 31369.6 1549.08   5
  -1   6  -6 29512.2 1821.22  10
   1  -6   6 28616.0 1928.53  15
  -1   6  -6 26537.0 1046.10   3
   1  -6   6 29249.3 1600.92   8
  -1   6  -6 26622.2 777.479   3
  -1   6  -6 26572.0 1237.57   4
   1  -6   6 28687.2 1493.88  11
  -1   6  -6 28864.5 1642.48   2
   1  -6   6 27566.0 950.381   1
  -1   6  -7 57.3024 128.629   3
   1  -6   7 226.926 293.940   8
  -1   6  -7 109.170 134.298  14
  -1   6  -7 42.0244 109.554   3
  -1   6  -7 235.853 341.603  10
  -1   6  -7 72.1019 229.054   4
   1  -6   7 78.9456 71.1259   1
  -1   6  -7 121.928 306.395   2
   1  -6   7 163.983 240.724   5
   1  -6   7 285.490 410.271  13
   1  -6   7-139.488 232.786  11
   1  -6   7-48.1898 483.052  15
   1  -6   8-46.2309 168.978   5
   1  -6   8-126.815 365.583  13
   1  -6   8 381.361 305.498  15
  -1   6  -8 203.457 252.379   2
  -1   6  -8 245.173 266.177  10
  -1   6  -8-28.0878 149.444   3
   1  -6   8 5.14240 204.953   8
  -1   6  -9 3472.72 748.193   2
   1  -6   9 4343.80 751.172   8
   1  -6   9 3412.54 733.054  13
  -1   6  -9 3814.38 775.717  10
  -1   6  -9 2793.03 380.973   3
   1  -6   9 4086.04 893.137  15
   1  -6   9 3581.90 632.841   5
   1  -6  10 97.1658 292.438   8
   1  -6  10 796.804 445.891  15
   1  -6  10 746.475 340.106   5
  -1   6 -10 257.645 317.243  10
  -1   6 -10-145.540 206.678   2
   1  -6  10 222.732 288.519  13
   1  -6  11 159.988 174.495   5
   1  -6  11 1724.78 570.946  13
  -1   6 -11 744.755 499.488  10
   1  -6  11 1324.08 602.051  15
  -1   6 -11 1503.87 443.173   2
   1  -6  12-68.0163 336.290  13
  -1   6 -12-636.504 379.442  10
  -1   5  11-99.3800 266.512   9
   1  -5 -10 1838.35 569.982   1
  -1   5  10 1079.07 431.003   9
  -1   5   9 623.570 394.884  12
   1  -5  -9 1077.45 505.749   1
  -1   5   9 871.174 298.099  10
  -1   5   9 691.511 279.885   6
  -1   5   9 1397.09 584.390   9
  -1   5   8 673.210 343.090   7
   1  -5  -8-287.299 306.917   7
  -1   5   8 337.463 165.686  10
  -1   5   8 238.479 186.448   6
   1  -5  -8-189.431 273.326   1
  -1   5   8 342.869 363.626  12
  -1   5   8 97.1727 238.604   9
  -1   5   7 82.3262 306.740  12
  -1   5   7 0.79775 195.837   6
  -1   5   7 536.993 456.257   9
  -1   5   7 67.4998 170.004   7
   1  -5  -7-88.9112 135.756   7
  -1   5   7-229.850 213.551  10
   1  -5  -7-358.343 307.925   1
  -1   5   6 999.264 427.181  12
  -1   5   6 929.521 319.068   6
  -1   5   6 775.343 412.842   9
   1  -5  -6 694.902 367.916   1
   1  -5  -6 1003.64 287.898   7
  -1   5   6 923.801 337.497   7
  -1   5   6 715.986 298.283  10
   1  -5  -5 1394.50 211.910  13
  -1   5   5 1471.65 471.763  12
   1  -5  -5 1069.85 369.016   3
  -1   5   5 1431.01 388.005   7
  -1   5   5 1105.14 321.442  10
   1  -5  -5 1605.34 329.098   7
   1  -5  -5 1169.12 437.059   1
  -1   5   5 1703.32 396.801   6
   1  -5  -4 1349.13 429.166   1
   1  -5  -4 1615.73 269.952  13
  -1   5   4 1493.09 392.223  10
  -1   5   4 1259.92 457.058  12
  -1   5   4 1923.72 437.857   6
   1  -5  -4 1640.79 372.544   2
   1  -5  -4 1416.68 355.868   3
  -1   5   4 1714.57 399.524   7
   1  -5  -3 3640.75 396.224  13
  -1   5   3 3048.61 534.695  12
   1  -5  -3 3512.11 543.342   1
   1  -5  -3 3598.04 519.163   3
  -1   5   3 3680.19 654.013   2
   1  -5  -3 3633.88 510.237   2
  -1   5   3 3903.22 550.222  10
  -1   5   3 3524.13 486.939   7
  -1   5   2 7034.38 621.705   7
  -1   5   2 6437.26 704.112  10
   1  -5  -2 6984.63 672.542   1
   1  -5  -2 6959.19 570.194  13
  -1   5   2 6384.02 347.788  15
   1  -5  -2 7800.20 709.645   2
  -1   5   2 7314.34 786.572  12
   1  -5  -2 6257.15 593.915   3
  -1   5   2 6582.85 735.992   2
   1  -5  -1 3944.35 409.740   3
  -1   5   1 3695.24 435.903   7
   1  -5  -1 4294.46 491.863  13
  -1   5   1 3873.53 551.559  10
  -1   5   1 3777.16 358.167  15
  -1   5   1 3763.91 539.282   2
  -1   5   1 3677.15 587.225  12
   1  -5  -1 3438.95 389.913  15
   1  -5  -1 3843.81 489.244   1
   1  -5   0 140.042 195.244  15
   1  -5   0 0.73956 56.6245   3
   1  -5   0-100.870 208.589  13
  -1   5   0 31.5715 125.570  15
  -1   5   0-204.373 217.280  10
   1  -5   0-75.9253 245.763   8
  -1   5   0-33.3336 322.879   2
   1  -5   0 21.1561 35.1628   4
   1  -5   0 51.6424 175.118   1
  -1   5   0-244.813 253.818  12
   1  -5   1 20401.9 1092.94  15
   1  -5   1 19607.7 922.680   1
   1  -5   1 19018.1 966.857   8
   1  -5   1 21382.7 852.240  14
   1  -5   1 21203.0 1305.50  10
  -1   5  -1 20166.0 1089.00   2
  -1   5  -1 19618.6 1181.76  12
   1  -5   1 19878.5 908.376  11
  -1   5  -1 19863.0 1004.44  15
   1  -5   1 19889.6 1112.60  13
   1  -5   2 6568.52 558.041  11
   1  -5   2 6514.27 760.430  10
   1  -5   2 6090.46 679.195  13
  -1   5  -2 6327.72 646.042   2
   1  -5   2 6591.12 643.348   5
   1  -5   2 6263.34 706.756  15
  -1   5  -2 6252.79 635.817  15
   1  -5   2 6565.43 611.390   8
   1  -5   2 5853.84 490.588  14
   1  -5   3 2560.24 495.850  10
  -1   5  -3 2460.37 463.326   2
  -1   5  -3 2263.41 190.008   4
  -1   5  -3 1950.72 461.676  10
  -1   5  -3 2729.85 495.093   9
   1  -5   3 2521.71 531.272  15
   1  -5   3 2774.56 532.223  13
   1  -5   3 2614.95 460.323   8
   1  -5   3 1996.52 361.581   5
   1  -5   3 2461.58 424.211   2
  -1   5  -3 2612.08 443.274  13
  -1   5  -3 2477.76 425.305  15
   1  -5   3 2595.84 407.537  11
   1  -5   3 2126.55 321.478  14
   1  -5   4 1001.18 319.276   8
   1  -5   4 1425.39 322.058  11
  -1   5  -4 1316.39 341.486   2
   1  -5   4 903.734 429.695  15
   1  -5   4 1428.14 319.173   5
  -1   5  -4 1371.99 139.551   3
  -1   5  -4 1275.32 243.211   4
  -1   5  -4 1372.03 446.482  10
  -1   5  -4 1498.72 375.897  13
  -1   5  -4 818.552 312.601  15
   1  -5   4 1406.60 212.700   1
  -1   5  -4 1675.71 392.280   9
   1  -5   4 1485.29 358.655   2
   1  -5   4 1089.35 412.662  13
  -1   5  -4 1058.98 158.198   3
   1  -5   4 1239.71 266.436  14
   1  -5   4 1132.72 376.139  10
   1  -5   5 2472.88 274.103   1
   1  -5   5 2689.37 464.324   8
   1  -5   5 3157.60 486.736  11
  -1   5  -5 3289.03 585.780  10
  -1   5  -5 2102.53 298.934   3
   1  -5   5 2552.84 475.691   2
   1  -5   5 3300.25 574.878  13
   1  -5   5 3365.09 662.750  15
  -1   5  -5 3242.77 559.062  15
  -1   5  -5 2450.88 509.173   9
  -1   5  -5 2319.65 378.943   4
  -1   5  -5 2730.95 237.681   3
  -1   5  -5 2503.10 297.222  14
   1  -5   5 2893.37 562.503  10
  -1   5  -5 2850.61 519.315   2
   1  -5   5 2483.75 418.925   5
  -1   5  -6 258.620 170.440  14
   1  -5   6 268.719 335.115  15
   1  -5   6 379.962 205.562   8
  -1   5  -6 520.026 256.237   5
  -1   5  -6 382.296 197.342   3
   1  -5   6 381.313 303.199  10
   1  -5   6 326.682 330.047  13
  -1   5  -6 522.104 329.562   9
   1  -5   6 421.647 147.315   1
  -1   5  -6 514.441 367.118   2
   1  -5   6 135.804 176.726  11
   1  -5   6 392.553 225.083   5
  -1   5  -6 275.329 296.189  10
  -1   5  -7 2750.77 575.359   2
  -1   5  -7 3022.68 425.987  14
  -1   5  -7 3211.14 395.435  11
   1  -5   7 2639.51 545.731   8
   1  -5   7 2954.21 693.709  15
   1  -5   7 2499.65 587.523  13
  -1   5  -7 2732.91 503.113   5
   1  -5   7 2316.06 301.180   1
  -1   5  -7 2570.07 583.086  10
  -1   5  -7 2239.31 421.369   3
   1  -5   7 2612.87 500.279   5
  -1   5  -8-382.243 268.877   6
   1  -5   8-276.614 259.060   8
   1  -5   8 198.688 247.706   5
  -1   5  -8 208.015 140.938  14
   1  -5   8-26.0749 260.896  13
  -1   5  -8 155.388 129.565   3
  -1   5  -8 38.1234 155.625  11
   1  -5   8-383.004 421.322  15
  -1   5  -8-533.765 380.146   2
  -1   5  -8 269.401 301.658  10
   1  -5   8-93.2580 107.588   1
   1  -5   9 54.6393 286.630  13
  -1   5  -9 214.016 138.448   6
  -1   5  -9 271.501 191.670  11
  -1   5  -9-264.482 239.465   3
   1  -5   9 427.700 266.321   5
  -1   5  -9-178.212 205.967  14
  -1   5  -9 249.209 250.016   2
   1  -5   9 958.377 397.687  15
   1  -5   9-230.044 280.871   8
  -1   5  -9-194.620 231.970  10
  -1   5 -10 113.492 318.479  10
   1  -5  10-83.2302 343.204  13
   1  -5  10-45.6196 316.953   8
   1  -5  10 965.159 472.338  15
  -1   5 -10 225.968 165.489  11
   1  -5  10 216.238 199.303   5
  -1   5 -10 173.781 264.017   2
  -1   5 -11 121.140 234.659   2
   1  -5  11-129.609 171.790   5
   1  -5  11 751.207 399.765  13
   1  -5  11 684.458 417.233   8
   1  -5  11-263.795 243.020  15
   1  -5  11 754.990 449.358   9
  -1   5 -11 1143.66 435.221  10
   1  -5  12-227.893 213.432   5
   1  -5  12 24.7574 166.295  13
   1  -5  13 190.251 376.126  13
   1  -5  13 170.521 199.598   5
  -1   4  11 176.595 236.303   9
   1  -4 -11 625.441 356.401   1
  -1   4  10 840.177 572.027   9
   1  -4 -10-520.293 346.995   1
  -1   4   9 895.915 257.782   6
  -1   4   9 1017.08 480.722   9
   1  -4  -9 935.845 439.339   1
  -1   4   8 182.513 283.743   9
   1  -4  -8 306.632 367.672   1
  -1   4   8 90.0845 173.838   6
  -1   4   8-20.9478 379.867  12
   1  -4  -8 107.426 174.500   7
  -1   4   8 123.584 61.3667  15
  -1   4   7 7120.12 656.910   6
  -1   4   7 6951.52 836.972   7
  -1   4   7 7430.47 908.354  12
   1  -4  -7 6465.28 737.989   7
  -1   4   7 7708.81 989.326   9
   1  -4  -7 6463.64 813.939   1
  -1   4   6 24991.5 1513.71  12
   1  -4  -6 27544.6 1617.72  12
   1  -4  -6 26173.7 1446.35   1
  -1   4   6 25946.7 1432.43   7
   1  -4  -6 24964.1 1366.50   7
  -1   4   6 26024.1 1638.76   9
  -1   4   6 24888.7 1206.06   6
   1  -4  -5 3485.57 540.177   5
   1  -4  -5 2785.24 192.492  13
  -1   4   5 3445.84 522.372   7
   1  -4  -5 3392.26 475.068   7
  -1   4   5 3841.88 598.060  12
   1  -4  -5 3133.74 537.138  12
  -1   4   5 3388.67 550.365   1
   1  -4  -5 3545.26 556.727   1
  -1   4   5 3981.51 641.089   9
  -1   4   5 3392.57 461.836   6
   1  -4  -5 2858.84 534.775   2
  -1   4   4 8828.12 722.499   6
   1  -4  -4 7861.45 748.519   1
   1  -4  -4 8216.98 414.941  13
  -1   4   4 8677.44 726.950  10
  -1   4   4 8228.11 798.692  12
   1  -4  -4 8609.26 651.048   7
  -1   4   4 9321.39 831.789   1
   1  -4  -4 8101.16 833.228  12
  -1   4   4 8607.47 721.770   7
  -1   4   3 4219.41 548.524   1
  -1   4   3 4937.88 575.337  10
  -1   4   3 5147.30 683.784   2
  -1   4   3 5562.05 549.417   7
  -1   4   3 4954.23 667.445  12
   1  -4  -3 4673.32 370.513  13
   1  -4  -3 4429.39 593.541   1
  -1   4   2 607.773 215.618   7
   1  -4  -2 599.067 217.719  13
   1  -4  -2 314.818 169.095   3
  -1   4   2 87.8875 208.365  10
   1  -4  -2 474.843 270.682   1
  -1   4   2 590.962 311.862  12
  -1   4   2 467.088 115.119  15
  -1   4   2 698.034 332.798   2
   1  -4  -1 1014.62 269.333  13
  -1   4   1 953.551 301.910  12
   1  -4  -1 819.406 186.467   3
  -1   4   1 1023.51 179.876  15
   1  -4  -1 874.506 209.287  15
  -1   4   1 1107.16 323.408   2
  -1   4   1 1220.67 243.499   7
  -1   4   1 1052.72 273.843  10
   1  -4  -1 863.734 244.565   1
  -1   4   0 70374.5 1559.23  15
  -1   4   0 75912.4 1872.78   2
   1  -4   0 68963.8 1102.79   3
  -1   4   0 75073.9 2061.98  12
   1  -4   0 71232.6 1613.90   8
   1  -4   0 72552.4 1699.94  15
   1  -4   0 73833.9 1765.54  13
   1  -4   0 72944.8 965.768   4
   1  -4   0 73244.2 1633.05   1
   1  -4   1 11232.1 761.650  15
   1  -4   1 11768.4 631.399  11
   1  -4   1 11606.4 872.118  10
   1  -4   1 12359.3 598.367  14
  -1   4  -1 12237.0 758.318   2
   1  -4   1 10956.7 750.504  13
  -1   4  -1 11377.4 796.447  12
  -1   4  -1 12273.7 732.122  13
   1  -4   1 11160.9 668.359   8
   1  -4   1 11452.9 608.838   1
  -1   4  -1 11390.5 708.187  15
  -1   4  -2-102.962 290.310   2
   1  -4   2 53.9365 124.087  14
  -1   4  -2-187.364 188.397  15
   1  -4   2-22.9435 241.166  15
   1  -4   2 43.0266 254.248  13
   1  -4   2 39.7358 153.529  11
   1  -4   2-224.942 188.626   5
   1  -4   2 44.1572 198.078   8
  -1   4  -2 56.3045 64.8356   4
   1  -4   2 4.40508 141.349  10
   1  -4   3 95690.2 2509.04  10
   1  -4   3 89786.4 2512.13  15
  -1   4  -3 91071.2 2130.33   2
  -1   4  -3 98534.4 2658.02   9
  -1   4  -3 83164.4 1164.90   3
  -1   4  -3 87263.1 1583.79   4
  -1   4  -3 93734.0 1469.27  14
   1  -4   3 90168.2 2052.03   8
  -1   4  -3 91086.5 2360.51  15
  -1   4  -3 88536.6 840.420   3
   1  -4   3 93496.1 2398.19  13
   1  -4   3 88193.7 1805.73  14
   1  -4   3 96492.0 2113.54  11
   1  -4   3 91002.8 1960.18   5
   1  -4   4 17037.6 1217.78  15
  -1   4  -4 14456.8 682.135  14
  -1   4  -4 16716.5 863.801   8
   1  -4   4 17138.4 1116.03  13
  -1   4  -4 15973.9 715.482   3
   1  -4   4 16891.6 955.914  11
   1  -4   4 16273.9 874.044   5
   1  -4   4 16007.2 579.636   1
  -1   4  -4 16244.7 979.580   2
   1  -4   4 16798.7 866.293  14
  -1   4  -4 15535.5 1062.21  15
  -1   4  -4 18051.0 1129.93  10
   1  -4   4 17308.3 961.795   8
  -1   4  -4 17010.1 1191.23   9
  -1   4  -4 16268.9 737.410  11
   1  -4   4 15520.5 1045.33  10
  -1   4  -5 22.0297 205.696   2
  -1   4  -5-269.273 203.559   9
   1  -4   5 1.31811 69.9703   1
   1  -4   5-536.156 241.544  10
   1  -4   5-252.319 195.665   5
  -1   4  -5-2.04496 156.851  11
  -1   4  -5-83.5724 174.112   8
  -1   4  -5 25.8867 108.277  14
  -1   4  -5-147.803 234.617  10
   1  -4   5-284.053 254.046  13
   1  -4   5-256.668 315.074  15
  -1   4  -5-264.792 196.615   5
   1  -4   5 295.645 198.084   8
  -1   4  -5-364.895 171.288  15
   1  -4   5-170.071 188.619  11
  -1   4  -5-234.564 187.810  13
   1  -4   6 456.041 308.437  13
  -1   4  -6 527.344 211.721   5
  -1   4  -6 615.671 211.819  14
  -1   4  -6 506.107 256.124  13
  -1   4  -6 543.551 251.996   9
   1  -4   6 370.523 236.201   8
  -1   4  -6 517.118 222.820  15
   1  -4   6 255.917 340.756  15
  -1   4  -6 395.471 196.012   8
   1  -4   6 449.474 126.991   1
  -1   4  -6 636.125 220.743  11
  -1   4  -6 181.423 214.149  10
   1  -4   6 84.8968 195.851   5
   1  -4   6 483.024 236.017  10
  -1   4  -6 385.276 236.945   2
  -1   4  -7 2481.90 527.930   2
  -1   4  -7 2419.29 429.608  14
   1  -4   7 2462.37 632.887  15
   1  -4   7 1974.68 469.519  10
  -1   4  -7 2442.69 482.497   3
  -1   4  -7 3150.71 511.354   5
   1  -4   7 2084.55 285.676   1
   1  -4   7 2624.87 581.580  13
  -1   4  -7 2800.35 439.318   8
  -1   4  -7 2537.88 523.752  10
   1  -4   7 3006.95 573.338   8
   1  -4   7 2121.01 652.652   9
  -1   4  -7 2334.64 377.902  11
   1  -4   7 2485.03 475.093   5
   1  -4   8 1141.26 464.108   9
   1  -4   8 1042.17 369.093   8
   1  -4   8 1138.44 363.382  10
  -1   4  -8 1250.51 341.313   8
  -1   4  -8 1898.68 451.888   2
  -1   4  -8 1116.28 348.416   5
   1  -4   8 1100.84 344.273   5
   1  -4   8 888.179 461.520  15
  -1   4  -8 1071.57 311.029   6
  -1   4  -8 1107.55 396.964  10
  -1   4  -8 1106.02 375.443   3
  -1   4  -8 1580.48 339.544  11
  -1   4  -8 971.363 308.068  14
   1  -4   8 483.200 319.337  13
   1  -4   8 1295.07 258.368   1
   1  -4   9 1697.71 325.957   1
  -1   4  -9 1837.28 485.221   2
   1  -4   9 2382.33 523.083   5
  -1   4  -9 2242.05 402.026   8
   1  -4   9 2304.68 680.909   9
   1  -4   9 1449.02 398.176  10
  -1   4  -9 1929.70 415.603   6
  -1   4  -9 1646.66 435.808   3
   1  -4   9 2388.81 612.508  13
   1  -4   9 2598.31 698.768  15
  -1   4  -9 2771.24 439.576  11
  -1   4  -9 2555.60 558.315  10
  -1   4  -9 2165.89 496.812  14
   1  -4   9 2600.82 563.431   8
   1  -4  10 5699.25 833.635   8
   1  -4  10 4680.41 760.800   5
  -1   4 -10 5251.12 836.092   2
   1  -4  10 5439.09 857.950  13
  -1   4 -10 4828.45 574.494  11
   1  -4  10 4504.83 883.521   9
  -1   4 -10 4388.22 700.525  10
   1  -4  10 4925.11 905.262  15
  -1   4 -11 963.632 387.363  10
   1  -4  11 932.686 382.530   5
   1  -4  11 833.965 339.904   8
   1  -4  11 449.554 293.176  15
   1  -4  11 1583.15 538.381  13
  -1   4 -11 579.224 248.822  11
   1  -4  11 517.421 410.656   9
  -1   4 -11 654.566 288.870   2
   1  -4  12 622.654 455.551  13
   1  -4  12 31.3940 169.920  15
  -1   4 -12 500.312 334.076   2
   1  -4  12 67.2067 324.002   5
   1  -4  13 53.8802 216.973  13
   1  -4  13 1582.64 515.293   5
   1  -3 -12 1455.39 532.715   1
  -1   3  12 1527.23 649.811   9
   1  -3 -11 179.700 329.096   1
  -1   3  11 407.907 413.479   9
  -1   3  10 2484.92 693.665   9
   1  -3 -10 2586.69 576.271   1
  -1   3  10 2346.96 449.696  15
  -1   3  10 2079.30 298.588   6
  -1   3   9 572.433 189.014   6
  -1   3   9 487.226 187.344  10
  -1   3   9 324.699 345.314   9
   1  -3  -9 508.073 361.598   1
  -1   3   9 756.002 239.956  15
   1  -3  -8 2611.45 582.426   1
   1  -3  -8 1960.82 480.809  12
   1  -3  -8 1921.40 475.644   7
  -1   3   8 2866.24 384.347  15
  -1   3   8 2413.62 360.204   6
  -1   3   8 2606.72 687.015   9
  -1   3   7 789.661 373.171  12
   1  -3  -7 739.887 374.570   1
  -1   3   7 546.216 337.325   9
  -1   3   7 562.280 214.681   6
  -1   3   7 553.617 211.092  15
   1  -3  -7 553.334 247.713   7
   1  -3  -7 523.281 290.195  12
   1  -3  -6 12616.2 1019.97  12
  -1   3   6 11051.0 552.570  15
   1  -3  -6 11058.6 892.108   1
  -1   3   6 11229.5 949.399  12
   1  -3  -6 11616.7 1006.06   2
  -1   3   6 12153.2 960.615   7
  -1   3   6 12378.0 999.117   1
  -1   3   6 12934.2 1101.18   9
   1  -3  -6 11070.4 882.411   7
  -1   3   6 12480.2 756.324   6
   1  -3  -6 11794.5 959.666   5
  -1   3   5 303.693 96.5770  15
   1  -3  -5 368.875 160.431   7
  -1   3   5 465.763 306.998  12
  -1   3   5 415.632 229.588   7
  -1   3   5 283.092 287.170   9
   1  -3  -5 521.083 235.540   5
  -1   3   5 286.922 165.042   6
   1  -3  -5 294.788 236.739   1
   1  -3  -5 504.290 228.581  12
  -1   3   4 157.446 62.6639  15
  -1   3   4 207.363 189.392   7
  -1   3   4 585.172 281.938  12
   1  -3  -4 523.387 161.881   7
   1  -3  -4 798.859 301.482   5
  -1   3   4 429.124 268.465   6
   1  -3  -4 293.533 193.958  12
   1  -3  -4 207.187 180.067   1
   1  -3  -4 210.481 68.5065  13
  -1   3   3 6911.49 690.865   2
  -1   3   3 5834.51 251.685  15
  -1   3   3 7259.39 567.113   6
   1  -3  -3 7048.49 339.254  13
   1  -3  -3 6992.49 580.371   1
  -1   3   3 6400.97 649.835  12
   1  -3  -3 6775.01 481.250   7
  -1   3   3 6265.03 514.072   7
  -1   3   2 6422.14 526.921   1
  -1   3   2 6666.96 450.991   7
  -1   3   2 6971.26 619.224   2
   1  -3  -2 6716.95 538.032   1
   1  -3  -2 6928.72 395.201  13
  -1   3   2 6128.74 305.231  15
  -1   3   2 6574.30 595.662  12
  -1   3   1 5994.18 374.100  15
  -1   3   1 6395.85 473.034   1
  -1   3   1 7076.37 414.124   7
  -1   3   1 6391.44 582.652  12
   1  -3  -1 6545.88 473.215   1
   1  -3  -1 6106.46 422.731  13
  -1   3   1 6882.26 563.879   2
  -1   3   0 6642.35 455.399  15
   1  -3   0 6578.08 418.174   1
  -1   3   0 6685.04 447.346  13
   1  -3   0 6990.10 505.398  13
   1  -3   0 7304.41 306.303   4
   1  -3   0 6062.86 280.719   3
  -1   3   0 6985.25 571.760  12
   1  -3   0 6902.83 481.547  15
  -1   3   0 6720.67 509.348   2
   1  -3   0 7124.69 458.525   8
  -1   3  -1-111.056 109.217  15
   1  -3   1 70.6670 105.142  11
  -1   3  -1 26.2265 54.2797   4
   1  -3   1 37.7473 72.6859   1
   1  -3   1 20.5644 104.208  14
   1  -3   1 33.7972 125.143  10
  -1   3  -1 22.4714 145.874   2
   1  -3   1 21.8418 176.792   8
   1  -3   1 296.622 195.652  15
   1  -3   1 39.2581 167.006  13
   1  -3   2 23097.0 909.713   8
   1  -3   2 23953.1 1048.76  13
   1  -3   2 26740.5 982.486  11
   1  -3   2 22152.1 799.199  14
   1  -3   2 22247.3 1078.85  15
   1  -3   2 23680.4 851.114   5
  -1   3  -2 23541.8 725.673   4
   1  -3   2 23076.7 1063.88  10
  -1   3  -2 24321.3 787.582  11
  -1   3  -2 24970.8 1161.48   9
  -1   3  -2 24819.5 962.594   2
  -1   3  -2 24151.3 725.518  14
  -1   3  -3 56563.5 1890.44   9
   1  -3   3 54908.2 1485.76   8
  -1   3  -3 51984.6 1216.90  14
   1  -3   3 52955.8 860.156   1
  -1   3  -3 50749.8 1342.47   5
  -1   3  -3 53185.6 1337.19   8
  -1   3  -3 56425.9 1714.24  10
   1  -3   3 53142.9 1393.02  14
  -1   3  -3 54114.9 1168.88   3
   1  -3   3 53424.0 1485.33  11
  -1   3  -3 53239.6 1483.09   2
   1  -3   3 51986.1 1768.00  15
   1  -3   3 53061.3 1662.25  13
   1  -3   3 50816.6 1620.92  10
   1  -3   3 55080.1 1337.42   5
  -1   3  -3 55105.5 1246.95  11
   1  -3   4 4590.06 632.172  15
  -1   3  -4 4980.25 445.147   8
   1  -3   4 4218.03 554.403  13
  -1   3  -4 5027.35 530.645   2
   1  -3   4 4591.90 280.035   1
  -1   3  -4 5271.12 444.153  11
   1  -3   4 4937.56 455.282   5
   1  -3   4 4671.81 527.316  10
   1  -3   4 4245.73 455.299  14
  -1   3  -4 4806.87 559.300  10
  -1   3  -4 4682.14 439.330  14
   1  -3   4 4176.28 474.072  11
  -1   3  -4 4580.19 439.543   5
   1  -3   4 4956.51 518.362   8
  -1   3  -4 5010.36 619.825   9
  -1   3  -5 37627.6 1393.62  14
   1  -3   5 39234.8 947.201   1
  -1   3  -5 39725.1 1369.77   5
   1  -3   5 39167.0 1513.42  10
   1  -3   5 41912.2 1404.10   5
   1  -3   5 39821.6 1792.43   9
   1  -3   5 39731.6 1644.36  13
  -1   3  -5 43006.0 1610.43  13
  -1   3  -5 42442.3 1302.64  11
  -1   3  -5 38619.5 1256.98   8
   1  -3   5 40900.9 1539.27   8
  -1   3  -5 43404.1 1597.41   2
  -1   3  -5 44330.2 1917.01   9
  -1   3  -5 43020.3 1597.35  10
   1  -3   5 38656.1 1792.92  15
  -1   3  -6 3778.82 433.502  11
  -1   3  -6 3597.12 481.769  14
  -1   3  -6 3261.13 503.128   2
  -1   3  -6 3844.21 605.816  15
   1  -3   6 3113.88 316.814   1
  -1   3  -6 3533.11 505.992  10
  -1   3  -6 3623.03 510.540  13
  -1   3  -6 3793.82 600.348   9
  -1   3  -6 3761.38 436.401   8
  -1   3  -6 3059.28 325.919   1
   1  -3   6 3339.82 489.968  10
   1  -3   6 3256.63 553.059  13
   1  -3   6 3741.58 488.564   5
  -1   3  -6 3673.33 469.464   5
   1  -3   6 3249.26 504.179   8
   1  -3   6 3203.38 602.183   9
   1  -3   6 3288.31 658.147  15
  -1   3  -7 757.890 278.894  14
  -1   3  -7 830.795 291.604   5
   1  -3   7 976.538 308.497   5
   1  -3   7 961.759 257.686  10
  -1   3  -7 977.182 243.369   8
  -1   3  -7 437.523 253.998   7
  -1   3  -7 955.681 333.472  13
   1  -3   7 993.315 365.724  13
  -1   3  -7 1129.15 284.671   6
   1  -3   7 605.388 355.751   9
  -1   3  -7 963.546 311.532   9
   1  -3   7 683.808 204.551   1
   1  -3   7 1068.31 366.572   8
  -1   3  -7 762.888 215.400   1
   1  -3   7 1137.00 422.396  15
  -1   3  -7 1318.82 415.874  15
  -1   3  -7 876.041 260.225  11
  -1   3  -7 458.907 292.561  10
  -1   3  -7 1015.23 399.050   2
  -1   3  -8 1565.03 355.631  11
  -1   3  -8 2069.22 543.404   2
   1  -3   8 1368.44 357.046  10
   1  -3   8 2063.62 504.886  13
  -1   3  -8 2117.11 513.987   3
  -1   3  -8 1769.04 350.891   8
  -1   3  -8 1597.11 431.350  14
   1  -3   8 1271.88 391.396   8
  -1   3  -8 1895.44 391.435   5
  -1   3  -8 1428.93 409.433  13
   1  -3   8 1466.11 311.743   1
  -1   3  -8 1574.72 332.186   6
   1  -3   8 1179.42 450.096   9
   1  -3   8 2111.46 476.564   5
  -1   3  -8 1438.51 420.115  10
  -1   3  -8 1703.34 310.250   1
   1  -3   8 1328.94 524.733  15
  -1   3  -9-77.5662 176.463  14
   1  -3   9 316.349 288.831  15
   1  -3   9 221.768 224.769   5
   1  -3   9-1.12026 111.605   8
   1  -3   9-269.554 136.637   1
  -1   3  -9 24.7882 162.097   6
   1  -3   9 213.713 314.657  13
  -1   3  -9-84.1739 136.374   8
  -1   3  -9-125.422 145.622   1
   1  -3   9-327.971 463.051   9
  -1   3  -9 342.388 212.496  11
  -1   3  -9 29.2902 239.582  10
   1  -3   9-37.2147 100.771  10
  -1   3  -9-142.328 286.411   2
   1  -3  10-215.709 238.184   5
  -1   3 -10 376.808 250.921   1
   1  -3  10 596.018 383.770  13
  -1   3 -10-351.890 319.197  10
  -1   3 -10-217.311 201.129   8
   1  -3  10 68.8540 120.430   1
   1  -3  10-238.830 212.022  10
  -1   3 -10 161.219 130.462  11
  -1   3 -10-127.473 396.001   2
   1  -3  10 147.541 379.731   9
   1  -3  10 84.8109 223.885  15
   1  -3  11-54.8107 193.025   5
  -1   3 -11-419.159 247.617  10
  -1   3 -11-141.906 321.184   2
   1  -3  11-568.601 386.848   9
  -1   3 -11-141.039 204.847  11
   1  -3  11 547.486 312.617  15
  -1   3 -11 177.457 159.921   1
   1  -3  11-204.948 216.153  13
  -1   3 -12 334.251 281.873   1
   1  -3  12 251.647 233.253  15
   1  -3  12 555.126 545.956   9
   1  -3  12 805.842 437.288   5
  -1   3 -12 701.618 384.534   2
   1  -3  12 309.604 426.999  13
   1  -3  13-22.8768 111.641  15
   1  -3  13-328.308 405.396   5
   1  -3  13-226.775 201.487  13
   1  -2 -13 388.991 333.990   1
   1  -2 -12 122.530 250.480   1
  -1   2  12-50.5115 351.892   9
   1  -2 -11 598.791 391.473   1
  -1   2  11 581.576 271.329  15
  -1   2  11 299.413 372.515   9
  -1   2  10 97.2795 322.169   9
   1  -2 -10 31.6187 197.988   1
  -1   2  10-126.883 185.203  15
  -1   2  10-139.470 90.1940   6
  -1   2  10 11.7847 119.171  10
  -1   2   9 3606.02 757.198   9
   1  -2  -9 4063.81 459.860   8
   1  -2  -9 3947.81 633.506   1
  -1   2   9 4140.41 428.578   6
  -1   2   9 4815.78 578.294  10
   1  -2  -9 3365.99 590.935  12
  -1   2   9 4066.17 551.281  15
  -1   2   8 7290.88 674.495  10
   1  -2  -8 7233.73 832.716   7
   1  -2  -8 7094.95 611.234   8
   1  -2  -8 7165.04 787.370   1
  -1   2   8 7398.74 678.064  15
  -1   2   8 7388.15 987.421   9
   1  -2  -8 7400.20 805.844  12
  -1   2   8 6963.54 552.300   6
  -1   2   7 733.811 218.232   6
   1  -2  -7 761.255 363.073   1
  -1   2   7 772.354 253.862   1
   1  -2  -7 501.627 289.563  12
   1  -2  -7 688.789 266.153   7
  -1   2   7 531.351 312.285   9
   1  -2  -7 502.856 272.401   5
  -1   2   7 595.143 226.105  15
  -1   2   6-76.3152 218.366  12
  -1   2   6-90.0774 111.165  15
  -1   2   6-345.319 269.027   9
   1  -2  -6-199.736 133.193   7
   1  -2  -6-213.010 205.175  12
  -1   2   6 11.7464 120.446   6
   1  -2  -6 33.4300 186.777   1
   1  -2  -6 186.267 134.418   5
  -1   2   5-11.6286 111.194  15
  -1   2   5 51.5286 144.421   6
   1  -2  -5 8.76579 132.741   5
  -1   2   5 261.944 237.072  12
   1  -2  -5-2.03761 147.712  12
   1  -2  -5 9.25561 146.087   1
  -1   2   5-82.1008 188.847   9
  -1   2   5 273.640 198.696   7
   1  -2  -5 228.346 150.832   7
   1  -2  -4-6.84533 148.928   5
  -1   2   4 32.9398 232.336   9
   1  -2  -4 98.1532 98.4396   7
  -1   2   4-77.1985 129.477   6
  -1   2   4 28.3329 163.549   7
   1  -2  -4 27.7394 182.635   1
  -1   2   4-90.7953 213.103  12
   1  -2  -4-26.5199 153.902  12
  -1   2   4 11.1568 81.8164  15
  -1   2   3 29194.8 957.957   6
  -1   2   3 27699.5 910.738   7
   1  -2  -3 28751.4 1029.31   1
   1  -2  -3 28669.3 1073.06   5
   1  -2  -3 27807.3 904.941   7
  -1   2   3 27934.7 1110.41  12
   1  -2  -2 678437. 4350.48   1
  -1   2   2 663198. 4410.27   6
   1  -2  -2 670915. 2777.11  13
  -1   2   2 683288. 4938.89  12
  -1   2   2 681147. 3692.20   7
  -1   2   1 405813. 3066.03   1
  -1   2   1 423657. 3636.88  12
  -1   2   1 418983. 2730.25  15
   1  -2  -1 416671. 2966.06   1
  -1   2   1 406212. 2589.34  13
   1  -2  -1 416649. 2720.47  13
  -1   2   1 403994. 2235.34   7
   1  -2  -1 403982. 2668.90   8
  -1   2   1 404423. 3385.70   2
   1  -2   0 306.943 160.938   8
   1  -2   0 130.420 120.599  15
   1  -2   0 98.0536 61.0096   4
  -1   2   0 2.52050 130.273  12
  -1   2   0 162.216 129.748   2
   1  -2   0 95.3628 86.6737   1
   1  -2   0 161.200 144.534  13
   1  -2   0 356.508 111.304  11
  -1   2   0 15.4478 74.3969   1
  -1   2   0 40.6856 91.2184  15
   1  -2   1 125764. 1951.87  13
   1  -2   1 121554. 1035.80   1
   1  -2   1 119067. 1985.29  15
  -1   2  -1 122575. 1408.38   4
  -1   2  -1 117945. 1472.47  14
   1  -2   1 122890. 1711.74   8
   1  -2   1 127486. 1826.51  11
  -1   2  -1 124367. 1719.47  12
  -1   2  -1 122689. 1723.79   2
   1  -2   1 116636. 1482.40   4
   1  -2   1 123247. 1987.34  10
   1  -2   1 115452. 1604.20  14
   1  -2   1 119212. 1504.10   5
   1  -2   2 66315.9 648.726   1
  -1   2  -2 66494.4 1381.52   2
   1  -2   2 69115.3 1175.46   5
  -1   2  -2 68392.1 1159.77   3
  -1   2  -2 72976.7 1378.44  11
   1  -2   2 67731.8 1516.17  10
   1  -2   2 67224.4 1448.94  11
  -1   2  -2 61237.5 1138.23   5
   1  -2   2 67973.3 1690.00  15
   1  -2   2 70703.9 1439.67   8
  -1   2  -2 67275.0 1280.66  14
   1  -2   2 69404.0 1609.31  13
   1  -2   2 66518.9 1396.28  14
   1  -2   3 1374.20 279.533   8
   1  -2   3 1120.53 305.702   9
  -1   2  -3 1491.95 235.428   3
   1  -2   3 946.933 204.702  11
   1  -2   3 1418.05 263.585  14
   1  -2   3 1501.67 139.309   1
   1  -2   3 1162.60 319.679  15
  -1   2  -3 1378.46 286.381   2
   1  -2   3 1097.16 203.550   5
  -1   2  -3 1359.22 210.071   5
  -1   2  -3 1339.16 233.796   8
  -1   2  -3 1236.91 231.911  11
  -1   2  -3 1219.56 244.733  14
   1  -2   3 1265.60 241.564  10
   1  -2   3 1482.85 328.007  13
  -1   2  -3 1297.24 258.806  10
  -1   2  -4-16.7595 102.112   8
   1  -2   4-114.306 124.972  10
  -1   2  -4-2.11166 178.026   2
   1  -2   4-26.6800 233.522  15
  -1   2  -4-16.0394 93.3513  14
  -1   2  -4 57.6468 172.213  13
   1  -2   4-73.9911 151.560   8
   1  -2   4-223.428 237.568  13
  -1   2  -4 49.7396 117.086  11
   1  -2   4-68.4174 103.512   5
   1  -2   4 49.3344 71.8311   1
  -1   2  -4-27.4135 69.5634   1
  -1   2  -4 133.983 165.311  10
  -1   2  -4 25.4422 118.312   5
   1  -2   4 104.661 199.945   9
  -1   2  -5 2296.59 249.957   1
  -1   2  -5 1865.47 319.497  10
  -1   2  -5 2298.11 321.869   8
  -1   2  -5 1863.10 301.450   5
  -1   2  -5 2526.45 408.958  14
   1  -2   5 2349.57 267.501   1
   1  -2   5 2510.44 352.820   5
   1  -2   5 2236.99 477.705   9
   1  -2   5 1859.86 408.985  15
   1  -2   5 2156.06 385.036   8
  -1   2  -5 2081.96 338.065  11
  -1   2  -5 1831.87 341.146  13
   1  -2   5 2013.11 310.605  10
  -1   2  -5 2309.89 431.121   2
   1  -2   5 2272.62 409.677  13
   1  -2   6-216.867 276.954   9
  -1   2  -6 78.2254 157.512  13
  -1   2  -6 8.59057 159.242  15
  -1   2  -6 57.3300 123.252   8
   1  -2   6-145.155 226.968  15
  -1   2  -6-18.1205 99.2273   6
   1  -2   6-43.4014 200.083  13
  -1   2  -6-224.008 242.888   2
   1  -2   6 149.811 124.576   1
  -1   2  -6 8.46263 183.886  11
  -1   2  -6 96.9567 175.014  14
   1  -2   6-110.112 169.557   8
   1  -2   6 241.815 159.649  10
  -1   2  -6 186.057 151.439   5
  -1   2  -6 29.8533 101.317   1
  -1   2  -6-61.9746 163.894  10
   1  -2   6 21.6390 186.974   5
  -1   2  -7 604.419 247.626  11
  -1   2  -7 731.808 233.902   8
  -1   2  -7 659.204 196.918   6
  -1   2  -7 528.237 279.656  15
  -1   2  -7 844.624 224.471   1
   1  -2   7 904.998 321.831   8
   1  -2   7 529.951 178.955   1
  -1   2  -7 815.808 279.249  13
   1  -2   7 841.585 249.445  10
   1  -2   7 1098.47 310.307   5
  -1   2  -7 504.976 282.750   7
  -1   2  -7 621.233 317.430  14
   1  -2   7 825.711 350.230  13
  -1   2  -7 497.199 301.092   2
   1  -2   7 733.576 353.825   9
  -1   2  -7 827.892 309.945   9
   1  -2   7 1102.12 424.565  15
  -1   2  -7 902.574 256.659   5
  -1   2  -7 581.573 258.306  10
   1  -2   8 15488.0 1421.55   9
  -1   2  -8 16065.2 1292.91  14
  -1   2  -8 16814.3 883.848   1
   1  -2   8 15115.7 1113.77   8
   1  -2   8 15260.8 1125.44   5
  -1   2  -8 15800.5 1201.81   2
  -1   2  -8 15750.2 1326.77   3
   1  -2   8 14663.8 921.552   1
   1  -2   8 15477.4 973.403  10
  -1   2  -8 16865.6 1059.87   5
  -1   2  -8 15462.1 904.924   8
  -1   2  -8 16098.7 783.591   6
  -1   2  -8 14534.3 783.936  12
  -1   2  -8 13685.1 994.968  11
  -1   2  -8 16275.6 997.983  10
   1  -2   8 15398.2 1206.89  13
   1  -2   8 16614.8 1352.30  15
  -1   2  -8 16526.4 1097.21  13
  -1   2  -9 130.279 159.573  12
  -1   2  -9 502.558 235.609   1
   1  -2   9-32.2662 311.559   9
   1  -2   9 252.914 342.209  15
  -1   2  -9 591.508 267.528  13
  -1   2  -9 603.902 249.485   8
   1  -2   9 310.643 304.427  13
  -1   2  -9 208.775 255.306   2
   1  -2   9 343.779 200.187   1
  -1   2  -9 455.372 146.557   6
  -1   2  -9 301.640 233.304  14
  -1   2  -9 121.191 229.797  11
   1  -2   9 91.6256 228.759   5
   1  -2   9 585.145 223.054  10
  -1   2  -9 389.698 248.263  10
   1  -2  10 1754.17 392.084  10
  -1   2 -10 2052.42 407.445   8
  -1   2 -10 1583.65 435.945  11
   1  -2  10 1411.27 514.802   9
   1  -2  10 1601.19 541.965  15
  -1   2 -10 1881.09 392.557   1
  -1   2 -10 1865.99 506.417   2
   1  -2  10 1696.54 390.325   1
   1  -2  10 2299.27 554.665   5
   1  -2  10 1922.93 512.336  13
  -1   2 -11 1570.68 592.801   2
   1  -2  11 1626.04 476.250   5
   1  -2  11 2440.05 754.244   9
   1  -2  11 718.484 364.403  15
  -1   2 -11 1516.53 384.268   1
  -1   2 -11 1652.01 386.422  11
   1  -2  11 1831.97 583.844  13
   1  -2  12 1136.22 440.565  13
  -1   2 -12 1055.54 358.004   1
   1  -2  12 392.667 350.280   5
   1  -2  12 2201.57 735.550   9
  -1   2 -12 648.375 321.961  11
  -1   2 -12 993.202 504.820   2
   1  -2  12 945.445 449.816  15
   1  -2  13 1478.63 589.116  15
   1  -1 -13-204.985 226.853   1
   1  -1 -12 716.835 394.033   1
  -1   1  12 1289.60 428.996  15
  -1   1  12 900.591 427.395   9
   1  -1 -11 53.5093 324.325   1
  -1   1  11 444.023 382.726   9
  -1   1  11 374.465 218.656  15
   1  -1 -10 612.244 354.777   1
   1  -1 -10 679.029 324.929  12
  -1   1  10 481.292 178.750  10
  -1   1  10 212.776 448.798   9
  -1   1  10 270.255 259.538  15
   1  -1 -10 476.954 151.082   8
  -1   1   9 1619.06 497.446   9
   1  -1  -9 1006.14 365.922  12
   1  -1  -9 688.097 170.169   6
   1  -1  -9 802.734 188.072   8
  -1   1   9 368.303 245.791  15
  -1   1   9 1127.22 249.674   6
   1  -1  -9 779.494 342.122   1
  -1   1   9 1186.50 314.203  10
   1  -1  -8 20032.2 1219.68  12
   1  -1  -8 21583.8 1191.59   1
   1  -1  -8 18645.3 831.089   6
  -1   1   8 19590.9 1341.33   5
   1  -1  -8 18435.8 1348.35   7
  -1   1   8 19675.8 1068.17  10
   1  -1  -8 19369.5 780.239   8
  -1   1   8 19442.1 1148.04  15
  -1   1   8 21287.4 1541.58   9
  -1   1   8 21109.1 903.473   6
  -1   1   8 20515.7 1294.73   1
  -1   1   7 4840.06 590.844   1
  -1   1   7 5835.71 776.422   9
   1  -1  -7 4640.58 640.922   7
   1  -1  -7 5231.91 591.748   1
   1  -1  -7 5708.48 625.180  12
  -1   1   7 5274.52 449.103   6
  -1   1   7 5429.76 670.202   5
   1  -1  -7 4727.78 386.737   8
   1  -1  -7 5311.86 617.171   5
   1  -1  -7 4754.09 419.157   6
  -1   1   7 5495.47 577.629  15
  -1   1   7 5362.15 538.444  10
   1  -1  -6 44705.5 1485.65   1
   1  -1  -6 46793.8 1665.58   5
   1  -1  -6 43209.3 1094.29   8
   1  -1  -6 42316.5 1558.56  12
   1  -1  -6 42562.7 1181.65   6
   1  -1  -6 42204.6 1703.57   7
  -1   1   6 45490.5 1245.83   6
  -1   1   6 42446.5 1373.89  15
  -1   1   6 42905.3 1405.55  10
  -1   1   6 45439.7 1621.47   1
  -1   1   6 42191.4 1822.26   9
  -1   1   6 41675.3 934.448  13
   1  -1  -5 1814.63 313.690   5
  -1   1   5 1021.67 354.287   9
   1  -1  -5 1852.63 333.559   7
   1  -1  -5 1672.62 250.056   6
   1  -1  -5 1643.02 336.769   1
  -1   1   5 1518.69 156.364  13
  -1   1   5 1731.05 268.762   6
  -1   1   5 1795.48 272.266  15
   1  -1  -5 2135.28 354.321  12
  -1   1   4 9432.30 493.581  15
   1  -1  -4 10713.7 675.518  12
   1  -1  -4 10124.0 611.022   1
   1  -1  -4 9470.16 507.623   6
   1  -1  -4 9814.40 634.123   7
   1  -1  -4 10705.4 669.594   5
  -1   1   4 8829.94 496.743   6
  -1   1   4 9570.11 708.207   9
  -1   1   3 13083.0 691.687  12
  -1   1   3 13517.6 572.635   6
   1  -1  -3 13249.7 607.664   7
   1  -1  -3 13941.0 637.510   1
   1  -1  -3 12553.9 636.766   5
   1  -1  -3 13118.5 566.279   6
   1  -1  -2 173771. 1902.88   1
   1  -1  -2 165522. 1593.63   7
   1  -1  -2 169146. 2000.16   5
  -1   1   2 170431. 1876.62   6
  -1   1   2 175486. 2162.57  12
  -1   1   1 58718.5 1084.64  12
   1  -1  -1 56361.1 808.774  13
   1  -1  -1 59960.0 899.922   1
  -1   1   1 58464.8 796.642  13
  -1   1   1 61100.4 1043.72   2
  -1   1   1 57287.3 1041.93   6
   1  -1  -1 59353.0 774.279   8
   1  -1   0 682.157 113.936   4
   1  -1   0 697.742 85.9965   3
   1  -1   0 622.091 128.377  13
  -1   1   0 766.807 117.746   2
  -1   1   0 626.665 135.007   6
  -1   1   0 587.684 121.276  12
   1  -1   0 685.945 128.228   8
   1  -1   0 562.947 124.792  14
   1  -1   0 635.175 72.0581   1
   1  -1   1 7870.70 466.591  15
   1  -1   1 8058.22 426.780  11
   1  -1   1 7587.56 442.811  13
   1  -1   1 7643.29 420.852  14
   1  -1   1 7953.49 358.239   3
  -1   1  -1 8175.95 281.665  12
   1  -1   1 8184.54 261.063   5
  -1   1  -1 7741.11 254.910   5
   1  -1   1 7814.68 409.410   8
  -1   1  -1 8014.15 349.642   3
  -1   1  -1 7783.39 351.687   2
   1  -1   2 13635.1 655.265  13
  -1   1  -2 13351.3 316.656   1
   1  -1   2 13347.9 651.955  14
   1  -1   2 12500.5 334.027   1
   1  -1   2 12095.9 504.568  10
  -1   1  -2 13090.1 439.950   5
   1  -1   2 12227.4 586.335   8
  -1   1  -2 12772.5 523.084  10
  -1   1  -2 13377.1 580.892   2
   1  -1   2 13213.0 444.256   5
   1  -1   2 13312.7 677.190  15
   1  -1   2 13055.6 681.215   9
  -1   1  -2 13284.0 604.524   3
   1  -1   3 85279.0 1985.53   9
   1  -1   3 78349.1 1154.37   1
  -1   1  -3 81268.5 1830.83  14
   1  -1   3 83805.3 1726.40   8
   1  -1   3 83084.6 1398.47   5
   1  -1   3 83398.2 1903.83  15
  -1   1  -3 81413.5 1345.31   5
  -1   1  -3 81592.0 1384.21  10
  -1   1  -3 82896.7 1091.92   1
  -1   1  -3 80917.0 1701.57  11
   1  -1   3 82201.8 1392.68  10
  -1   1  -3 82155.4 1572.71   8
   1  -1   3 83331.5 1789.03  13
  -1   1  -3 85068.0 1846.87   3
  -1   1  -4 11714.0 513.669   1
  -1   1  -4 11529.5 806.274   3
  -1   1  -4 13145.4 817.142  15
  -1   1  -4 11670.7 688.976  13
  -1   1  -4 11269.2 588.333   5
   1  -1   4 12116.4 757.546  13
  -1   1  -4 12186.6 804.720  14
   1  -1   4 11723.0 552.047   1
   1  -1   4 11939.1 828.362  15
  -1   1  -4 12115.8 581.653  10
   1  -1   4 12325.5 648.208   5
   1  -1   4 11910.8 743.653   8
   1  -1   4 11897.3 577.222  10
   1  -1   4 10700.3 818.662   9
  -1   1  -4 10945.5 628.258   8
  -1   1  -5 21070.7 922.138   8
   1  -1   5 20959.3 1241.62   9
  -1   1  -5 21296.9 1006.68  13
  -1   1  -5 20022.4 886.777   5
  -1   1  -5 22326.0 1146.28  15
  -1   1  -5 20665.1 1173.07  14
   1  -1   5 20769.9 953.534   5
  -1   1  -5 21002.7 776.596   1
   1  -1   5 21032.5 1165.30  15
  -1   1  -5 19919.1 795.907  10
  -1   1  -5 21233.3 704.368  12
   1  -1   5 20082.5 845.772   1
   1  -1   5 21129.8 833.603  10
   1  -1   5 21612.7 1074.35   8
   1  -1   5 21119.2 1088.55  13
  -1   1  -5 20020.3 644.219   6
  -1   1  -6 5349.52 549.301  13
  -1   1  -6 4817.51 476.137   8
  -1   1  -6 5268.46 457.456   1
  -1   1  -6 4800.87 504.285   5
   1  -1   6 4998.59 450.291  10
   1  -1   6 4807.94 543.921   5
  -1   1  -6 4750.07 437.402  10
  -1   1  -6 4728.13 644.008  14
  -1   1  -6 4696.86 601.341  15
  -1   1  -6 4769.51 383.805  12
   1  -1   6 4581.70 627.417  15
   1  -1   6 5530.76 498.710   1
   1  -1   6 5948.79 758.318   9
  -1   1  -6 4773.99 327.548   6
   1  -1   6 4861.16 594.284  13
   1  -1   7 4490.33 672.278  15
  -1   1  -7 4803.76 628.909  15
   1  -1   7 4739.18 762.781   9
  -1   1  -7 5011.52 562.963  13
  -1   1  -7 4977.49 505.443   8
   1  -1   7 4620.10 508.021   1
  -1   1  -7 4692.77 472.577   1
  -1   1  -7 4567.38 319.554   6
  -1   1  -7 4357.23 692.599  14
  -1   1  -7 4412.40 458.525  10
  -1   1  -7 5708.48 775.957   9
  -1   1  -7 5035.61 545.546   5
  -1   1  -7 5108.55 731.172   3
   1  -1   7 4922.24 478.620  10
   1  -1   7 4894.63 586.262   5
  -1   1  -7 4842.63 706.503   7
   1  -1   7 4793.73 627.162  13
  -1   1  -7 4196.25 401.909  12
  -1   1  -8 2964.30 368.856  12
  -1   1  -8 3393.83 519.535   5
   1  -1   8 3653.92 419.648  10
  -1   1  -8 3455.38 462.959   1
   1  -1   8 3254.21 644.913  15
  -1   1  -8 3657.00 609.732  15
   1  -1   8 3310.20 568.799   5
  -1   1  -8 3209.07 253.135   6
  -1   1  -8 3854.29 688.274  14
   1  -1   8 3097.06 538.793  13
  -1   1  -8 3609.82 473.552   8
  -1   1  -8 3664.60 529.381  13
   1  -1   8 3282.53 747.538   9
  -1   1  -8 4132.41 721.346   3
   1  -1   8 3528.47 501.209   1
   1  -1   9 5117.24 644.675   1
  -1   1  -9 5184.91 511.610  12
  -1   1  -9 5541.50 582.799   8
   1  -1   9 5239.11 705.276   5
   1  -1   9 6254.61 801.365  13
  -1   1  -9 5644.56 649.320  13
   1  -1   9 5719.35 860.927  15
   1  -1   9 5920.61 967.071   9
   1  -1   9 5289.47 531.171  10
  -1   1  -9 5968.52 619.386   1
   1  -1  10 1671.34 318.498  10
   1  -1  10 1230.29 426.824   5
   1  -1  10 1873.05 574.416   9
  -1   1 -10 2494.56 450.473  13
  -1   1 -10 1994.75 421.739   1
  -1   1 -10 1620.12 313.870  12
  -1   1 -10 1608.74 457.101  11
  -1   1 -10 1723.31 349.041   8
   1  -1  10 1247.98 462.512  15
   1  -1  10 2228.82 472.565  13
  -1   1 -11-33.0523 226.741  11
   1  -1  11-425.127 236.223  13
  -1   1 -11 45.1534 166.202   1
   1  -1  11-475.489 448.021   9
   1  -1  12-209.369 218.776   9
  -1   1 -12 133.234 194.111   1
  -1   1 -12-278.931 346.089  11
   1  -1  12 30.8300 164.154  15
  -1   1 -13 663.461 270.363   1
   1  -1  13 401.793 343.437  15
   1   0 -14 562.615 302.724   1
  -1   0  13 66.0733 470.396   9
  -1   0  13 1414.39 459.853  15
   1   0 -13 637.371 314.532   1
  -1   0  12 26.0041 231.043   9
  -1   0  12-47.6594 147.362  15
   1   0 -12-21.0434 245.104   1
   1   0 -11 452.302 385.503   1
  -1   0  11 1220.99 511.955   9
  -1   0  11-429.861 237.945  10
  -1   0  11 787.380 360.448   5
  -1   0  11 142.101 226.811  15
  -1   0  11 443.301 268.827  13
  -1   0  10 6539.28 652.324  13
   1   0 -10 5915.89 501.216   6
  -1   0  10 6603.95 719.465  10
   1   0 -10 6378.70 755.090   1
   1   0 -10 5010.05 681.746  12
   1   0 -10 6020.55 384.955   8
  -1   0  10 6946.63 859.793  15
  -1   0  10 7312.41 926.977   5
  -1   0  10 6667.76 1084.49   9
   1   0  -9 108.121 95.3114   8
  -1   0   9 90.0027 243.582   5
  -1   0   9 423.898 298.820   9
   1   0  -9-33.2171 219.001   1
   1   0  -9 194.826 163.652  12
  -1   0   9 110.851 205.528  15
   1   0  -9-44.4482 117.051   6
  -1   0   9-25.3179 143.799  13
  -1   0   9 126.899 166.132  10
   1   0  -8-20.3316 212.127   1
   1   0  -8 70.3347 87.0651   8
  -1   0   8-61.0345 215.254   5
   1   0  -8 218.160 155.070   6
   1   0  -8-105.862 172.924   9
   1   0  -8-214.711 247.427   5
  -1   0   8-100.645 172.780  10
   1   0  -8 15.5618 199.704  12
  -1   0   8 8.34449 156.361   6
  -1   0   8 74.0450 276.811   9
  -1   0   8 181.053 196.807   1
   1   0  -8 29.0259 111.311   7
  -1   0   8-227.896 244.456  15
  -1   0   8 90.8198 149.550  13
   1   0  -7 2290.06 415.600   5
   1   0  -7 1959.23 430.662   7
  -1   0   7 2130.11 405.444  15
   1   0  -7 2036.96 310.946   6
   1   0  -7 2052.70 393.218   1
  -1   0   7 2716.55 360.390  13
   1   0  -7 2010.81 211.053   8
  -1   0   7 2311.66 529.875   9
  -1   0   7 2004.36 350.180  10
   1   0  -7 2072.10 388.952  12
  -1   0   7 2401.88 489.419   5
   1   0  -7 2294.92 434.743   9
  -1   0   7 2235.94 403.117   1
  -1   0   7 2128.51 312.941   6
   1   0  -6 16919.8 515.947   8
  -1   0   6 17433.1 774.957   6
  -1   0   6 17081.3 895.494  10
   1   0  -6 16997.9 947.021  12
   1   0  -6 17352.3 1078.81   7
  -1   0   6 16525.7 1146.97   9
  -1   0   6 18314.5 968.552   1
   1   0  -6 18120.3 904.263   1
  -1   0   6 17699.4 977.915  15
   1   0  -6 18395.1 994.200   5
   1   0  -6 17530.9 780.322   6
  -1   0   6 16652.9 744.516  13
  -1   0   5 1209.54 250.588   1
   1   0  -5 1944.99 325.769   5
  -1   0   5 1745.07 282.346  10
   1   0  -5 1555.41 283.347  12
   1   0  -5 1161.84 281.425   7
  -1   0   5 1632.35 308.522  15
  -1   0   5 1709.72 383.067   9
  -1   0   5 1387.63 206.977  13
   1   0  -5 1597.13 240.256   6
   1   0  -5 1773.99 305.417   1
   1   0  -5 1590.13 144.956   8
  -1   0   5 1615.19 251.855   6
  -1   0   4 143146. 2600.50   9
  -1   0   4 147170. 1956.74   6
  -1   0   4 144640. 2195.61  10
   1   0  -4 140766. 2218.71   5
   1   0  -4 145336. 2057.15   1
  -1   0   4 142694. 2129.62  15
   1   0  -4 144967. 1957.35   6
  -1   0   4 139045. 1563.19  13
   1   0  -3 110763. 1579.78   6
   1   0  -3 109043. 1692.39   5
  -1   0   3 111668. 1585.59   6
  -1   0   3 108709. 1123.79  13
  -1   0   3 110732. 1744.72  10
  -1   0   3 111293. 1935.91   9
   1   0  -3 110503. 1567.66   1
  -1   0   2 26346.5 752.357   9
   1   0  -2 25155.4 641.285   1
   1   0  -2 23851.5 657.474   5
  -1   0   2 24736.2 676.382   6
   1   0   1 41207.3 573.126   6
   1   0   1 40754.3 927.584  15
  -1   0  -1 40974.1 578.564   6
   1   0   1 40428.8 965.834   7
   1   0   1 41931.9 906.268   9
   1   0   1 40712.0 981.433   3
   1   0   1 40977.4 1011.00  14
  -1   0  -1 40350.5 605.612   5
   1   0   2 61712.6 1452.48   3
   1   0   2 61049.5 1443.43   7
   1   0   2 60868.8 1383.27   9
  -1   0  -2 61195.4 1034.51   5
  -1   0  -2 59648.6 1024.45   1
   1   0   2 59729.0 1289.99  15
   1   0   2 58782.0 1040.73   1
   1   0   2 61974.9 1306.33  13
   1   0   2 60567.1 1039.44   5
   1   0   3 3385.18 196.932  10
   1   0   3 3845.64 429.035   9
   1   0   3 3350.52 362.292  13
  -1   0  -3 3559.03 361.091   8
  -1   0  -3 4070.74 401.745  15
   1   0   3 3853.02 335.531   5
  -1   0  -3 3591.39 202.980  10
   1   0   3 3317.86 302.613   1
  -1   0  -3 3505.71 315.752   5
  -1   0  -3 3686.57 232.724  12
  -1   0  -3 3721.28 357.428  13
   1   0   3 3515.11 376.116  15
  -1   0  -3 3531.80 301.222   1
   1   0   3 4019.80 464.467   7
  -1   0  -4 11153.0 679.993   8
  -1   0  -4 10706.3 476.472  12
  -1   0  -4 10939.1 624.543   5
   1   0   4 12071.6 868.787   7
   1   0   4 10931.0 422.150  10
  -1   0  -4 10908.8 696.645  15
   1   0   4 10877.0 686.655  13
   1   0   4 11667.9 835.541   9
   1   0   4 10497.3 606.919   1
   1   0   4 11486.9 739.486  15
  -1   0  -4 10790.4 584.410   1
  -1   0  -4 11442.1 658.264  13
   1   0   4 10487.0 638.825   5
  -1   0  -4 11405.6 431.452  10
  -1   0  -5 2480.80 356.782   5
   1   0   5 2237.69 362.422  13
  -1   0  -5 2214.89 327.330   8
   1   0   5 1902.04 323.815   5
  -1   0  -5 2394.43 386.014  15
   1   0   5 2065.72 318.161   1
   1   0   5 2538.69 475.384   9
   1   0   5 2138.28 219.426  10
  -1   0  -5 2011.62 301.045   1
  -1   0  -5 2040.19 410.006   3
  -1   0  -5 1776.03 287.534  13
  -1   0  -5 2020.21 253.097  12
   1   0   5 2190.34 382.727  15
   1   0   6 30410.6 1634.93   9
  -1   0  -6 29472.7 1013.21  12
  -1   0  -6 31623.2 1284.53   8
   1   0   6 32554.7 1483.97  15
  -1   0  -6 31728.8 1236.20  13
  -1   0  -6 30557.3 1357.20  15
   1   0   6 30486.6 891.874  10
   1   0   6 30366.5 1270.42   1
   1   0   6 32113.5 1357.87  13
  -1   0  -6 31364.8 1695.10   3
   1   0   6 32497.6 1373.42   5
  -1   0  -6 31579.7 1294.32   5
  -1   0  -6 31792.9 1195.05   1
  -1   0  -6 32442.8 1710.28   7
  -1   0  -7 630.474 337.690   9
   1   0   7 645.696 324.849   9
   1   0   7 420.840 215.497   5
   1   0   7 859.050 248.830   1
  -1   0  -7 1063.96 300.648   1
   1   0   7 440.749 250.188  15
  -1   0  -7 955.343 261.997  13
  -1   0  -7 754.504 247.686   8
  -1   0  -7 778.150 208.939  12
  -1   0  -7 823.148 302.370  15
  -1   0  -7 1532.30 341.933   5
   1   0   7 564.753 268.077  13
  -1   0  -7 804.331 298.346   7
   1   0   7 841.344 186.596  10
  -1   0  -7 670.990 334.598   3
   1   0   8 17619.4 1168.59   1
  -1   0  -8 18050.1 1067.98   8
  -1   0  -8 18799.2 1072.61  13
  -1   0  -8 18933.8 1185.52   5
   1   0   8 18999.7 819.750  10
   1   0   8 19016.9 1344.66  15
  -1   0  -8 18039.9 1184.72  15
  -1   0  -8 17244.3 924.693  12
   1   0   8 18512.0 1523.52   9
  -1   0  -8 18102.9 1062.58   1
  -1   0  -9 444.230 232.870   8
   1   0   9 801.964 192.549  10
  -1   0  -9 571.908 254.632  13
  -1   0  -9 708.885 307.360  15
   1   0   9 703.035 533.881   9
   1   0   9 528.565 433.076  15
  -1   0  -9 624.473 209.104  12
  -1   0  -9 875.358 352.071   1
   1   0   9 750.353 273.716   1
  -1   0 -10 3997.98 599.527   1
  -1   0 -10 3887.52 550.943   8
   1   0  10 3529.07 769.378   9
   1   0  10 4723.22 798.563  15
  -1   0 -10 3441.57 520.603  13
  -1   0 -10 2429.86 407.848  12
   1   0  11 2251.37 667.538   9
   1   0  11 2183.49 581.226  15
  -1   0 -11 2194.65 488.387   1
  -1   0 -12 606.995 259.976   1
   1   0  12 894.762 502.763   9
   1   0  12 555.573 396.457  15
   1   0  13 1170.61 532.537  15
  -1   0 -13-307.669 309.143   1
   1   1 -14 65.6994 217.630   1
  -1  -1  14 981.111 452.736  15
  -1  -1  13 433.744 266.178  15
  -1  -1  13 9.46477 243.092   5
   1   1 -13 362.733 320.485   1
  -1  -1  13-161.532 333.111   9
  -1  -1  12 83.5046 364.738   9
  -1  -1  12 136.815 253.006  13
  -1  -1  12-38.8894 91.1032  15
   1   1 -12 324.762 302.483   1
  -1  -1  11 447.769 355.459   5
  -1  -1  11 279.686 264.182  10
  -1  -1  11 195.347 233.235  13
   1   1 -11 418.736 311.106   1
  -1  -1  11 96.3593 266.889  15
  -1  -1  11 442.445 435.301   9
   1   1 -10 5137.72 522.313   6
  -1  -1  10 6108.57 887.603  15
  -1  -1  10 5826.53 1035.38   9
   1   1 -10 5033.87 675.923  12
  -1  -1  10 5882.04 670.748  10
  -1  -1  10 6630.24 880.149   5
  -1  -1  10 6720.15 737.609  13
   1   1 -10 5756.00 689.406   1
   1   1 -10 5194.94 361.627   8
  -1  -1   9 583.149 254.893  13
  -1  -1   9 571.237 398.181   9
  -1  -1   9 233.024 239.838  15
  -1  -1   9 360.041 206.793  10
   1   1  -9 513.946 258.424   1
   1   1  -9 559.007 289.269  12
  -1  -1   9 370.832 236.348   1
  -1  -1   9-58.7161 205.453   5
   1   1  -9 120.957 99.1871   8
   1   1  -9 198.543 178.441   6
   1   1  -8 13922.8 970.641  12
  -1  -1   8 15073.4 1315.86   9
  -1  -1   8 16315.9 993.222  13
   1   1  -8 16195.9 952.728   1
   1   1  -8 14945.0 552.467   8
   1   1  -8 14243.7 1173.45   7
  -1  -1   8 16581.0 1052.97   1
   1   1  -8 16580.0 1074.78   5
  -1  -1   8 15802.9 1019.64  10
  -1  -1   8 15027.4 1131.60  15
  -1  -1   8 15360.2 1141.25   5
   1   1  -8 14829.9 841.926   6
   1   1  -8 16760.2 1252.15   9
   1   1  -7 4742.49 638.599   9
  -1  -1   7 5400.34 565.201  10
  -1  -1   7 5177.19 529.798  13
  -1  -1   7 4980.54 542.614   1
  -1  -1   7 4754.17 603.404   5
   1   1  -7 5398.42 583.652   5
   1   1  -7 4665.61 491.868   1
  -1  -1   7 5037.92 624.181  15
   1   1  -7 4411.45 448.567   6
   1   1  -7 4305.37 285.648   8
  -1  -1   7 4527.73 695.332   9
  -1  -1   6 14038.3 1057.67   9
   1   1  -6 14267.9 772.768   1
  -1  -1   6 13694.1 756.779  13
  -1  -1   6 13883.7 801.986   1
   1   1  -6 14808.8 771.960   6
  -1  -1   6 13892.1 855.774  10
  -1  -1   6 14424.4 626.119   8
   1   1  -6 14847.5 879.535   5
  -1  -1   6 13296.7 928.556  15
   1   1  -6 15134.4 1011.25   9
   1   1  -6 14007.6 858.999  10
   1   1  -6 13676.2 451.674   8
  -1  -1   6 14470.9 762.340   6
  -1  -1   5 14731.6 737.704   6
  -1  -1   5 15071.8 704.944  13
   1   1  -5 15393.3 720.323   1
   1   1  -5 16191.2 861.865  10
   1   1  -5 14451.7 424.812   8
  -1  -1   5 14973.5 875.396  15
  -1  -1   5 16053.7 993.179   9
  -1  -1   5 15386.9 561.123   8
  -1  -1   5 14887.5 820.844  10
   1   1  -5 13970.5 706.567   6
  -1  -1   5 15194.6 754.052   1
   1   1  -5 15263.2 812.284   5
   1   1  -5 15512.8 929.278   9
   1   1  -4 7682.97 472.243   1
  -1  -1   4 7621.73 607.078   9
  -1  -1   4 7476.45 470.244   1
   1   1  -4 7523.88 489.348   6
   1   1  -4 7935.58 529.961   5
  -1  -1   4 8598.28 486.956  13
   1   1  -4 7913.84 563.490  10
  -1  -1   4 7433.50 571.527  15
  -1  -1   4 7036.11 483.153   6
   1   1  -4 7544.53 580.890   9
  -1  -1   4 7287.69 544.261  10
  -1  -1   4 7761.32 336.673   8
  -1  -1   3 23426.6 459.293   8
   1   1  -3 24194.2 810.617   5
   1   1  -3 23964.6 804.732   6
  -1  -1   3 26152.2 920.059  10
  -1  -1   3 25876.6 844.033   6
  -1  -1   3 26511.0 901.100  15
   1   1  -3 24288.3 869.934   9
   1   1  -3 23787.0 743.021   1
  -1  -1   3 26016.2 920.728   9
   1   1  -2 25774.4 701.093   9
  -1  -1   2 25996.7 814.619  10
   1   1  -2 23950.6 699.974   5
  -1  -1   2 24009.2 754.848   6
  -1  -1   2 25501.2 703.023   9
   1   1  -1 2688.23 229.751   3
   1   1  -1 2540.73 155.434   2
   1   1  -1 2325.65 204.148   5
  -1  -1   1 2212.96 230.201   6
   1   1  -1 2180.04 154.347  14
  -1  -1   1 2114.47 225.342  10
   1   1  -1 2414.52 194.451   4
  -1  -1   0 109475. 1232.19  10
   1   1   0 111975. 1487.68   4
   1   1   0 114897. 1547.15   7
   1   1   0 114081. 1563.30   3
  -1  -1   0 115078. 1339.41   6
   1   1   0 111768. 1041.84   2
   1   1   1 60330.3 1031.11   9
  -1  -1  -1 59899.0 1015.82   9
   1   1   1 61893.8 1348.75   7
   1   1   1 60211.8 861.432   6
   1   1   1 61385.5 1381.47   3
   1   1   1 59836.0 706.564  10
  -1  -1  -1 60721.2 727.590  10
   1   1   2 106214. 1489.66  12
  -1  -1  -2 102597. 1742.85   9
   1   1   2 105156. 2123.56   3
   1   1   2 107393. 1803.06   9
  -1  -1  -2 106202. 1549.92  15
   1   1   2 102163. 956.494   6
   1   1   2 107997. 2075.32   7
  -1  -1  -2 112409. 1788.30   1
   1   1   3 31723.4 1278.05   7
   1   1   3 31572.7 963.874  15
  -1  -1  -3 31055.5 1012.17  13
  -1  -1  -3 33188.3 1078.99   1
   1   1   3 31381.2 1181.21   9
   1   1   3 30798.0 863.720  12
  -1  -1  -3 32344.2 1055.74   5
  -1  -1  -3 31062.3 946.886  15
  -1  -1  -3 31974.4 1152.91   9
   1   1   3 30018.9 1030.44   1
  -1  -1  -3 31023.4 900.604  12
  -1  -1  -4 1905.99 367.939   9
  -1  -1  -4 1734.81 302.919   5
  -1  -1  -4 1662.81 267.623  13
   1   1   4 1511.72 122.983  10
   1   1   4 1559.08 371.481   9
   1   1   4 1453.84 277.752   1
  -1  -1  -4 1724.79 280.118  15
   1   1   4 1810.56 261.877  12
  -1  -1  -4 1706.02 253.894  12
   1   1   4 1768.73 281.283  15
  -1  -1  -4 1859.38 332.842   1
   1   1   4 1758.42 402.761   7
  -1  -1  -5 2096.05 418.620   9
   1   1   5 1973.23 170.394  10
  -1  -1  -5 1850.37 293.139  13
  -1  -1  -5 1386.32 326.958   7
   1   1   5 1976.81 297.828  12
  -1  -1  -5 1724.79 308.938  15
  -1  -1  -5 1749.68 339.982   1
   1   1   5 1289.50 298.626  15
  -1  -1  -5 1842.39 348.839   8
   1   1   5 1918.26 426.305   9
   1   1   5 1196.64 274.329   1
   1   1   5 1769.70 413.282   7
  -1  -1  -5 1624.72 267.528  12
  -1  -1  -5 2041.34 359.604   5
  -1  -1  -6 3622.65 548.200   9
  -1  -1  -6 3826.64 646.993   3
  -1  -1  -6 3852.99 431.493  12
   1   1   6 4033.23 662.413   7
  -1  -1  -6 5075.21 586.887   5
   1   1   6 4268.32 534.758   1
  -1  -1  -6 4156.94 524.721   8
   1   1   6 4529.04 653.621   9
  -1  -1  -6 4582.34 539.631   1
  -1  -1  -6 4459.29 503.639  15
   1   1   6 3996.48 512.391  15
   1   1   6 3962.12 269.729  10
  -1  -1  -6 3883.26 428.410  13
  -1  -1  -6 3889.81 604.896   7
  -1  -1  -7 12731.9 1109.66   9
  -1  -1  -7 10559.2 758.209  12
   1   1   7 12559.6 973.484   1
   1   1   7 11535.6 498.310  10
  -1  -1  -7 13368.0 987.382   5
  -1  -1  -7 10839.8 1093.60   7
   1   1   7 11478.5 1120.69   9
   1   1   7 12451.9 962.865  15
  -1  -1  -7 11490.6 843.237  15
  -1  -1  -7 11543.3 1175.03   3
  -1  -1  -7 11187.1 750.681  13
  -1  -1  -7 11196.7 901.864   8
  -1  -1  -7 11620.2 880.887   1
  -1  -1  -8 175.695 253.178   1
   1   1   8-342.557 328.161   9
  -1  -1  -8-14.7007 164.751  12
  -1  -1  -8 48.3054 191.251   8
  -1  -1  -8 8.57516 163.838  13
   1   1   8 117.371 264.341  15
   1   1   8-19.7886 197.330   1
   1   1   8 103.996 79.4528  10
  -1  -1  -8 184.202 233.092  15
  -1  -1  -9 3205.09 460.386  13
  -1  -1  -9 2658.33 486.233   8
  -1  -1  -9 3423.17 584.992   1
   1   1   9 3921.86 801.107   9
  -1  -1  -9 3949.32 565.463  15
  -1  -1  -9 3295.85 501.735  12
   1   1   9 3368.23 608.743  15
   1   1   9 3175.12 294.464  10
   1   1  10 599.616 404.227   9
  -1  -1 -10 861.789 367.465   8
   1   1  10 1158.65 418.166  15
  -1  -1 -10 1294.11 411.509   1
  -1  -1 -11-4.41318 292.065   1
   1   1  11 518.168 250.719  15
   1   1  11-246.483 393.007   9
   1   1  12 290.754 228.706  15
  -1  -1 -12 139.933 234.900   1
   1   1  12-322.175 300.890   9
  -1  -1 -13 87.1724 147.120   1
   1   2 -14-177.726 253.462   1
  -1  -2  14 742.983 377.698  15
  -1  -2  13-81.6569 392.280   9
   1   2 -13 1.75039 286.679   2
  -1  -2  13 25.4745 329.456  15
   1   2 -13-254.589 327.023   1
  -1  -2  13 148.776 250.402   5
  -1  -2  12 1897.25 655.806  15
   1   2 -12 3568.24 606.948   1
  -1  -2  12 3925.20 707.872  13
  -1  -2  12 3390.06 728.786   5
   1   2 -12 3470.23 692.983   2
  -1  -2  12 4436.80 1016.62   9
   1   2 -11 74.9755 269.332   1
  -1  -2  11-60.1284 348.966   9
  -1  -2  11-119.918 250.724  15
   1   2 -11-89.2944 152.301  11
  -1  -2  11 718.432 339.081  13
  -1  -2  11-96.7646 257.567   5
  -1  -2  10 1168.22 412.712   5
  -1  -2  10 995.838 552.055   9
  -1  -2  10 1830.32 401.219  10
  -1  -2  10 1109.32 435.597  15
   1   2 -10 790.545 223.770   6
   1   2 -10 789.336 365.837  12
   1   2 -10 912.162 305.364   1
  -1  -2  10 787.461 310.400  13
   1   2 -10 967.787 242.188  11
  -1  -2   9 6400.63 933.222   9
  -1  -2   9 5806.07 779.718   5
   1   2  -9 6021.05 517.157  11
  -1  -2   9 5916.92 712.592  10
  -1  -2   9 5571.36 831.555  15
   1   2  -9 5193.42 566.654   6
  -1  -2   9 5446.53 688.717  13
   1   2  -9 5823.43 646.476   1
  -1  -2   9 5936.56 672.764   1
   1   2  -8 370.246 155.960  11
   1   2  -8 337.515 208.669   9
  -1  -2   8 700.878 307.517  13
  -1  -2   8 795.916 261.232   1
   1   2  -8 581.631 256.822   1
  -1  -2   8 519.032 195.976   8
   1   2  -8 592.586 283.372  10
  -1  -2   8 924.562 298.820   5
  -1  -2   8 778.753 335.161   9
  -1  -2   8 681.549 296.833  10
  -1  -2   8 281.195 264.369  15
   1   2  -8 560.729 202.574   6
   1   2  -8 1043.75 324.846   5
  -1  -2   7 189.729 135.297   8
  -1  -2   7-7.25701 223.387   9
  -1  -2   7 354.786 283.686  15
   1   2  -7 90.4364 95.3393  11
  -1  -2   7 86.0095 122.480   1
   1   2  -7 149.309 172.117   6
   1   2  -7-67.6822 183.123  10
  -1  -2   7 110.277 142.615  10
  -1  -2   7 7.25276 173.762  13
   1   2  -7-13.7134 184.831   1
   1   2  -7 175.133 141.123   9
  -1  -2   7 399.105 241.500   5
   1   2  -7 125.992 161.024   5
  -1  -2   6 32327.7 1386.74  10
  -1  -2   6 32115.6 1354.71   5
  -1  -2   6 30486.7 1006.95   8
   1   2  -6 30796.2 762.092  11
  -1  -2   6 34520.3 1608.21   9
  -1  -2   6 30129.1 1234.99  13
   1   2  -6 30828.6 1465.29   9
  -1  -2   6 32082.5 1183.02   1
   1   2  -6 30529.9 1193.15   6
   1   2  -6 29712.0 1113.65   1
   1   2  -6 33255.4 1346.17   5
   1   2  -6 30766.0 1348.47  10
  -1  -2   6 30145.7 1458.67  15
   1   2  -5 66782.8 1932.92   9
  -1  -2   5 69854.7 1363.36   8
  -1  -2   5 67147.3 1565.77   1
   1   2  -5 68121.5 1695.02   6
  -1  -2   5 67500.3 1879.14  10
  -1  -2   5 68392.8 1997.89  15
   1   2  -5 67513.1 886.073  11
   1   2  -5 71830.9 1832.97   5
   1   2  -5 67925.9 1861.54  10
  -1  -2   5 65670.8 1661.96  13
   1   2  -5 65935.9 1539.44   1
  -1  -2   5 67554.9 2026.09   9
   1   2  -5 70034.9 1828.70   2
  -1  -2   4 367.758 196.137   9
   1   2  -4 376.725 183.950   2
  -1  -2   4 1233.97 178.006   8
  -1  -2   4 523.244 194.437  10
   1   2  -4 480.645 165.725   9
  -1  -2   4 391.591 213.715  13
   1   2  -4 448.092 160.050   6
  -1  -2   4 778.394 171.094   1
  -1  -2   4 442.650 231.498  15
   1   2  -4 350.482 165.191   5
  -1  -2   3 163.173 55.3399  11
   1   2  -3 252.104 135.269   9
  -1  -2   3 253.950 182.291  15
   1   2  -3 345.266 159.362   5
  -1  -2   3 36.0855 144.143   9
   1   2  -3 210.448 138.863   2
  -1  -2   3 129.488 86.2361   1
   1   2  -3 306.004 145.259   3
  -1  -2   3 69.7877 110.167  10
  -1  -2   2 62946.6 1141.81   9
   1   2  -2 57007.2 1287.48   5
  -1  -2   2 60628.8 1329.83  15
  -1  -2   2 60446.7 1114.82   2
  -1  -2   2 60039.3 1423.03  10
   1   2  -2 60563.9 1109.53   2
  -1  -2   2 60243.9 939.334   3
   1   2  -2 60728.3 1125.86   9
   1   2  -2 60712.5 1095.55   3
  -1  -2   1 390.122 115.308   3
  -1  -2   1 280.473 93.0317   2
  -1  -2   1 380.107 135.714  10
   1   2  -1 288.371 114.894   3
   1   2  -1 278.673 71.0267   9
   1   2  -1 201.929 87.4485   2
   1   2  -1 306.363 100.038   4
  -1  -2   1 204.054 71.6515  14
   1   2   0 158667. 2204.35   7
   1   2   0 156146. 2145.19   3
   1   2   0 149075. 1746.16   2
  -1  -2   0 156654. 1858.13   4
   1   2   0 154703. 1967.07  10
  -1  -2   0 147049. 1929.79  10
  -1  -2   0 153861. 1638.02   2
  -1  -2   0 149779. 2065.03   3
  -1  -2  -1 24183.1 724.215  10
   1   2   1 23434.6 690.293   9
   1   2   1 25091.6 987.191   7
   1   2   1 24447.1 993.843   3
   1   2   1 24484.9 854.458   2
   1   2   1 24281.2 715.268  10
  -1  -2  -1 24046.7 782.445   2
   1   2   2 51853.0 1292.89   9
   1   2   2 52391.5 1362.00  12
   1   2   2 51778.8 961.911  10
  -1  -2  -2 51584.7 962.694  15
  -1  -2  -2 51168.1 1441.17   1
   1   2   2 52433.1 1629.16   3
  -1  -2  -2 51237.8 1390.69   2
   1   2   2 51200.6 1558.94   7
  -1  -2  -3 532.868 219.833   1
   1   2   3 233.946 207.318   7
   1   2   3 267.810 175.710  12
   1   2   3 298.560 191.906   9
  -1  -2  -3 125.738 112.641   7
   1   2   3 157.538 72.7870  10
  -1  -2  -3 116.007 87.5123  15
   1   2   4 2570.38 430.053   9
  -1  -2  -4 2428.14 404.157   7
   1   2   4 3061.92 513.054   7
  -1  -2  -4 3379.09 375.595  13
   1   2   4 2762.02 212.490  10
   1   2   4 3100.96 395.265  12
   1   2   4 3027.84 223.945   6
  -1  -2  -4 3053.43 303.463  15
  -1  -2  -4 3200.49 449.966   9
   1   2   4 2837.08 413.579   1
  -1  -2  -4 3431.13 478.357   1
  -1  -2  -4 3203.33 417.565   5
   1   2   5 2318.72 334.451  15
   1   2   5 1503.88 416.992   7
  -1  -2  -5 1524.12 365.513   1
  -1  -2  -5 2110.35 346.542  12
   1   2   5 1870.93 443.733   9
   1   2   5 2089.49 401.778   1
  -1  -2  -5 1755.44 379.699   9
   1   2   5 2092.66 192.397  10
  -1  -2  -5 1816.94 296.787  13
  -1  -2  -5 1814.62 361.300   5
  -1  -2  -5 2160.22 297.346  15
  -1  -2  -5 2443.33 448.868   7
   1   2   5 2411.05 375.223  12
   1   2   5 1678.54 180.088  10
   1   2   5 1997.38 161.159   6
  -1  -2  -6 7384.41 737.586   5
  -1  -2  -6 6774.09 542.261  15
  -1  -2  -6 7445.16 795.553   9
   1   2   6 6977.64 850.370   7
  -1  -2  -6 6990.26 818.012   7
   1   2   6 6913.92 627.219  12
  -1  -2  -6 6586.27 882.963   3
   1   2   6 6686.28 581.178  15
  -1  -2  -6 6605.48 556.618  13
   1   2   6 5999.00 779.188   9
  -1  -2  -6 6724.19 638.273  12
  -1  -2  -6 5777.70 654.582   1
   1   2   6 6204.37 336.918  10
   1   2   6 6203.95 329.649  10
   1   2   6 6416.60 712.668   1
   1   2   7 210.374 195.801  12
   1   2   7 324.376 279.206   7
  -1  -2  -7 198.552 209.945   1
  -1  -2  -7 292.885 252.152   7
   1   2   7 431.882 349.191   9
   1   2   7 220.522 81.5483  10
  -1  -2  -7 256.791 164.652  15
   1   2   7 225.091 74.9190  10
  -1  -2  -7 353.048 231.243   8
  -1  -2  -7 74.7718 119.302   5
  -1  -2  -7 300.214 190.992  13
   1   2   7 294.709 195.016  15
  -1  -2  -7 57.4846 176.054  12
   1   2   7 230.014 214.078   1
   1   2   8 5415.16 638.654  15
  -1  -2  -8 6134.99 766.202   1
   1   2   8 4901.88 289.970  10
  -1  -2  -8 5482.54 539.694  13
  -1  -2  -8 4506.33 525.315  15
   1   2   8 6396.32 937.746   9
  -1  -2  -8 5067.75 697.317   8
  -1  -2  -8 4615.01 598.690  12
  -1  -2  -9 7754.44 881.259   1
  -1  -2  -9 7471.80 870.489   8
  -1  -2  -9 6264.27 737.274  12
  -1  -2  -9 6772.10 604.744  13
   1   2   9 5593.92 256.365  10
   1   2   9 7728.15 1120.08   9
   1   2   9 6624.02 772.985  15
   1   2  10 7270.94 857.604  15
  -1  -2 -10 7965.52 931.334   1
   1   2  10 8532.35 1205.87   9
   1   2  11 119.402 184.072  15
  -1  -2 -11 388.621 292.125   1
   1   2  11 320.027 303.865   9
   1   2  12-69.7492 220.975   9
  -1  -2 -12 91.9094 190.262   1
  -1  -3  13 376.396 367.688   5
  -1  -3  13 755.500 495.612  15
  -1  -3  13 562.005 394.937   9
  -1  -3  13 459.563 354.321  13
   1   3 -13 521.179 275.307   1
   1   3 -13 942.831 469.851   2
  -1  -3  12 471.748 297.400  13
  -1  -3  12 121.888 347.167   9
  -1  -3  12-397.679 254.189   5
   1   3 -12 552.284 359.514   2
   1   3 -12 320.833 303.621   1
  -1  -3  12 340.317 494.072  15
   1   3 -11 1260.73 488.485   2
  -1  -3  11 1075.69 487.664   5
  -1  -3  11 859.377 390.949  13
  -1  -3  11 371.752 366.035  15
  -1  -3  11-164.140 408.667   9
   1   3 -11 874.011 303.566   1
   1   3 -10 11607.9 946.353   1
  -1  -3  10 12522.8 1155.99  13
  -1  -3  10 11987.4 875.358   8
  -1  -3  10 13126.9 1207.26   5
   1   3 -10 11233.0 1115.32   2
  -1  -3  10 12870.4 1424.79   9
   1   3 -10 10979.1 1040.41  14
   1   3 -10 12297.4 952.113   6
  -1  -3  10 11471.4 1264.32  15
   1   3 -10 11309.6 1073.82  10
   1   3 -10 12963.3 639.339  11
  -1  -3   9 1450.22 502.493   9
  -1  -3   9 1197.21 380.474  13
  -1  -3   9 2150.68 402.065   8
   1   3  -9 1747.12 485.118  10
   1   3  -9 1477.05 370.862  14
   1   3  -9 1700.03 240.693  11
   1   3  -9 1728.25 378.093   1
  -1  -3   9 1545.83 425.701   5
   1   3  -9 1966.85 396.298   6
  -1  -3   9 1501.95 354.816   1
  -1  -3   9 1389.69 378.072  10
   1   3  -9 2391.05 530.533   2
  -1  -3   9 1613.00 570.548  15
   1   3  -8 3848.93 595.708   2
   1   3  -8 3507.02 500.526   1
   1   3  -8 3141.39 476.373   6
  -1  -3   8 3420.48 566.065  13
  -1  -3   8 3112.88 505.877  10
  -1  -3   8 3349.22 446.201   8
   1   3  -8 2570.01 520.087   9
  -1  -3   8 3716.10 591.314   5
   1   3  -8 3903.65 306.272  11
  -1  -3   8 2511.54 616.458  15
  -1  -3   8 2730.04 565.683   9
   1   3  -8 3530.92 575.253  10
  -1  -3   8 3008.60 435.508   1
   1   3  -8 2901.46 463.759  14
  -1  -3   7 120.194 191.071   5
  -1  -3   7 125.294 239.297   9
  -1  -3   7 262.501 153.503   1
  -1  -3   7 298.950 169.135   8
   1   3  -7 287.924 205.399  10
   1   3  -7 397.590 265.501   2
  -1  -3   7-306.460 212.540  13
  -1  -3   7 176.083 224.981  15
   1   3  -7 390.243 229.324   9
  -1  -3   7 608.882 253.027  10
   1   3  -7 24.6667 151.338   5
   1   3  -7 187.185 90.1953  11
   1   3  -7 478.124 225.797   6
   1   3  -7-297.862 136.794  14
   1   3  -6 4042.95 553.056   9
  -1  -3   6 3689.49 590.785   9
  -1  -3   6 3018.71 539.164  15
  -1  -3   6 3407.69 380.361   8
  -1  -3   6 3150.40 377.536   1
   1   3  -6 4351.74 549.658   2
   1   3  -6 3761.49 479.593   6
   1   3  -6 3371.39 370.812  14
  -1  -3   6 3906.40 505.822   5
  -1  -3   6 3716.78 505.371  13
   1   3  -6 4364.50 592.207  10
   1   3  -6 3746.66 507.820   5
  -1  -3   6 3685.91 533.382  10
   1   3  -5 30090.9 1377.12  10
   1   3  -5 27248.6 822.985  14
   1   3  -5 30453.0 1295.08   6
   1   3  -5 31487.8 1265.79   2
   1   3  -5 29678.6 1327.78   9
  -1  -3   5 29740.7 1383.47   9
  -1  -3   5 29716.7 1260.47  13
  -1  -3   5 29155.9 992.048   8
   1   3  -5 31321.0 1313.90   5
  -1  -3   5 30826.5 1081.45   1
  -1  -3   5 30392.7 1388.61  10
   1   3  -5 29179.5 879.479   3
  -1  -3   5 31217.2 1454.51  15
   1   3  -4 36533.0 1367.81   6
  -1  -3   4 37685.5 1470.75  15
  -1  -3   4 35055.6 1415.54  10
  -1  -3   4 35687.8 1103.96   1
  -1  -3   4 35737.4 1297.71  13
   1   3  -4 37655.7 1230.72   2
  -1  -3   4 36876.0 808.796  11
   1   3  -4 36028.8 938.887   3
   1   3  -4 34900.8 1287.04   9
  -1  -3   4 34034.4 986.765   8
   1   3  -4 34398.4 1283.65   5
  -1  -3   4 36408.3 1339.88   9
   1   3  -3 39191.0 1194.06   9
  -1  -3   3 40801.5 1169.39   2
  -1  -3   3 39836.3 1424.05  10
  -1  -3   3 41065.7 1303.99  13
  -1  -3   3 38953.6 1348.26  15
   1   3  -3 39461.3 1146.24   2
  -1  -3   3 36533.0 732.143  11
   1   3  -3 38035.6 1283.04   5
   1   3  -3 38778.0 1000.12   3
  -1  -3   3 40517.0 1209.24   9
  -1  -3   2 994.602 158.256   3
   1   3  -2 1099.40 195.786   3
   1   3  -2 975.260 222.553   2
  -1  -3   2 771.824 248.731  15
  -1  -3   2 916.708 252.452  10
   1   3  -2 1339.27 159.619   4
  -1  -3   2 996.988 189.982   2
   1   3  -2 1074.63 193.933   9
  -1  -3   1 13852.5 633.272  15
  -1  -3   1 14283.1 443.397   4
  -1  -3   1 12948.6 575.329   3
  -1  -3   1 13578.7 765.426  10
   1   3  -1 14262.8 666.227   3
   1   3  -1 14205.3 633.211   2
  -1  -3   1 13532.3 605.051   2
   1   3  -1 12809.3 497.029   4
  -1  -3   0 57937.8 1482.51  10
   1   3   0 57821.4 1489.64   3
  -1  -3   0 56117.3 1190.29   4
  -1  -3   0 56092.5 1411.88   3
  -1  -3   0 54755.0 1226.20   2
   1   3   0 56203.6 1457.66  10
   1   3   0 56794.4 1333.32   2
  -1  -3  -1 8006.57 520.741   2
   1   3   1 8641.89 665.875   3
   1   3   1 7474.48 516.644  10
   1   3   1 8218.94 655.003   7
  -1  -3  -1 8210.70 619.438   3
  -1  -3  -1 6953.97 505.226  10
   1   3   1 7849.51 587.217   2
   1   3   2 1748.86 379.699   7
  -1  -3  -2 1319.14 266.478   7
   1   3   2 1234.61 245.701   9
  -1  -3  -2 1891.59 316.716   2
  -1  -3  -2 1330.81 308.485   1
   1   3   2 1366.32 367.685   3
  -1  -3  -2 1744.56 338.464   3
   1   3   2 1616.78 250.989  10
   1   3   2 1207.29 301.580  12
   1   3   3 2152.12 359.510   9
   1   3   3 2182.70 441.332   7
   1   3   3 2414.99 402.536  12
  -1  -3  -3 2037.74 408.770   1
  -1  -3  -3 1986.94 370.638   7
   1   3   3 1957.61 256.192  10
  -1  -3  -3 1649.83 342.329   3
  -1  -3  -3 2400.39 395.334   2
  -1  -3  -3 1948.35 182.754  15
   1   3   4 482.981 333.142   7
  -1  -3  -4 572.712 310.640   3
  -1  -3  -4 454.699 265.837   2
  -1  -3  -4 581.270 250.136   7
  -1  -3  -4 392.508 326.552   1
   1   3   4 147.033 117.103  10
   1   3   4 465.525 246.491   9
   1   3   4 355.142 271.824  12
  -1  -3  -4 354.798 117.503  15
   1   3   5 34983.9 975.095   6
   1   3   5 34332.8 1479.20  12
  -1  -3  -5 34917.7 905.886  15
   1   3   5 33780.8 1780.19   7
   1   3   5 33956.1 945.542  10
  -1  -3  -5 36723.0 1970.22   3
  -1  -3  -5 32067.8 1213.09  13
  -1  -3  -5 35969.4 1726.68   7
  -1  -3  -5 33771.9 1656.65   2
  -1  -3  -5 35107.6 1592.12   1
  -1  -3  -5 35315.5 1588.08   5
   1   3   5 34353.3 1643.60   9
  -1  -3  -6 6626.65 804.250   7
   1   3   6 6684.55 386.528   6
  -1  -3  -6 6112.48 727.359   1
  -1  -3  -6 7043.86 934.134   3
   1   3   6 6233.59 804.574   9
   1   3   6 6690.79 860.220   7
  -1  -3  -6 6182.14 801.787   2
   1   3   6 6543.76 406.565  10
  -1  -3  -6 5954.78 704.049   5
  -1  -3  -6 6793.75 451.012  15
   1   3   6 6090.36 667.594  12
  -1  -3  -6 6339.33 556.004  13
   1   3   7 4162.16 230.521   6
   1   3   7 4541.61 322.446  10
  -1  -3  -7 4443.74 465.187  13
   1   3   7 4216.12 758.205   7
  -1  -3  -7 4533.94 701.886   1
   1   3   7 5196.90 256.543   6
   1   3   7 5423.40 659.418  12
   1   3   7 5044.88 344.708  10
   1   3   7 5617.60 831.248   9
   1   3   8 235.420 392.987   9
   1   3   8 224.998 238.087  12
   1   3   8 257.528 72.4367  10
  -1  -3  -8 126.661 232.651   1
   1   3   8 151.727 75.9148  10
   1   3   8 394.519 382.074   7
  -1  -3  -8 246.547 135.380  13
  -1  -3  -9 474.989 290.137   1
   1   3   9 157.734 280.480   9
  -1  -3  -9 338.176 206.883   8
   1   3  10 1099.79 570.205   9
  -1  -3 -10 1334.31 466.489   1
  -1  -3 -11-400.736 335.655   1
   1   3  11 808.089 479.572   9
  -1  -3 -12 294.020 323.480   1
  -1  -4  13-77.6915 250.057  15
  -1  -4  13-323.676 369.514   5
  -1  -4  13-368.849 358.873   9
  -1  -4  12-124.446 323.359  15
  -1  -4  12 1101.62 419.308  13
   1   4 -12 483.874 332.289   2
  -1  -4  12-199.105 365.935   9
  -1  -4  12 706.822 459.046   5
  -1  -4  11 2722.95 667.215   9
   1   4 -11 2848.20 670.086  10
   1   4 -11 3374.13 666.497   2
  -1  -4  11 3094.52 885.935  15
  -1  -4  11 2829.26 631.117  13
  -1  -4  11 3072.64 547.809   8
  -1  -4  11 3351.14 698.476   5
  -1  -4  10 235.931 348.081  15
  -1  -4  10 506.292 384.146   9
   1   4 -10 264.401 174.720   6
  -1  -4  10-1.27435 118.661  13
  -1  -4  10-131.409 261.045   5
   1   4 -10-178.542 164.473  14
  -1  -4  10 566.546 219.478   8
   1   4 -10 194.549 318.137  10
   1   4 -10 34.6802 318.700   2
  -1  -4   9 1078.87 501.987   9
  -1  -4   9 599.843 313.520  13
  -1  -4   9 1281.26 541.213  15
  -1  -4   9 811.491 374.265   5
   1   4  -9 1082.28 363.019   6
   1   4  -9 770.548 266.203  14
  -1  -4   9 916.771 268.023   1
  -1  -4   9 1345.51 352.242   8
   1   4  -9 1010.56 421.045   2
   1   4  -9 415.112 316.527  10
   1   4  -8 937.838 341.173   9
  -1  -4   8 666.311 217.294   1
   1   4  -8 117.250 317.865  10
  -1  -4   8 637.744 298.969   5
  -1  -4   8 693.435 358.009  13
   1   4  -8 726.771 216.846  14
  -1  -4   8 831.714 274.823   8
  -1  -4   8 937.557 469.212  15
   1   4  -8 749.584 257.995   6
  -1  -4   8 505.327 424.826   9
  -1  -4   8 805.912 387.803  10
   1   4  -8 1005.89 339.389   2
  -1  -4   7 62.4026 82.3037   1
   1   4  -7-112.820 112.981   9
   1   4  -7 123.309 171.953   6
  -1  -4   7 124.472 179.747   8
   1   4  -7 144.909 181.516   3
  -1  -4   7 299.318 365.174  15
  -1  -4   7-568.705 355.023  13
  -1  -4   7-6.70266 174.517   5
   1   4  -7 86.1626 275.395  10
   1   4  -7 115.411 91.3770  14
  -1  -4   7 317.287 307.619   9
   1   4  -7 36.0579 251.531   2
   1   4  -7-70.1688 194.291   5
  -1  -4   7 67.8615 143.629  10
  -1  -4   6 322.072 270.608   9
   1   4  -6 289.032 170.363   9
   1   4  -6 520.882 246.410   5
   1   4  -6 337.000 209.974   2
   1   4  -6 355.454 219.524   6
  -1  -4   6 364.284 274.709  13
   1   4  -6 230.412 97.6866  14
  -1  -4   6 664.006 252.978  10
  -1  -4   6 88.1941 148.001   8
   1   4  -6 1.87428 264.383  10
  -1  -4   6 90.1018 325.210  15
  -1  -4   6 201.571 151.906   1
  -1  -4   6-266.837 248.310   5
   1   4  -6 415.221 175.805   3
  -1  -4   5 2741.73 293.087  11
  -1  -4   5 2368.97 549.790  15
   1   4  -5 1661.56 355.717   9
  -1  -4   5 2655.71 382.919   8
  -1  -4   5 2374.35 341.825   1
  -1  -4   5 2626.14 467.205   9
   1   4  -5 2738.24 459.352   5
  -1  -4   5 2427.21 454.256  10
  -1  -4   5 2768.35 527.678  13
   1   4  -5 2601.51 453.498   6
   1   4  -5 2505.07 509.876  10
  -1  -4   5 1942.88 396.714   5
   1   4  -5 2841.15 336.109   3
   1   4  -5 2268.99 420.972   2
   1   4  -4 29351.2 1272.95   9
   1   4  -4 29865.0 1198.11   2
  -1  -4   4 29439.6 1074.59   8
  -1  -4   4 31151.9 1377.94  13
  -1  -4   4 31347.7 1449.67  15
  -1  -4   4 30166.9 1455.61  10
   1   4  -4 31180.4 1369.88   5
  -1  -4   4 32363.2 898.580  11
  -1  -4   4 31712.0 1265.45   2
   1   4  -4 29885.8 970.861   3
   1   4  -3 5908.46 524.965   2
  -1  -4   3 6071.56 515.025   2
  -1  -4   3 5854.77 598.774  13
  -1  -4   3 5431.82 601.143  15
   1   4  -3 5297.04 496.915   9
   1   4  -3 5321.54 421.207   3
  -1  -4   3 5842.25 643.534  10
   1   4  -2 15422.9 784.780   2
  -1  -4   2 16190.7 800.843   2
  -1  -4   2 16081.6 979.677  10
   1   4  -2 15222.0 704.855   3
  -1  -4   2 14640.4 570.915   3
  -1  -4   2 15455.3 862.942  15
   1   4  -2 14131.1 477.462   4
   1   4  -2 15365.6 745.399   9
  -1  -4   1 11023.1 585.087   3
  -1  -4   1 11982.3 687.458   2
  -1  -4   1 12161.8 686.962  15
  -1  -4   1 12468.7 416.750   4
  -1  -4   1 12545.6 838.583  10
   1   4  -1 12592.2 717.384   2
   1   4  -1 11321.9 810.857  10
   1   4  -1 12136.4 697.120   3
  -1  -4   0 57438.9 1735.07  10
   1   4   0 57825.1 1591.31   2
  -1  -4   0 55375.4 1457.01   2
  -1  -4   0 55988.0 1246.53   4
  -1  -4   0 55608.9 1264.27  15
  -1  -4   0 55192.2 1527.64   3
   1   4   0 58780.7 1664.12   3
   1   4   0 58260.4 1720.96  10
  -1  -4  -1 21963.1 973.697   2
  -1  -4  -1 21756.4 667.457  15
  -1  -4  -1 21201.8 948.348   4
   1   4   1 21343.3 1114.02   3
  -1  -4  -1 21099.3 1064.99   3
   1   4   1 22360.6 1177.37   7
  -1  -4  -1 21781.7 1048.28  10
   1   4   1 21376.7 1015.28  10
   1   4   1 22164.9 1104.06   2
  -1  -4  -2 2616.49 378.991   2
  -1  -4  -2 2708.48 195.168  15
   1   4   2 2437.96 468.805   2
  -1  -4  -2 3045.27 492.541   1
   1   4   2 2904.32 492.951  12
  -1  -4  -2 2099.50 378.655   3
   1   4   2 2362.37 355.731  10
   1   4   2 2186.35 449.398   7
   1   4   2 2668.14 368.473   9
   1   4   3 2037.40 374.511   9
  -1  -4  -3 1750.20 423.322   1
   1   4   3 1848.87 300.564  10
  -1  -4  -3 1728.49 358.195   7
   1   4   3 2401.13 492.971   7
  -1  -4  -3 1883.06 415.154   3
   1   4   3 1510.08 367.843  12
  -1  -4  -3 1940.02 373.026   2
  -1  -4  -4 1944.21 489.572   3
  -1  -4  -4 2892.72 505.894   2
   1   4   4 2314.58 464.446  12
   1   4   4 2962.68 566.109   7
  -1  -4  -4 2761.35 490.685   7
   1   4   4 2721.60 483.044   9
   1   4   4 2153.24 324.559  10
  -1  -4  -4 2881.92 579.823   1
  -1  -4  -5 4167.51 698.842   3
   1   4   5 4417.72 710.584   7
   1   4   5 4525.89 634.622  12
  -1  -4  -5 4329.13 631.027   7
  -1  -4  -5 4545.45 643.374   2
   1   4   5 4875.83 669.573   9
   1   4   5 3993.33 404.983  10
  -1  -4  -5 5307.43 731.354   1
   1   4   6 15449.1 1255.01   9
   1   4   6 17212.6 1229.33  12
   1   4   6 15850.6 770.957  10
   1   4   6 15942.3 1382.59   7
   1   4   6 16498.5 795.584   6
  -1  -4  -6 15782.4 1223.08   1
  -1  -4  -6 15226.5 888.565  13
  -1  -4  -6 14423.2 1217.81   7
  -1  -4  -7 4047.86 699.219   1
   1   4   7 4764.16 704.167  12
  -1  -4  -7 3851.11 446.956  13
   1   4   7 4074.84 377.492  10
   1   4   7 4970.34 398.773   6
   1   4   7 4340.83 733.594   9
   1   4   7 5213.48 855.330   7
   1   4   8 1627.05 415.615  12
   1   4   8 1632.64 551.520   7
   1   4   8 1875.60 239.569  10
   1   4   8 1477.28 507.361   9
  -1  -4  -8 2668.91 614.286   1
   1   4   8 1633.86 177.891   6
   1   4   9 975.167 449.711   7
   1   4   9 347.169 310.262  12
   1   4   9 256.758 300.927   9
  -1  -4  -9 126.946 291.401   1
   1   4  10 369.194 397.227   9
  -1  -4 -10 346.148 391.445   1
   1   4  11-190.166 357.542   9
  -1  -4 -11 255.284 253.423   1
  -1  -5  13 742.983 497.584  13
   1   5 -13-314.148 250.409   3
  -1  -5  13 255.458 222.015   5
  -1  -5  12 1385.61 454.873   5
   1   5 -12 697.030 408.450   2
  -1  -5  12 1368.64 474.389  13
  -1  -5  12 1863.12 594.823  15
  -1  -5  12 446.993 323.056   9
   1   5 -12 751.152 364.552  10
   1   5 -12 963.380 332.734   3
  -1  -5  11 998.785 379.914   5
  -1  -5  11 1746.68 603.058  13
   1   5 -11 1542.17 559.795  10
   1   5 -11 1762.65 466.772   2
  -1  -5  11 2202.15 639.175   9
  -1  -5  11 1141.98 468.672  15
   1   5 -11 1235.19 384.611   3
  -1  -5  11 1400.09 362.094   8
  -1  -5  10-243.175 370.592   9
  -1  -5  10 116.947 181.764   8
  -1  -5  10-93.8590 243.681   5
  -1  -5  10 102.956 280.657  13
   1   5 -10 35.5666 245.169   3
   1   5 -10-130.440 228.684   2
   1   5 -10 171.169 259.858  10
  -1  -5  10-279.749 317.640  15
   1   5  -9 143.788 222.448   3
  -1  -5   9 148.119 260.950   9
  -1  -5   9 459.134 422.782  15
   1   5  -9 12.8759 89.0068  14
   1   5  -9-70.8749 322.619   2
  -1  -5   9-17.6631 239.292   5
  -1  -5   9 183.264 241.019   8
  -1  -5   9 356.301 165.461   1
   1   5  -9-325.749 312.237  10
  -1  -5   9 95.4690 199.410  13
  -1  -5   8 5861.84 902.347  15
   1   5  -8 5813.08 774.880   2
  -1  -5   8 6107.00 697.091   8
  -1  -5   8 5544.03 817.419  13
   1   5  -8 5705.51 544.505   3
   1   5  -8 6096.25 398.538  14
   1   5  -8 5039.98 782.410  10
  -1  -5   8 4980.52 726.058   5
  -1  -5   8 5324.37 584.245   1
  -1  -5   8 6358.50 914.347   9
   1   5  -7 824.562 387.298   6
   1   5  -7 453.623 324.758  10
  -1  -5   7 1313.26 320.573   8
  -1  -5   7 636.851 494.632  15
   1   5  -7 912.180 252.991   3
   1   5  -7 1024.43 324.865   9
   1   5  -7 1382.48 455.125   2
  -1  -5   7 498.888 366.700  13
  -1  -5   7 455.004 319.667   5
  -1  -5   7 25.2075 256.096   9
  -1  -5   7 773.411 233.000   1
  -1  -5   6 13208.2 695.046  11
  -1  -5   6 12924.1 875.719   8
   1   5  -6 13487.5 1103.49   6
   1   5  -6 14054.7 1005.88   2
  -1  -5   6 13333.6 1092.12  13
  -1  -5   6 12924.4 1159.49  15
   1   5  -6 13386.8 751.251   3
   1   5  -6 14677.8 1225.89  10
  -1  -5   6 13519.4 1165.08  10
  -1  -5   6 13127.6 981.120   5
   1   5  -6 13155.0 1062.04   5
   1   5  -6 12669.9 1026.36   9
  -1  -5   6 14026.0 850.601   1
  -1  -5   5 11040.1 1003.11  10
   1   5  -5 12088.3 880.216   2
   1   5  -5 12511.8 945.335   9
  -1  -5   5 13233.5 825.248   8
  -1  -5   5 12927.9 936.050   2
  -1  -5   5 11670.7 889.402   5
  -1  -5   5 12937.9 1088.81  15
   1   5  -5 12627.1 1104.23  10
   1   5  -5 11649.4 685.331   3
  -1  -5   5 13807.6 705.705  11
  -1  -5   5 11152.2 734.309   1
  -1  -5   5 13114.3 1031.26  13
  -1  -5   4 2724.87 427.485   8
   1   5  -4 2728.24 465.489   2
   1   5  -4 2459.67 520.084  10
  -1  -5   4 2878.27 544.154  15
  -1  -5   4 2813.65 462.895   5
  -1  -5   4 2684.25 320.206  11
   1   5  -4 2508.13 340.517   3
  -1  -5   4 2451.80 519.347  13
  -1  -5   4 2612.80 502.035  10
   1   5  -4 2442.04 415.192   9
  -1  -5   4 2623.86 406.961   2
  -1  -5   3-122.517 142.700   2
  -1  -5   3 268.305 236.873   5
  -1  -5   3 96.8657 105.043   3
   1   5  -3-9.11570 44.5282   4
  -1  -5   3 108.337 102.389  10
   1   5  -3 107.041 141.307   3
   1   5  -3 0.60271 187.111   2
  -1  -5   3-276.956 381.270  13
   1   5  -3 54.8688 122.316   9
  -1  -5   3 80.2796 224.657  15
  -1  -5   2 296.440 186.289   2
   1   5  -2 390.113 280.517  10
   1   5  -2 349.059 225.590   2
  -1  -5   2 254.288 228.778  15
  -1  -5   2 332.552 262.212  10
  -1  -5   2 297.286 133.741   3
   1   5  -2 437.757 175.923   3
  -1  -5   2 12.6057 310.633  13
   1   5  -2 331.052 151.379   9
   1   5  -1 2999.63 432.939   2
  -1  -5   1 2794.94 389.340   2
  -1  -5   1 2525.82 315.502   3
   1   5  -1 2589.43 380.376   3
  -1  -5   1 2687.64 391.779  15
  -1  -5   1 2864.96 482.009  10
   1   5  -1 2436.94 452.393  10
   1   5   0 2618.36 461.680  10
   1   5   0 2947.25 440.317   3
  -1  -5   0 2655.90 349.866  15
   1   5   0 3235.58 497.997   7
  -1  -5   0 3170.96 483.024  10
  -1  -5   0 3009.04 387.550   3
  -1  -5   0 3643.88 442.583   2
  -1  -5   0 3090.98 309.915   4
   1   5   0 3152.66 473.884   2
  -1  -5  -1 2768.03 461.102  10
  -1  -5  -1 2024.64 366.212   2
  -1  -5  -1 2679.13 293.338  15
  -1  -5  -1 2225.78 337.686   4
  -1  -5  -1 3316.78 534.114   1
   1   5   1 2600.51 455.673   2
   1   5   1 2547.43 455.281  10
   1   5   1 2525.16 459.839   3
   1   5   1 2859.07 499.673   7
  -1  -5  -1 2227.91 392.643   3
  -1  -5  -2 56.4101 212.545   1
   1   5   2 253.646 315.707   2
   1   5   2-81.8741 263.193  12
   1   5   2-2.05898 168.984  10
  -1  -5  -2 29.5793 68.2409  15
  -1  -5  -2-74.2379 137.147   3
   1   5   2-326.223 257.024   7
  -1  -5  -2 201.206 187.186   2
   1   5   3 10843.0 848.628   9
  -1  -5  -3 8889.30 784.200   2
  -1  -5  -3 9575.65 929.293   1
  -1  -5  -3 9187.54 905.089   3
   1   5   3 9105.33 906.114  12
   1   5   3 9723.62 955.999   7
   1   5   3 9010.87 726.711  10
   1   5   4 921.584 436.518   7
   1   5   4 1022.62 273.909  10
   1   5   4 1376.07 429.977  12
  -1  -5  -4 891.685 278.839   7
  -1  -5  -4 762.688 306.973   3
  -1  -5  -4 975.992 314.578   2
  -1  -5  -4 741.962 325.433   1
   1   5   4 867.127 329.719   9
   1   5   5 12483.6 1090.08   9
   1   5   5 14231.6 1280.81   7
  -1  -5  -5 12379.8 1073.52   7
  -1  -5  -5 13704.8 1202.14   1
   1   5   5 12654.0 840.236  10
   1   5   5 13579.4 1162.04  12
   1   5   6-241.311 340.878  12
  -1  -5  -6 230.112 352.183   1
   1   5   6-3.70050 177.241   9
   1   5   6 16.5405 198.405   6
   1   5   6-7.52471 128.654  10
   1   5   6-73.9476 372.322   7
  -1  -5  -7-142.507 297.956   1
   1   5   7 397.232 251.030   9
   1   5   7-147.569 249.102  12
  -1  -5  -7 70.9558 150.006  13
   1   5   7-236.028 342.556   7
   1   5   7-70.6986 184.681   6
   1   5   7-2.64700 74.6655  10
   1   5   8 850.645 370.223   9
   1   5   8 212.487 380.412   7
   1   5   8-1.31971 276.271  12
  -1  -5  -8 97.7863 275.596   1
   1   5   9-333.196 365.820   7
   1   5   9 1.41097 144.349  12
  -1  -5  -9-13.8240 210.835   1
   1   5   9 29.8025 270.954   9
  -1  -5 -10-69.2962 302.771   1
   1   5  10-585.529 325.415   7
  -1  -6  13 1222.15 548.144  13
   1   6 -13 1667.03 545.258  10
   1   6 -12 491.129 340.609  10
  -1  -6  12-333.627 275.170  13
  -1  -6  12-147.491 250.360   5
   1   6 -12 207.855 260.875   3
  -1  -6  12 371.303 286.663   9
   1   6 -12-86.0430 226.734   2
  -1  -6  11 1953.12 466.158   8
   1   6 -11 510.662 438.433   2
  -1  -6  11 560.553 458.577  13
   1   6 -11 1314.48 347.147   3
  -1  -6  11 1097.35 432.127   5
  -1  -6  11 2130.09 712.055   9
   1   6 -11 1278.28 530.178  10
  -1  -6  11 1795.89 596.053  15
  -1  -6  10 225.051 208.657   8
   1   6 -10 1250.52 422.032   2
  -1  -6  10 382.159 454.403  15
  -1  -6  10 815.405 447.857  13
   1   6 -10 564.519 250.544   3
   1   6 -10 885.275 508.736  10
  -1  -6  10 825.898 348.028   5
   1   6  -9 1745.35 530.495   2
  -1  -6   9 1248.59 477.454  13
  -1  -6   9 594.782 304.187   8
  -1  -6   9 855.822 517.967  15
   1   6  -9 942.853 305.138   3
   1   6  -9 460.333 411.299  10
  -1  -6   9 964.777 376.533   5
  -1  -6   8 360.734 170.240   1
  -1  -6   8-70.4080 271.920  15
   1   6  -8 406.847 309.596   2
  -1  -6   8 61.6073 175.313   8
  -1  -6   8 173.342 311.872  13
   1   6  -8-122.080 261.607   3
   1   6  -8-26.2973 267.586  10
  -1  -6   8-205.859 256.579   5
  -1  -6   7 336.821 465.436  15
  -1  -6   7 235.310 256.498   8
   1   6  -7-27.6145 85.7491   9
  -1  -6   7-168.961 359.514  13
   1   6  -7 890.203 243.379   3
  -1  -6   7 243.766 158.231  11
   1   6  -7 46.5088 289.370  10
  -1  -6   7-136.323 122.536   1
   1   6  -7 388.633 338.570   2
  -1  -6   7 628.628 298.182   5
  -1  -6   6 7252.04 739.419   8
  -1  -6   6 6870.19 955.997  15
   1   6  -6 6686.11 791.901   2
  -1  -6   6 6656.47 773.233   5
  -1  -6   6 6151.86 864.117  13
   1   6  -6 6541.96 570.716   3
  -1  -6   6 6597.22 560.598  11
  -1  -6   6 6495.21 615.660   1
   1   6  -6 7780.71 944.057  10
   1   6  -6 5539.03 724.061   9
   1   6  -5 1499.62 543.412  10
   1   6  -5 2314.00 253.716   4
   1   6  -5 1486.89 383.753   2
  -1  -6   5 1643.57 393.776   5
  -1  -6   5 2260.53 431.138   2
  -1  -6   5 1981.10 501.111  15
  -1  -6   5 1969.91 512.474  13
   1   6  -5 1906.26 312.363   3
  -1  -6   5 2010.25 346.540  11
   1   6  -5 1367.12 357.653   9
  -1  -6   5 2211.04 448.640   8
  -1  -6   4 155.318 201.570   2
   1   6  -4 50.5389 36.5812   4
  -1  -6   4 431.371 288.206   8
   1   6  -4-187.652 260.674   2
   1   6  -4-193.869 273.540  10
  -1  -6   4 81.1634 345.000  13
   1   6  -4-150.277 128.661   9
  -1  -6   4 221.850 113.635  11
  -1  -6   4-156.035 309.892  15
   1   6  -4-202.751 156.232   3
  -1  -6   4 154.161 252.922   5
   1   6  -3 5593.27 651.312   2
  -1  -6   3 5986.86 620.720   2
   1   6  -3 5567.45 498.817   3
  -1  -6   3 5099.69 655.155   5
  -1  -6   3 6218.87 737.754  15
   1   6  -3 4643.22 722.470  10
  -1  -6   3 4816.02 238.430  14
  -1  -6   3 5637.41 360.635   3
  -1  -6   3 5576.72 753.952  10
  -1  -6   3 5570.25 700.695  13
   1   6  -3 4740.49 555.983   9
  -1  -6   2 8316.52 732.417   2
  -1  -6   2 7410.86 800.307   5
   1   6  -2 8033.18 639.438   3
  -1  -6   2 8026.93 790.531  13
   1   6  -2 7573.21 664.799   9
  -1  -6   2 7903.01 759.767  15
  -1  -6   2 6679.57 444.789   3
   1   6  -2 7567.69 860.020  10
  -1  -6   2 8488.72 880.408  10
   1   6  -2 7538.88 732.613   2
   1   6  -1 15270.2 925.208   3
   1   6  -1 16059.2 1051.09   2
  -1  -6   1 15550.4 995.526   2
  -1  -6   1 13767.8 747.711   3
  -1  -6   1 15374.8 1176.43  10
  -1  -6   1 15251.4 1015.17  13
   1   6  -1 13696.5 1105.59  10
  -1  -6   1 15035.0 925.820  15
   1   6   0 3489.74 562.324   2
  -1  -6   0 3637.71 489.301   2
  -1  -6   0 2857.01 406.145  15
   1   6   0 3395.44 570.793   7
   1   6   0 2566.58 516.734  10
  -1  -6   0 2848.61 400.724   3
   1   6   0 2929.68 448.894   3
  -1  -6   0 2585.98 498.199  10
  -1  -6   0 3068.55 308.553   4
   1   6   1-64.5972 240.815   7
  -1  -6  -1 90.0003 92.8341   4
   1   6   1-222.276 266.909   2
  -1  -6  -1-43.9867 135.102   3
  -1  -6  -1 52.9388 111.750  15
  -1  -6  -1 158.857 166.517   2
  -1  -6  -1-282.106 364.441   1
   1   6   1-627.012 416.222  12
   1   6   1-264.890 254.451  10
  -1  -6  -1 96.4939 216.424  10
  -1  -6  -2 4057.18 565.309   3
  -1  -6  -2 3570.32 514.676   4
   1   6   2 5188.04 761.675   7
   1   6   2 3827.20 672.499   2
  -1  -6  -2 4811.04 709.437   1
  -1  -6  -2 4009.65 272.261  15
  -1  -6  -2 4541.32 587.513   2
   1   6   2 4264.62 613.240  10
   1   6   2 3703.17 630.474  12
   1   6   3 960.870 347.101  10
   1   6   3 1274.38 382.456   9
   1   6   3 972.550 404.041   7
  -1  -6  -3 1333.56 409.382   3
   1   6   3 1330.00 444.361  12
  -1  -6  -3 1212.59 425.982   1
   1   6   4 5112.15 812.488  12
   1   6   4 4570.08 605.506  10
  -1  -6  -4 4727.28 762.257   1
   1   6   4 4369.17 752.234   7
  -1  -6  -4 4594.29 747.379   3
   1   6   4 6089.72 761.025   9
   1   6   5 842.585 421.298  12
   1   6   5 838.770 472.924   7
  -1  -6  -5 1322.22 466.598   1
   1   6   5 956.227 325.812  10
   1   6   5 1085.72 375.994   9
   1   6   6 442.800 298.208   9
   1   6   6 418.245 252.878   6
   1   6   6 487.598 324.925   7
   1   6   6-13.6317 299.573  12
  -1  -6  -6 266.517 322.996   1
   1   6   6 124.653 133.407  10
   1   6   7 374.784 275.689   9
   1   6   7-266.336 349.395  12
  -1  -6  -7 280.795 411.603   1
   1   6   7 188.207 226.127   7
   1   6   7 254.260 213.029   6
   1   6   7 259.053 188.198  10
   1   6   8 57.4616 176.986   9
   1   6   8 598.908 374.772  12
  -1  -6  -8 262.354 311.671   1
   1   6   8 518.774 327.350   7
   1   6   9-571.760 426.019   7
   1   6   9-97.8422 314.787  12
   1   6   9 477.008 411.715   9
  -1  -6  -9-46.2279 251.111   1
   1   6  10 347.947 312.945   9
   1   6  10 545.537 348.120   7
   1   6  10 62.1106 226.227  12
   1   7 -12 137.509 183.590  10
  -1  -7  11 665.894 330.650   5
  -1  -7  11 195.470 253.213  13
   1   7 -11 1304.35 449.362  10
   1   7 -11 429.497 394.057   2
  -1  -7  11 557.713 262.487   8
  -1  -7  10 411.439 252.461   8
  -1  -7  10 233.597 343.397  15
   1   7 -10 1113.33 462.019   2
  -1  -7  10 994.242 408.231  13
   1   7 -10 737.936 499.131  10
  -1  -7  10 82.3497 294.506   5
  -1  -7   9-231.261 410.840  13
  -1  -7   9-290.450 430.220  15
  -1  -7   9 567.450 296.598   5
   1   7  -9-359.707 309.196   2
   1   7  -9-140.115 191.096   3
  -1  -7   9 291.440 125.844   8
   1   7  -9 275.973 340.901  10
   1   7  -8 3210.59 472.239   3
   1   7  -8 3499.65 677.601   2
  -1  -7   8 4211.83 866.795  15
  -1  -7   8 3230.07 677.057  13
  -1  -7   8 4061.56 655.164   8
  -1  -7   8 3216.91 600.734   5
   1   7  -8 3207.83 778.387  10
  -1  -7   7-96.8230 279.739   8
   1   7  -7 94.8400 278.510   2
  -1  -7   7-264.597 378.285  15
   1   7  -7 76.4472 192.141   3
  -1  -7   7 140.454 243.176   5
  -1  -7   7 0.65226 138.370  11
  -1  -7   7-3.72960 76.1657   1
  -1  -7   7-676.289 414.750  13
   1   7  -7 420.499 439.880  10
  -1  -7   6 350.488 160.885   1
   1   7  -6 364.479 218.162   9
   1   7  -6 343.763 127.576   4
   1   7  -6 222.960 350.099  10
   1   7  -6 311.809 156.720   3
  -1  -7   6-346.445 421.769  15
  -1  -7   6-43.1354 238.812   5
  -1  -7   6-6.60166 362.544  13
   1   7  -6 418.789 355.140   2
  -1  -7   6 388.982 184.454  11
  -1  -7   6 158.491 321.476   8
   1   7  -5-87.7646 99.8593   9
  -1  -7   5 86.2141 146.570  11
  -1  -7   5-364.099 451.745  13
  -1  -7   5 243.749 290.099   8
   1   7  -5 184.287 291.424   2
  -1  -7   5-74.0975 286.028  15
   1   7  -5-83.8918 340.009  10
   1   7  -5 267.657 143.804   3
  -1  -7   5 82.9477 192.675   5
   1   7  -4 460.245 237.554   9
  -1  -7   4 603.887 482.539  13
  -1  -7   4 710.991 357.691   8
  -1  -7   4 618.034 224.119  11
   1   7  -4 406.352 185.997   3
  -1  -7   4 421.598 326.471   5
  -1  -7   4 112.501 292.480  15
   1   7  -4 520.036 335.806   2
   1   7  -4 549.254 417.714  10
  -1  -7   3 543.640 119.143  14
   1   7  -3 631.050 222.021   9
  -1  -7   3 640.610 143.301   3
   1   7  -3 497.157 341.590   2
   1   7  -3 479.970 222.025   3
   1   7  -3 604.366 388.261  10
  -1  -7   3 798.161 397.491  15
  -1  -7   3 302.949 392.510  13
  -1  -7   3 316.902 285.351   5
  -1  -7   2 1262.78 432.164  13
   1   7  -2 1359.73 435.508   2
  -1  -7   2 1461.43 392.163   2
  -1  -7   2 1469.65 248.825   3
  -1  -7   2 1446.42 431.327  15
  -1  -7   2 1553.86 452.888   5
   1   7  -2 1062.23 380.046  10
   1   7  -2 1762.24 335.134   3
   1   7  -2 1232.06 319.340   9
  -1  -7   1 4356.71 598.338   2
  -1  -7   1 4960.25 608.394  15
   1   7  -1 4605.94 720.829  10
  -1  -7   1 3350.51 603.785  13
   1   7  -1 4019.09 507.836   3
   1   7  -1 4316.30 647.626   2
  -1  -7   1 3213.50 387.189   3
   1   7   0 1000.16 410.634  10
  -1  -7   0 1740.46 349.950  15
  -1  -7   0 1538.68 183.310   4
  -1  -7   0 1526.32 336.703   3
   1   7   0 1589.59 476.484   2
   1   7   0 1781.93 537.948  12
   1   7   0 1663.67 474.370   7
  -1  -7   0 1713.76 496.623   1
  -1  -7   0 1705.32 433.553  13
   1   7   1 6267.79 785.300  10
   1   7   1 6816.23 865.004   7
  -1  -7  -1 6819.40 540.613  15
  -1  -7  -1 6634.75 709.729  13
  -1  -7  -1 6388.93 832.675   1
   1   7   1 6379.43 874.147  12
  -1  -7  -1 6597.31 547.149   4
  -1  -7  -1 5601.57 664.479   3
  -1  -7  -1 6036.40 803.691  10
   1   7   1 7334.23 898.342   2
  -1  -7  -2 2174.39 387.392   4
  -1  -7  -2 2313.43 204.070  15
   1   7   2 2759.17 631.348   7
  -1  -7  -2 2568.84 559.821   1
   1   7   2 2512.94 635.054  12
  -1  -7  -2 2322.04 467.470   3
   1   7   2 1852.43 556.585   2
   1   7   2 2239.22 492.025  10
  -1  -7  -3 2944.85 665.873   1
   1   7   3 3354.05 578.787   9
   1   7   3 3355.36 692.149  12
   1   7   3 3707.51 598.846  10
  -1  -7  -3 3040.19 547.154   3
   1   7   3 4133.08 737.399   7
  -1  -7  -3 2414.04 502.153   4
  -1  -7  -4 277.851 326.603   1
   1   7   4 446.168 257.957  10
   1   7   4 439.376 323.301   9
   1   7   4 256.727 294.022   7
   1   7   4 375.844 374.822  12
   1   7   5 95.0828 169.084  10
   1   7   5-151.288 249.086   9
  -1  -7  -5 74.6293 330.822   1
   1   7   5 197.766 369.018   7
   1   7   5-180.308 263.749  12
   1   7   6 123.418 187.460   9
  -1  -7  -6 41.0152 272.800   1
   1   7   6 32.8322 142.441   7
   1   7   6 422.607 181.407  10
   1   7   6 398.161 280.302   6
   1   7   6 152.281 357.937  12
  -1  -7  -7-45.0236 343.622   1
   1   7   7 58.0713 222.587   7
   1   7   7 157.507 152.969   9
   1   7   7-194.220 317.889  12
   1   7   8 339.459 246.477  12
   1   7   8 208.976 283.574   7
   1   7   8 462.777 214.752   9
  -1  -7  -8 497.139 497.785   1
   1   7   9 744.918 512.663   9
   1   7   9 1338.44 558.376   7
   1   7   9 614.295 325.805  12
   1   8 -10 569.392 461.770  10
  -1  -8  10-120.334 218.438   8
  -1  -8  10-343.929 397.066  15
   1   8 -10 167.807 216.396   2
  -1  -8  10-57.5916 276.722  13
  -1  -8  10-252.187 300.544   5
  -1  -8   9 2895.43 859.588  15
  -1  -8   9 1500.12 486.260   8
  -1  -8   9 1825.01 472.990   5
  -1  -8   9 1216.99 556.747  13
   1   8  -9 1168.57 515.800   2
   1   8  -9 1485.93 573.448  10
  -1  -8   8 2053.89 471.771   8
  -1  -8   8 1724.65 564.468  13
  -1  -8   8 1798.69 479.442   5
  -1  -8   8 1939.28 754.658  15
   1   8  -8 1665.66 671.747  10
   1   8  -8 1706.90 570.124   2
  -1  -8   7 832.695 451.855  13
  -1  -8   7 957.359 450.692   5
  -1  -8   7 624.351 406.174   8
   1   8  -7 887.572 384.227   2
   1   8  -7 763.493 479.783  10
  -1  -8   7 582.589 337.734  15
  -1  -8   6-414.597 194.235  11
  -1  -8   6-275.944 249.902   5
  -1  -8   6-57.8082 318.797  13
   1   8  -6 233.261 313.317   2
  -1  -8   6-151.187 327.975  15
  -1  -8   6-166.351 255.395   8
   1   8  -6 310.058 384.327  10
   1   8  -6 248.381 126.300   3
   1   8  -5-425.793 370.917   2
   1   8  -5-552.370 266.434   9
   1   8  -5 12.2665 134.221   3
  -1  -8   5-217.638 395.745  13
  -1  -8   5-278.699 166.316  11
  -1  -8   5-178.037 209.168   5
   1   8  -5-506.823 398.490  10
  -1  -8   5 296.837 271.827   8
  -1  -8   5 243.755 417.983  15
   1   8  -4 5777.83 811.746   2
  -1  -8   4 5647.08 629.946  11
   1   8  -4 5553.70 905.639  10
  -1  -8   4 6063.34 778.136   8
   1   8  -4 5385.99 485.340   3
  -1  -8   4 5951.45 879.828  13
  -1  -8   4 5648.86 812.130   5
  -1  -8   4 5792.66 862.399  15
   1   8  -4 4283.81 664.499   9
   1   8  -3 15229.7 1412.51  10
  -1  -8   3 14642.3 1239.66  15
  -1  -8   3 12955.9 611.327  14
  -1  -8   3 12766.0 530.969  14
  -1  -8   3 15832.2 1384.84  13
  -1  -8   3 14323.4 1266.48   5
   1   8  -3 16389.0 1286.00   2
  -1  -8   3 15148.1 1150.85   8
   1   8  -3 15078.0 844.900   3
   1   8  -3 12465.2 1040.76   9
   1   8  -2 6588.92 823.881   2
  -1  -8   2 6612.62 868.872  13
  -1  -8   2 4285.59 798.678   5
  -1  -8   2 4882.43 711.404  15
   1   8  -2 4141.74 757.170  10
  -1  -8   2 4202.40 380.145   3
   1   8  -2 4581.75 640.412   9
   1   8  -1 444.501 358.851   2
  -1  -8   1 608.952 426.788  13
  -1  -8   1 70.3005 169.331  15
  -1  -8   1 240.272 287.265   1
   1   8  -1 348.727 283.043   7
   1   8  -1 316.749 294.356  10
  -1  -8   1 6.60908 74.4859   3
  -1  -8   0 179.491 289.445  13
  -1  -8   0-40.0861 126.563   3
  -1  -8   0-2.82446 161.829  15
   1   8   0-91.4579 257.332   2
   1   8   0 562.596 327.111   7
  -1  -8   0-121.328 314.619   1
   1   8   0 159.080 395.296  12
   1   8   0 572.752 338.894  10
   1   8   1 853.338 416.474   7
   1   8   1 1.57707 432.098  12
  -1  -8  -1 666.497 189.995   4
  -1  -8  -1 1398.84 511.280   1
  -1  -8  -1 976.866 383.942  13
  -1  -8  -1 955.259 276.791   3
   1   8   1 1237.27 429.714  10
  -1  -8  -1 1018.53 245.762  15
   1   8   1 943.515 483.136   2
  -1  -8  -2 2177.56 587.044   1
   1   8   2 1819.65 595.509   2
  -1  -8  -2 1427.49 444.358  13
  -1  -8  -2 1119.84 289.185   4
  -1  -8  -2 1339.13 324.332   3
   1   8   2 1569.08 544.531  12
   1   8   2 1315.59 409.680  10
   1   8   2 1823.08 523.531   7
  -1  -8  -3 297.411 187.433   4
   1   8   3-191.398 246.788   9
  -1  -8  -3 357.718 390.771   1
  -1  -8  -3 31.3947 255.436  13
   1   8   3-135.178 313.347   7
   1   8   3-116.878 321.881  12
   1   8   3 62.1082 312.920  10
  -1  -8  -4 620.093 320.499   4
   1   8   4 113.025 264.592  12
  -1  -8  -4 1084.08 424.011   1
   1   8   4-128.031 307.286   7
   1   8   4 704.137 303.670   9
   1   8   4 237.522 216.104  10
  -1  -8  -4 624.207 274.505  13
  -1  -8  -5 1630.70 486.383   1
   1   8   5 444.713 306.232  12
  -1  -8  -5 646.356 327.484   4
   1   8   5 562.303 289.149  10
   1   8   5 804.312 343.287   7
   1   8   5-431.316 289.791   9
  -1  -8  -5 144.657 220.877  13
   1   8   6 243.008 197.708   6
   1   8   6-205.858 298.174   7
   1   8   6 1180.12 512.278  12
  -1  -8  -6 801.602 451.955   1
   1   8   6 1056.28 377.968   9
   1   8   7-878.133 565.486   7
   1   8   7-181.935 289.360   9
   1   8   7-418.294 331.349  12
   1   8   8-273.937 407.004   9
   1   8   8 316.153 349.205  12
   1   8   8 2.16384 355.015   7
  -1  -9  10 36.3948 136.987   8
  -1  -9   9 558.699 287.700   8
  -1  -9   9-472.513 283.373   5
   1   9  -9 307.272 397.781   2
   1   9  -8 314.677 223.181   2
  -1  -9   8 36.1561 157.642   8
  -1  -9   8 349.225 217.364   5
  -1  -9   8 956.190 526.685  13
  -1  -9   8 546.542 382.728  15
   1   9  -8 196.120 369.862  10
  -1  -9   7 1114.74 573.121  13
   1   9  -7 192.558 357.971  10
  -1  -9   7 689.002 440.107   8
  -1  -9   7 550.305 364.199   5
   1   9  -7 430.909 403.214   2
  -1  -9   7 35.6397 502.556  15
   1   9  -6 1508.61 565.775  10
  -1  -9   6 1019.19 509.503   8
  -1  -9   6 1172.24 434.522  15
  -1  -9   6 279.286 387.636  13
  -1  -9   6 778.340 399.424   5
   1   9  -6 779.461 517.098   2
  -1  -9   5 953.448 461.255  15
   1   9  -5 689.459 370.289   2
  -1  -9   5 1431.63 428.238   8
  -1  -9   5 499.116 511.800  13
  -1  -9   5 732.439 372.658   5
   1   9  -5 802.319 480.569  10
  -1  -9   4-99.1651 277.359  15
  -1  -9   4 130.514 421.183  13
  -1  -9   4-101.282 370.954   8
   1   9  -4 160.471 360.683   2
  -1  -9   4-259.322 403.698   5
   1   9  -4 472.135 366.138  10
  -1  -9   3 4401.04 708.599   8
   1   9  -3 4326.15 739.333   2
  -1  -9   3 3482.78 705.775   5
  -1  -9   3 3819.32 791.679  13
  -1  -9   3 3627.34 652.855  15
   1   9  -3 4262.51 837.825  10
   1   9  -2 590.167 352.957  10
  -1  -9   2 1268.73 440.304   1
  -1  -9   2 74.7729 278.196   5
  -1  -9   2 704.098 210.743  14
  -1  -9   2 799.051 499.635  13
   1   9  -2 1161.95 426.693   2
  -1  -9   2 489.317 363.130  15
  -1  -9   2 713.526 387.240   8
  -1  -9   1 91.6723 301.147  13
  -1  -9   1-267.877 298.164   1
   1   9  -1 215.367 312.554   2
   1   9  -1 129.022 302.104  10
  -1  -9   1 4.80323 49.1263  15
   1   9  -1 244.553 392.492   7
   1   9  -1-240.693 201.638  12
   1   9   0-556.456 439.693   2
  -1  -9   0 97.9883 178.777  15
   1   9   0-255.264 393.837  12
  -1  -9   0-98.3224 293.567  13
   1   9   0 1.51697 258.052   7
  -1  -9   0-72.7460 245.927   1
   1   9   0 104.779 235.860  10
   1   9   1 434.627 405.232   7
   1   9   1-182.949 431.617   2
  -1  -9  -1 796.061 425.290   1
  -1  -9  -1 428.266 354.023  13
   1   9   1 891.864 425.237  12
   1   9   1 584.017 337.531  10
   1   9   2 60.3477 231.185  12
   1   9   2 41.3745 116.896   7
  -1  -9  -2 239.412 331.561  13
   1   9   2-187.568 314.391   2
  -1  -9  -2-585.764 410.900   1
   1   9   2 129.922 151.594  10
   1   9   3-72.1487 188.747   9
   1   9   3-215.961 166.018  10
   1   9   3 704.038 387.820  12
  -1  -9  -3 412.120 279.035   1
   1   9   3-596.074 372.831   7
  -1  -9  -3-124.259 255.159  13
   1   9   4 233.683 171.864   9
   1   9   4-97.3346 216.071   7
   1   9   4 17.6469 238.518  12
  -1  -9  -4-282.783 284.145   1
   1   9   4 68.3081 156.239  10
  -1  -9  -4 204.784 218.174  13
   1   9   5-16.2433 127.831  12
   1   9   5 486.844 359.606   7
  -1  -9  -5-26.0242 283.149   1
   1   9   5-17.8323 215.430   9
   1   9   6 317.818 293.573   7
  -1 -10   8 131.850 242.344   8
  -1 -10   7-32.5592 274.772  15
  -1 -10   7 18.1154 86.1918   5
  -1 -10   7 283.433 382.313   8
  -1 -10   6 311.581 471.024  13
  -1 -10   6-334.007 389.513  15
  -1 -10   6-25.8792 224.835   5
  -1 -10   6-19.2537 417.229   8
   1  10  -6-158.273 198.423   2
   1  10  -5 62.0720 150.726  10
  -1 -10   5-59.7546 294.684   8
  -1 -10   5-438.943 296.428  15
  -1 -10   5 366.530 336.066  13
   1  10  -5 428.343 332.605   2
  -1 -10   5 61.5680 231.876   5
   1  10  -4 199.033 248.885  10
  -1 -10   4 650.577 411.570   8
  -1 -10   4 290.120 266.989  15
   1  10  -4 660.737 354.708   2
  -1 -10   4 369.918 259.369  13
  -1 -10   4 633.483 415.113   5
  -1 -10   3-29.0256 274.664   8
  -1 -10   3 153.001 241.153   1
   1  10  -3 452.338 433.086  12
  -1 -10   3 251.805 423.029  13
   1  10  -3-235.174 344.690  10
  -1 -10   3 211.915 278.614   5
  -1 -10   3-148.635 246.369  15
   1  10  -3-320.313 479.017   2
  -1 -10   2-287.835 238.372   1
  -1 -10   2 1053.79 414.165   8
  -1 -10   2-32.2940 320.922   5
   1  10  -2 463.767 363.420   7
  -1 -10   2-225.191 392.160  13
   1  10  -2 265.667 294.024  10
   1  10  -2-18.1661 441.669  12
  -1 -10   2 664.400 407.038  15
   1  10  -2 711.798 534.932   2
   1  10  -1 2412.09 614.184   7
   1  10  -1 1550.67 659.272   2
  -1 -10   1 1422.71 455.234   1
  -1 -10   1 1411.97 477.247   8
   1  10  -1 748.356 446.302  10
  -1 -10   1 2384.23 696.598  13
   1  10  -1 2173.01 771.354  12
  -1 -10   1 1554.57 508.784   5
   1  10   0 132.486 318.772   7
   1  10   0 596.804 361.287  12
  -1 -10   0 183.193 266.657   1
  -1 -10   0-93.7396 341.357  13
   1  10   0-594.815 353.832  10
   1  10   0 521.407 410.234   2
   1  10   1-757.823 366.491  12
  -1 -10  -1-158.945 182.533   1
   1  10   1-611.163 448.811   7
   1  10   1 460.618 309.448   2
  -1 -10  -1-33.5304 198.378  13
   1  10   1 188.798 187.649  10
   1  10   2-395.373 361.971   7
   1  10   2 494.675 356.192   2
  -1 -10  -2-63.7894 184.084  13
   1  10   2-233.246 246.091  12
  -1 -10  -2-106.305 334.768   1
   1  10   2 197.149 238.671  10
   1  10   3-258.894 239.487   7
  -1 -10  -3 740.111 458.986   1
   1  10   3 844.811 354.568  10
   1  10   4 524.417 480.833   7
  -1 -11   6 412.338 289.694  15
  -1 -11   5 893.561 511.177  15
  -1 -11   4 88.1100 238.276   1
   1  11  -3 1076.87 462.036   2
   1  11  -3 1455.29 550.021   7
  -1 -11   3 449.954 243.213   1
   1  11  -2 1272.36 463.581   7
  -1 -11   2 594.294 357.429   1
   1  11  -2 660.254 404.640   2
  -1 -11   1-386.823 246.139  13
   1  11  -1 266.634 232.561  10
  -1 -11   1-384.936 251.627   1
   1  11  -1 392.792 325.904   7
   1  11  -1-679.336 448.582   2
  -1 -11   0 101.937 417.960  13
   1  11   0 633.437 407.493  10
  -1 -11   0 32.2087 221.038   1
   1  11   1-445.287 306.309   7
  -1 -11  -1 210.460 399.275  13
   1  11   1 110.182 240.752  10
   1  11   2 290.066 269.377   7
   1  11   2 225.893 364.718  10
   2 -11  -3 760.891 323.011   1
   2 -11  -2 13.3998 372.739   1
   2 -11  -1 517.865 291.104   1
   2 -11  -1 185.212 180.050  13
   2 -11   0-575.524 359.908   5
   2 -11   0 38.1107 335.869  13
   2 -11   1 376.595 258.196  13
   2 -11   1-70.0034 211.982   5
   2 -11   2 100.491 328.019   5
   2 -11   2-152.751 281.697  13
   2 -11   3-60.2483 240.700   5
  -2  11  -4-218.592 299.346  12
   2 -11   4-776.521 534.565  15
   2 -11   4 351.247 295.281   5
   2 -11   5-180.624 198.524   5
   2 -11   5 79.8351 421.493  15
  -2  11  -5 243.245 357.805  12
  -2  10   6 681.950 345.544   6
  -2  10   5 524.660 404.754  10
   2 -10  -5 633.010 303.245   8
  -2  10   5 1028.77 504.345   6
   2 -10  -4 218.567 221.732   8
  -2  10   4-224.876 406.323   6
  -2  10   4-130.494 252.053  10
   2 -10  -3 201.791 365.537   8
  -2  10   3-116.717 239.601   6
   2 -10  -3-82.2392 242.662   1
  -2  10   3 100.409 160.668  10
  -2  10   2-734.261 363.563   2
   2 -10  -2-58.4778 167.478  13
   2 -10  -2 463.818 336.479   8
  -2  10   2 769.623 441.204  12
   2 -10  -2 935.063 291.980  14
  -2  10   2 11.8105 217.902  10
   2 -10  -2 143.138 230.202   1
   2 -10  -1 161.099 152.708   1
   2 -10  -1 845.309 341.173  14
   2 -10  -1 531.620 405.036   8
  -2  10   1-681.930 341.004   2
   2 -10  -1 32.6355 168.629  13
  -2  10   1 268.647 445.972  12
  -2  10   1 344.361 323.156  10
  -2  10   0-89.7175 252.935  12
   2 -10   0-69.7197 172.007  13
  -2  10   0-458.086 311.429  10
  -2  10   0-167.247 315.879   7
   2 -10   0-160.893 263.753   1
   2 -10   0-68.2532 192.951  14
   2 -10   0 264.626 425.134   8
  -2  10   0 204.039 207.984   2
  -2  10  -1-972.429 444.292  10
   2 -10   1-175.160 217.465   1
   2 -10   1 379.247 396.830   8
  -2  10  -1 193.806 266.602   7
   2 -10   1 755.515 430.563  13
  -2  10  -1 67.6602 317.322  12
  -2  10  -1-288.250 251.009   2
   2 -10   1 194.033 168.845   5
   2 -10   2 200.029 315.387   8
  -2  10  -2-30.4272 289.548  12
  -2  10  -2 450.766 278.704   2
   2 -10   2 428.538 290.853   5
   2 -10   2 657.557 465.324  13
  -2  10  -2 295.568 293.425  10
   2 -10   2-421.566 361.207  15
   2 -10   3 473.646 374.865   8
   2 -10   3 868.060 427.065  15
  -2  10  -3 592.039 555.482  12
  -2  10  -3 316.983 266.935   2
   2 -10   3 637.565 335.843   5
   2 -10   3-43.3100 326.678  13
  -2  10  -3 601.511 379.553  10
   2 -10   4-190.812 239.951  13
  -2  10  -4 416.533 323.523   2
   2 -10   4 683.541 348.158   8
  -2  10  -4 160.187 166.108  12
  -2  10  -4-543.930 507.169  10
   2 -10   4 150.589 301.585  15
   2 -10   4-179.556 233.462   5
   2 -10   5 186.809 243.740  13
   2 -10   5-378.934 305.751   5
  -2  10  -5-165.039 347.773  12
   2 -10   5 542.700 302.974  15
   2 -10   6 1247.81 491.385  15
   2 -10   6 1016.85 352.708   5
  -2  10  -6 1135.39 464.289  12
   2 -10   7-223.432 308.570   5
  -2  10  -7-458.534 507.680  12
  -2   9   7 106.999 144.555   9
   2  -9  -7-137.557 328.062   8
  -2   9   7-310.507 253.958   6
  -2   9   7-102.676 392.050  10
   2  -9  -6 215.550 274.153   8
   2  -9  -6-296.367 410.209   1
  -2   9   6 494.476 358.767   6
  -2   9   6 262.055 218.428  10
  -2   9   5 513.825 404.907   6
  -2   9   5 81.2334 368.181  12
  -2   9   5 177.726 277.465  10
   2  -9  -5 67.4563 189.075   1
   2  -9  -5 287.866 269.878   8
  -2   9   4 201.113 388.063   2
   2  -9  -4-131.114 261.521   8
  -2   9   4-407.026 432.149  12
   2  -9  -4 565.970 362.232   1
  -2   9   4 81.0322 158.444  10
  -2   9   4 477.569 380.700   6
  -2   9   3 618.694 497.951   6
  -2   9   3 415.004 294.788   7
   2  -9  -3 16.4960 102.414  13
  -2   9   3 248.382 325.400  10
  -2   9   3 183.448 277.056  12
   2  -9  -3 261.463 310.401   8
   2  -9  -3 490.851 249.273   1
  -2   9   3-632.906 451.085   2
   2  -9  -2 291.218 289.077   1
   2  -9  -2 241.618 252.586  13
  -2   9   2-528.644 337.105  10
  -2   9   2-66.9691 322.054   2
   2  -9  -2 244.233 324.503   8
  -2   9   2 377.813 357.642  12
  -2   9   2 100.303 148.166   7
  -2   9   1 1575.00 546.314   2
   2  -9  -1 1988.09 561.243   8
   2  -9  -1 2250.55 464.126  14
   2  -9  -1 1883.35 505.167   1
  -2   9   1 1904.92 484.019   7
   2  -9  -1 2085.73 546.772  13
  -2   9   1 1444.87 677.301  12
  -2   9   1 1893.08 579.628  10
  -2   9   0 336.303 417.456   2
   2  -9   0 479.962 300.916   1
   2  -9   0 430.185 364.618   8
  -2   9   0 437.049 287.856   7
   2  -9   0 1411.13 470.774  13
   2  -9   0 475.660 296.418  14
  -2   9   0 661.582 446.737  12
  -2   9   0 573.585 351.576  10
  -2   9  -1 674.794 333.869  10
   2  -9   1 822.573 450.556   8
   2  -9   1 1233.01 393.943   1
  -2   9  -1 1371.59 533.191   2
   2  -9   1 1386.68 486.975  15
   2  -9   1 432.380 339.439  14
  -2   9  -1 940.092 519.545  12
   2  -9   1 685.020 439.330  13
   2  -9   1 1412.96 460.426   5
   2  -9   2 175.373 140.640  14
   2  -9   2 296.364 191.922  15
   2  -9   2-226.327 393.552   8
   2  -9   2 176.083 172.508   1
  -2   9  -2-372.525 352.608   2
  -2   9  -2 115.337 358.587  12
   2  -9   2 360.887 235.862   5
  -2   9  -2 285.286 326.481  10
   2  -9   2-213.282 365.934  13
   2  -9   3 1588.83 594.706  13
   2  -9   3 1214.10 471.099   5
   2  -9   3 1615.72 573.784   8
  -2   9  -3 1241.90 473.864   2
   2  -9   3 1434.94 354.155   1
   2  -9   3 899.235 328.190  14
  -2   9  -3 1449.63 552.486  12
   2  -9   3 1185.86 419.069  15
  -2   9  -3 1121.86 553.023  10
   2  -9   4 1001.34 362.925   8
  -2   9  -4 352.435 340.539   2
   2  -9   4 450.960 465.917  13
   2  -9   4 281.375 260.178   5
   2  -9   4 351.350 272.625  15
  -2   9  -4 563.960 320.542  10
  -2   9  -4 291.579 351.057  12
   2  -9   5 991.809 467.039  13
   2  -9   5 1434.26 463.893   8
   2  -9   5 755.084 474.388  15
  -2   9  -5 1394.93 471.910  10
  -2   9  -5 1482.72 464.296  12
  -2   9  -5 1372.14 482.607   2
   2  -9   5 970.870 373.292   5
   2  -9   6-33.3060 205.706  15
   2  -9   6 351.719 349.206   8
  -2   9  -6 33.8628 263.380  12
  -2   9  -6-36.0981 174.458   2
   2  -9   6 540.108 450.021  13
  -2   9  -6 525.297 311.385  10
   2  -9   6 109.964 132.559   5
   2  -9   7-109.031 165.540  15
  -2   9  -7-207.223 180.401   2
   2  -9   7-372.985 401.697  13
   2  -9   7 321.607 197.387   5
  -2   9  -7 2.07179 207.249  10
  -2   9  -7-87.9752 176.122  12
   2  -9   8 133.430 148.909   8
   2  -9   8-404.621 246.159   5
  -2   9  -8 560.581 389.784  10
   2  -9   9 26.7315 84.2816   5
  -2   8   8 57.3304 143.645   9
   2  -8  -8-31.5097 167.538   8
  -2   8   8 14.5779 127.251   6
  -2   8   8-276.538 220.055  10
  -2   8   7 254.022 281.298   9
   2  -8  -7 134.727 232.214   8
  -2   8   7-188.912 378.782   6
   2  -8  -7 899.852 443.350   1
  -2   8   7 168.064 240.157  10
   2  -8  -6 40.7752 270.756   8
  -2   8   6 425.944 305.805  10
  -2   8   6-16.9174 283.784  12
   2  -8  -6 86.5507 308.124   1
   2  -8  -5 1751.99 520.768   1
  -2   8   5 2077.84 617.535  12
  -2   8   5 1038.02 405.399   6
  -2   8   5 1893.67 406.113   7
   2  -8  -5 1632.29 428.596   8
  -2   8   5 1868.39 534.041  10
  -2   8   4 291.195 431.030   2
   2  -8  -4 183.731 149.603  13
   2  -8  -4-49.0212 249.912   8
   2  -8  -4 81.4472 258.939   1
  -2   8   4 89.7070 223.115   6
  -2   8   4 404.737 221.436   7
  -2   8   4 111.034 203.913  10
  -2   8   4-270.043 442.547  12
   2  -8  -3 266.927 278.838   1
   2  -8  -3 4.60650 217.139  13
  -2   8   3-161.751 333.556   2
   2  -8  -3-122.880 294.221   8
  -2   8   3-587.836 445.074  12
  -2   8   3-189.672 129.949   7
  -2   8   3 645.122 357.528  10
  -2   8   2 411.566 362.018  12
  -2   8   2 101.534 227.853   7
  -2   8   2 399.354 388.030   2
   2  -8  -2 286.719 285.838   8
   2  -8  -2-86.6997 274.965   1
  -2   8   2 116.602 336.324  10
   2  -8  -2 510.098 326.365  13
   2  -8  -2 255.131 132.138   4
   2  -8  -1-77.1292 166.895   1
   2  -8  -1 11.1812 28.2339   3
   2  -8  -1 101.033 37.6696   4
  -2   8   1-86.1464 200.788   7
  -2   8   1-14.0393 36.7788  15
  -2   8   1-59.1126 388.128   2
   2  -8  -1-27.4842 225.040   8
  -2   8   1 260.087 349.542  12
   2  -8  -1 202.298 217.217  13
   2  -8  -1 7.85848 51.2916   3
  -2   8   1 68.1406 271.301  10
  -2   8   0 1665.05 365.883  15
   2  -8   0 1609.27 403.412   1
   2  -8   0 1736.18 500.137   8
   2  -8   0 1555.63 414.473  14
  -2   8   0 1973.28 595.950   2
  -2   8   0 1739.36 553.126  10
   2  -8   0 1490.47 489.317  13
  -2   8   0 2279.89 688.204  12
  -2   8  -1 4669.07 757.699   2
  -2   8  -1 4470.06 838.614  12
   2  -8   1 4487.06 565.534   1
   2  -8   1 4405.39 688.995   8
   2  -8   1 4695.42 635.424  14
  -2   8  -1 3157.63 492.028  15
   2  -8   1 4231.17 722.438  13
  -2   8  -1 3281.26 719.177  10
   2  -8   1 5190.72 755.574  15
   2  -8   2 3.36107 118.955   5
  -2   8  -2 384.434 358.780   2
  -2   8  -2 291.598 303.333  12
   2  -8   2-200.712 194.397  14
   2  -8   2 230.643 189.877   1
   2  -8   2 205.497 347.225  13
  -2   8  -2 147.791 233.887  10
   2  -8   2-66.8276 308.766   8
  -2   8  -2-29.2625 98.1424  15
   2  -8   2 40.9830 127.312  15
   2  -8   3-270.016 346.910   8
   2  -8   3-735.070 393.116  15
   2  -8   3 23.3960 265.766   5
   2  -8   3-37.8947 144.760  14
  -2   8  -3-298.321 262.764  10
  -2   8  -3-209.734 306.894  12
   2  -8   3 170.833 136.596   1
  -2   8  -3-442.990 321.512   2
   2  -8   3 69.0815 319.352  13
   2  -8   4 5254.17 932.589  15
  -2   8  -4 5781.74 804.532   2
  -2   8  -4 5228.83 847.689  12
   2  -8   4 6294.50 957.463  13
   2  -8   4 5445.28 639.365  14
   2  -8   4 5640.39 786.615   8
   2  -8   4 5013.61 481.643   1
   2  -8   4 4322.99 641.567   5
  -2   8  -4 5117.09 877.700  10
  -2   8  -5 797.240 397.602   2
   2  -8   5 1307.99 360.002  14
   2  -8   5 1039.98 380.062   8
  -2   8  -5 1234.88 422.523  12
   2  -8   5 845.965 451.247  15
  -2   8  -5 1273.28 547.605  10
   2  -8   5 892.810 542.933  13
   2  -8   5 733.354 342.881   5
   2  -8   6 500.286 308.800  15
  -2   8  -6 239.543 304.577  12
  -2   8  -6 1017.84 428.422   2
   2  -8   6 582.264 324.931   8
  -2   8  -6 852.247 471.021  10
   2  -8   6 704.772 557.456  13
   2  -8   6 120.848 175.252   5
  -2   8  -7 3182.60 608.521   2
   2  -8   7 3272.56 764.209   8
   2  -8   7 3034.89 818.586  15
   2  -8   7 1711.42 539.751  13
  -2   8  -7 2601.79 596.339  12
   2  -8   7 2308.77 510.653   5
  -2   8  -7 2571.00 725.554  10
   2  -8   8 1070.74 446.968   8
  -2   8  -8 870.427 412.733   2
   2  -8   8 1230.57 532.621  15
   2  -8   8 1201.62 484.954  13
  -2   8  -8 1944.51 496.640  12
  -2   8  -8 1567.89 644.812  10
   2  -8   8 1025.92 382.197   5
   2  -8   9 231.677 201.034   8
  -2   8  -9 233.321 439.820  10
   2  -8   9 265.201 198.931   5
   2  -8  10 445.177 298.242   8
  -2   8 -10 394.358 358.094  10
   2  -8  10 83.1180 280.181   5
  -2   7   9 353.836 286.060   9
  -2   7   9-318.351 337.226  12
  -2   7   8 365.583 242.621  10
  -2   7   8 325.933 420.034   9
  -2   7   8 275.562 368.662  12
   2  -7  -8 272.394 304.107   1
   2  -7  -8 165.397 239.768   8
  -2   7   8-428.546 317.726   6
  -2   7   7 218.292 256.053   7
   2  -7  -7 296.371 225.256   8
  -2   7   7 177.680 148.419   6
  -2   7   7-55.6141 177.152  10
  -2   7   7-237.459 367.259   9
   2  -7  -7-19.4701 218.448   1
  -2   7   7-82.9038 266.773  12
  -2   7   6-145.568 259.982  10
  -2   7   6 372.197 368.250   6
   2  -7  -6 426.748 279.712   8
   2  -7  -6-20.4377 265.824   1
  -2   7   6 32.1624 247.151   7
  -2   7   6-508.510 424.920  12
   2  -7  -5 110.498 265.730   8
  -2   7   5 240.238 208.439   7
   2  -7  -5 209.306 178.307  13
  -2   7   5 7.71971 280.220  12
  -2   7   5 223.606 280.922   6
  -2   7   5-71.7185 230.280  10
   2  -7  -5-66.4365 315.755   1
   2  -7  -5-50.1028 110.101   3
  -2   7   4 1589.93 506.549   6
  -2   7   4 1992.49 594.671  12
   2  -7  -4 1752.16 417.213   8
   2  -7  -4 2040.63 444.378   3
  -2   7   4 2459.04 593.371  10
  -2   7   4 3012.21 501.030   7
   2  -7  -4 2547.36 416.769  13
   2  -7  -4 1855.28 527.140   1
  -2   7   4 2640.30 715.666   2
   2  -7  -3 2042.12 474.691   1
  -2   7   3 2935.97 451.958   7
   2  -7  -3 2968.70 527.892   8
  -2   7   3 1993.42 549.680  10
   2  -7  -3 2163.47 413.452  13
  -2   7   3 2399.31 628.455  12
  -2   7   3 1990.63 624.108   2
   2  -7  -3 2154.89 405.091   3
   2  -7  -2 187.252 190.696   1
  -2   7   2 138.693 307.173  10
  -2   7   2 249.123 440.630  12
   2  -7  -2 165.860 298.413   8
   2  -7  -2 399.764 167.945   3
   2  -7  -2 850.578 296.588  13
  -2   7   2 283.999 222.832   7
  -2   7   2 327.007 297.797   2
  -2   7   2 445.819 130.114  15
   2  -7  -1 6617.39 734.260   8
  -2   7   1 6831.14 595.536  15
  -2   7   1 7632.08 940.685  10
  -2   7   1 9414.04 754.922   7
   2  -7  -1 7687.60 769.420   1
   2  -7  -1 7449.24 469.819   4
  -2   7   1 7466.46 962.366  12
   2  -7  -1 7324.84 816.626  13
   2  -7  -1 7422.55 494.597   3
  -2   7   1 8095.57 938.326   2
  -2   7   0 6579.03 825.814   2
   2  -7   0 7002.67 780.802  15
   2  -7   0 6575.10 761.052   8
  -2   7   0 4863.40 579.314  15
   2  -7   0 6188.70 650.955   1
  -2   7   0 5527.88 838.330  10
   2  -7   0 7047.05 836.497  13
   2  -7   0 6772.84 692.509  14
  -2   7   0 5731.40 848.980  12
   2  -7   1 3293.74 597.458  15
   2  -7   1 3430.47 664.909  13
   2  -7   1 3609.99 590.002   8
   2  -7   1 4003.63 566.760  14
  -2   7  -1 3136.51 658.723  10
  -2   7  -1 3079.28 638.921  12
  -2   7  -1 3354.64 520.279  15
   2  -7   1 4080.53 500.722   1
  -2   7  -1 3685.07 604.462   2
   2  -7   2-460.775 353.098   8
   2  -7   2 166.772 148.277   1
  -2   7  -2 127.771 296.495  12
  -2   7  -2-213.527 167.004  15
  -2   7  -2-326.632 312.088   2
   2  -7   2-11.5828 353.300  13
   2  -7   2 50.9906 205.420  14
   2  -7   2-252.554 263.147   5
   2  -7   2 760.080 349.258  15
  -2   7  -2-1.34720 286.168  10
   2  -7   3 4820.55 586.947  14
   2  -7   3 5065.32 710.173   8
  -2   7  -3 4746.85 718.664  12
  -2   7  -3 4499.85 658.846   2
   2  -7   3 4991.53 466.941   1
  -2   7  -3 4172.34 794.637  10
   2  -7   3 5052.85 660.942   5
   2  -7   3 4994.87 810.679  13
   2  -7   3 4335.11 790.981  15
   2  -7   4 180.874 230.407  15
   2  -7   4 285.407 329.428  13
   2  -7   4-302.646 192.524  14
   2  -7   4 238.548 268.280   8
  -2   7  -4-205.753 286.617  12
   2  -7   4 91.7802 112.813   1
  -2   7  -4 183.136 241.184   2
   2  -7   4 164.135 172.792   5
  -2   7  -4-70.2076 269.396  10
   2  -7   5 4688.03 588.222  14
   2  -7   5 4611.81 830.037  13
   2  -7   5 5058.15 900.406  15
   2  -7   5 4551.01 367.813   1
  -2   7  -5 4593.72 734.637   2
  -2   7  -5 3932.83 650.111  12
  -2   7  -5 4021.82 346.216   4
   2  -7   5 4135.36 306.266   1
   2  -7   5 4919.93 765.233   8
  -2   7  -5 4631.66 831.747  10
   2  -7   5 4298.62 596.896   5
   2  -7   6 699.509 358.154  15
   2  -7   6 234.992 358.429  13
  -2   7  -6-66.2058 174.466   4
  -2   7  -6 499.874 351.976  10
  -2   7  -6 270.181 276.532  12
  -2   7  -6-39.0838 265.584   2
   2  -7   6 11.4712 174.951   8
   2  -7   6 4.58087 49.9410   1
   2  -7   6 346.733 231.413   5
   2  -7   7-156.796 345.343  13
  -2   7  -7 116.793 162.876   4
   2  -7   7 259.386 270.786   8
   2  -7   7-43.8196 227.019  15
  -2   7  -7-130.105 386.484   2
   2  -7   7 437.650 203.606   5
  -2   7  -7 188.478 350.235  10
  -2   7  -8-237.672 297.026   2
   2  -7   8 22.2861 245.854  13
   2  -7   8 88.9933 189.995   8
   2  -7   8 707.082 477.473  15
  -2   7  -8-535.354 442.757  10
   2  -7   8 308.417 211.813   5
   2  -7   9 128.519 422.666   8
  -2   7  -9 792.552 466.814   2
   2  -7   9 112.085 284.544  13
   2  -7   9 288.089 190.983   5
  -2   7  -9 103.934 446.665  10
   2  -7   9 931.686 485.675  15
   2  -7  10 330.396 316.943  13
   2  -7  10 230.943 231.605   8
  -2   7 -10-494.704 418.078  10
   2  -7  10 680.946 308.600   5
   2  -7  11-166.458 344.298   8
  -2   7 -11-208.514 257.091  10
  -2   6  10 708.550 378.423   9
  -2   6   9 686.293 309.991   6
   2  -6  -9 384.547 235.036   8
  -2   6   9-18.1407 184.443  10
  -2   6   9 676.180 389.724  12
   2  -6  -9 862.451 462.548   1
  -2   6   9 117.762 288.582   9
  -2   6   8 933.435 346.351  10
   2  -6  -8 1377.97 321.353   8
   2  -6  -8 1299.60 455.026   1
  -2   6   8 1795.10 678.365   9
  -2   6   8 1619.94 400.223   6
  -2   6   8 1266.42 498.322  12
  -2   6   7 3228.19 630.924  10
  -2   6   7 2574.49 605.447   9
   2  -6  -7 3259.32 476.878   8
  -2   6   7 2940.34 562.340   7
  -2   6   7 3301.08 735.696  12
   2  -6  -7 3154.03 618.772   1
  -2   6   7 2580.72 527.430   6
   2  -6  -6 1106.18 467.465   1
  -2   6   6 540.627 355.873   6
  -2   6   6 1046.47 465.418  12
   2  -6  -6 1210.06 332.220   8
  -2   6   6 1235.41 351.686   7
  -2   6   6 772.983 337.279  10
  -2   6   5 1642.09 519.827   6
  -2   6   5 1316.43 485.457  12
  -2   6   5 1980.40 369.750   7
   2  -6  -5 2161.38 439.442   8
   2  -6  -5 1778.89 469.626   1
   2  -6  -5 1867.90 283.814  13
   2  -6  -5 1523.75 410.892   3
  -2   6   5 1434.23 440.712  10
  -2   6   4-473.507 397.219  12
  -2   6   4 11.8794 303.937   2
   2  -6  -4 182.431 265.678   8
  -2   6   4 54.6489 170.515   7
   2  -6  -4-61.6185 223.641   3
  -2   6   4-706.571 430.149   6
   2  -6  -4-54.5393 160.934  13
   2  -6  -4 22.9338 283.437   1
  -2   6   4-34.8858 167.695  10
   2  -6  -3 508.490 286.310   1
  -2   6   3 1317.58 466.386  12
   2  -6  -3 1164.79 340.352   8
  -2   6   3 947.697 249.983   7
   2  -6  -3 719.122 224.156   3
  -2   6   3 861.444 372.135   6
   2  -6  -3 713.386 287.336  13
  -2   6   3 679.718 392.420   2
  -2   6   3 657.811 332.896  10
  -2   6   3 499.713 118.550  15
  -2   6   2 4329.62 707.536   2
   2  -6  -2 3900.82 535.975   8
  -2   6   2 4390.00 489.673   7
   2  -6  -2 3435.59 431.678   3
   2  -6  -2 3453.81 519.640   1
  -2   6   2 4308.11 428.969  15
   2  -6  -2 4569.05 538.359  13
  -2   6   2 4025.06 675.466  12
  -2   6   2 4143.89 670.504  10
   2  -6  -1 19160.6 1180.33   2
   2  -6  -1 19449.7 763.545   4
   2  -6  -1 18692.9 1061.23   8
   2  -6  -1 18396.6 1043.29   1
  -2   6   1 17598.8 1302.94  10
  -2   6   1 21755.9 1007.51   7
   2  -6  -1 17932.4 785.673   3
  -2   6   1 18842.1 1348.16  12
   2  -6  -1 18430.3 1113.97  13
  -2   6   1 17967.6 1229.74   2
  -2   6   1 17237.6 932.896  15
   2  -6   0 152.869 150.739   2
   2  -6   0 330.716 202.375   1
  -2   6   0 217.971 282.394  12
   2  -6   0 172.573 262.237   8
   2  -6   0 139.023 237.578  15
  -2   6   0 160.374 202.003  10
   2  -6   0 166.183 95.3267   4
  -2   6   0 29.2184 338.276   2
   2  -6   0 693.261 280.020  14
   2  -6   0 181.838 249.596  13
   2  -6   0 159.362 195.120  11
  -2   6   0 223.502 193.990  15
  -2   6  -1 4989.77 640.864   2
   2  -6   1 4298.08 590.581  15
   2  -6   1 5315.66 652.230   8
   2  -6   1 6262.64 645.671  11
   2  -6   1 5052.94 484.687   1
   2  -6   1 4812.25 679.110  13
  -2   6  -1 4821.79 686.217  12
   2  -6   1 5579.67 595.143  14
  -2   6  -1 5146.91 756.323  10
  -2   6  -1 5229.70 620.305  15
   2  -6   1 4666.04 585.322   2
   2  -6   2 215.262 163.177  14
   2  -6   2-83.9136 148.923   2
   2  -6   2 314.473 328.164  13
   2  -6   2-107.354 200.530   5
   2  -6   2 189.471 321.527   8
  -2   6  -2 15.6824 251.685   2
   2  -6   2 63.3921 136.900   1
  -2   6  -2 321.415 270.456  12
  -2   6  -2 188.524 282.154  10
   2  -6   2 134.393 212.123  15
  -2   6  -2 5.07613 85.1954  13
   2  -6   2 101.165 186.684  11
  -2   6  -2-223.910 193.304  15
   2  -6   3 0.70616 83.8549   1
  -2   6  -3 614.329 279.452   9
   2  -6   3-158.702 220.254  11
  -2   6  -3 96.1117 103.630  15
  -2   6  -3 38.3182 236.166  12
  -2   6  -3-558.417 352.806   2
   2  -6   3 213.830 219.382   8
   2  -6   3 143.387 294.729  13
   2  -6   3-170.074 178.941  14
   2  -6   3-43.8234 217.575   5
   2  -6   3 149.798 279.852  15
  -2   6  -3 42.5759 293.079  10
  -2   6  -4 821.943 332.800   2
  -2   6  -4 1047.82 365.005  12
   2  -6   4 1073.59 362.888   8
  -2   6  -4 678.602 171.652   4
   2  -6   4 876.480 294.181  14
   2  -6   4 809.599 155.955   1
   2  -6   4 1216.19 502.413  13
   2  -6   4 1123.86 440.865  15
   2  -6   4 958.564 153.259   1
   2  -6   4 1047.32 293.560  11
   2  -6   4 794.558 268.723   5
  -2   6  -4 334.391 363.887  10
  -2   6  -5 2396.73 544.432   2
   2  -6   5 1852.29 407.474   5
  -2   6  -5 1645.63 354.603   4
   2  -6   5 1876.03 578.378  15
   2  -6   5 1777.17 410.686  14
   2  -6   5 2304.35 608.905  13
   2  -6   5 1693.76 199.741   1
   2  -6   5 1637.28 488.128   8
  -2   6  -5 1127.26 518.865  10
  -2   6  -5 1681.38 410.538  12
   2  -6   5 1782.89 470.156  11
   2  -6   5 1684.17 174.165   1
  -2   6  -6 3960.54 700.466   2
  -2   6  -6 4315.40 782.494  10
   2  -6   6 3768.85 699.343   8
  -2   6  -6 3468.13 509.793   4
  -2   6  -6 3304.01 343.317   3
   2  -6   6 2966.10 577.888  11
  -2   6  -6 3633.82 417.999  14
   2  -6   6 3528.84 720.069  13
   2  -6   6 4183.47 816.747  15
   2  -6   6 3408.22 559.967   5
  -2   6  -6 3443.61 259.200   3
   2  -6   7 1915.59 454.286   5
  -2   6  -7 1021.82 386.735   4
   2  -6   7 2184.27 586.117   8
  -2   6  -7 1528.87 516.289   2
   2  -6   7 937.374 487.615  15
  -2   6  -7 1067.25 253.332   3
  -2   6  -7 1191.22 304.907  14
   2  -6   7 1253.71 465.438  13
  -2   6  -7 2012.11 565.871  10
  -2   6  -8 4350.02 687.947   4
  -2   6  -8 5493.50 887.542   2
   2  -6   8 5596.18 850.708   8
   2  -6   8 5226.60 947.317  15
  -2   6  -8 5577.67 866.267  10
   2  -6   8 4486.37 871.086  13
   2  -6   8 5712.06 777.845   5
   2  -6   9 231.871 192.738   5
   2  -6   9 34.6632 237.072   8
   2  -6   9-90.4647 161.768  15
  -2   6  -9 105.382 199.271   4
  -2   6  -9 121.637 359.548   2
  -2   6  -9 444.713 205.187  11
  -2   6  -9-347.960 358.960  10
   2  -6  10 2010.47 623.018  15
   2  -6  10 1781.71 550.182   8
  -2   6 -10 1822.85 589.145   4
   2  -6  10 1945.58 632.264  13
   2  -6  10 2649.34 570.033   5
  -2   6 -10 2617.83 603.581  10
  -2   6 -10 3067.45 722.419   2
   2  -6  11 577.805 349.970   8
   2  -6  11 742.960 332.517   5
   2  -6  11 373.636 346.376  13
  -2   6 -11 481.223 449.624  10
  -2   6 -11 500.850 340.361   4
  -2   5  11 32.1407 365.322   9
   2  -5 -10 126.330 319.229   1
  -2   5  10 521.820 394.506   9
  -2   5   9-4.67214 209.973   6
  -2   5   9-172.401 371.577   9
   2  -5  -9 103.688 305.917   1
   2  -5  -8 627.575 359.050   1
  -2   5   8 1354.55 521.074   9
   2  -5  -8 612.841 287.770   7
  -2   5   8 933.172 352.855   6
  -2   5   8 727.709 362.632  12
  -2   5   7 278.883 189.098   7
   2  -5  -7 102.336 329.720   1
  -2   5   7 951.629 425.854   9
   2  -5  -7 629.632 189.306   7
  -2   5   7 745.599 423.387  12
  -2   5   7 129.876 238.870   6
  -2   5   6 345.882 413.613  12
  -2   5   6 411.392 243.791   7
   2  -5  -6 743.220 213.169   7
   2  -5  -6 801.140 359.912   1
  -2   5   6 417.389 315.751   6
   2  -5  -5 125.592 199.015   8
  -2   5   5 192.765 195.025   7
   2  -5  -5 88.1429 91.3098  13
   2  -5  -5-272.560 343.526   1
  -2   5   5 268.206 255.607   6
  -2   5   5-93.0064 201.306  10
  -2   5   5-344.185 373.004  12
  -2   5   4 187.273 190.066   7
  -2   5   4 12.1443 62.8563  15
  -2   5   4 139.885 188.095   1
  -2   5   4 83.9763 227.957  12
   2  -5  -4 215.966 215.738   8
   2  -5  -4 229.287 215.724   2
  -2   5   4 263.764 264.152  10
   2  -5  -4-187.968 255.573  12
   2  -5  -4 41.5600 264.020   1
  -2   5   4 314.880 315.020   6
   2  -5  -4 78.6480 122.187  13
  -2   5   4-28.3338 255.558   2
   2  -5  -3 917.503 294.573   2
   2  -5  -3 1071.02 313.443   8
  -2   5   3 559.093 155.041  15
  -2   5   3 794.210 233.058   7
   2  -5  -3 923.845 244.640  13
  -2   5   3 335.778 251.640  10
  -2   5   3 531.261 419.751  12
  -2   5   3 520.408 305.436   6
   2  -5  -3 642.840 269.312  12
  -2   5   3 669.676 457.347   2
  -2   5   3 518.788 271.295   1
   2  -5  -3 629.979 274.794   1
   2  -5  -2 6013.87 573.363   8
  -2   5   2 5867.39 728.616  12
  -2   5   2 5913.39 491.709   7
   2  -5  -2 5811.91 561.091  13
  -2   5   2 5354.12 456.674  15
   2  -5  -2 5126.89 539.015   1
   2  -5  -2 5347.69 610.089   2
  -2   5   2 4840.49 652.780  10
  -2   5   2 5695.62 702.435   2
   2  -5  -1 3503.86 329.407   4
   2  -5  -1 2944.77 441.555   8
   2  -5  -1 2918.79 435.702  13
   2  -5  -1 2615.89 283.930   3
   2  -5  -1 2999.57 399.886   1
  -2   5   1 2455.50 358.965  15
  -2   5   1 2840.74 495.514   2
  -2   5   1 2980.41 536.420  12
  -2   5   1 3272.19 561.255  10
  -2   5   0 5385.31 666.324  12
  -2   5   0 4715.07 605.281   2
   2  -5   0 5106.38 606.447  15
   2  -5   0 5029.12 379.427   4
   2  -5   0 5174.24 553.645   8
   2  -5   0 5228.47 464.541   1
  -2   5   0 5354.18 550.609  15
  -2   5   0 4796.23 517.949  13
   2  -5   0 5287.38 609.385  13
   2  -5   0 4655.19 201.551   3
   2  -5   0 4550.77 247.012   3
   2  -5   0 6380.77 581.962  14
   2  -5   0 6489.23 582.073  11
   2  -5   1 47004.6 1122.07   4
   2  -5   1 51224.0 1686.00   8
   2  -5   1 49249.2 1874.19  15
   2  -5   1 54699.7 1682.72  11
  -2   5  -1 47709.5 1720.84  15
   2  -5   1 47773.8 1242.03   1
  -2   5  -1 51766.1 1755.83   2
   2  -5   1 49774.5 1859.68  13
   2  -5   1 50592.2 1594.04  14
  -2   5  -1 49883.8 1711.71  13
  -2   5  -1 51381.6 1880.10  12
  -2   5  -2 8621.57 787.145  12
   2  -5   2 8249.98 672.739  14
   2  -5   2 8584.52 853.555  15
  -2   5  -2 7762.24 754.209  15
   2  -5   2 7891.95 457.065   1
   2  -5   2 9018.54 862.075  13
  -2   5  -2 8492.67 754.380  13
   2  -5   2 7918.11 710.888   8
   2  -5   2 7632.39 646.901   5
  -2   5  -2 8733.16 876.204  10
   2  -5   2 9968.56 808.316  11
   2  -5   2 9167.78 773.420   2
  -2   5  -2 9035.32 790.290   2
  -2   5  -3 28035.2 1351.73   2
   2  -5   3 27698.8 1342.05   8
   2  -5   3 29718.7 1403.97   2
   2  -5   3 26765.8 1525.87  10
   2  -5   3 26282.5 719.344   1
   2  -5   3 28547.0 1603.49  15
   2  -5   3 25797.2 1231.48  14
  -2   5  -3 26685.3 901.732   4
   2  -5   3 27176.9 1519.59  13
  -2   5  -3 28226.6 1430.86  13
  -2   5  -3 27656.8 1475.25  15
  -2   5  -3 27389.4 1336.65  12
   2  -5   3 31604.7 1476.12  11
   2  -5   3 26612.8 1176.27   5
  -2   5  -3 30123.4 1613.63  10
  -2   5  -3 29374.8 1673.62   9
   2  -5   4 8006.35 308.966   1
  -2   5  -4 8314.00 816.484  13
  -2   5  -4 9915.81 768.247   8
  -2   5  -4 9353.31 946.477  15
   2  -5   4 9270.92 995.507  15
   2  -5   4 8168.36 735.843  14
  -2   5  -4 8879.54 602.379  14
  -2   5  -4 8042.87 369.065   3
   2  -5   4 9481.13 845.962  11
   2  -5   4 8878.58 943.670  13
   2  -5   4 8187.83 357.979   1
  -2   5  -4 8346.79 808.571   2
   2  -5   4 9717.73 731.812   5
   2  -5   4 8450.02 885.419  10
   2  -5   4 8993.47 815.136   2
  -2   5  -4 8317.59 736.536  12
  -2   5  -4 9065.57 934.191  10
   2  -5   4 9412.14 865.017   8
  -2   5  -4 8809.63 651.330   4
  -2   5  -4 9873.52 1011.55   9
  -2   5  -5 3413.24 647.946   9
   2  -5   5 2776.11 542.645   8
  -2   5  -5 2983.55 503.715   8
   2  -5   5 3095.05 458.614   5
  -2   5  -5 2857.74 338.138   3
  -2   5  -5 3297.76 501.155   4
   2  -5   5 2820.61 660.385  15
   2  -5   5 2364.42 172.417   1
  -2   5  -5 2976.10 408.613  14
  -2   5  -5 3179.28 450.483  11
   2  -5   5 3031.57 522.932  11
   2  -5   5 3368.31 567.898  10
  -2   5  -5 3230.00 589.484   2
  -2   5  -5 2897.43 569.006  10
   2  -5   5 2603.80 566.828  13
   2  -5   5 3353.50 539.444  14
   2  -5   6-185.767 318.808  13
  -2   5  -6 151.939 107.149   3
   2  -5   6 42.2879 326.325   8
  -2   5  -6-525.953 327.933   4
   2  -5   6 240.445 142.353  10
  -2   5  -6 171.942 345.183   2
  -2   5  -6 409.956 367.559  10
   2  -5   6 18.6510 376.296  15
   2  -5   6 86.3645 202.863  11
  -2   5  -6 74.8292 167.488  14
  -2   5  -6 366.388 238.128  11
   2  -5   6 120.475 67.0074   1
   2  -5   6 142.719 212.508   5
  -2   5  -7 123.497 341.440   4
   2  -5   7 319.519 304.049   8
   2  -5   7 109.722 395.611  15
  -2   5  -7 498.803 205.513   3
   2  -5   7 326.414 401.566  13
  -2   5  -7 189.717 217.082   5
  -2   5  -7 684.332 394.779   2
  -2   5  -7 326.981 227.756  11
   2  -5   7 415.446 101.664   1
  -2   5  -7 474.638 219.379  14
  -2   5  -7 298.486 257.247  10
   2  -5   7 348.203 240.532   5
  -2   5  -8 252.884 307.038   4
   2  -5   8 222.565 246.149   8
   2  -5   8 381.083 335.208  15
  -2   5  -8 609.305 274.664  11
   2  -5   8 1100.45 384.017  13
  -2   5  -8 902.896 354.460  14
  -2   5  -8 694.378 255.621   3
   2  -5   8 525.131 309.639   5
  -2   5  -8 1084.88 407.364   2
  -2   5  -8 906.893 371.065  10
   2  -5   9 357.677 340.586  15
   2  -5   9-20.5203 273.442   5
  -2   5  -9-111.114 333.308  10
   2  -5   9 266.219 215.795  13
   2  -5   9 399.300 279.282   8
  -2   5  -9-65.8555 343.949   2
  -2   5  -9 154.652 212.929  11
   2  -5  10 953.470 355.517   5
  -2   5 -10 566.867 380.199   2
   2  -5  10 524.129 374.469   8
   2  -5  10 209.669 434.147  13
   2  -5  10 656.879 398.898  15
  -2   5 -10 192.263 160.844  10
  -2   5 -10 666.437 321.847  11
   2  -5  11 930.597 407.813  13
   2  -5  11 78.8463 168.631   5
   2  -5  11 302.633 441.279  15
   2  -5  11 1154.99 462.624   8
  -2   5 -11 330.831 363.847   2
  -2   5 -11-227.240 320.347  10
   2  -5  12-128.694 298.196  13
   2  -5  12 550.747 416.278   5
  -2   4  11 507.849 436.533   9
   2  -4 -11 504.199 297.726   1
   2  -4 -10 616.370 393.796   1
  -2   4  10 623.926 213.630   6
  -2   4  10 485.996 489.555   9
  -2   4   9 955.569 446.504   9
   2  -4  -9 905.795 440.152   1
  -2   4   9 930.028 236.285  15
  -2   4   9 1360.56 353.383   6
   2  -4  -9 1190.74 366.755   7
   2  -4  -8 76.4325 304.121   1
  -2   4   8-176.542 349.161  12
   2  -4  -8-86.6716 119.970   7
  -2   4   8 157.207 179.712   6
  -2   4   8-22.5650 86.4014  15
  -2   4   8-150.887 287.301   9
  -2   4   7 87.6854 310.219  12
   2  -4  -7 141.655 106.255   7
  -2   4   7 123.837 84.2810  15
  -2   4   7-22.1011 356.116   9
  -2   4   7 337.069 273.907   6
  -2   4   6 289.481 305.802  12
  -2   4   6 361.088 267.339   7
  -2   4   6 80.7100 82.7525  15
   2  -4  -6 108.093 287.628  12
   2  -4  -6-64.5071 343.132   1
   2  -4  -6 102.949 76.9812   7
  -2   4   6 100.006 208.569   6
   2  -4  -5 351.270 210.823   5
  -2   4   5 6.36837 223.074   1
   2  -4  -5 412.395 274.425   1
  -2   4   5 448.739 238.097   6
   2  -4  -5 226.584 263.592  12
  -2   4   5 80.4139 246.808  12
   2  -4  -5 208.293 160.258   2
   2  -4  -5 550.095 167.728   7
  -2   4   5 265.650 175.902   7
  -2   4   4 51101.5 2005.92  12
   2  -4  -4 52095.6 1739.03   1
   2  -4  -4 51062.8 1867.85   2
  -2   4   4 52565.3 1821.42   6
   2  -4  -4 54026.6 2109.28  12
   2  -4  -4 48516.5 1042.72  13
   2  -4  -4 53117.9 1386.03   8
  -2   4   4 48751.4 1109.28  15
  -2   4   4 53061.9 1892.28   1
  -2   4   4 52860.8 2142.23   2
  -2   4   4 49687.9 1400.61   7
  -2   4   3 191268. 2341.25  15
   2  -4  -3 202087. 2704.46   8
  -2   4   3 203993. 2547.80   7
   2  -4  -3 198585. 3141.01   1
  -2   4   3 202458. 3517.67   6
   2  -4  -3 197958. 2449.83  13
  -2   4   3 195832. 3712.87  12
  -2   4   3 199128. 3391.66   1
  -2   4   3 205479. 3819.78   2
   2  -4  -2 2408.97 337.595   8
  -2   4   2 2323.26 439.347   2
  -2   4   2 2506.92 277.043   7
   2  -4  -2 2136.18 336.424  13
  -2   4   2 2085.22 297.346  15
  -2   4   2 2426.28 285.705  13
  -2   4   2 2259.86 447.668  12
  -2   4   2 2244.05 447.546   6
   2  -4  -2 2109.52 365.708   1
  -2   4   2 2146.98 353.803   1
  -2   4   2 2441.19 424.105  10
   2  -4  -1 689.615 209.087   1
  -2   4   1 808.246 325.071   2
  -2   4   1 570.463 183.146  13
  -2   4   1 569.613 175.335  15
   2  -4  -1 849.307 250.890   8
  -2   4   1 399.326 165.329   1
   2  -4  -1 613.106 232.644  13
  -2   4   1 512.110 242.471  12
   2  -4  -1 663.420 240.867  12
   2  -4  -1 941.267 203.644  11
  -2   4   0 684.990 285.269   2
   2  -4   0 354.324 144.738   1
  -2   4   0 498.808 185.170  15
   2  -4   0 472.264 145.075   4
   2  -4   0 487.771 220.849   8
  -2   4   0 450.650 181.722  13
   2  -4   0 481.711 228.757  15
   2  -4   0 567.407 87.0647   3
   2  -4   0 758.118 209.601  11
  -2   4   0 906.604 295.350  12
   2  -4   0 388.449 208.154  13
   2  -4   0 635.134 224.593  14
   2  -4   1 225.739 252.287   8
   2  -4   1 1172.32 204.816   1
   2  -4   1 68.0092 104.771   4
   2  -4   1 68.8831 160.113  11
   2  -4   1 1244.92 330.637  15
   2  -4   1 18.2980 196.202  14
  -2   4  -1 1174.32 328.005   2
   2  -4   1 1204.68 350.500  13
  -2   4  -1 434.485 194.252  15
  -2   4  -1 482.476 232.954  13
  -2   4  -1 729.822 351.136  12
   2  -4   2-19.8998 48.4270   1
  -2   4  -2 58.1439 163.736  15
   2  -4   2 11.2907 231.350  15
   2  -4   2 81.6171 149.628  11
   2  -4   2 157.801 193.855   8
   2  -4   2 125.062 153.273  14
  -2   4  -2-65.3939 110.388   4
  -2   4  -2-23.8447 222.790   2
   2  -4   2 50.1489 257.408  13
  -2   4  -2 129.884 180.872  12
  -2   4  -2 69.0580 226.704  10
   2  -4   2 249.260 171.199   5
  -2   4  -3-100.495 168.144   9
   2  -4   3 36.4418 206.950  10
   2  -4   3 156.896 43.4600   1
  -2   4  -3 54.3297 133.403   4
   2  -4   3 176.683 244.315   8
  -2   4  -3 90.4461 150.354   8
  -2   4  -3 5.02821 180.596  15
  -2   4  -3 158.291 227.128   2
   2  -4   3-47.0629 173.513  14
  -2   4  -3 234.322 167.555  14
   2  -4   3-26.4428 261.107  13
  -2   4  -3 194.160 83.8188   3
   2  -4   3 42.6334 138.210  11
   2  -4   3 203.279 287.792  15
  -2   4  -3 150.475 196.350  11
  -2   4  -3 58.0556 249.537  10
   2  -4   3 166.195 151.579   5
   2  -4   3 101.091 43.6012   1
  -2   4  -3 234.144 181.152  12
   2  -4   4-29.0932 93.9549   2
  -2   4  -4 112.185 204.693   4
  -2   4  -4 7.60620 207.191  10
  -2   4  -4-14.2225 101.072   3
   2  -4   4 67.9126 196.218   8
  -2   4  -4 34.0466 120.948   8
   2  -4   4-160.209 319.259  15
  -2   4  -4-130.585 167.707  14
   2  -4   4-99.6041 145.195   5
   2  -4   4 107.617 157.962  10
   2  -4   4-341.531 321.791  13
  -2   4  -4-23.5827 137.525  15
  -2   4  -4-42.3951 181.270  11
  -2   4  -4 54.2015 274.704   2
   2  -4   4 39.5698 163.246  11
  -2   4  -4 186.475 150.761   9
   2  -4   4-196.950 161.987  14
  -2   4  -5 1549.23 432.192   9
  -2   4  -5 2149.36 439.293   4
   2  -4   5 2081.74 421.302  11
  -2   4  -5 1581.53 320.757   5
   2  -4   5 2222.25 468.279   8
  -2   4  -5 1558.49 430.368  10
  -2   4  -5 1903.33 358.862   8
   2  -4   5 1982.66 573.909  15
   2  -4   5 1850.02 349.409   5
   2  -4   5 1231.57 404.252  13
   2  -4   5 1650.61 149.498   1
  -2   4  -5 2043.56 341.167   3
  -2   4  -5 1832.27 366.647  14
  -2   4  -5 1495.59 417.646   2
  -2   4  -5 1392.55 380.541  13
  -2   4  -5 2134.50 384.146  11
   2  -4   5 1607.55 382.782  10
   2  -4   5 1594.29 390.689  14
  -2   4  -5 2087.54 427.236  15
  -2   4  -6 15493.4 1133.87   2
  -2   4  -6 14602.8 941.782   8
   2  -4   6 13921.5 1220.07  13
  -2   4  -6 13450.5 1150.41   7
  -2   4  -6 15123.4 1033.30  14
   2  -4   6 15200.6 1214.74   8
  -2   4  -6 13701.0 977.660   3
   2  -4   6 15169.1 1352.09  15
  -2   4  -6 12996.3 895.887   5
   2  -4   6 13285.8 517.031   1
   2  -4   6 15081.9 1100.09  10
  -2   4  -6 15032.9 1126.68  10
   2  -4   6 15546.0 976.764   5
  -2   4  -6 15488.9 969.297  11
   2  -4   7 1007.55 348.244  10
   2  -4   7 1606.32 440.404   8
   2  -4   7 1484.89 485.417  15
  -2   4  -7 1588.89 394.066  11
  -2   4  -7 1574.07 365.367   5
  -2   4  -7 1277.29 398.035  14
   2  -4   7 1389.72 215.064   1
  -2   4  -7 1637.07 431.512  10
  -2   4  -7 1672.55 378.724   8
  -2   4  -7 1451.09 402.001   2
  -2   4  -7 1422.32 402.581   3
   2  -4   7 2108.36 517.770  13
   2  -4   7 1672.06 391.298   5
  -2   4  -8 7808.77 882.837  14
   2  -4   8 7324.04 527.536   1
   2  -4   8 8424.32 987.219   8
  -2   4  -8 8555.42 951.483   2
   2  -4   8 7862.09 857.419  10
   2  -4   8 9004.92 852.190   5
  -2   4  -8 7644.07 907.813   3
   2  -4   8 7256.36 1007.26  13
  -2   4  -8 8923.38 926.091  10
   2  -4   8 7982.34 1134.96  15
  -2   4  -8 8310.46 782.755  11
  -2   4  -8 7760.96 772.736   5
   2  -4   9 1172.20 406.146  15
   2  -4   9 1383.31 418.019   5
   2  -4   9 1267.90 548.280   8
  -2   4  -9 1115.38 418.542   2
   2  -4   9 1643.10 412.755  10
   2  -4   9 1395.79 564.309  13
  -2   4  -9 968.675 363.356  11
  -2   4  -9 771.526 245.976   6
  -2   4  -9 1509.27 405.397  10
  -2   4  -9 483.984 334.276  14
   2  -4   9 1613.25 614.301   9
   2  -4  10 203.554 177.368   5
   2  -4  10 183.040 171.147   8
  -2   4 -10 527.046 228.059  10
   2  -4  10-191.972 479.015  15
  -2   4 -10-103.693 204.681  11
   2  -4  10-165.496 312.034   9
  -2   4 -10 362.967 355.550   2
   2  -4  10 148.479 298.222  13
   2  -4  11-225.618 684.560   9
   2  -4  11 1861.43 558.262   5
  -2   4 -11 1760.73 552.231   2
  -2   4 -11 1888.33 495.734  11
   2  -4  11 2684.97 745.335  15
   2  -4  11 1704.82 663.001  13
   2  -4  12 1178.77 807.792  15
   2  -4  12 2381.28 670.942  13
   2  -4  12 1795.79 534.582   5
   2  -4  13 732.937 621.709  13
   2  -3 -12-287.543 274.981   1
  -2   3  12 975.016 520.202   9
   2  -3 -11-275.473 359.866   1
  -2   3  11-268.639 356.507   9
  -2   3  10 3736.07 873.566   9
   2  -3 -10 4377.07 712.826   1
  -2   3  10 2931.51 437.279  15
  -2   3  10 3315.22 471.514   6
  -2   3  10 3513.29 598.362  10
  -2   3   9 709.475 398.442   9
   2  -3  -9 520.201 354.264   1
  -2   3   9 627.163 251.208   6
   2  -3  -9 275.644 182.446   7
  -2   3   9 570.071 220.478  15
  -2   3   8 11616.0 1218.86   9
  -2   3   8 10364.6 700.206  15
   2  -3  -8 9272.81 919.515   7
   2  -3  -8 9548.87 906.484   1
  -2   3   8 10452.8 837.973   6
  -2   3   7 2282.44 550.787   9
  -2   3   7 1630.57 285.439  15
  -2   3   7 2042.34 365.310   6
   2  -3  -7 1370.13 472.294  12
   2  -3  -7 1315.22 304.821   7
   2  -3  -7 1588.39 413.148   1
   2  -3  -6 3524.06 536.995   5
   2  -3  -6 4308.32 637.288  12
  -2   3   6 3541.60 555.864   1
   2  -3  -6 4057.46 562.882   1
   2  -3  -6 3349.00 452.084   7
  -2   3   6 3825.04 350.654  15
  -2   3   6 3743.55 480.979   6
  -2   3   6 3977.85 604.079  12
   2  -3  -6 3237.93 521.607   2
  -2   3   6 3586.34 605.840   9
  -2   3   5 16545.6 1122.87  12
   2  -3  -5 16949.5 998.996   1
   2  -3  -5 14713.1 801.409   7
  -2   3   5 16250.0 1058.98   1
   2  -3  -5 17154.8 1149.34  12
   2  -3  -5 16877.2 1077.06   5
  -2   3   5 16969.5 963.510   6
   2  -3  -5 17345.1 1127.30   2
   2  -3  -4 59848.9 1362.24   7
  -2   3   4 59784.5 1381.47   7
   2  -3  -4 63693.1 1773.39   1
  -2   3   4 58926.6 1755.38   6
  -2   3   4 58372.8 1953.33  12
   2  -3  -4 59287.0 1251.82   8
  -2   3   4 58856.9 1839.79   1
   2  -3  -4 59654.6 1845.05   5
   2  -3  -3 10682.9 549.181   8
  -2   3   3 10734.3 488.618   7
   2  -3  -3 11399.7 716.069   1
  -2   3   3 11533.2 784.297   6
  -2   3   3 11002.0 739.004   1
  -2   3   3 10907.3 431.146  13
   2  -3  -3 10749.1 498.983  13
  -2   3   3 10930.5 822.090  12
  -2   3   3 11606.4 875.709   2
   2  -3  -2 9657.78 539.982   8
  -2   3   2 9817.28 748.470  12
  -2   3   2 9878.68 394.177   7
  -2   3   2 9211.42 571.114  15
  -2   3   2 9417.02 609.770   1
  -2   3   2 9601.33 494.067  13
   2  -3  -2 9134.67 524.670  13
   2  -3  -2 9485.36 584.902   1
  -2   3   2 10658.1 747.211   2
  -2   3   2 9183.00 691.254   6
  -2   3   1 7837.70 500.211   1
   2  -3  -1 7774.18 520.647   8
  -2   3   1 9098.50 626.642   2
   2  -3  -1 7855.18 466.950   1
  -2   3   1 7379.57 538.296  15
   2  -3  -1 7687.40 550.900  13
  -2   3   1 7990.70 517.760  13
   2  -3  -1 8262.92 523.576  11
  -2   3   1 7665.71 605.878  12
  -2   3   1 8008.09 643.184   6
   2  -3  -1 8040.10 328.450   3
  -2   3   0 7678.58 558.426   2
   2  -3   0 6986.34 568.504  13
   2  -3   0 6786.99 518.267   8
   2  -3   0 6714.92 303.076   3
   2  -3   0 6805.44 365.193   1
  -2   3   0 7169.22 539.588  13
  -2   3   0 6181.85 524.457  15
   2  -3   0 6546.52 537.229  12
  -2   3   0 6358.68 536.340  12
   2  -3   0 6198.37 497.107  14
   2  -3   0 7139.70 513.097  11
   2  -3   0 6898.31 447.934   4
  -2   3   0 6309.12 381.605   1
  -2   3  -1 68039.4 1576.23   2
   2  -3   1 65658.5 1485.09   4
   2  -3   1 66616.3 1639.61   8
   2  -3   1 65043.1 848.991   1
   2  -3   1 63945.3 982.163   3
  -2   3  -1 65581.2 1571.21  12
  -2   3  -1 64187.8 1280.66   4
   2  -3   1 70466.1 1770.54  11
   2  -3   1 68355.0 1843.93  13
   2  -3   1 66720.3 1659.71  14
  -2   3  -1 63230.2 1803.02  15
   2  -3   1 67488.4 1890.15  15
  -2   3  -1 67284.7 727.253   3
  -2   3  -1 71908.8 1456.24  14
   2  -3   2 30972.0 1211.16   8
  -2   3  -2 30138.3 1054.41   4
  -2   3  -2 29996.1 1270.36  10
  -2   3  -2 28713.4 1091.71   2
   2  -3   2 30354.9 1373.24  15
   2  -3   2 29346.2 1327.18  13
  -2   3  -2 29545.6 726.113   3
  -2   3  -2 30367.1 1019.03  12
   2  -3   2 32047.5 1276.03  11
  -2   3  -2 28777.4 1015.88  14
   2  -3   2 30206.3 1192.05  14
   2  -3   2 29650.8 877.288   5
  -2   3  -2 31909.5 1087.40  11
  -2   3  -3 32913.0 1270.95   4
  -2   3  -3 32923.8 1249.35   2
   2  -3   3 34690.1 1383.04   8
  -2   3  -3 34902.9 1044.53  12
  -2   3  -3 32849.1 1021.64   3
  -2   3  -3 33523.4 1202.13  14
  -2   3  -3 37656.4 1295.66  11
   2  -3   3 34033.4 1499.39  13
   2  -3   3 32332.0 1336.06  10
   2  -3   3 37074.6 1462.68  11
   2  -3   3 33425.1 1002.79   5
  -2   3  -3 35018.8 1392.73  10
   2  -3   3 34358.5 1572.10  15
   2  -3   3 32653.8 1344.30  14
   2  -3   4 1433.54 379.997  14
  -2   3  -4 1572.86 317.709  14
  -2   3  -4 945.262 350.586   4
  -2   3  -4 1236.66 292.672   8
   2  -3   4 794.616 421.333  15
  -2   3  -4 1065.61 311.415   7
   2  -3   4 958.423 101.727   1
   2  -3   4 1508.96 373.517   8
  -2   3  -4 1058.54 304.637  11
   2  -3   4 1096.90 316.567  11
   2  -3   4 1021.49 414.297  13
  -2   3  -4 1285.24 344.189   2
  -2   3  -4 1388.43 251.886   5
  -2   3  -4 815.848 248.810   3
   2  -3   4 982.283 266.031  10
  -2   3  -4 1336.06 345.640  10
   2  -3   4 1659.09 274.746   5
   2  -3   5 19533.4 939.564   5
   2  -3   5 18151.3 1044.03  10
  -2   3  -5 18629.3 1103.11   2
  -2   3  -5 19949.1 1031.07   8
  -2   3  -5 17949.6 1227.89   7
  -2   3  -5 19126.7 1118.59   3
   2  -3   5 18100.5 1296.44  15
   2  -3   5 16574.4 552.949   1
  -2   3  -5 18924.1 1115.98  14
  -2   3  -5 18718.6 1025.44  11
  -2   3  -5 20489.4 1217.39  13
  -2   3  -5 19398.3 1299.46  15
   2  -3   5 19682.3 1228.85   8
  -2   3  -5 18526.1 905.329   5
  -2   3  -5 19679.5 1391.34   9
  -2   3  -5 19747.1 1117.28  10
   2  -3   5 19046.4 1250.02  13
  -2   3  -6 2100.95 417.276  13
   2  -3   6 1566.78 366.288   5
  -2   3  -6 1934.42 240.445   1
   2  -3   6 1962.97 542.498   9
  -2   3  -6 1498.21 423.414   9
   2  -3   6 1970.90 496.071   8
  -2   3  -6 1787.69 370.379   8
   2  -3   6 2186.43 531.680  15
  -2   3  -6 1839.93 431.634   7
  -2   3  -6 1887.09 460.453  15
  -2   3  -6 2097.40 468.784   3
  -2   3  -6 1763.00 330.067   5
   2  -3   6 1968.39 522.070  13
  -2   3  -6 1882.80 480.949   2
   2  -3   6 1928.36 244.166   1
  -2   3  -6 1936.37 412.900  11
   2  -3   6 2260.26 407.181  10
  -2   3  -6 1973.56 450.769  14
  -2   3  -6 2227.50 431.561  10
  -2   3  -7 5137.71 413.773   1
  -2   3  -7 5283.45 603.935   8
  -2   3  -7 5504.02 741.999   2
   2  -3   7 5075.36 747.552   8
   2  -3   7 4927.22 596.385  10
   2  -3   7 5140.24 611.731   5
  -2   3  -7 4814.50 657.932  13
   2  -3   7 4538.58 743.560  13
   2  -3   7 4999.44 886.237   9
   2  -3   7 5074.88 866.761  15
  -2   3  -7 5059.60 718.625  14
   2  -3   7 5035.54 448.087   1
  -2   3  -7 5000.00 612.689  11
  -2   3  -7 5166.11 579.389   5
  -2   3  -7 5662.55 660.694  10
  -2   3  -7 3826.79 646.357   3
   2  -3   8 5578.64 668.013  10
   2  -3   8 6134.36 846.002   8
  -2   3  -8 5652.98 763.742   2
  -2   3  -8 6210.09 653.436   5
   2  -3   8 6450.50 859.196  13
  -2   3  -8 6070.86 889.861   3
  -2   3  -8 6144.53 581.865   6
   2  -3   8 5954.68 935.951  15
   2  -3   8 6703.76 735.308   5
  -2   3  -8 6177.46 680.855   8
   2  -3   8 5686.09 530.071   1
  -2   3  -8 5656.87 675.484  11
  -2   3  -8 5296.34 395.659  12
  -2   3  -8 5449.69 819.047  14
  -2   3  -8 5649.28 474.985   1
  -2   3  -8 6356.01 686.530  10
   2  -3   8 6310.98 962.864   9
   2  -3   9-54.8893 161.998   5
  -2   3  -9-37.0031 117.746   1
  -2   3  -9-248.995 242.462  10
   2  -3   9-201.243 197.568   8
  -2   3  -9 120.240 241.178  11
   2  -3   9-279.675 336.943  15
   2  -3   9-229.558 124.752   1
   2  -3   9 196.383 159.914  10
   2  -3   9-398.287 408.118   9
  -2   3  -9-233.407 156.547   6
  -2   3  -9 437.904 344.338   2
   2  -3   9 336.154 212.972  13
   2  -3  10 269.092 448.807   9
   2  -3  10 773.828 298.110   5
  -2   3 -10 694.778 256.771   1
  -2   3 -10 1023.78 343.312  11
   2  -3  10 652.972 432.441  15
  -2   3 -10 1139.09 437.349   2
  -2   3 -10 854.777 308.928  10
   2  -3  10 503.173 329.110  13
   2  -3  11 1958.00 739.790   9
   2  -3  11 1775.21 478.152   5
  -2   3 -11 1919.20 494.534  11
   2  -3  11 1551.15 531.458  15
   2  -3  11 1563.03 502.648  13
  -2   3 -11 2511.39 658.209   2
   2  -3  12 18.5716 138.936   5
   2  -3  12-490.010 533.426  15
   2  -3  12 258.991 264.565  13
   2  -3  13 1144.91 672.286  13
   2  -2 -12 1639.49 480.870   1
  -2   2  12 1368.05 622.819   9
   2  -2 -11 731.871 393.716   1
  -2   2  11 740.903 292.946  15
  -2   2  11 403.260 193.852   6
  -2   2  11 1135.02 598.524   9
   2  -2 -10-8.56298 52.1097   8
  -2   2  10-235.488 167.907   6
  -2   2  10-93.3488 108.827  10
  -2   2  10-18.1801 98.1360  15
  -2   2  10 435.133 378.862   9
   2  -2 -10 118.684 286.227   1
  -2   2   9 319.577 375.446   9
   2  -2  -9 629.599 364.811   1
   2  -2  -9 961.918 342.028   7
  -2   2   9 565.990 233.434   6
   2  -2  -9 435.494 135.439   8
  -2   2   9 841.535 318.395  15
  -2   2   9 831.672 326.273  10
  -2   2   8 2526.65 427.994  15
  -2   2   8 2810.76 661.557   9
   2  -2  -8 2248.24 468.949   7
   2  -2  -8 2650.42 539.866   1
  -2   2   8 2814.73 499.506  10
  -2   2   8 2384.41 408.385   6
   2  -2  -8 2222.91 508.112  12
   2  -2  -8 2141.44 271.751   8
  -2   2   7 382.950 341.639   9
   2  -2  -7-135.824 169.968  12
   2  -2  -7-127.291 162.317   5
   2  -2  -7 310.191 192.580   2
   2  -2  -7 184.592 273.191   1
  -2   2   7 78.3965 115.495   1
  -2   2   7 105.124 160.836  15
   2  -2  -7 78.1314 93.5437   7
   2  -2  -7-309.871 195.026   6
  -2   2   7-14.8939 221.450   6
   2  -2  -6 8983.68 821.023  12
   2  -2  -6 9549.95 744.459   1
   2  -2  -6 9330.84 742.115   7
  -2   2   6 9642.51 616.140  15
  -2   2   6 9951.67 724.510   6
   2  -2  -6 9078.84 679.453   6
  -2   2   6 9131.37 895.285   9
   2  -2  -6 9465.02 804.617   5
   2  -2  -6 9027.59 846.454   2
   2  -2  -5 107342. 2236.46   6
   2  -2  -5 108760. 1331.93   8
   2  -2  -5 104516. 2146.76   7
  -2   2   5 111414. 2636.26  12
  -2   2   5 108309. 2247.57   6
   2  -2  -5 109700. 2299.07   1
   2  -2  -5 107612. 2627.35  12
   2  -2  -5 110368. 2494.72   5
   2  -2  -5 112747. 2707.28   2
   2  -2  -4 5346.74 497.437   6
  -2   2   4 4831.17 482.928   6
   2  -2  -4 5062.46 505.137   1
   2  -2  -4 4528.74 375.250   7
  -2   2   4 5169.30 558.747  12
   2  -2  -4 4649.82 295.194   8
   2  -2  -4 5031.57 517.098   5
   2  -2  -3 1361.91 188.015   8
  -2   2   3 1740.94 164.282  13
   2  -2  -3 1681.35 179.625   7
   2  -2  -3 1748.39 288.619   1
  -2   2   3 1513.95 301.744   6
  -2   2   3 1678.29 342.053  12
   2  -2  -3 1591.94 282.465   5
  -2   2   3 2023.30 363.915   2
   2  -2  -3 1273.50 260.895   6
  -2   2   2 26418.8 1022.78   6
   2  -2  -2 24810.3 736.730   8
   2  -2  -2 24096.3 755.913  13
   2  -2  -2 25674.8 828.336   1
  -2   2   2 23241.8 705.078  13
  -2   2   2 23606.0 834.074   1
  -2   2   2 24513.8 1018.52  12
   2  -2  -2 24059.9 862.718   5
  -2   2   2 25970.2 999.654   2
   2  -2  -1 99045.8 1583.78   8
  -2   2   1 92389.7 1452.55   8
   2  -2  -1 96275.5 1693.97  13
  -2   2   1 96960.1 1670.24   2
   2  -2  -1 99104.8 1356.93   1
   2  -2  -1 97283.7 1606.08  14
   2  -2  -1 93824.3 1169.69   3
  -2   2   1 100073. 1927.95   6
  -2   2   1 97271.1 1645.40  13
  -2   2   1 93935.0 1790.73  12
  -2   2   1 93573.9 1414.18   1
   2  -2  -1 98138.5 1592.33  11
  -2   2   0 12702.3 584.045   2
  -2   2   0 12208.3 547.770   4
   2  -2   0 11395.3 582.995   4
  -2   2   0 12790.3 501.206   7
  -2   2   0 11485.3 397.009   1
   2  -2   0 11307.0 358.839   1
  -2   2   0 12311.4 706.135  15
   2  -2   0 12661.1 667.613  11
   2  -2   0 11711.9 612.239   8
   2  -2   0 11958.6 656.802  14
   2  -2   0 11935.0 671.927  13
  -2   2   0 11475.3 654.550   6
  -2   2   0 12772.9 665.517  13
  -2   2   0 13049.5 397.963   3
  -2   2   0 11364.8 572.322  12
   2  -2   0 11174.1 577.412  12
   2  -2   0 12178.4 459.555   3
  -2   2  -1 23501.0 967.888  10
  -2   2  -1 22969.1 806.374   2
   2  -2   1 22908.0 811.345   2
   2  -2   1 24340.7 961.159   8
   2  -2   1 22634.1 1004.78  13
  -2   2  -1 23118.0 861.165   7
   2  -2   1 22161.1 736.928  12
   2  -2   1 23130.5 723.402   3
   2  -2   1 23014.7 560.729   5
   2  -2   1 23895.0 928.684   4
   2  -2   1 22391.2 1038.28  15
  -2   2  -1 22718.2 639.369   3
   2  -2   1 23413.7 970.091  11
  -2   2  -1 23337.8 730.786  12
  -2   2  -1 23106.8 852.848  14
  -2   2  -1 22435.6 852.208   4
   2  -2   1 22564.5 932.747  14
   2  -2   2 3241.35 239.824   5
  -2   2  -2 3148.63 392.054   4
   2  -2   2 2862.88 328.997   2
  -2   2  -2 3121.02 361.186   2
   2  -2   2 2876.61 407.444   8
  -2   2  -2 3124.41 386.245   7
   2  -2   2 3027.75 323.705   3
  -2   2  -2 2937.82 305.023   3
   2  -2   2 2548.35 367.580  11
   2  -2   2 3412.85 468.419  15
  -2   2  -2 2896.50 355.689  14
   2  -2   2 3090.84 409.956  14
   2  -2   2 3079.33 441.905  13
  -2   2  -2 2892.93 244.075  12
  -2   2  -2 2942.04 234.259   5
  -2   2  -2 3310.11 385.007  10
  -2   2  -3 14301.4 903.481   4
   2  -2   3 14091.1 957.304  15
   2  -2   3 14143.5 877.561   8
   2  -2   3 15154.8 922.195  14
   2  -2   3 14069.1 573.849   5
  -2   2  -3 15032.3 782.842   2
   2  -2   3 13920.5 921.138  13
  -2   2  -3 14504.9 912.454   7
  -2   2  -3 13721.8 466.950  12
   2  -2   3 13712.2 847.260  11
  -2   2  -3 14982.4 832.116  11
  -2   2  -3 13387.0 557.839   5
  -2   2  -3 14030.7 781.476   3
  -2   2  -3 14162.2 843.400  14
  -2   2  -3 13742.6 759.961  10
   2  -2   4 31105.2 1514.74  15
   2  -2   4 31129.5 1393.44   8
  -2   2  -4 31614.8 1262.97   2
   2  -2   4 31286.4 1451.42  13
  -2   2  -4 31997.7 1499.53   7
   2  -2   4 31932.4 997.322   5
  -2   2  -4 31239.0 1332.19   3
  -2   2  -4 32475.8 1238.73   8
   2  -2   4 32581.9 1550.35   9
   2  -2   4 32375.4 1459.91  14
  -2   2  -4 31705.9 645.530   1
  -2   2  -4 33002.7 1390.72  13
   2  -2   4 30968.8 1140.64  10
   2  -2   4 29324.9 719.625   1
  -2   2  -4 30302.9 959.976   5
  -2   2  -4 31140.9 1383.71  14
  -2   2  -4 31482.1 1299.66  11
  -2   2  -4 32473.7 1189.98  10
  -2   2  -5 10081.1 734.479   8
  -2   2  -5 9037.08 430.744   1
  -2   2  -5 8827.51 756.457   2
  -2   2  -5 9271.31 896.978   7
   2  -2   5 8607.85 831.923  13
  -2   2  -5 8449.57 788.314   3
   2  -2   5 8248.28 471.672   1
  -2   2  -5 10404.5 837.892  13
  -2   2  -5 10103.7 694.453  10
  -2   2  -5 8892.65 745.709  11
   2  -2   5 8766.85 890.496  15
   2  -2   5 8873.79 819.124   8
  -2   2  -5 8451.25 827.250  15
  -2   2  -5 9273.93 600.769   5
   2  -2   5 8674.99 630.008  10
  -2   2  -5 9304.32 835.000  14
   2  -2   5 9539.96 630.119   5
   2  -2   5 9810.41 945.293   9
  -2   2  -6 44657.1 2147.21   9
   2  -2   6 43838.0 1922.75  13
   2  -2   6 43268.5 1890.86   8
  -2   2  -6 44840.9 1617.68   8
  -2   2  -6 46985.8 1840.23   2
   2  -2   6 43783.4 2042.42  15
  -2   2  -6 45790.0 2100.60   7
  -2   2  -6 39470.6 825.841  12
  -2   2  -6 43129.5 1953.34   3
  -2   2  -6 45380.0 1964.66  14
   2  -2   6 41290.7 1211.66   1
  -2   2  -6 43337.5 1090.46   1
   2  -2   6 42303.3 1425.47  10
  -2   2  -6 46665.2 1817.07  13
  -2   2  -6 44296.9 1421.73   5
  -2   2  -6 42944.2 1717.02  11
   2  -2   6 44743.7 1520.15   5
  -2   2  -6 47119.1 2020.49  15
  -2   2  -6 44181.1 1480.01  10
   2  -2   6 46009.3 2133.32   9
  -2   2  -7 5356.83 563.937   5
   2  -2   7 5277.76 822.825   9
   2  -2   7 4736.78 520.275  10
  -2   2  -7 5633.73 775.024  14
  -2   2  -7 5794.72 711.039  11
   2  -2   7 5702.68 762.774   8
   2  -2   7 5102.60 504.208   1
  -2   2  -7 6143.10 648.792   8
  -2   2  -7 5728.15 476.642   1
  -2   2  -7 5139.53 710.646   2
  -2   2  -7 6316.94 723.283  13
  -2   2  -7 5688.56 775.784  15
  -2   2  -7 6082.76 476.509   6
  -2   2  -7 5144.21 776.251   3
   2  -2   7 5564.26 785.705  13
  -2   2  -7 4765.80 327.375  12
   2  -2   7 6285.05 879.582  15
   2  -2   7 5289.52 617.274   5
  -2   2  -7 4942.62 548.972  10
  -2   2  -8 487.662 210.900   5
  -2   2  -8 408.319 135.004  12
  -2   2  -8 812.092 428.717   3
  -2   2  -8 336.932 277.558   8
  -2   2  -8 554.894 317.782  13
   2  -2   8 416.273 242.557   5
  -2   2  -8 328.338 134.310   6
  -2   2  -8 383.733 241.451  14
   2  -2   8 574.782 320.006   9
  -2   2  -8 202.912 246.301  11
   2  -2   8 533.031 322.423  13
   2  -2   8 478.779 207.187   1
   2  -2   8 76.9332 101.358  10
  -2   2  -8 526.230 400.537   2
  -2   2  -8 381.114 218.661  10
   2  -2   8 338.008 324.616  15
  -2   2  -8 384.643 214.547   1
   2  -2   9 4617.01 897.134   9
  -2   2  -9 4678.40 590.809   8
   2  -2   9 4407.55 641.143   5
  -2   2  -9 5596.11 543.255   1
  -2   2  -9 4352.34 534.834  10
   2  -2   9 5721.57 902.337  15
   2  -2   9 4470.65 778.146  13
  -2   2  -9 3883.55 298.736   6
  -2   2  -9 4075.77 347.460  12
  -2   2  -9 4156.53 314.219   6
  -2   2  -9 3893.79 634.874  11
   2  -2   9 4605.63 551.168   1
   2  -2   9 4563.82 532.120  10
  -2   2  -9 4786.88 767.140   2
   2  -2  10 5646.63 1005.49   9
  -2   2 -10 5506.78 593.396   1
  -2   2 -10 5037.34 745.416  11
  -2   2 -10 6156.28 918.431   2
   2  -2  10 6626.56 956.195  13
   2  -2  10 4792.31 726.506   5
   2  -2  10 5347.66 936.979  15
   2  -2  11 443.582 316.289   9
   2  -2  11 706.276 362.030  15
   2  -2  11 265.451 371.824  13
  -2   2 -11 609.365 316.902  11
  -2   2 -11 248.847 185.815   1
  -2   2 -11 692.327 413.423   2
   2  -2  11 274.157 257.629   5
  -2   2 -12 145.364 452.211   2
  -2   2 -12 20.5049 251.854  11
   2  -2  12-108.105 301.164  15
   2  -2  13 1319.03 629.081  15
  -2   1  13 56.9488 358.016   9
  -2   1  13 25.7617 84.9009  15
   2  -1 -13 461.722 366.993   1
  -2   1  12 786.175 302.834  15
  -2   1  12 1136.73 539.298   9
   2  -1 -12 1112.66 418.087   1
   2  -1 -11 290.003 329.659   1
  -2   1  11 145.020 182.698  15
  -2   1  11 207.132 287.359   9
  -2   1  11 311.233 170.729   6
  -2   1  10 5052.39 972.726   9
   2  -1 -10 5997.17 766.677   1
   2  -1 -10 5235.70 560.277   6
  -2   1  10 6344.23 771.986  15
  -2   1  10 6079.55 731.713  10
  -2   1  10 5993.71 607.884   6
  -2   1   9 232.154 282.780   5
   2  -1  -9 406.064 315.523   1
  -2   1   9 7.29007 267.926   9
  -2   1   9 148.411 159.761   6
   2  -1  -9 738.462 344.625   7
  -2   1   9 500.677 294.239  15
   2  -1  -9-204.335 232.565  12
   2  -1  -9 149.455 178.740   6
  -2   1   9 364.073 166.577  10
  -2   1   8 11846.2 1154.85   9
  -2   1   8 11039.3 479.697  13
   2  -1  -8 11705.4 901.468   1
   2  -1  -8 10325.6 763.438   6
   2  -1  -8 11422.4 992.139   7
  -2   1   8 11827.9 938.805  10
  -2   1   8 11237.5 1034.86   5
  -2   1   8 11621.4 821.464   6
  -2   1   8 10508.6 852.970  15
   2  -1  -8 10663.4 951.202  12
   2  -1  -7 2152.01 437.083   5
  -2   1   7 2184.50 483.882   5
   2  -1  -7 2498.25 420.388   1
  -2   1   7 2443.56 397.284  15
  -2   1   7 2482.67 213.106  13
   2  -1  -7 2269.92 417.402   7
   2  -1  -7 2121.59 348.732   6
  -2   1   7 2222.76 389.460   6
  -2   1   7 2357.49 423.669   1
  -2   1   7 1959.60 541.842   9
   2  -1  -7 2206.85 433.491  12
  -2   1   7 2741.36 471.064  10
   2  -1  -6 125.596 213.194  12
  -2   1   6 237.235 298.284   9
   2  -1  -6 147.249 185.198   1
   2  -1  -6 186.682 184.546   7
  -2   1   6 300.640 83.3910  13
  -2   1   6 341.345 224.372   6
   2  -1  -6 273.234 201.789   5
  -2   1   6 140.957 208.069  15
   2  -1  -6 400.640 194.266   6
  -2   1   5 1824.20 398.955   9
   2  -1  -5 1910.93 348.098   1
   2  -1  -5 1701.95 113.270   8
  -2   1   5 1787.02 142.823  13
   2  -1  -5 1379.66 275.718   7
   2  -1  -5 1568.14 290.477   6
   2  -1  -5 2042.85 326.074   5
   2  -1  -5 2052.63 366.997  12
  -2   1   5 1694.07 308.692   6
   2  -1  -4 31528.6 1061.81   1
   2  -1  -4 31440.7 538.179   8
  -2   1   4 33147.4 1135.22   6
   2  -1  -4 31977.8 1121.75   6
   2  -1  -4 32903.3 1148.28   5
   2  -1  -4 33082.1 1022.41   7
   2  -1  -3 15363.5 448.341   8
   2  -1  -3 15063.7 662.186   1
   2  -1  -3 15186.5 742.491   6
  -2   1   3 15287.3 746.302   6
   2  -1  -3 15565.8 702.027   5
   2  -1  -3 15180.8 745.692   2
  -2   1   2 52375.8 1066.74  13
  -2   1   2 52539.9 888.731   8
   2  -1  -2 54061.2 971.294   8
   2  -1  -2 54089.5 1076.11   1
   2  -1  -2 52887.5 1150.60   2
   2  -1  -2 52442.8 1003.02  11
   2  -1  -2 54441.5 1106.91   5
  -2   1   2 54543.2 1142.10   5
  -2   1   2 56799.5 1353.48   6
   2  -1  -2 50978.5 942.102   3
  -2   1   2 55984.8 1248.79   2
   2  -1  -1 40306.4 876.876   3
   2  -1  -1 44854.2 838.529   1
   2  -1  -1 42470.3 1059.28   4
   2  -1  -1 44920.3 1017.95   8
  -2   1   1 40915.1 927.634   8
   2  -1  -1 43249.5 1073.51  14
  -2   1   1 42322.5 827.161   1
  -2   1   1 43758.1 1084.38  13
   2  -1  -1 42920.4 871.325   2
  -2   1   1 45150.5 1160.62   6
  -2   1   1 45701.8 914.149   2
   2  -1  -1 43960.8 1060.76  11
   2  -1  -1 42672.5 774.991   5
  -2   1   1 43848.7 823.753   3
  -2   1   0 143386. 1524.91   2
   2  -1   0 142034. 1556.38   2
  -2   1   0 148177. 1239.52   1
   2  -1   0 150586. 2101.20   8
   2  -1   0 144704. 2106.06  11
   2  -1   0 152170. 1710.76   7
  -2   1   0 144351. 1677.50   7
   2  -1   0 147479. 1696.13  12
   2  -1   0 145572. 1807.72   3
   2  -1   0 144453. 2145.23  14
   2  -1   0 150133. 2219.72  13
   2  -1   0 138105. 2049.52   4
  -2   1   0 138891. 1629.11   3
  -2   1   0 148493. 1994.90   6
   2  -1   1 18421.1 863.506  13
   2  -1   1 17345.8 826.367   4
  -2   1  -1 18159.8 601.166   2
   2  -1   1 17172.4 605.582   2
  -2   1  -1 17507.7 695.945   3
   2  -1   1 18769.5 767.625   7
   2  -1   1 17185.1 816.458   8
   2  -1   1 16945.4 719.175   3
   2  -1   1 18169.0 840.969  14
   2  -1   1 17068.8 455.440  12
  -2   1  -1 17347.8 662.705   6
  -2   1  -1 17230.7 738.897   7
   2  -1   1 17243.6 809.303  11
  -2   1  -2 45032.0 743.952   1
  -2   1  -2 44088.5 1313.95   3
   2  -1   2 46508.4 1456.36   8
  -2   1  -2 44362.0 1022.94   6
   2  -1   2 49798.7 1473.76   7
  -2   1  -2 44512.7 1405.36   7
  -2   1  -2 47259.5 1149.37   2
   2  -1   2 45226.8 1364.29   3
   2  -1   2 44624.1 1467.89  15
   2  -1   2 45532.3 1475.64  14
   2  -1   2 44541.3 1443.04  13
  -2   1  -2 46618.7 740.789   5
  -2   1  -2 45812.4 1103.70  10
   2  -1   2 46253.4 772.154   5
   2  -1   3 21196.6 1080.01   8
  -2   1  -3 23629.6 951.506   2
   2  -1   3 21108.8 1095.03  15
  -2   1  -3 20874.4 597.702   1
  -2   1  -3 21362.0 1080.15  14
   2  -1   3 22393.7 1152.24  14
   2  -1   3 21485.4 1078.25  13
  -2   1  -3 21605.9 977.697   8
  -2   1  -3 22843.2 1085.62  11
  -2   1  -3 20909.1 651.682   5
  -2   1  -3 22167.8 773.910  10
   2  -1   3 21462.7 697.841   5
  -2   1  -3 21387.8 693.422   6
  -2   1  -3 20581.4 1039.87   3
   2  -1   3 20717.8 1075.88   9
   2  -1   4 2060.44 445.567   9
  -2   1  -4 2817.63 455.198  14
  -2   1  -4 2535.10 380.172   8
  -2   1  -4 2463.78 276.097   5
  -2   1  -4 2237.06 413.013  15
   2  -1   4 2052.79 400.800   8
  -2   1  -4 2890.24 411.604   2
   2  -1   4 2702.63 319.541   5
  -2   1  -4 2642.05 258.080   1
   2  -1   4 2556.51 455.968  13
  -2   1  -4 2850.43 435.986   3
  -2   1  -4 2469.21 399.433  13
  -2   1  -4 2449.79 242.222   6
  -2   1  -4 2622.81 439.634  11
  -2   1  -4 2362.57 272.484  10
   2  -1   4 2379.89 438.840  15
  -2   1  -5 11190.8 349.645  12
   2  -1   5 12668.3 1040.99   9
   2  -1   5 12656.1 954.345   8
  -2   1  -5 11870.7 820.477   8
  -2   1  -5 11975.9 486.720   6
  -2   1  -5 13918.4 1062.75   3
   2  -1   5 10818.8 922.694  15
  -2   1  -5 12826.7 1021.77  14
  -2   1  -5 12280.1 884.578  13
   2  -1   5 12641.1 685.422   1
  -2   1  -5 12529.9 626.934   1
  -2   1  -5 14313.1 1015.32  15
  -2   1  -5 11230.0 887.982  11
  -2   1  -5 12174.5 680.325   5
   2  -1   5 11500.0 591.330  10
  -2   1  -5 12390.1 618.765  10
   2  -1   5 12263.4 733.391   5
   2  -1   5 12592.8 959.055  13
   2  -1   6 7218.42 856.591   9
  -2   1  -6 5982.88 780.347   9
  -2   1  -6 6488.26 500.176   1
  -2   1  -6 6469.60 833.819   7
  -2   1  -6 6587.28 818.868   3
   2  -1   6 6321.49 605.852   5
  -2   1  -6 6914.40 747.084  15
   2  -1   6 5189.15 678.612  13
   2  -1   6 6150.84 535.853   1
  -2   1  -6 6272.11 335.458  12
  -2   1  -6 7624.34 851.166  14
  -2   1  -6 6075.81 319.213   6
  -2   1  -6 6456.55 671.832  13
   2  -1   6 6406.27 792.772  15
   2  -1   6 5854.72 447.981  10
  -2   1  -6 6623.07 655.175   8
  -2   1  -6 6171.97 549.992   5
  -2   1  -6 5564.28 431.838  10
  -2   1  -6 5894.56 320.010   6
   2  -1   7 14161.5 1329.54   9
  -2   1  -7 13775.7 895.951   5
  -2   1  -7 14039.6 978.751   8
  -2   1  -7 14574.6 805.625   1
  -2   1  -7 14291.0 1307.55   3
  -2   1  -7 11697.8 326.972   6
  -2   1  -7 13412.5 565.196  12
   2  -1   7 13545.9 1195.82  15
  -2   1  -7 15027.0 1069.77  13
   2  -1   7 14078.4 892.637   1
   2  -1   7 14089.9 976.328   5
  -2   1  -7 15850.1 1207.78  15
   2  -1   7 13472.2 704.218  10
   2  -1   7 12582.1 1091.30  13
  -2   1  -7 13917.8 717.448  10
  -2   1  -7 14501.1 1279.13  14
   2  -1   8 534.180 384.359   9
  -2   1  -8 895.669 200.623  12
  -2   1  -8 959.576 288.288   1
  -2   1  -8 649.734 308.399   8
   2  -1   8 496.149 405.948  15
   2  -1   8 698.356 319.417  13
  -2   1  -8 912.506 377.886  11
  -2   1  -8 874.316 320.541  13
   2  -1   8 1155.04 322.384   5
   2  -1   8 832.215 206.480  10
   2  -1   8 463.367 228.094   1
  -2   1  -8 743.735 295.909   5
  -2   1  -9 120.133 179.025  13
   2  -1   9 324.932 372.186   9
  -2   1  -9 356.059 215.592   8
   2  -1   9 215.604 182.140  15
   2  -1   9 117.392 127.841  10
   2  -1   9-106.506 223.094  13
  -2   1  -9-29.9468 79.3264  12
  -2   1  -9 74.5091 276.316  11
  -2   1  -9-114.411 175.306   1
   2  -1   9-94.1076 137.097   1
  -2   1 -10 154.342 254.440   1
   2  -1  10-270.539 326.142  15
  -2   1 -10 190.585 274.325  11
   2  -1  10-486.777 354.590   9
  -2   1 -11 302.275 177.694   1
  -2   1 -11 167.825 304.941  11
   2  -1  11 245.674 243.727  15
  -2   1 -11 148.820 295.572   2
   2  -1  11 691.314 419.299   9
   2  -1  12 324.014 411.574   9
  -2   1 -12-5.27024 395.190   2
   2  -1  12 470.981 440.102  15
  -2   1 -12 546.899 310.413   1
  -2   1 -12 95.2382 211.947  11
   2  -1  13-390.747 423.928  15
  -2   0  14 585.860 471.758  15
   2   0 -13 253.227 320.739   1
  -2   0  13 362.842 413.111   9
  -2   0  13-283.571 210.474  15
  -2   0  12 603.471 452.378   9
  -2   0  12-411.313 302.479   5
   2   0 -12-165.572 299.341   1
  -2   0  12 487.887 283.311  15
  -2   0  11 341.168 294.541   5
  -2   0  11 994.215 516.773   9
  -2   0  11 671.287 337.927  15
  -2   0  11 757.385 202.773  13
   2   0 -11 907.193 389.761   1
  -2   0  11 669.581 333.635  10
   2   0 -10 68.5909 127.974   6
  -2   0  10 454.372 193.267  13
  -2   0  10 307.261 201.095   6
  -2   0  10 460.626 214.722  10
   2   0 -10 540.705 285.405   1
  -2   0  10-357.916 302.548  15
  -2   0  10 42.0896 481.328   9
  -2   0  10 184.163 237.633   5
  -2   0   9 57.5752 297.563   9
  -2   0   9-127.629 264.866   5
  -2   0   9 194.151 179.873   6
  -2   0   9 79.8368 214.690  15
   2   0  -9-7.00097 198.868  12
  -2   0   9 171.925 107.904  13
   2   0  -9 81.3619 176.750   6
  -2   0   9 186.975 222.077  10
   2   0  -9 110.036 215.777   1
   2   0  -9 77.2936 150.534   7
  -2   0   8 2870.17 643.950   9
  -2   0   8 2352.55 449.375   1
   2   0  -8 2419.69 459.303   7
  -2   0   8 2730.46 418.530   6
  -2   0   8 2369.75 330.774  13
   2   0  -8 2641.36 414.465   6
   2   0  -8 2110.08 424.052  12
  -2   0   8 2782.04 511.279  15
  -2   0   8 2746.90 528.993   5
  -2   0   8 2084.68 419.173  10
   2   0  -8 2747.74 497.140   5
   2   0  -8 2404.00 434.339   1
  -2   0   7 78944.1 2624.72   9
  -2   0   7 76251.3 1986.05   6
   2   0  -7 77902.5 2037.80   1
  -2   0   7 76216.6 1557.80  13
   2   0  -7 69870.6 2268.09   7
  -2   0   7 78608.2 2245.30   1
   2   0  -7 78222.4 2320.93  12
  -2   0   7 74784.5 2134.55  15
   2   0  -7 77940.3 2220.33   5
  -2   0   7 79024.4 2266.50  10
   2   0  -7 75237.6 1963.55   6
  -2   0   6 2562.99 513.254   9
  -2   0   6 2722.15 386.118   6
  -2   0   6 2593.28 283.270  13
   2   0  -6 2775.35 435.245  12
   2   0  -6 2514.86 376.255   6
  -2   0   6 2395.06 413.161  15
  -2   0   6 2842.74 438.068  10
   2   0  -6 3553.11 433.961   1
   2   0  -6 2767.02 406.529   5
  -2   0   5 11141.7 828.243   9
  -2   0   5 10211.8 676.660   6
  -2   0   5 9921.47 461.056  13
   2   0  -5 11333.3 708.283   6
   2   0  -5 11605.0 730.965   5
   2   0  -5 10806.5 664.637   1
  -2   0   5 10840.0 757.090  10
   2   0  -4 9360.41 564.676   1
  -2   0   4 9153.03 602.548   6
   2   0  -4 9727.80 600.081   5
  -2   0   4 8885.48 633.543  10
  -2   0   4 9114.72 655.778   9
   2   0  -4 9332.05 606.831   6
  -2   0   3 26756.8 960.642   6
   2   0  -3 25060.2 832.337   5
  -2   0   3 23555.3 455.205   8
   2   0  -3 25458.4 842.188   1
   2   0  -3 25535.6 575.708  11
   2   0  -3 24897.6 731.924   3
  -2   0   2 94736.4 1287.55   8
   2   0  -2 96121.1 1366.82   5
  -2   0   2 97425.6 1715.82   6
   2   0  -2 93290.5 1391.75   3
   2   0  -2 92950.2 1284.74  11
  -2   0   2 96513.7 1187.74  11
  -2   0   2 95935.3 1424.85   5
   2   0  -2 98007.1 1508.27   1
   2   0  -2 94780.4 1376.06  14
   2   0  -1 127379. 969.698   2
   2   0  -1 130156. 1791.20   3
   2   0  -1 138590. 1567.36   7
   2   0  -1 124710. 1844.14   4
  -2   0   1 131830. 1858.92   6
   2   0  -1 129648. 1874.07  14
  -2   0   1 135478. 1086.64   2
   2   0  -1 126912. 1721.99  11
   2   0  -1 130344. 1279.87   5
  -2   0   1 135492. 1303.32   5
   2   0   0 29673.6 987.608   4
  -2   0   0 33121.5 870.372   6
  -2   0   0 32239.6 494.259   2
   2   0   0 30240.4 973.148  14
   2   0   0 31981.9 518.232   2
   2   0   0 32210.6 917.532   7
   2   0   0 31209.0 950.463   3
  -2   0   0 30804.1 470.852   5
   2   0   1 65178.1 1654.46   4
  -2   0  -1 67344.6 1045.85   2
   2   0   1 66441.3 1548.85   7
   2   0   1 64133.5 1620.27  14
  -2   0  -1 67210.2 1141.68   6
   2   0   1 67497.5 1599.32   3
   2   0   1 64030.3 1115.80   6
  -2   0  -1 65762.4 1434.88   9
   2   0   2 308.452 161.486   9
  -2   0  -2 303.635 99.4462   5
  -2   0  -2 267.628 127.842   9
   2   0   2 368.003 218.956   7
   2   0   2 426.466 216.836  14
  -2   0  -2 334.141 152.694  15
   2   0   2 379.772 193.752   3
  -2   0  -2 416.236 101.372   6
   2   0   2 217.078 85.2835   6
  -2   0  -2 373.516 135.089   1
  -2   0  -3 805.678 179.459   5
  -2   0  -3 876.725 118.230   6
  -2   0  -3 929.314 249.637   9
  -2   0  -3 774.584 244.691   8
   2   0   3 653.882 290.570   7
  -2   0  -3 814.343 230.656  15
  -2   0  -3 997.552 206.291   1
  -2   0  -3 891.959 232.869  13
   2   0   3 748.445 269.775   9
   2   0   3 645.179 256.999  15
   2   0   3 696.507 297.602   3
  -2   0  -3 916.111 111.297  10
   2   0   4 39489.6 1599.56   9
  -2   0  -4 40776.8 1615.84   9
  -2   0  -4 38034.1 648.700  10
  -2   0  -4 40005.9 1189.99   1
  -2   0  -4 40582.2 1526.44   8
   2   0   4 43462.6 1771.22   7
  -2   0  -4 42275.5 1770.29   3
   2   0   4 39947.0 1524.73  15
  -2   0  -4 41332.6 1534.82  15
  -2   0  -4 39911.0 1469.73  13
  -2   0  -4 40688.9 1192.80   5
  -2   0  -5 3835.78 579.465   9
  -2   0  -5 3675.50 620.011   3
  -2   0  -5 3953.17 424.294   1
  -2   0  -5 3885.54 520.641   8
  -2   0  -5 4108.15 539.172  15
   2   0   5 4409.68 655.838   7
  -2   0  -5 3569.90 423.026   5
  -2   0  -5 4222.86 521.230  13
  -2   0  -5 3903.20 633.252  14
   2   0   5 3533.75 562.882   9
   2   0   5 3474.50 534.177  15
  -2   0  -6-47.3697 120.233   5
  -2   0  -6 220.185 261.777   9
  -2   0  -6 350.552 197.958   8
   2   0   6 369.202 183.510   1
  -2   0  -6 647.437 250.674  14
  -2   0  -6 438.061 226.724   1
   2   0   6 458.914 311.534  15
  -2   0  -6 378.142 222.625  13
  -2   0  -6 278.833 235.182   7
   2   0   6 510.538 290.934   9
  -2   0  -6 262.359 174.559  15
  -2   0  -6 247.077 191.091   3
   2   0   7 10214.2 1134.91   9
  -2   0  -7 9579.79 859.653   8
  -2   0  -7 10454.3 780.163   1
  -2   0  -7 10052.1 1134.09   3
  -2   0  -7 9786.33 1108.22  14
  -2   0  -7 9902.84 859.587  13
  -2   0  -7 9671.29 791.119   5
  -2   0  -7 9257.72 555.279  12
  -2   0  -7 9721.88 919.591  15
   2   0   7 8902.87 943.175  15
   2   0   7 10258.6 827.144   1
  -2   0  -8 36190.4 1636.20   5
  -2   0  -8 34220.6 1665.66   8
   2   0   8 35557.5 1662.24   1
  -2   0  -8 38226.2 1549.63   1
  -2   0  -8 35746.1 1827.18  15
  -2   0  -8 36303.4 1177.34  12
   2   0   8 34048.0 1901.18  15
  -2   0  -8 34513.5 1610.53  13
   2   0   8 35589.5 2144.94   9
   2   0   9 1983.73 549.161  15
   2   0   9 2552.20 656.200   9
  -2   0  -9 2428.62 483.916  13
  -2   0  -9 1750.05 395.221   8
  -2   0  -9 2152.99 440.962   1
   2   0   9 2645.77 483.333   1
   2   0  10 767.791 428.805   9
  -2   0 -10 760.896 310.202   1
   2   0  10 611.911 462.743  15
  -2   0 -11-77.1461 194.866   1
   2   0  11-297.806 317.000  15
   2   0  12-235.293 278.590   9
  -2   0 -12-112.145 230.032   1
   2   0  12-21.9467 239.557  15
  -2   0 -12 533.828 387.860  11
  -2  -1  14-137.536 306.635  15
   2   1 -14 57.2234 170.059   1
  -2  -1  13 99.2173 157.728   5
   2   1 -13 134.699 206.148   1
  -2  -1  13-118.087 214.804  15
  -2  -1  12 6666.20 1021.78   5
   2   1 -12 5480.10 762.888   1
  -2  -1  12 5557.56 692.780  13
  -2  -1  12 6264.35 1138.67   9
  -2  -1  12 4414.66 829.302  15
  -2  -1  11 4490.87 775.761   5
  -2  -1  11 4107.64 840.456   9
   2   1 -11 4222.36 544.924   6
  -2  -1  11 4453.00 779.328  15
  -2  -1  11 5330.13 648.770  13
   2   1 -11 4750.10 714.581   1
  -2  -1  10 1212.76 423.807   5
  -2  -1  10 877.212 532.607   9
  -2  -1  10 1228.24 386.413  10
   2   1 -10 1514.66 368.984   6
  -2  -1  10 1146.54 438.974  15
   2   1 -10 1520.36 397.268   1
  -2  -1  10 1450.67 356.202  13
  -2  -1   9 3173.68 520.290  10
  -2  -1   9 2561.02 535.122   5
   2   1  -9 2312.52 475.739  12
   2   1  -9 2265.11 422.480   6
  -2  -1   9 2484.86 612.284   9
  -2  -1   9 2389.01 542.187  15
  -2  -1   9 2684.06 422.399  13
   2   1  -9 2584.60 486.146   1
  -2  -1   8 628.084 272.709   5
   2   1  -8 856.610 326.469   5
  -2  -1   8 632.241 331.021   9
   2   1  -8 471.859 220.153   9
  -2  -1   8 669.083 263.245   1
  -2  -1   8 624.252 261.112   6
  -2  -1   8 392.369 241.797  10
  -2  -1   8 615.500 250.256  13
   2   1  -8 419.650 234.847   6
   2   1  -8 612.226 303.921   1
  -2  -1   8 244.028 301.268  15
  -2  -1   7 288.544 286.690   9
   2   1  -7 24.3180 109.720   6
   2   1  -7-32.4569 67.7908   9
  -2  -1   7 24.0002 238.566  15
   2   1  -7 145.487 186.341   5
  -2  -1   7 27.0911 174.181  13
  -2  -1   7-308.052 199.135  10
  -2  -1   7 104.302 191.916   6
   2   1  -7-4.81138 199.009   1
  -2  -1   7 130.372 180.378   1
  -2  -1   6 56859.4 2002.82   9
   2   1  -6 57120.3 1611.22   1
   2   1  -6 56788.1 1699.70   6
  -2  -1   6 57488.2 1692.43   1
  -2  -1   6 55977.8 1677.20   6
  -2  -1   6 56186.4 1425.62  13
   2   1  -6 59016.8 1928.09   9
   2   1  -6 58407.6 1761.67   5
  -2  -1   6 55195.1 1832.02  10
  -2  -1   6 54193.1 1807.97  15
  -2  -1   5 226.606 236.377   9
   2   1  -5 42.0482 173.848   9
   2   1  -5 459.220 185.294   5
  -2  -1   5 222.081 157.618  10
  -2  -1   5 282.359 60.8598   8
  -2  -1   5 114.021 163.863   6
   2   1  -5 192.496 155.886   6
   2   1  -5 91.0834 190.196   1
  -2  -1   4 7653.31 577.479   9
   2   1  -4 8160.11 551.618   1
   2   1  -4 7563.67 466.406   3
  -2  -1   4 7701.65 615.338  10
   2   1  -4 7898.14 575.359   6
   2   1  -4 8202.03 559.245   5
  -2  -1   4 7557.17 582.544   6
  -2  -1   3 54606.8 1252.48   9
  -2  -1   3 52844.2 1402.65   6
   2   1  -3 53766.5 1270.88   5
  -2  -1   3 51033.3 548.116  11
  -2  -1   3 52853.3 1457.00  10
  -2  -1   2 85793.9 1213.29   9
  -2  -1   2 87679.6 1155.01  14
  -2  -1   2 84199.2 1671.75   6
  -2  -1   2 80440.4 1105.90  11
   2   1  -2 87267.2 1368.03  14
   2   1  -2 81893.3 1428.58   5
  -2  -1   2 82664.6 1674.34  10
  -2  -1   1 1111.14 167.619   5
   2   1  -1 986.258 189.119  14
  -2  -1   1 1113.33 231.193   6
   2   1  -1 973.326 193.893   4
   2   1  -1 1260.44 240.884   3
  -2  -1   1 1217.14 203.475  10
  -2  -1   1 1109.17 175.048  14
   2   1  -1 1039.96 169.856   5
  -2  -1   0 61160.8 953.456   9
   2   1   0 63266.8 1471.04  14
   2   1   0 60306.5 1217.11   6
   2   1   0 59982.1 1474.88   4
   2   1   0 66459.2 1519.66   7
  -2  -1   0 64692.8 1279.63   6
   2   1   0 62401.5 1515.26   3
  -2  -1   0 63118.5 751.908   2
  -2  -1   0 63991.7 1181.11  10
  -2  -1  -1 30428.4 870.466   9
   2   1   1 32589.6 1230.16   3
   2   1   1 32068.1 1207.52  14
   2   1   1 33137.2 1211.45   7
  -2  -1  -1 31779.0 821.484   6
   2   1   1 32381.0 816.335   6
   2   1   1 31582.7 883.948   9
  -2  -1  -1 31735.8 696.796  10
   2   1   2 1932.20 289.106   9
  -2  -1  -2 1784.59 275.588   9
  -2  -1  -2 1921.70 295.583  15
  -2  -1  -2 2059.15 193.685   6
   2   1   2 2041.12 390.560   3
   2   1   2 1899.45 181.624   6
   2   1   2 2299.06 394.187   7
   2   1   3 31115.6 1247.21   9
  -2  -1  -3 29726.7 1210.25   9
   2   1   3 31985.1 877.505  12
   2   1   3 31594.7 1440.38   7
  -2  -1  -3 29540.6 1154.21  15
  -2  -1  -3 31197.8 1268.98  13
   2   1   3 29725.0 570.283   6
  -2  -1  -3 31526.6 1066.74   5
   2   1   3 31473.9 1471.75   3
  -2  -1  -3 31595.1 1147.27   1
   2   1   4 87794.3 2360.85   9
  -2  -1  -4 85168.6 2289.49   9
  -2  -1  -4 83301.8 2362.87   8
  -2  -1  -4 86472.2 2194.11  13
   2   1   4 82993.6 2520.95   7
  -2  -1  -4 85965.4 2084.06  15
  -2  -1  -4 87630.1 2032.27   1
   2   1   4 82089.3 1476.11  12
  -2  -1  -4 84515.2 1957.28   5
   2   1   5 18929.0 1230.85   9
  -2  -1  -5 20655.4 1258.67   9
  -2  -1  -5 19731.6 1073.50  15
  -2  -1  -5 19222.2 1211.57   8
  -2  -1  -5 20580.5 1107.49  13
   2   1   5 20053.8 1363.27   7
   2   1   5 19700.0 1116.64  15
  -2  -1  -5 20092.5 1051.27   5
   2   1   5 20150.0 791.383  12
  -2  -1  -5 19365.3 1024.41   1
   2   1   6 5287.29 783.116   9
   2   1   6 4719.45 737.163   7
  -2  -1  -6 5248.85 739.180   7
  -2  -1  -6 5702.59 850.422   3
   2   1   6 4576.71 613.851  15
  -2  -1  -6 4739.01 572.704   1
  -2  -1  -6 5927.60 652.099  13
  -2  -1  -6 5448.51 798.927  14
  -2  -1  -6 4853.55 591.228  15
  -2  -1  -6 5333.31 596.890   5
  -2  -1  -6 4776.98 667.812   9
  -2  -1  -6 5294.32 675.907   8
   2   1   7 486.878 383.302   9
  -2  -1  -7 325.263 233.866  13
  -2  -1  -7 1260.69 391.886   8
   2   1   7 501.306 289.119  15
   2   1   7 586.999 491.452   7
  -2  -1  -7 724.762 294.858   1
  -2  -1  -7 859.662 312.648  15
  -2  -1  -7 351.261 230.510   5
   2   1   8 1014.07 501.391   9
  -2  -1  -8 1796.04 460.354   8
  -2  -1  -8 905.922 336.199  15
  -2  -1  -8 1244.66 362.882   1
  -2  -1  -8 1226.44 356.224  13
   2   1   8 1370.20 471.034  15
   2   1   9 403.974 245.266   9
  -2  -1  -9 878.221 337.307  15
  -2  -1  -9 1167.37 400.111   8
   2   1   9 856.091 440.000  15
  -2  -1  -9 1483.06 429.063   1
  -2  -1  -9 884.760 320.759  13
   2   1  10 191.339 210.370  15
   2   1  10-36.7966 203.322   9
  -2  -1 -10-430.212 317.695   1
   2   1  11 299.916 286.322   9
  -2  -1 -11 330.195 265.652   1
   2   1  11-191.683 321.281  15
  -2  -1 -12 1381.05 415.996   1
  -2  -2  14 171.859 193.542  15
   2   2 -14 611.027 268.004   1
  -2  -2  13 777.810 359.402   5
  -2  -2  13 567.664 367.925  15
   2   2 -13 60.9386 241.308   1
  -2  -2  13 464.636 410.536   9
   2   2 -13 388.249 340.246   2
   2   2 -12 174.375 297.165   1
  -2  -2  12 341.060 484.197   9
  -2  -2  12 829.814 290.749  13
  -2  -2  12 225.970 186.228  15
  -2  -2  12 110.186 212.827   5
   2   2 -11 300.525 272.624   6
  -2  -2  11 205.485 280.407   9
  -2  -2  11 753.422 370.676   5
  -2  -2  11 123.005 272.312  15
   2   2 -11 376.743 288.353   1
  -2  -2  11 12.9251 224.726  13
   2   2 -11 80.7871 82.1313  11
  -2  -2  10 666.741 330.258   5
  -2  -2  10 231.211 231.268  13
  -2  -2  10-143.765 226.507  15
   2   2 -10 736.027 248.242   6
  -2  -2  10 278.460 288.937   9
   2   2 -10 511.398 333.773   1
   2   2 -10 332.570 115.070  11
   2   2  -9 5512.95 662.615   1
  -2  -2   9 5244.98 882.877   9
  -2  -2   9 5619.38 673.937   1
  -2  -2   9 5035.47 628.751  13
   2   2  -9 5157.71 322.938  11
   2   2  -9 5145.51 632.420   6
  -2  -2   9 5375.99 736.983   5
  -2  -2   9 6086.82 752.307  10
  -2  -2   9 5462.15 849.792  15
  -2  -2   8 483.525 337.208   9
   2   2  -8 213.390 173.792   9
  -2  -2   8 293.908 357.399  15
  -2  -2   8 219.960 108.369   8
  -2  -2   8 290.919 183.644   1
  -2  -2   8 245.968 247.628  13
   2   2  -8 290.964 165.506   6
  -2  -2   8 252.429 129.623  10
  -2  -2   8 228.803 276.805   5
   2   2  -8 300.044 76.0250  11
   2   2  -8 154.546 230.944   1
  -2  -2   7 11205.7 1002.34   9
   2   2  -7 10123.7 778.557   1
  -2  -2   7 9571.25 507.081   8
  -2  -2   7 10083.6 754.993  13
  -2  -2   7 10249.1 784.182   1
   2   2  -7 10500.4 891.914   9
   2   2  -7 10490.1 799.607   6
  -2  -2   7 9468.16 901.403  15
  -2  -2   7 10908.7 917.339  10
   2   2  -7 10504.7 837.637   5
   2   2  -7 10073.6 877.345  10
  -2  -2   7 9868.02 854.995   5
   2   2  -6 15311.8 979.578   9
   2   2  -6 14461.4 867.332   1
  -2  -2   6 15630.8 596.880   8
  -2  -2   6 16362.1 910.817   1
  -2  -2   6 15408.5 954.762   6
  -2  -2   6 15382.0 1052.38   9
  -2  -2   6 15902.1 876.524  13
  -2  -2   6 15633.5 1030.65  10
   2   2  -6 15945.3 946.341   6
  -2  -2   6 15313.1 1039.72  15
   2   2  -6 15344.9 953.800   5
   2   2  -6 14975.3 1004.52  10
  -2  -2   5 19310.5 1034.05   9
   2   2  -5 20152.3 993.988   9
  -2  -2   5 21227.2 941.307   1
   2   2  -5 18870.8 777.066   3
   2   2  -5 19609.1 1003.46   6
  -2  -2   5 18613.3 591.983   8
   2   2  -5 18997.2 915.468   2
  -2  -2   5 19283.4 1017.81   6
  -2  -2   5 19113.5 1051.32  15
   2   2  -5 19753.4 1001.37   5
  -2  -2   5 20086.2 1103.82  10
  -2  -2   4 6372.60 523.766   9
   2   2  -4 5937.37 472.706   9
   2   2  -4 6689.72 495.306   2
   2   2  -4 6819.73 556.844   5
   2   2  -4 6455.43 464.173   3
  -2  -2   4 6278.52 602.809  10
  -2  -2   4 6652.87 497.350   1
  -2  -2   4 6377.61 585.301   6
   2   2  -4 6446.00 558.937   6
   2   2  -3 85985.6 1440.14   9
   2   2  -3 85591.3 1389.67   2
   2   2  -3 86567.9 1196.53  14
   2   2  -3 81762.3 1630.97   3
   2   2  -3 84797.3 1788.39   5
  -2  -2   3 87333.9 2007.20  10
  -2  -2   3 84816.6 1519.01   9
  -2  -2   3 86722.3 1964.16   6
  -2  -2   3 82715.2 1409.43   3
  -2  -2   2 20531.1 528.866   9
   2   2  -2 21955.4 619.927   2
   2   2  -2 20556.7 643.297  14
   2   2  -2 22078.7 820.950   4
  -2  -2   2 21408.5 604.229   2
  -2  -2   2 19923.4 553.480  14
  -2  -2   2 19760.3 723.433   3
   2   2  -2 19191.1 815.397   5
   2   2  -2 23591.9 913.863   3
  -2  -2   2 20848.9 920.252  10
  -2  -2   2 20607.0 919.681   6
   2   2  -1 168934. 2339.15   4
  -2  -2   1 172747. 2219.89   4
   2   2  -1 167326. 1525.65   2
   2   2  -1 173820. 2531.13   3
   2   2  -1 178147. 2253.17  14
  -2  -2   1 170068. 2482.23   6
  -2  -2   1 172315. 2135.87  14
   2   2  -1 176202. 2432.52  10
  -2  -2   1 169371. 2387.53  10
   2   2   0 4444.65 442.657   4
  -2  -2   0 4848.51 434.881   4
  -2  -2   0 5147.72 292.916   2
   2   2   0 4623.31 387.617   6
   2   2   0 4869.25 492.969   7
   2   2   0 4526.14 478.380   3
  -2  -2   0 4109.05 351.969  10
   2   2   0 4121.38 205.271   9
   2   2   0 4500.92 366.007  10
  -2  -2   0 4227.12 412.432  14
   2   2   0 4649.41 321.437   2
  -2  -2  -1 509.052 122.300   9
  -2  -2  -1 477.564 217.893   4
  -2  -2  -1 539.602 150.170   2
  -2  -2  -1 624.298 181.449  14
   2   2   1 211.003 199.331   3
   2   2   1 494.841 151.798   6
   2   2   1 444.043 263.929   7
   2   2   1 488.259 130.538   9
  -2  -2  -1 519.249 138.984  10
   2   2   1 570.576 144.158  10
  -2  -2  -2 27844.7 1041.08   2
   2   2   2 27366.1 1006.34   9
   2   2   2 28216.9 837.087   6
   2   2   2 29161.4 1354.16   7
   2   2   2 28757.2 1381.82   3
  -2  -2  -2 29458.8 1007.51   9
  -2  -2  -2 29189.1 708.498  10
   2   2   2 28717.9 685.119  10
  -2  -2  -2 26951.9 1276.47   4
   2   2   3 16986.4 943.857   9
  -2  -2  -3 17349.7 910.716   9
   2   2   3 18612.3 868.694  12
   2   2   3 15588.3 1097.13   7
   2   2   3 18915.4 1228.13   3
  -2  -2  -3 18093.9 859.374  15
  -2  -2  -3 18287.2 1007.61   1
   2   2   3 17526.9 598.159   6
   2   2   4 29080.3 1378.71   9
  -2  -2  -4 26175.1 1240.85  13
   2   2   4 26377.7 606.498   6
  -2  -2  -4 27804.3 1297.27   1
   2   2   4 27165.2 1538.98   7
  -2  -2  -4 26773.8 1097.47  15
   2   2   4 27925.5 1091.75  12
  -2  -2  -4 29116.5 1324.37   9
   2   2   5 16618.4 1163.48   9
  -2  -2  -5 18858.1 1188.53   9
  -2  -2  -5 16297.9 1021.24  13
   2   2   5 16596.3 1282.02   7
  -2  -2  -5 18166.3 1303.04   7
  -2  -2  -5 17486.4 1384.48   3
  -2  -2  -5 16528.2 925.813  15
  -2  -2  -5 16978.2 1077.56   1
   2   2   5 16772.2 875.161  12
  -2  -2  -5 16618.2 1042.55   5
   2   2   6 24251.3 1545.44   9
  -2  -2  -6 23574.3 1450.65   9
   2   2   6 24383.4 1656.62   7
  -2  -2  -6 22407.9 1544.19   7
  -2  -2  -6 22400.4 1125.29  15
  -2  -2  -6 23581.8 1315.88   1
  -2  -2  -6 24544.1 1263.53  13
  -2  -2  -6 24765.3 1374.34   5
   2   2   6 24258.8 1101.05  12
  -2  -2  -7 120.600 134.940   5
   2   2   7-9.09123 300.778   9
  -2  -2  -7-357.726 297.511   8
  -2  -2  -7-152.319 202.287  15
  -2  -2  -7 131.768 153.709  13
   2   2   7-54.2078 153.027  12
  -2  -2  -7 19.2351 299.758   1
   2   2   7 272.051 325.500   7
   2   2   8 8113.14 1078.70   9
  -2  -2  -8 8120.29 963.200   8
   2   2   8 7962.50 1106.79   7
  -2  -2  -8 7150.22 836.354   1
  -2  -2  -8 7029.14 741.097  13
  -2  -2  -8 8085.33 774.177  15
   2   2   9 489.873 388.208   9
  -2  -2  -9 356.381 255.970  15
  -2  -2  -9-19.5820 104.363  13
  -2  -2  -9 132.408 207.404   1
   2   2  10 1956.33 695.427   9
  -2  -2 -10 1309.14 423.418   1
   2   2  11-221.892 274.189   9
  -2  -2 -11-363.983 269.193   1
  -2  -2 -12 76.7057 250.133   1
  -2  -3  13 1367.28 485.891   5
  -2  -3  13 1388.39 674.401   9
  -2  -3  13 2050.85 706.931  15
  -2  -3  13 1944.46 611.527  13
   2   3 -13 968.144 476.766   2
  -2  -3  12 226.987 230.418   5
  -2  -3  12-299.681 338.630   9
  -2  -3  12 455.326 230.341  13
   2   3 -12-66.8533 226.133   2
  -2  -3  12 117.555 436.019  15
   2   3 -11 590.561 321.317   1
  -2  -3  11 643.205 338.735   5
  -2  -3  11 853.691 535.601   9
   2   3 -11-14.2734 317.817   2
  -2  -3  11 378.101 317.796  13
  -2  -3  11 185.915 253.852  15
  -2  -3  10 1520.08 492.075   9
  -2  -3  10 2094.60 323.178   8
  -2  -3  10 2026.32 626.020  15
  -2  -3  10 1709.00 471.971  13
   2   3 -10 1911.29 392.563   6
  -2  -3  10 1883.43 510.332   5
   2   3 -10 1907.93 483.376   2
   2   3  -9 5391.82 794.990  10
  -2  -3   9 5695.39 519.759   8
  -2  -3   9 5040.42 654.188   1
   2   3  -9 5930.68 761.111   2
  -2  -3   9 6089.61 905.864  15
  -2  -3   9 5448.02 808.130   9
   2   3  -9 5029.48 661.466   6
  -2  -3   9 4987.22 657.047  13
  -2  -3   9 5494.38 754.635   5
   2   3  -8 17966.6 1267.38   9
  -2  -3   8 18028.4 1221.51   5
  -2  -3   8 19780.1 918.296   8
   2   3  -8 20486.5 1275.38   2
  -2  -3   8 19479.0 1419.46  15
  -2  -3   8 18891.4 1130.05   1
  -2  -3   8 19261.8 1193.75  13
   2   3  -8 18957.0 957.580   3
   2   3  -8 18431.9 1189.43   6
   2   3  -8 17513.7 1274.34  10
  -2  -3   8 19874.6 1415.68   9
  -2  -3   8 19017.9 1317.16  10
  -2  -3   7 57.0016 294.779  15
  -2  -3   7 83.7427 137.008   1
  -2  -3   7 76.1609 261.734   9
   2   3  -7 126.593 142.118   9
  -2  -3   7 205.501 123.679   8
   2   3  -7 165.215 219.266   6
  -2  -3   7 264.711 213.770  13
   2   3  -7 192.747 193.428   5
   2   3  -7-43.1440 215.991   3
   2   3  -7 120.116 234.975   2
  -2  -3   7-231.548 158.575  10
   2   3  -7 60.3022 221.615  10
  -2  -3   7 30.8072 213.961   5
  -2  -3   6 17452.1 735.458   8
  -2  -3   6 17002.4 1098.00   9
  -2  -3   6 16683.7 935.529   1
   2   3  -6 19231.6 1050.91   2
   2   3  -6 18545.2 1184.03  10
   2   3  -6 18110.0 835.178   3
   2   3  -6 17401.7 1058.29   6
  -2  -3   6 17990.2 1173.88  10
  -2  -3   6 17516.6 1013.46  13
  -2  -3   6 17022.2 1147.11  15
   2   3  -6 16831.9 1032.17   9
   2   3  -6 18241.4 1097.16   5
  -2  -3   5 12852.8 856.536   9
   2   3  -5 13292.3 828.291   9
   2   3  -5 13232.8 715.056   3
  -2  -3   5 13278.3 785.257   1
   2   3  -5 12836.5 771.893   2
  -2  -3   5 12528.7 602.019   8
   2   3  -5 12260.0 858.240   5
  -2  -3   5 14580.4 1004.33  10
   2   3  -5 12841.1 394.321  14
   2   3  -5 12551.0 876.046   6
  -2  -3   5 13221.2 952.431  15
  -2  -3   4 123.653 168.909   9
   2   3  -4 56.1582 90.0208   9
   2   3  -4 81.8522 51.5094  14
  -2  -3   4-23.9538 133.041   1
   2   3  -4 34.9363 112.074   5
   2   3  -4 179.183 139.362   2
  -2  -3   4 401.308 71.2187  11
   2   3  -4-83.6853 246.317   3
  -2  -3   4-113.424 259.191  15
  -2  -3   4 76.2207 88.6149  10
   2   3  -3 2218.90 281.298   2
   2   3  -3 2434.47 292.616   4
  -2  -3   3 2178.90 278.875   2
  -2  -3   3 2387.15 263.296   3
  -2  -3   3 2101.06 253.753   9
   2   3  -3 2418.70 368.164   5
   2   3  -3 2098.84 248.170   9
   2   3  -3 2586.13 367.411   3
  -2  -3   3 2313.00 403.227  10
   2   3  -2 40081.9 1128.95   4
  -2  -3   2 42848.0 1012.73   2
  -2  -3   2 41775.6 860.985  14
   2   3  -2 39682.5 1271.24   3
   2   3  -2 40217.0 745.747   9
   2   3  -2 43378.4 1055.43   2
  -2  -3   2 42066.2 1432.45  10
  -2  -3   2 39194.3 1090.75   3
   2   3  -1 2262.69 277.700   2
  -2  -3   1 2129.58 281.868  14
  -2  -3   1 2151.18 235.957   2
   2   3  -1 2540.56 327.147   4
  -2  -3   1 2456.51 292.315   4
  -2  -3   1 2143.55 309.568   3
   2   3  -1 2479.82 380.824   3
   2   3  -1 2225.41 352.258  10
  -2  -3   1 2239.92 318.106  10
   2   3   0 313.046 82.2293   9
   2   3   0 573.854 199.905  10
   2   3   0 516.059 223.948   7
  -2  -3   0 281.283 152.810   4
   2   3   0 328.300 161.349   2
  -2  -3   0 371.731 134.569   2
   2   3   0 417.071 175.455   6
  -2  -3   0 539.902 188.169   3
   2   3   0 543.099 256.416   3
  -2  -3   0 450.923 167.997  10
  -2  -3   0 339.229 155.477  14
  -2  -3  -1 5525.56 437.141   2
  -2  -3  -1 5342.21 539.519   4
   2   3   1 5448.46 440.807  10
   2   3   1 5443.70 379.347   9
   2   3   1 6104.52 665.459   7
   2   3   1 5767.73 634.052   3
  -2  -3  -1 5373.44 563.934   3
   2   3   1 4456.59 427.705   6
  -2  -3  -1 4915.74 423.289  10
   2   3   2 62681.9 1555.52   9
  -2  -3  -2 58236.1 1929.11   4
   2   3   2 61954.8 1324.69  10
   2   3   2 58858.5 1465.92   6
   2   3   2 59511.3 2071.48   7
   2   3   2 64508.8 2181.17   3
  -2  -3  -2 63423.6 2093.15   3
  -2  -3  -2 60047.5 1350.90  10
  -2  -3  -2 59992.0 1616.97   2
  -2  -3  -3 51470.4 2069.15   3
   2   3   3 52958.0 1104.49  10
   2   3   3 54332.5 2117.17   7
   2   3   3 54353.1 2147.49   3
  -2  -3  -3 55294.1 1998.50   7
   2   3   3 51509.8 1688.81  12
   2   3   3 50902.3 1290.59   6
  -2  -3  -3 51510.3 1350.77  15
  -2  -3  -3 53424.7 1730.58   2
   2   3   3 53584.0 1666.88   9
  -2  -3  -3 53688.3 1885.44   1
   2   3   4 23685.7 1273.75   9
  -2  -3  -4 23027.6 1503.85   3
  -2  -3  -4 24981.7 1362.63   1
   2   3   4 24976.8 1546.41   7
  -2  -3  -4 25517.9 1467.16   7
   2   3   4 22856.6 808.423   6
  -2  -3  -4 23595.4 943.875  15
  -2  -3  -4 23332.3 1277.98   2
   2   3   4 22968.2 1171.83  12
   2   3   4 22892.9 632.232  10
   2   3   5-34.8345 247.181   9
  -2  -3  -5-213.941 220.955   2
  -2  -3  -5 18.3514 132.074  15
  -2  -3  -5 66.3735 160.754   3
   2   3   5 66.9882 72.4718   6
  -2  -3  -5-202.232 233.528   7
   2   3   5 8.46971 303.849   7
  -2  -3  -5 107.129 234.296  13
  -2  -3  -5 244.716 334.065   1
   2   3   5-103.268 205.928  12
  -2  -3  -5 332.653 244.467   5
   2   3   6 210.959 264.729   9
  -2  -3  -6 478.100 291.023   2
  -2  -3  -6 843.073 402.603   1
   2   3   6 856.031 437.159   7
  -2  -3  -6 1088.31 335.045   5
  -2  -3  -6 931.508 304.440  13
   2   3   6 585.476 268.990  12
  -2  -3  -6 1201.28 251.612  15
   2   3   7 1212.46 491.872   9
   2   3   7 1633.24 517.548   7
  -2  -3  -7 1508.86 483.696   1
  -2  -3  -7 771.822 275.557  13
   2   3   7 1311.38 341.832  12
  -2  -3  -7 1344.03 299.087  15
   2   3   8 263.622 286.362   9
   2   3   8-163.492 318.913   7
  -2  -3  -8 358.153 203.937  15
  -2  -3  -8-152.946 116.221  13
   2   3   8-133.113 163.566  12
  -2  -3  -8 233.727 262.549   1
   2   3   9 139.695 174.882   9
  -2  -3  -9 17.7441 289.180   1
   2   3  10 497.431 388.133   9
  -2  -3 -10 689.911 454.234   1
   2   3  11 136.209 429.490   9
  -2  -3 -11 39.5352 136.866   1
   2   4 -14 84.0615 263.023   3
  -2  -4  13 450.890 266.929   5
  -2  -4  13 575.133 415.381   9
  -2  -4  13 729.200 421.561  15
  -2  -4  13 461.579 465.761  13
   2   4 -13 147.855 338.595   2
   2   4 -13 540.049 347.802   3
  -2  -4  12 1347.35 498.145   5
  -2  -4  12 659.715 464.637   9
  -2  -4  12 855.758 386.434  13
  -2  -4  12 1203.71 544.382  15
   2   4 -12 917.793 373.313   2
   2   4 -12 843.591 370.942   3
  -2  -4  11-13.2324 354.615   5
  -2  -4  11-101.654 253.327   9
  -2  -4  11-54.1946 88.7219  13
  -2  -4  11 186.970 159.564   8
   2   4 -11 629.791 345.761   2
   2   4 -11 84.4507 220.537   3
  -2  -4  11-705.690 564.007  15
   2   4 -11 171.499 305.056  10
  -2  -4  10 707.659 413.950   5
  -2  -4  10 86.9158 300.043  15
  -2  -4  10 1098.79 464.634   9
   2   4 -10 266.635 311.198   2
  -2  -4  10 315.916 212.792   8
   2   4 -10 437.759 221.290  14
  -2  -4  10 168.915 183.541  13
   2   4 -10 554.989 292.368   3
   2   4 -10 1040.28 432.755  10
  -2  -4   9 395.528 393.278   9
  -2  -4   9 596.517 171.462   8
   2   4  -9 278.116 295.206   2
  -2  -4   9 218.541 449.630  15
   2   4  -9 110.009 138.866  14
   2   4  -9 426.008 230.600   6
  -2  -4   9 544.296 373.585  13
   2   4  -9 385.620 386.747  10
   2   4  -9 466.450 247.017   3
  -2  -4   9 649.204 283.816   5
  -2  -4   8 3274.01 435.813   8
   2   4  -8 3350.23 550.756   2
  -2  -4   8 3334.79 482.628   1
  -2  -4   8 3202.79 659.262  15
   2   4  -8 2294.63 329.854  14
  -2  -4   8 3124.62 600.205  13
   2   4  -8 3689.54 589.548   6
   2   4  -8 3101.34 440.181   3
   2   4  -8 2727.50 518.798   9
   2   4  -8 2365.54 579.582  10
  -2  -4   8 2615.88 529.998   5
  -2  -4   8 3062.17 626.850   9
  -2  -4   7 3574.85 613.143   9
   2   4  -7 2891.29 500.925   9
  -2  -4   7 3177.53 737.381  15
  -2  -4   7 3597.39 472.598   1
   2   4  -7 3270.82 534.641   2
  -2  -4   7 3368.73 433.711   8
   2   4  -7 3731.48 574.207   6
   2   4  -7 3305.93 298.648  14
  -2  -4   7 3041.57 560.816  13
   2   4  -7 3995.48 480.214   3
  -2  -4   7 2573.57 491.335   5
   2   4  -7 2719.84 548.115  10
  -2  -4   7 4850.28 684.968  10
   2   4  -6 773.431 221.861   9
   2   4  -6 765.522 362.906  10
  -2  -4   6 695.028 214.602   8
  -2  -4   6 153.504 346.030  15
   2   4  -6 711.753 269.518   3
  -2  -4   6 411.543 272.580  13
  -2  -4   6 756.051 303.505   9
   2   4  -6 714.181 278.971   2
  -2  -4   6 848.797 217.908   1
   2   4  -6 761.896 304.347   6
   2   4  -6 597.395 254.075   5
  -2  -4   6 1124.43 326.060  10
  -2  -4   6 600.312 304.320   5
  -2  -4   5 21384.8 1045.23   1
   2   4  -5 21473.2 1042.14   2
   2   4  -5 21489.6 1068.03   9
  -2  -4   5 21893.8 1325.03  10
  -2  -4   5 23969.5 1347.80  15
  -2  -4   5 21492.5 1122.62   9
   2   4  -5 22206.8 1011.65   3
   2   4  -5 23110.5 1300.89   6
  -2  -4   5 23482.3 1228.35  13
  -2  -4   5 22829.9 616.728  11
   2   4  -5 22858.0 1269.64   5
   2   4  -4-90.5973 108.682   9
   2   4  -4-32.3511 185.146   3
  -2  -4   4-77.1612 274.057  15
  -2  -4   4 34.3295 135.351   2
   2   4  -4-293.849 217.030   2
   2   4  -4-241.513 222.192   5
  -2  -4   4-345.658 262.573  10
   2   4  -3 63503.9 1377.85   9
   2   4  -3 63500.9 1453.25   4
   2   4  -3 66855.4 1615.42   2
  -2  -4   3 64219.0 1552.22   2
   2   4  -3 64222.7 1723.16   3
  -2  -4   3 66404.0 1386.57   3
  -2  -4   3 65967.9 1886.34  15
  -2  -4   3 67067.0 2104.50  10
   2   4  -2 5812.59 614.446  10
   2   4  -2 6204.16 502.501   2
   2   4  -2 5073.72 425.471   4
   2   4  -2 5089.41 516.601   3
  -2  -4   2 5583.57 447.495   2
  -2  -4   2 5163.98 441.893   3
   2   4  -2 5497.02 339.169   9
  -2  -4   2 5755.49 374.513  14
  -2  -4   2 5698.31 591.106  10
   2   4  -1 604.958 213.912   4
  -2  -4   1 677.439 180.238   4
  -2  -4   1 709.043 210.822  14
   2   4  -1 1152.83 285.273   6
  -2  -4   1 941.266 207.492   2
   2   4  -1 977.447 279.420   3
   2   4  -1 940.040 284.054  10
  -2  -4   1 814.357 217.802   3
   2   4  -1 856.924 231.431   2
  -2  -4   1 886.909 267.091  10
   2   4   0 710.421 131.607   9
  -2  -4   0 613.631 199.906   4
   2   4   0 556.708 234.153   2
   2   4   0 1006.55 345.236   7
  -2  -4   0 599.388 180.175   2
   2   4   0 711.374 332.616   3
   2   4   0 492.775 228.153  10
  -2  -4   0 581.738 215.145  10
  -2  -4   0 500.665 229.200   3
   2   4   1 10584.6 571.340   9
  -2  -4  -1 10318.7 666.040   2
  -2  -4  -1 10483.9 776.488   4
   2   4   1 11297.1 807.947   2
   2   4   1 10225.6 929.867   7
   2   4   1 10749.7 911.078   3
  -2  -4  -1 10523.6 850.940   3
  -2  -4  -1 10262.4 719.936  10
   2   4   1 11389.8 733.873  10
  -2  -4  -2 2171.55 350.125   2
   2   4   2 2110.37 488.633   7
   2   4   2 2293.49 353.492   9
  -2  -4  -2 1972.77 401.972   4
  -2  -4  -2 1931.92 428.434   1
  -2  -4  -2 2256.76 446.090   3
   2   4   2 2212.76 509.586   3
  -2  -4  -2 2215.71 337.326  10
   2   4   2 2106.20 311.054  10
   2   4   3 6682.04 639.520   9
   2   4   3 6371.82 813.209   7
  -2  -4  -3 6406.08 710.533   7
  -2  -4  -3 5462.15 423.842  15
  -2  -4  -3 5866.23 610.964   2
  -2  -4  -3 6762.54 757.762   1
  -2  -4  -3 6105.76 762.447   3
   2   4   3 6324.87 699.227  12
   2   4   3 5624.06 478.608  10
   2   4   4 6838.55 752.692   9
  -2  -4  -4 8288.92 794.248   2
   2   4   4 6832.12 473.620  10
  -2  -4  -4 8157.57 921.678   3
   2   4   4 7332.35 919.010   7
  -2  -4  -4 7041.10 819.089   7
  -2  -4  -4 6752.67 460.089  15
  -2  -4  -4 6914.07 829.490   1
   2   4   4 6824.25 747.181  12
   2   4   4 7193.57 564.407   6
   2   4   5-375.093 290.686   9
  -2  -4  -5 31.1915 199.929   2
  -2  -4  -5-26.7376 326.844   1
  -2  -4  -5 18.9811 96.4471  15
   2   4   5 175.582 93.1432   6
   2   4   5-54.7398 326.696   7
   2   4   5-398.452 285.573  12
   2   4   5 106.772 58.0431  10
   2   4   6 4471.66 709.034   9
   2   4   6 4976.59 388.926   6
  -2  -4  -6 5208.84 407.453  15
  -2  -4  -6 5004.57 614.515  13
   2   4   6 5584.31 410.052   6
   2   4   6 4343.86 644.802  12
  -2  -4  -6 5924.20 818.045   1
   2   4   6 4588.93 253.364  10
   2   4   6 4287.78 819.313   7
   2   4   7 516.111 401.746   9
  -2  -4  -7 561.476 443.254   1
  -2  -4  -7 307.852 135.791  15
   2   4   7 721.094 459.725   7
  -2  -4  -7 262.350 250.472  13
   2   4   7 422.356 66.3329   6
   2   4   7 514.102 300.002  12
   2   4   8 60.5679 135.703   9
   2   4   8 979.153 540.759   7
   2   4   8 627.529 270.533  12
  -2  -4  -8 293.605 324.791   1
   2   4   9 390.684 420.677   9
   2   4   9 739.769 543.824   7
  -2  -4  -9 330.719 242.404   1
   2   4   9-427.126 326.141  12
   2   4  10-261.153 447.530   9
  -2  -4 -10-129.321 133.554   1
   2   4  11-81.8717 270.213   9
  -2  -5  13-470.033 424.514  13
   2   5 -13 273.383 339.553   3
  -2  -5  13 73.6549 121.918   9
  -2  -5  12-153.895 263.075   9
  -2  -5  12 621.740 411.257  15
  -2  -5  12 317.806 242.853   5
  -2  -5  12-208.859 190.745  13
   2   5 -12 85.4030 184.427   2
   2   5 -12 282.030 243.276   3
   2   5 -12-126.215 348.546  10
  -2  -5  11 3771.27 730.540   5
  -2  -5  11 3674.73 832.475   9
   2   5 -11 3594.07 690.539   2
  -2  -5  11 3560.76 518.392   8
  -2  -5  11 3885.38 755.015  13
  -2  -5  11 4029.81 861.166  15
   2   5 -11 3715.50 578.507   3
   2   5 -11 3282.06 786.744  10
  -2  -5  10 3718.35 759.056   9
  -2  -5  10 3857.96 570.952   8
   2   5 -10 3799.80 545.056   3
  -2  -5  10 2736.55 642.728  15
  -2  -5  10 3712.88 690.114  13
  -2  -5  10 3188.41 644.309   5
   2   5 -10 3603.61 663.610   2
   2   5 -10 3188.90 736.224  10
  -2  -5   9 1815.81 378.284   8
  -2  -5   9 2027.55 594.137  15
  -2  -5   9 1679.78 544.542  13
  -2  -5   9 1766.88 460.516   5
   2   5  -9 1430.69 193.937  14
   2   5  -9 1866.67 381.860   3
   2   5  -9 1809.88 548.907  10
   2   5  -9 1796.72 461.993   2
  -2  -5   9 1191.42 426.104   9
  -2  -5   8 2417.40 549.685   9
  -2  -5   8 2312.38 653.570  15
   2   5  -8 1540.00 424.746   9
   2   5  -8 2577.83 524.860   2
  -2  -5   8 2201.61 582.225  13
  -2  -5   8 2259.16 405.322   8
   2   5  -8 1825.43 381.521   3
   2   5  -8 1929.85 561.886  10
  -2  -5   8 2147.39 480.662   5
  -2  -5   8 2129.63 405.194   1
  -2  -5   7 2995.35 559.879   9
   2   5  -7 2768.29 494.778   9
  -2  -5   7 2867.87 441.193   8
  -2  -5   7 2166.70 390.806   1
  -2  -5   7 2594.07 704.466  15
   2   5  -7 2905.32 550.347   2
   2   5  -7 2585.69 433.334   3
  -2  -5   7 2834.67 585.971  13
  -2  -5   7 2592.00 513.522   5
   2   5  -7 2094.98 573.057  10
  -2  -5   6 4314.43 521.304   1
   2   5  -6 4393.14 577.269   2
  -2  -5   6 4881.65 545.958   8
   2   5  -6 4441.84 556.522   9
  -2  -5   6 3508.57 685.953  15
   2   5  -6 5256.56 726.868   6
  -2  -5   6 4411.51 655.125  13
  -2  -5   6 4307.15 322.194  11
  -2  -5   6 4588.41 647.836   5
   2   5  -6 4403.78 691.166  10
   2   5  -6 4597.53 541.956   3
   2   5  -5 192.856 137.045   9
  -2  -5   5 127.600 210.724   5
  -2  -5   5-243.024 365.920  15
   2   5  -5 106.472 195.330   6
  -2  -5   5 147.390 108.221  11
  -2  -5   5 304.440 294.926  13
   2   5  -5-95.1757 202.328   2
  -2  -5   5-181.421 179.835   2
   2   5  -5 69.7431 206.900   3
  -2  -5   5-35.6000 68.9261  10
   2   5  -5-274.746 345.736  10
   2   5  -4 207.115 116.520   9
   2   5  -4 208.186 139.433   4
   2   5  -4 619.664 304.415   6
   2   5  -4 289.871 194.715   3
  -2  -5   4 188.083 278.312  15
   2   5  -4 252.481 221.551   2
  -2  -5   4 327.744 181.158   2
  -2  -5   4 260.281 265.557   5
  -2  -5   4 287.415 226.343  10
  -2  -5   4 195.478 122.776   3
   2   5  -4 452.514 285.142  10
   2   5  -3 889.401 203.231   9
   2   5  -3 779.838 182.850   4
   2   5  -3 1061.92 297.683   2
  -2  -5   3 924.026 207.878   3
   2   5  -3 699.133 256.400   3
  -2  -5   3 623.547 293.959  15
  -2  -5   3 918.126 236.419   2
  -2  -5   3 426.457 242.471  10
   2   5  -3 594.973 311.148  10
   2   5  -2 11937.8 779.242   2
   2   5  -2 10639.1 617.595   4
  -2  -5   2 12059.3 754.373   2
   2   5  -2 11578.8 826.016   3
  -2  -5   2 11434.0 812.177  15
  -2  -5   2 10431.5 656.547   3
  -2  -5   2 10820.1 582.630  14
  -2  -5   2 11768.3 946.980  10
   2   5  -2 11861.0 951.574  10
   2   5  -2 11830.4 595.955   9
   2   5  -1 10984.2 783.358   2
  -2  -5   1 10696.7 702.652   2
  -2  -5   1 10940.4 579.166   4
  -2  -5   1 11390.1 749.217  14
  -2  -5   1 11564.1 751.152  15
   2   5  -1 10442.0 838.974   3
  -2  -5   1 11193.6 752.979   3
  -2  -5   1 11398.1 900.414  10
   2   5  -1 11165.6 896.853  10
  -2  -5   0 64015.0 1711.39   2
  -2  -5   0 66466.6 1702.75   4
   2   5   0 68456.3 2324.50   7
   2   5   0 62964.0 2154.12   3
  -2  -5   0 62288.6 1953.27   3
  -2  -5   0 65529.4 1598.22  15
  -2  -5   0 65028.4 2079.46  10
   2   5   0 65644.4 2043.51  10
   2   5   0 60553.5 1880.42   2
   2   5   1 6312.27 495.412   9
  -2  -5  -1 6117.42 579.309   2
  -2  -5  -1 5408.80 581.952   4
   2   5   1 6865.00 789.891   3
   2   5   1 5913.92 797.633   7
  -2  -5  -1 6273.72 702.832   3
  -2  -5  -1 6625.02 672.588  10
   2   5   1 5646.55 613.157  10
   2   5   1 6435.23 716.398   2
  -2  -5  -2 13491.8 896.589   2
  -2  -5  -2 14200.1 1107.19   3
  -2  -5  -2 13825.8 1133.81   1
   2   5   2 11801.6 1077.27   3
   2   5   2 13329.2 1159.76   7
   2   5   2 13177.3 817.447   9
  -2  -5  -2 12858.5 979.897   4
   2   5   2 13418.4 1093.26  12
  -2  -5  -2 13872.3 933.493  10
   2   5   2 13174.1 863.229  10
   2   5   3 7.15811 170.298   9
  -2  -5  -3 278.455 186.197   4
  -2  -5  -3-119.724 159.200   2
   2   5   3-40.4657 298.406   7
  -2  -5  -3 72.1292 93.2197  15
   2   5   3-73.2446 145.422  10
  -2  -5  -3-70.8499 106.438   3
   2   5   3 453.296 291.143  12
  -2  -5  -3-105.208 332.182   1
  -2  -5  -4 1158.26 461.101   1
  -2  -5  -4 1545.03 422.656   2
   2   5   4 2037.39 572.222   7
  -2  -5  -4 1328.16 142.779  15
   2   5   4 1282.17 388.881   9
   2   5   4 1292.90 436.548  12
   2   5   4 970.506 232.377  10
   2   5   5 3707.02 623.788   9
   2   5   5 3744.87 404.581  10
   2   5   5 3465.73 595.475  12
   2   5   5 3749.38 461.376   6
   2   5   5 4000.73 772.629   7
  -2  -5  -5 3592.78 715.025   1
   2   5   6 739.690 377.984   9
   2   5   6 551.703 337.933   7
  -2  -5  -6 926.049 419.677   1
   2   5   6 716.054 175.700   6
   2   5   6 896.559 391.299  12
   2   5   6 877.452 215.507   6
   2   5   6 429.380 133.194  10
  -2  -5  -7 899.718 397.558   1
   2   5   7 764.336 350.674   7
   2   5   7 787.001 455.909   9
   2   5   7 980.430 191.188   6
   2   5   7 963.316 361.753  12
   2   5   8 1715.82 571.115   9
   2   5   8 1622.99 457.873  12
   2   5   8 1555.11 594.406   7
  -2  -5  -8 977.924 376.374   1
   2   5   9-36.6406 150.632  12
   2   5   9-206.769 284.161   9
   2   5   9 199.815 361.418   7
  -2  -5  -9-376.083 224.619   1
   2   5  10 697.076 401.210   9
   2   5  10 445.732 474.370   7
  -2  -6  13 1176.85 490.073   9
  -2  -6  13 518.873 379.508  13
  -2  -6  12 1033.06 568.344   9
   2   6 -12 346.994 282.727   2
   2   6 -12 543.456 333.079   3
   2   6 -12 882.735 533.996  10
  -2  -6  12 1429.81 531.401  13
  -2  -6  12 829.480 451.695   5
  -2  -6  11 255.184 297.880   9
  -2  -6  11 544.109 377.481  15
  -2  -6  11-22.3051 282.305  13
   2   6 -11 408.623 309.608   2
   2   6 -11-86.3018 188.954   3
   2   6 -11 329.750 400.249  10
  -2  -6  11-23.5564 179.000   5
  -2  -6  10 48.3470 331.732   9
  -2  -6  10 231.244 213.441   8
  -2  -6  10 207.084 241.416  13
   2   6 -10 283.300 335.750   2
  -2  -6  10 278.290 529.501  15
   2   6 -10-57.4832 272.098   3
   2   6 -10 56.2705 320.911  10
  -2  -6  10 43.2157 224.272   5
  -2  -6   9 843.817 269.914   8
  -2  -6   9 155.601 285.509   5
  -2  -6   9 1440.21 612.503  15
  -2  -6   9 964.546 432.872  13
   2   6  -9 150.030 297.093   2
   2   6  -9 295.571 285.172   3
   2   6  -9 603.328 418.502  10
   2   6  -8 377.959 240.762   9
  -2  -6   8 82.7804 300.816   5
  -2  -6   8-226.143 224.238   8
  -2  -6   8-198.339 405.707  13
   2   6  -8 69.3144 212.331   3
  -2  -6   8 547.600 358.175  15
   2   6  -8 100.987 315.247   2
   2   6  -8 28.3308 301.851  10
  -2  -6   7 1176.99 472.011  15
   2   6  -7 1138.27 314.972   9
  -2  -6   7 1412.49 521.595  13
  -2  -6   7 881.782 344.054   8
   2   6  -7 627.615 427.868  10
  -2  -6   7 1150.11 193.585  11
  -2  -6   7 681.536 243.486   1
   2   6  -7 1660.67 359.558   3
   2   6  -7 1323.86 407.946   2
  -2  -6   7 1055.01 382.414   5
   2   6  -6 870.932 297.946   9
  -2  -6   6 613.334 207.764   1
  -2  -6   6 980.442 358.879   8
   2   6  -6 702.956 323.024   2
   2   6  -6 719.740 313.649   3
  -2  -6   6 806.712 418.408  15
  -2  -6   6 671.085 196.895  11
  -2  -6   6 932.314 462.657  13
  -2  -6   6 493.160 320.051   5
   2   6  -6 814.887 417.766  10
   2   6  -5 41477.9 1632.80   9
   2   6  -5 42227.0 1723.61   2
   2   6  -5 41637.8 1241.62   4
  -2  -6   5 44016.6 1652.28   8
  -2  -6   5 43855.6 1784.09   2
   2   6  -5 40637.2 1545.75   3
  -2  -6   5 39878.5 1997.29  15
  -2  -6   5 42580.1 1208.01  11
  -2  -6   5 41842.9 1861.79   5
   2   6  -5 41819.1 2124.11  10
  -2  -6   5 41285.6 1934.66  13
   2   6  -4 19362.1 1022.21   9
   2   6  -4 19690.4 1155.47   2
  -2  -6   4 19329.3 1120.90   2
  -2  -6   4 20430.9 1345.12  15
   2   6  -4 18452.9 1054.80   3
   2   6  -4 17602.2 740.988   4
  -2  -6   4 19997.2 801.766   3
  -2  -6   4 21295.5 1349.54  13
  -2  -6   4 19287.8 1277.33   5
   2   6  -4 20323.2 1461.31  10
   2   6  -3 1056.24 429.579  10
   2   6  -3 953.514 214.550   9
  -2  -6   3 1078.93 374.526  15
   2   6  -3 1351.00 361.541   2
  -2  -6   3 765.484 380.260   5
  -2  -6   3 808.321 273.245   2
   2   6  -3 589.547 278.102   3
  -2  -6   3 771.508 193.789   3
  -2  -6   3 1275.93 445.165  10
   2   6  -2 1412.76 261.922   9
   2   6  -2 1845.75 398.628   3
  -2  -6   2 1472.90 277.727   3
  -2  -6   2 1305.68 241.042  14
  -2  -6   2 1060.49 404.077   5
  -2  -6   2 1356.69 340.304   2
  -2  -6   2 1681.09 380.891  15
  -2  -6   2 1082.21 413.712  10
   2   6  -2 1249.05 379.210  10
   2   6  -2 1850.34 407.371   2
   2   6  -1 4610.80 640.025   3
  -2  -6   1 4801.43 557.392  15
  -2  -6   1 4891.10 690.354  10
   2   6  -1 4817.84 678.021  10
  -2  -6   1 4156.07 501.503   3
  -2  -6   1 4953.46 557.589   2
   2   6  -1 5690.63 658.677   2
  -2  -6   0 73.8659 138.873   4
  -2  -6   0 193.133 182.470  15
   2   6   0 290.007 302.095   2
   2   6   0 285.382 264.899   7
  -2  -6   0 251.742 169.452   2
   2   6   0 371.678 289.858   3
  -2  -6   0 52.7358 86.6026   3
  -2  -6   0 534.075 298.442  10
   2   6   0 467.568 282.981  10
  -2  -6  -1 2540.08 419.466   4
   2   6   1 2392.43 518.912   2
  -2  -6  -1 2846.85 354.581  15
  -2  -6  -1 2860.81 440.220   2
   2   6   1 3152.29 614.276   7
   2   6   1 2852.07 575.471   3
  -2  -6  -1 2518.41 451.016   3
   2   6   1 3221.53 404.155   9
  -2  -6  -1 3131.07 560.667  10
   2   6   1 2679.69 501.091  10
  -2  -6  -2 336.774 178.991   3
   2   6   2 165.746 173.422   9
  -2  -6  -2 181.169 192.742   4
   2   6   2-117.427 194.127  10
  -2  -6  -2-255.263 231.403   2
   2   6   2-191.897 339.141   7
   2   6   2 43.0911 315.316  12
  -2  -6  -2-30.1192 106.598  15
  -2  -6  -2-54.7578 345.750   1
  -2  -6  -2 176.083 157.812  10
   2   6   2 162.907 276.022   2
   2   6   3 2995.34 515.766   9
  -2  -6  -3 2552.61 504.340   4
   2   6   3 3830.90 674.527  12
   2   6   3 3192.37 489.624  10
   2   6   3 2678.25 619.580   7
  -2  -6  -3 3585.06 715.474   1
  -2  -6  -3 2829.29 176.500  15
  -2  -6  -3 2994.81 510.873   2
  -2  -6  -3 3181.73 606.887   3
  -2  -6  -3 3115.73 208.294  15
   2   6   4 5906.09 727.526   9
  -2  -6  -4 4379.00 777.156   1
  -2  -6  -4 4412.82 715.568   4
   2   6   4 4566.62 771.450  12
   2   6   4 5972.89 974.743   7
   2   6   4 4182.64 535.300  10
   2   6   5 1236.38 446.318   9
   2   6   5 1366.38 450.263  12
   2   6   5 750.008 463.480   7
  -2  -6  -5 1338.11 504.003   1
   2   6   5 1046.49 259.764  10
   2   6   6-8.93031 360.149   7
   2   6   6 68.3356 232.073   9
   2   6   6 80.5902 105.455  10
   2   6   6 519.805 317.109  12
  -2  -6  -6 239.183 375.183   1
   2   6   7-266.172 224.089   9
   2   6   7 302.237 222.992  12
   2   6   7-155.884 321.548   7
  -2  -6  -7-173.956 386.414   1
  -2  -6  -8-684.621 457.434   1
   2   6   8-6.95506 260.668   9
   2   6   8-336.271 325.897   7
   2   6   8 229.323 179.781  12
   2   6   9-390.951 268.038   9
   2   6   9 679.850 475.756   7
   2   6   9 707.357 358.637  12
   2   6  10 400.053 408.426   9
  -2  -7  12 33.8929 290.226  13
  -2  -7  11 948.376 508.407  13
   2   7 -11 1177.13 402.959   2
  -2  -7  11 1714.68 696.155  15
   2   7 -11 1095.18 501.748  10
  -2  -7  11 795.353 334.725   5
  -2  -7  10 633.112 335.745   8
  -2  -7  10 775.277 415.495  15
  -2  -7  10 684.468 332.914  13
  -2  -7  10-86.1111 258.433   5
   2   7 -10 601.174 460.536   2
   2   7 -10 814.403 301.497   3
   2   7 -10 809.501 462.296  10
  -2  -7   9 5587.19 728.785   8
  -2  -7   9 4838.25 997.213  15
   2   7  -9 4746.37 775.053   2
  -2  -7   9 4720.57 948.646  13
   2   7  -9 4308.50 873.622  10
   2   7  -9 3442.07 567.684   3
  -2  -7   9 4814.37 758.976   5
   2   7  -8 1017.01 530.674  10
  -2  -7   8 1526.76 466.453   8
   2   7  -8 2085.74 436.325   3
  -2  -7   8 1529.55 565.798  15
  -2  -7   8 2132.92 610.324  13
   2   7  -8 1196.80 420.151   2
  -2  -7   8 1564.77 466.983   5
   2   7  -7 4700.49 728.808   2
   2   7  -7 4266.28 466.537   4
  -2  -7   7 5613.42 701.272   8
  -2  -7   7 5949.04 961.140  15
   2   7  -7 5666.08 671.992   3
  -2  -7   7 4802.42 818.617  13
   2   7  -7 3974.57 616.244   9
  -2  -7   7 4259.24 698.189   5
   2   7  -7 4806.02 836.442  10
  -2  -7   7 4647.82 449.673  11
   2   7  -6 958.143 286.064   9
   2   7  -6 820.477 184.181   4
  -2  -7   6 853.363 325.413   8
   2   7  -6 1761.94 458.373   2
  -2  -7   6 836.287 195.932  11
  -2  -7   6 1394.77 511.193  15
   2   7  -6 515.286 244.977   3
  -2  -7   6 1165.25 494.793  13
  -2  -7   6 1267.18 389.683   5
   2   7  -6 1036.14 492.500  10
   2   7  -5 2892.58 469.075   9
   2   7  -5 3252.81 295.728   4
   2   7  -5 4012.94 627.662   2
  -2  -7   5 2986.66 535.919   8
  -2  -7   5 3665.79 419.820  11
  -2  -7   5 3392.40 679.340  15
   2   7  -5 3557.11 496.487   3
  -2  -7   5 3409.53 664.779  13
  -2  -7   5 2272.76 540.389   5
   2   7  -5 3013.62 671.949  10
   2   7  -4 10372.8 816.871   9
   2   7  -4 11350.5 975.143   2
  -2  -7   4 10967.2 919.462   2
   2   7  -4 10230.9 831.766   3
  -2  -7   4 10631.6 1069.02  15
  -2  -7   4 11243.6 1105.13  13
   2   7  -4 11704.8 1204.77  10
  -2  -7   4 10478.7 1033.48   5
  -2  -7   3 441.976 292.287  15
   2   7  -3 314.166 140.718   9
   2   7  -3 138.411 307.354   2
   2   7  -3 103.549 188.950   3
  -2  -7   3 325.451 78.4173  14
  -2  -7   3 609.612 377.789  13
  -2  -7   3 114.629 52.0132  14
  -2  -7   3-109.399 197.220   2
  -2  -7   3 206.624 155.768   3
   2   7  -3 218.358 316.346  10
  -2  -7   3-509.002 339.309   5
   2   7  -2 5114.93 669.625   2
  -2  -7   2 4363.58 593.645   2
  -2  -7   2 3580.17 411.737   3
   2   7  -2 4191.38 585.874   3
  -2  -7   2 3692.29 589.550  15
  -2  -7   2 3422.51 423.843  14
  -2  -7   2 3938.62 688.954   5
   2   7  -2 4528.90 763.685  10
   2   7  -2 3689.82 436.637   9
  -2  -7   1 1289.38 323.720   3
   2   7  -1 1178.82 388.081   3
  -2  -7   1 1430.12 375.442   2
   2   7  -1 1874.88 469.255   2
  -2  -7   1 1957.44 431.109  15
   2   7  -1 1936.13 477.996  10
   2   7  -1 1634.09 527.980   7
  -2  -7   0 1765.70 281.066   4
   2   7   0 1692.67 443.466   2
  -2  -7   0 2040.92 398.572   2
   2   7   0 1642.21 403.688   3
  -2  -7   0 1680.74 327.017  15
  -2  -7   0 1242.52 292.432   3
   2   7   0 1682.28 470.962  10
   2   7   0 1886.74 569.075   7
   2   7   1-205.471 294.721   7
   2   7   1-281.403 180.244   9
   2   7   1-162.906 205.055  10
  -2  -7  -1 155.032 121.553   4
   2   7   1-68.5547 338.694   2
  -2  -7  -1 241.532 161.978  15
  -2  -7  -1-343.865 303.084   1
  -2  -7  -1 231.183 169.831   3
   2   7   1-493.219 425.705  12
  -2  -7  -1 452.999 221.142  10
  -2  -7  -2 2790.92 657.869   1
  -2  -7  -2 2458.68 456.328   4
  -2  -7  -2 1660.06 226.965  15
   2   7   2 3002.89 460.343   9
   2   7   2 1790.22 597.071   7
  -2  -7  -2 2362.40 524.334   3
   2   7   2 1889.99 423.298  10
   2   7   2 1977.00 560.717  12
   2   7   2 2372.80 617.806   2
   2   7   3 1312.32 500.246   7
   2   7   3 985.371 334.763   9
  -2  -7  -3 1238.36 345.377   4
  -2  -7  -3 1454.85 551.564   1
   2   7   3 1194.91 398.432  12
   2   7   3 931.017 334.868  10
   2   7   4 535.060 378.874   7
  -2  -7  -4 352.379 210.367   4
   2   7   4 767.664 367.650   9
   2   7   4 396.668 354.448  12
   2   7   4 386.179 244.551  10
  -2  -7  -4 450.819 281.882   1
  -2  -7  -5 1146.14 435.237   4
   2   7   5 1911.63 458.266   9
   2   7   5 1351.28 525.870  12
  -2  -7  -5 2135.42 645.983   1
   2   7   5 1075.87 562.198   7
   2   7   5 1342.40 348.154  10
   2   7   6 3361.26 702.502  12
  -2  -7  -6 3504.66 751.135   1
   2   7   6 2375.06 697.011   7
  -2  -7  -6 2803.70 647.612   4
   2   7   6 2811.64 601.202   9
   2   7   7-100.637 309.754   9
   2   7   7 257.980 348.260  12
  -2  -7  -7 145.713 238.777   4
  -2  -7  -7-212.883 322.248   1
   2   7   7 42.4630 157.433   7
  -2  -7  -8-362.440 582.100   4
   2   7   8-878.888 463.097   7
   2   7   8 450.701 299.854  12
   2   7   8 883.537 386.734   9
   2   7   9 149.926 482.692   9
  -2  -7  -9 747.396 571.519   4
   2   7   9 717.392 495.993  12
  -2  -8  10 196.911 249.666   5
  -2  -8  10-283.345 356.599  13
  -2  -8  10-1.31826 107.892   8
   2   8 -10 306.750 238.696   2
   2   8 -10 247.100 340.734  10
  -2  -8   9 907.007 317.311   8
  -2  -8   9 422.390 425.793  15
  -2  -8   9 446.775 414.751  13
   2   8  -9 318.085 329.573   2
  -2  -8   9 253.454 204.417   5
   2   8  -9 467.957 531.018  10
  -2  -8   8 181.750 218.027   8
   2   8  -8-73.1580 257.445   2
   2   8  -8-47.7042 377.675  10
  -2  -8   8-335.512 441.103  15
  -2  -8   8-79.7774 334.584  13
  -2  -8   8-39.2819 227.823   5
  -2  -8   7 369.368 381.244   8
  -2  -8   7 1065.29 520.595  15
  -2  -8   7 465.996 424.991  13
   2   8  -7 536.810 301.079   3
   2   8  -7 572.145 370.339   2
  -2  -8   7 463.272 332.848   5
   2   8  -7 776.033 498.113  10
  -2  -8   6 1611.76 455.577   8
  -2  -8   6 1711.16 607.625  15
   2   8  -6 765.597 345.547   2
  -2  -8   6 1354.57 575.699  13
   2   8  -6 969.870 302.232   3
  -2  -8   6 974.306 392.888   5
   2   8  -6 954.728 498.741  10
   2   8  -5-18.9863 81.6371   9
  -2  -8   5 549.751 456.769  15
  -2  -8   5 324.124 323.870   8
   2   8  -5 287.383 355.620   2
  -2  -8   5 167.828 176.523  11
   2   8  -5 36.2344 135.082   3
  -2  -8   5-332.034 419.597  13
  -2  -8   5 7.75650 264.155   5
   2   8  -5 130.914 256.096  10
  -2  -8   4 163.625 383.545  15
   2   8  -4 118.088 112.933   9
   2   8  -4-66.9228 280.114   2
   2   8  -4 38.4896 210.636   3
  -2  -8   4 238.590 375.879  13
  -2  -8   4-113.364 287.888   5
   2   8  -4-370.435 346.775  10
   2   8  -3 9381.72 963.272   2
  -2  -8   3 5415.25 277.788  14
   2   8  -3 7964.12 800.749   3
  -2  -8   3 6913.90 846.606  15
  -2  -8   3 5787.63 335.639  14
   2   8  -3 6116.86 613.860   9
   2   8  -3 7814.32 1030.57  10
  -2  -8   3 7008.46 921.552  13
  -2  -8   3 6343.80 883.254   5
  -2  -8   3 6595.01 514.639   3
   2   8  -2 459.996 169.523   9
  -2  -8   2 594.630 236.550   3
  -2  -8   2 1002.65 377.771   5
  -2  -8   2 451.840 366.675  13
  -2  -8   2 668.264 343.088  15
   2   8  -2 942.668 326.357   3
   2   8  -2 911.143 374.155   2
   2   8  -2 549.786 330.836  10
  -2  -8   2 904.013 264.790  14
   2   8  -1 4470.50 707.014   2
  -2  -8   1 3311.71 455.784   3
   2   8  -1 3294.98 587.506   3
   2   8  -1 4115.09 746.007   7
  -2  -8   1 2720.82 442.891  14
  -2  -8   1 3354.80 638.683  13
  -2  -8   1 3589.68 571.561  15
   2   8  -1 3943.06 737.063  10
  -2  -8   0 524.588 345.906   1
   2   8   0 285.824 310.827   2
  -2  -8   0 143.695 92.9327   4
  -2  -8   0 657.932 289.013  15
   2   8   0 196.409 255.306  10
   2   8   0 96.6156 410.673   7
   2   8   0 239.444 310.129  12
  -2  -8   0 24.4659 106.601   3
   2   8   1 2488.63 418.752   9
  -2  -8  -1 2045.46 598.443   1
   2   8   1 2117.79 559.147  12
  -2  -8  -1 2700.92 387.995   4
   2   8   1 2106.95 601.464   2
   2   8   1 2546.82 671.579   7
  -2  -8  -1 2228.54 374.924  15
  -2  -8  -1 2730.15 522.713   3
   2   8   1 1715.77 482.460  10
   2   8   2 2888.60 470.685   9
  -2  -8  -2 1961.93 386.215   4
   2   8   2 2943.74 716.706   7
   2   8   2 2614.36 642.078  12
  -2  -8  -2 2123.81 579.848   1
   2   8   2 1907.06 538.771  10
   2   8   2 2370.71 609.436   2
  -2  -8  -3 287.842 386.989   1
   2   8   3 475.013 211.320   9
  -2  -8  -3-149.224 152.799   4
   2   8   3-701.431 390.662  12
   2   8   3-58.3572 339.226   7
   2   8   3 42.2976 151.052  10
   2   8   4 245.533 220.047   9
   2   8   4 584.226 423.026   7
   2   8   4 257.921 432.453  12
  -2  -8  -4 59.0321 133.751   4
  -2  -8  -4-227.361 303.517   1
   2   8   4 123.499 193.072  10
   2   8   5 443.595 285.147   9
  -2  -8  -5 560.513 286.698   4
   2   8   5 827.103 531.290  12
   2   8   5-109.108 224.336   7
  -2  -8  -5 621.148 324.528   1
   2   8   6 1167.52 566.365  12
   2   8   6 542.394 395.648   7
  -2  -8  -6 686.053 480.069   1
   2   8   6 217.730 207.254   9
  -2  -8  -6 18.1368 328.468   4
   2   8   7 805.920 430.165  12
  -2  -8  -7 676.238 377.068   4
   2   8   7 205.818 343.688   7
   2   8   8 540.300 406.098  12
  -2  -9  10-251.474 288.129   8
   2   9  -9 1523.47 487.988   2
  -2  -9   9 1466.31 475.158   8
  -2  -9   9 712.742 644.341  15
   2   9  -8-143.039 215.363  10
  -2  -9   8 286.862 268.759   8
  -2  -9   8 425.996 284.540  15
   2   9  -8 689.375 489.424   2
  -2  -9   8-407.005 356.128  13
  -2  -9   8 111.943 165.086   5
  -2  -9   7 801.884 386.056   8
  -2  -9   7 215.161 389.319  15
   2   9  -7 305.180 188.230   2
  -2  -9   7 1485.44 559.724  13
  -2  -9   7 858.556 405.944   5
   2   9  -7 172.164 421.739  10
  -2  -9   6 2767.97 621.877   8
  -2  -9   6 2364.05 689.688  15
   2   9  -6 2533.06 584.066   2
  -2  -9   6 3026.24 730.870  13
  -2  -9   6 2327.57 542.779   5
   2   9  -6 1489.61 512.638  10
  -2  -9   5 1251.27 410.816   5
   2   9  -5 1573.15 503.973   2
  -2  -9   5 1184.92 427.398  15
  -2  -9   5 1033.86 507.498  13
   2   9  -5 1748.66 560.927  10
  -2  -9   5 1111.75 499.224   8
   2   9  -4 1653.18 508.088   2
  -2  -9   4 1669.97 508.623   8
  -2  -9   4 1442.32 551.808  15
  -2  -9   4 2343.13 591.224  13
  -2  -9   4 1655.94 460.254   5
   2   9  -4 1638.05 590.569  10
   2   9  -3 83.0015 208.955   3
   2   9  -3-40.0446 238.618   2
  -2  -9   3-240.132 251.934  15
  -2  -9   3-212.435 295.422  13
  -2  -9   3-499.650 269.438   5
   2   9  -3 320.772 305.165  10
   2   9  -2 158.427 258.674   3
   2   9  -2 445.972 321.493   2
  -2  -9   2 280.664 257.942  15
  -2  -9   2-324.370 361.296  13
   2   9  -2 138.426 345.129   7
  -2  -9   2-476.322 325.763   5
   2   9  -2-150.328 208.422  10
   2   9  -1 369.703 318.112   2
  -2  -9   1 841.825 468.414   1
  -2  -9   1 16.1623 249.287  15
   2   9  -1 244.659 276.243   7
  -2  -9   1 661.639 442.319  13
  -2  -9   1 278.135 268.916   5
   2   9  -1 296.667 285.746  10
   2   9   0-7.04262 163.261   7
   2   9   0-199.615 295.461   2
  -2  -9   0 480.967 354.834  13
   2   9   0 228.187 391.118  12
  -2  -9   0 778.218 427.170   1
   2   9   0 785.012 410.397  10
  -2  -9  -1 430.961 385.116   1
   2   9   1 335.179 405.778   2
   2   9   1-188.944 302.550   7
   2   9   1-330.104 428.686  12
   2   9   1 125.359 167.494  10
  -2  -9  -1-122.462 206.636  13
  -2  -9  -2 364.848 304.740   1
  -2  -9  -2 186.810 307.143  13
   2   9   2 227.495 285.242  12
   2   9   2-348.517 326.040   7
   2   9   2 131.939 184.886  10
   2   9   2 189.812 265.307   2
   2   9   3 251.357 321.332   7
  -2  -9  -3 494.842 252.308  13
  -2  -9  -3 259.200 357.814   1
   2   9   3 461.941 384.879  12
   2   9   3-36.6179 256.115  10
   2   9   4 937.599 491.234   7
  -2  -9  -4 810.298 332.609  13
   2   9   4 20.0880 267.466  12
  -2  -9  -4 694.384 382.257   1
   2   9   5-137.944 239.675   7
   2   9   5 570.504 337.360  12
   2   9   6 184.073 295.434   7
  -2 -10   8 164.023 219.546   8
   2  10  -8 341.419 315.643   2
  -2 -10   7 508.668 357.702   8
  -2 -10   7-282.277 286.035  15
   2  10  -7-353.661 277.268   2
  -2 -10   6 215.738 294.204   8
  -2 -10   6 1021.45 493.329  15
  -2 -10   6 409.848 261.533   5
   2  10  -6 324.790 213.540   2
  -2 -10   5 60.9796 190.972   8
  -2 -10   5 272.325 200.076  15
  -2 -10   5-197.700 423.020  13
   2  10  -5 349.275 325.893   2
  -2 -10   5-600.438 362.014   5
   2  10  -5 179.964 373.919  10
  -2 -10   4-255.692 321.159   8
   2  10  -4 56.2469 322.663   2
  -2 -10   4 186.263 353.144  13
  -2 -10   4-438.562 391.969  15
  -2 -10   4-117.082 264.555   5
   2  10  -4 599.773 412.853  10
  -2 -10   3 915.742 396.058   8
   2  10  -3 1635.62 631.054   2
  -2 -10   3 632.620 437.313  15
  -2 -10   3 990.021 531.080  13
  -2 -10   3 1193.85 414.229   5
   2  10  -3 654.198 412.451  10
   2  10  -3 2269.74 630.876   7
   2  10  -2 488.783 443.888   2
  -2 -10   2 545.816 369.320   1
  -2 -10   2-52.9405 268.325  13
   2  10  -2 873.291 424.021   7
   2  10  -2 119.230 495.988  12
  -2 -10   2 785.370 451.932   5
   2  10  -2 118.320 202.116  10
   2  10  -1 599.146 530.284   2
   2  10  -1 1190.94 567.674   7
  -2 -10   1 339.039 329.064  13
  -2 -10   1 1031.97 451.817   1
   2  10  -1 972.032 435.406  12
  -2 -10   1 1219.56 474.271   5
   2  10  -1 680.048 430.183  10
   2  10   0 371.633 439.437   2
   2  10   0 441.459 374.559   7
  -2 -10   0 641.710 408.340  13
  -2 -10   0 344.088 352.560   1
   2  10   0-1131.91 524.347  12
   2  10   0-807.653 412.600  10
   2  10   1 158.770 229.670   2
  -2 -10  -1 236.021 294.544  13
   2  10   1-22.0499 192.793  10
  -2 -10  -1-1.85875 348.715   1
   2  10   1 1061.37 459.110  12
  -2 -10  -2-64.3969 345.151   1
  -2 -10  -2 169.293 150.114  13
   2  10   2-408.760 478.271   7
   2  10   2-67.4114 215.279  10
   2  10   3-172.038 297.282   7
   2  10   4 173.186 328.180   7
  -2 -11   6-16.9010 423.426  15
   2  11  -5 871.012 361.156   2
  -2 -11   5 556.670 484.326  15
  -2 -11   4 499.917 309.173   1
   2  11  -4-189.374 207.512   2
   2  11  -3 51.9432 174.055   2
  -2 -11   3 447.327 322.737   1
   2  11  -2 390.535 340.951   7
   2  11  -2 130.888 197.425   2
   2  11  -1 103.675 232.297   2
  -2 -11   1 880.157 219.717   1
  -2 -11   1 479.726 359.100  13
   2  11  -1 649.394 557.788   7
   2  11   0 500.466 418.971   2
  -2 -11   0 561.967 414.995  13
   2  11   0-119.622 306.686  10
   2  11   1-265.180 511.068   7
  -2 -11  -1-179.777 370.186  13
   2  11   1 813.291 466.877  10
   3 -11   0 382.344 318.047  13
   3 -11   0 129.025 227.339   5
   3 -11   1-170.030 234.375  13
   3 -11   1-584.239 414.428   5
   3 -11   2 268.043 231.857   5
   3 -11   3 404.202 327.762   5
  -3  11  -4 258.349 495.531  12
   3 -10  -5-327.736 350.454   8
   3 -10  -5 817.292 407.134   1
   3 -10  -4-48.6768 199.506   8
   3 -10  -4 142.740 203.491   1
  -3  10   4 613.973 345.877   6
   3 -10  -3 460.028 383.972   8
   3 -10  -3-63.3834 255.131  14
  -3  10   3-387.291 399.761   6
   3 -10  -3 429.582 344.783   1
  -3  10   3-110.968 328.733  10
   3 -10  -2 215.830 276.769   8
   3 -10  -2 418.842 344.152   1
  -3  10   2-362.691 347.824   6
   3 -10  -2 35.2151 197.623  13
  -3  10   2-478.400 591.325  12
   3 -10  -2 703.361 320.506  14
  -3  10   2 114.831 176.805  10
  -3  10   1 110.179 379.247   2
   3 -10  -1-151.911 408.020   8
   3 -10  -1-446.160 218.222  14
  -3  10   1-112.940 249.730  10
  -3  10   1-24.0609 268.889  12
   3 -10  -1-215.359 195.858   1
  -3  10   1-204.890 182.738   6
   3 -10  -1 257.133 352.816  13
  -3  10   0 550.535 364.924  10
  -3  10   0 377.597 323.038   2
   3 -10   0 318.292 291.019  13
  -3  10   0 87.8759 275.204  12
   3 -10   0 186.039 160.643  14
   3 -10   0 708.493 405.916   8
   3 -10   1-307.059 213.989  13
   3 -10   1 66.6592 139.673   8
  -3  10  -1 270.016 240.605   2
  -3  10  -1-275.897 419.237  12
   3 -10   1 504.690 287.357  14
   3 -10   1-272.978 231.918   5
  -3  10  -1 372.463 389.416  10
   3 -10   2 304.550 319.888   8
  -3  10  -2-428.921 359.936   2
  -3  10  -2 584.206 365.868  10
   3 -10   2-117.487 415.144  13
  -3  10  -2 778.206 402.091  12
   3 -10   2 1002.86 389.940   5
   3 -10   3 1110.69 514.524  15
  -3  10  -3 2269.36 647.556  12
   3 -10   3 2646.71 672.699  13
   3 -10   3 2743.85 564.224   5
  -3  10  -3 2650.06 808.731  10
   3 -10   4-107.170 238.365  13
  -3  10  -4-372.031 278.139  12
   3 -10   4 67.9352 290.322  15
   3 -10   4 89.9617 234.051   5
   3 -10   5-241.612 298.160  15
   3 -10   5 16.1910 188.636   5
   3  -9  -7-564.982 287.572   8
  -3   9   7 91.5550 319.592  10
   3  -9  -6-555.593 315.695   8
  -3   9   6 623.653 421.395  10
   3  -9  -6-36.2000 296.467   1
  -3   9   6-1096.87 477.296   6
   3  -9  -5 101.925 273.260   8
   3  -9  -5 344.284 269.308   1
  -3   9   5-72.4015 335.827   6
  -3   9   5 664.113 527.596  12
  -3   9   5-47.2329 306.983  10
   3  -9  -4 257.782 285.288   8
   3  -9  -4 945.694 382.187   1
  -3   9   4 571.973 441.903   6
  -3   9   4 652.264 394.267  10
  -3   9   4 598.388 402.282   2
  -3   9   4 416.310 384.880  12
   3  -9  -3 370.482 400.162   8
  -3   9   3 587.200 524.652   2
   3  -9  -3 774.475 282.644  13
   3  -9  -3 431.933 292.782   1
  -3   9   3 403.473 272.845   6
  -3   9   3 474.943 372.980  12
  -3   9   3 366.159 364.238  10
   3  -9  -2 2193.66 507.658  14
   3  -9  -2 2411.59 607.563   8
  -3   9   2 2967.00 719.023   2
  -3   9   2 1305.21 525.698  12
   3  -9  -2 1334.85 478.426  13
   3  -9  -2 1696.08 439.556   1
  -3   9   2 1910.00 565.674  10
  -3   9   2 2023.20 549.149   6
   3  -9  -1-77.4800 374.953   8
  -3   9   1 593.725 223.279   7
  -3   9   1 461.173 513.759   2
   3  -9  -1 161.052 259.562  14
  -3   9   1 588.984 488.783  12
   3  -9  -1 172.625 287.244  13
  -3   9   1 340.193 311.594  10
   3  -9  -1 58.9185 137.639   1
   3  -9   0 349.709 349.513  14
  -3   9   0 1008.71 572.171   2
   3  -9   0 661.571 481.001   8
   3  -9   0 734.816 254.948   1
  -3   9   0 845.971 410.789  12
  -3   9   0 414.016 278.466   7
   3  -9   0 355.427 333.899  13
  -3   9   0 684.726 354.194  10
   3  -9   1 646.270 423.644   8
   3  -9   1 422.390 217.427   1
  -3   9  -1 751.021 517.005   2
   3  -9   1-154.575 275.662  13
  -3   9  -1 82.1919 306.205  12
   3  -9   1 202.164 211.066   5
   3  -9   1 161.105 287.879  14
  -3   9  -1-108.582 410.308  10
  -3   9  -2-442.235 439.350   2
   3  -9   2 264.815 236.530   8
   3  -9   2 567.364 327.921  15
   3  -9   2-302.492 351.283  13
   3  -9   2 307.363 179.103  14
  -3   9  -2 553.615 350.006  12
   3  -9   2-43.0816 103.680   5
  -3   9  -2-265.463 369.316  10
   3  -9   3-48.5011 136.906   8
   3  -9   3 62.7983 166.465  15
   3  -9   3-31.0974 143.139  14
   3  -9   3-768.098 456.074  13
  -3   9  -3 297.709 357.707   2
  -3   9  -3 458.574 405.477  12
   3  -9   3 265.028 183.083   5
  -3   9  -3 81.9252 332.109  10
   3  -9   4 854.255 414.119   8
  -3   9  -4 933.937 475.102   2
   3  -9   4 13.2702 276.352  13
   3  -9   4 911.010 532.921  15
  -3   9  -4 1108.80 391.055  12
   3  -9   4 673.725 264.488   5
  -3   9  -4 389.768 320.552  10
  -3   9  -5-147.850 316.981   2
   3  -9   5-234.705 308.062   8
   3  -9   5-35.1303 205.065  15
  -3   9  -5-327.524 249.250  12
   3  -9   5 509.613 451.776  13
  -3   9  -5 442.740 298.047  10
   3  -9   5 256.633 228.706   5
   3  -9   6 181.436 324.942   8
  -3   9  -6 431.896 421.423   2
  -3   9  -6-95.3936 231.783  12
   3  -9   6-286.615 263.855  13
   3  -9   6 136.470 211.643  15
  -3   9  -6-199.359 285.441  10
   3  -9   6-329.141 286.648   5
  -3   9  -7-428.287 391.540  10
   3  -9   7 759.439 495.627  15
  -3   8   8-212.499 269.087  10
  -3   8   8-590.965 316.279   6
   3  -8  -7 244.084 248.366   8
  -3   8   7 454.148 318.300  12
   3  -8  -7 434.553 328.668   1
  -3   8   7-166.896 292.148   6
  -3   8   7 77.0026 109.020  10
  -3   8   6 512.673 341.670   6
   3  -8  -6 319.111 307.306   8
   3  -8  -6 264.026 373.317   1
  -3   8   6 732.485 449.588  12
  -3   8   6 157.526 239.004  10
   3  -8  -5 142.392 181.577   8
   3  -8  -5-162.045 284.049   1
  -3   8   5 735.673 509.688  12
  -3   8   5 634.874 318.558   6
  -3   8   5-98.9213 184.382  10
  -3   8   5-26.7738 206.179   2
  -3   8   4-504.119 534.069   2
   3  -8  -4 189.933 295.901   8
   3  -8  -4 542.614 243.534  13
   3  -8  -4 658.514 339.464   1
  -3   8   4-70.1930 383.692   6
  -3   8   4 526.093 464.709  12
  -3   8   4 860.493 351.010  10
  -3   8   3 330.466 446.873  12
   3  -8  -3 178.716 358.411   8
  -3   8   3-225.949 433.151   2
  -3   8   3 582.488 198.687   7
  -3   8   3 99.7316 331.542   6
   3  -8  -3 70.8508 275.312   1
   3  -8  -3 214.591 143.290  13
  -3   8   3 503.339 392.585  10
   3  -8  -3 263.991 164.938   3
  -3   8   2 1045.44 469.771   6
  -3   8   2 539.554 225.265   7
   3  -8  -2 928.840 411.636   8
  -3   8   2 845.982 447.535   2
   3  -8  -2 839.458 344.383  13
   3  -8  -2 970.046 350.283  14
   3  -8  -2 533.898 268.043   1
   3  -8  -2 787.372 160.467   3
  -3   8   2 434.417 348.045  12
  -3   8   2 453.474 287.504  10
   3  -8  -1 1016.10 411.416   8
   3  -8  -1 908.873 395.192  14
  -3   8   1 660.019 285.454  15
  -3   8   1 697.047 256.802   7
   3  -8  -1 517.102 374.988  13
  -3   8   1 846.155 419.320   2
  -3   8   1 1364.36 537.987  12
   3  -8  -1 1211.96 316.841   1
  -3   8   1 1280.77 415.883  10
   3  -8   0 351.175 316.265   8
  -3   8   0 474.504 238.609  15
   3  -8   0-63.0873 251.337  13
  -3   8   0 444.701 359.086  12
   3  -8   0-77.9719 256.784  14
   3  -8   0 453.231 233.359   1
  -3   8   0 110.733 196.123  10
  -3   8   0 379.189 370.850   2
   3  -8   1 1758.24 517.359   8
  -3   8  -1 2050.15 434.965  15
  -3   8  -1 1784.33 585.367  12
   3  -8   1 1716.08 314.604   1
   3  -8   1 1517.86 519.153  13
  -3   8  -1 2311.48 659.309  10
   3  -8   1 1859.03 486.988  14
  -3   8  -1 1619.19 476.400   2
   3  -8   2 1261.51 390.266   5
   3  -8   2 1130.48 408.619   8
   3  -8   2 624.012 338.535  14
  -3   8  -2 807.919 415.409   2
   3  -8   2 302.872 329.865  15
   3  -8   2 716.492 488.609  13
   3  -8   2 938.196 256.468   1
  -3   8  -2 714.740 433.252  10
  -3   8  -2 898.676 433.555  12
   3  -8   3 414.254 263.694   8
   3  -8   3 102.252 198.551  15
  -3   8  -3-231.771 305.361   2
   3  -8   3-88.4801 266.563  14
   3  -8   3 202.818 254.679  13
   3  -8   3-53.0636 78.4196   1
  -3   8  -3-114.674 300.775  12
   3  -8   3-27.0120 164.743   5
  -3   8  -3 428.415 468.478  10
   3  -8   4 1874.28 477.007  14
   3  -8   4 1457.07 541.260  15
  -3   8  -4 1495.20 496.129   2
   3  -8   4 1227.98 514.129  13
  -3   8  -4 1197.47 412.276  12
   3  -8   4 2144.64 553.214   8
   3  -8   4 1971.52 466.035   5
  -3   8  -4 1.74521 583.019  10
   3  -8   5 251.335 298.046   8
  -3   8  -5 402.528 478.915   2
   3  -8   5 853.645 450.354  13
  -3   8  -5 275.511 313.913  12
   3  -8   5 213.448 258.066  14
   3  -8   5 327.611 396.165  15
  -3   8  -5 506.333 348.125  10
   3  -8   5 625.224 284.270   5
   3  -8   6 3401.88 802.883  13
   3  -8   6 3724.30 735.967   8
  -3   8  -6 3533.82 688.308   2
   3  -8   6 3672.29 865.877  15
  -3   8  -6 2758.94 613.139  12
  -3   8  -6 3692.58 848.915  10
   3  -8   6 4275.25 615.910   5
  -3   8  -7 107.949 239.664  12
   3  -8   7-76.1432 237.856   8
   3  -8   7 574.931 315.094  13
   3  -8   7 163.766 161.465   5
   3  -8   7-245.312 255.713  15
  -3   8  -7 59.7327 354.526  10
  -3   8  -7 177.834 308.301   2
   3  -8   8 1172.49 497.859   8
   3  -8   8 1750.44 779.356  15
   3  -8   8 718.952 348.708   5
  -3   8  -8 756.633 365.218  10
   3  -8   9 618.813 457.725   8
  -3   8  -9-200.234 397.952  10
   3  -7  -9-46.0146 302.318   1
  -3   7   9-173.407 335.132  12
  -3   7   9 589.306 376.753   6
  -3   7   9 380.687 531.857   9
  -3   7   9 71.0772 200.645  10
   3  -7  -8 393.511 378.422   1
   3  -7  -8 32.9055 182.079   8
  -3   7   8-37.9411 380.205   9
  -3   7   8 31.1602 335.668  12
  -3   7   8-378.128 352.096  10
  -3   7   8 288.390 270.318   6
   3  -7  -7 707.591 306.825   8
  -3   7   7 334.741 310.256  12
  -3   7   7-547.851 287.957   6
   3  -7  -7 105.627 259.589   1
  -3   7   7-199.453 214.096  10
   3  -7  -6 176.356 265.228   8
   3  -7  -6-114.900 252.310   1
  -3   7   6 279.918 440.325  12
  -3   7   6 33.0195 295.349   6
  -3   7   6-745.464 353.907  10
   3  -7  -5 143.287 223.708   8
  -3   7   5-160.651 215.357   7
  -3   7   5 15.8161 328.670  12
   3  -7  -5-41.4766 276.399   1
   3  -7  -5-260.023 240.603  13
  -3   7   5 162.272 362.735   6
  -3   7   5-472.322 317.195  10
  -3   7   5-424.406 451.575   2
   3  -7  -5 334.034 212.195   3
  -3   7   4 1409.85 603.120   2
   3  -7  -4 1618.73 428.917   8
  -3   7   4 1373.78 293.721   7
  -3   7   4 1265.04 230.113  15
   3  -7  -4 1218.22 328.414   3
   3  -7  -4 1271.43 340.969  13
  -3   7   4 1130.20 522.548   6
   3  -7  -4 1205.57 372.631   1
  -3   7   4 2045.43 635.385  12
  -3   7   4 978.974 433.642  10
   3  -7  -3 1194.89 298.402   3
  -3   7   3 1206.15 515.561   6
   3  -7  -3 1446.29 432.855   8
  -3   7   3 1691.73 570.950   2
  -3   7   3 1052.40 554.234  12
   3  -7  -3 1422.83 332.692  13
   3  -7  -3 1805.09 407.261   1
  -3   7   3 1419.37 455.594  10
  -3   7   3 1697.40 325.705   7
  -3   7   3 1471.09 275.328  15
  -3   7   2 152.056 296.862  12
   3  -7  -2 143.584 320.380   8
   3  -7  -2 148.998 145.112   4
  -3   7   2 270.110 151.277  15
  -3   7   2-40.0127 355.082   2
   3  -7  -2 73.7022 132.538   3
   3  -7  -2 185.247 128.874   3
   3  -7  -2 145.348 253.585  13
  -3   7   2 80.6618 145.545   7
   3  -7  -2 160.438 215.168   1
  -3   7   2 154.895 284.864   6
  -3   7   2 278.040 250.726  10
   3  -7  -1 6063.50 514.283   4
   3  -7  -1 5305.27 701.988   8
  -3   7   1 6027.67 844.083   2
  -3   7   1 6030.24 560.346   7
  -3   7   1 6181.65 908.495  10
   3  -7  -1 5782.71 703.019  14
   3  -7  -1 5185.16 306.956   3
   3  -7  -1 4763.78 351.876   3
  -3   7   1 4794.54 592.617  15
  -3   7   1 6199.20 878.168  12
   3  -7  -1 5714.38 614.142   1
   3  -7  -1 5416.97 735.085  13
   3  -7   0 5068.88 667.376  14
   3  -7   0 5815.58 457.612   4
   3  -7   0 4878.93 723.896   8
   3  -7   0 5833.13 585.266   1
  -3   7   0 5623.79 672.358  15
   3  -7   0 5744.14 784.978  13
  -3   7   0 5975.31 842.305  12
  -3   7   0 5820.13 833.845  10
  -3   7   0 6215.97 834.920   2
   3  -7   1-52.7170 251.693  15
   3  -7   1 489.604 390.513   8
  -3   7  -1 217.496 233.897  15
   3  -7   1 225.511 181.068   1
   3  -7   1-609.371 371.989  14
   3  -7   1-116.169 270.461  13
  -3   7  -1 126.746 305.515  12
  -3   7  -1 452.099 401.289   2
  -3   7  -1 245.053 277.916  10
   3  -7   2 10015.2 1094.85  15
  -3   7  -2 10830.0 1042.48   2
  -3   7  -2 9036.86 973.085  12
   3  -7   2 9894.82 998.647   8
   3  -7   2 10352.1 1138.33  13
   3  -7   2 10193.3 582.437   1
   3  -7   2 10328.3 899.696   5
  -3   7  -2 9682.48 1124.11  10
   3  -7   2 10888.9 963.720  14
   3  -7   3-24.4703 57.6703   1
  -3   7  -3 51.3578 223.457   2
   3  -7   3 60.8721 167.382  14
   3  -7   3-16.9264 160.948   8
   3  -7   3-231.450 307.258  13
  -3   7  -3-74.6008 275.610  12
   3  -7   3 68.2159 307.014  15
   3  -7   3-83.0268 183.808   5
  -3   7  -3 322.126 356.227  10
   3  -7   4 274.857 350.799   8
   3  -7   4 103.112 159.522  14
  -3   7  -4-247.644 349.716   2
   3  -7   4 224.759 265.242  13
  -3   7  -4-253.470 263.312  12
   3  -7   4-125.242 330.674  15
  -3   7  -4-340.922 364.465  10
   3  -7   4 143.624 193.812   5
   3  -7   5 46.4764 278.660   8
   3  -7   5 274.335 353.103  15
  -3   7  -5 214.561 135.469   4
  -3   7  -5 18.9338 238.025   2
   3  -7   5 138.910 168.546  14
   3  -7   5 237.069 335.720  13
  -3   7  -5 96.5232 285.414  12
   3  -7   5 197.471 129.160   5
  -3   7  -5-99.0288 415.211  10
   3  -7   6 838.411 407.134  15
   3  -7   6-649.287 393.721   8
  -3   7  -6 101.363 127.763   4
   3  -7   6 94.5200 192.906  14
   3  -7   6 134.756 335.806  13
  -3   7  -6 126.894 319.700   2
  -3   7  -6-65.5206 159.483  12
  -3   7  -6 555.783 373.820  10
   3  -7   6-142.616 127.677   5
   3  -7   7 444.285 380.921   8
  -3   7  -7-244.905 194.856   4
  -3   7  -7-98.9672 324.545   2
   3  -7   7 127.681 278.685  15
   3  -7   7-70.5826 99.1758   5
   3  -7   7-97.9800 192.316  13
  -3   7  -7-208.414 228.017  12
  -3   7  -7 245.177 472.081  10
   3  -7   8 37.4763 360.079   8
  -3   7  -8 318.599 341.617   2
   3  -7   8 198.922 192.994  13
  -3   7  -8 207.339 193.298  10
   3  -7   8 83.0028 237.519  15
   3  -7   8 600.315 252.717   5
   3  -7   9 524.617 227.158   5
   3  -7   9 1279.67 515.321   8
   3  -7   9 286.656 388.946  13
  -3   7  -9 997.349 538.740   2
   3  -7   9 1229.84 854.985  15
  -3   7  -9-464.388 433.432  10
   3  -7  10-571.146 387.996   8
  -3   7 -10 383.316 338.288  10
  -3   6  10-467.909 476.634   9
   3  -6 -10 389.203 392.377   1
  -3   6  10 164.957 379.608  10
  -3   6   9-218.349 274.976   9
   3  -6  -9-412.483 311.762   1
  -3   6   9-12.5142 210.509   6
  -3   6   9-466.362 273.558  10
  -3   6   8 242.277 442.805   9
   3  -6  -8 147.243 210.822   8
   3  -6  -8-195.069 294.084   1
  -3   6   8 533.499 383.927  12
  -3   6   8-47.0424 190.943   6
  -3   6   8 445.743 345.966  10
   3  -6  -7 616.684 357.199   1
   3  -6  -7 300.415 206.448   8
  -3   6   7 698.656 340.231  10
  -3   6   7 769.279 402.648  12
  -3   6   7 437.990 382.516   6
   3  -6  -6 3808.86 622.043   1
   3  -6  -6 2871.04 471.077   8
  -3   6   6 3857.28 811.429  12
  -3   6   6 2827.12 589.003   6
  -3   6   6 1980.35 548.030  10
  -3   6   5 11751.7 566.937  15
   3  -6  -5 13229.3 926.067   8
  -3   6   5 12441.2 1175.61   6
  -3   6   5 14186.3 783.413   7
   3  -6  -5 13210.7 1084.09   1
   3  -6  -5 13556.5 725.750  13
  -3   6   5 13512.5 1331.43  12
  -3   6   5 12557.2 1207.24  10
  -3   6   4 11549.4 1108.44   6
  -3   6   4 10400.8 1150.84   2
  -3   6   4 11510.6 661.559   7
   3  -6  -4 10278.7 911.080   1
  -3   6   4 9376.34 615.256  15
   3  -6  -4 10722.5 762.263  13
  -3   6   4 10236.7 1134.41  12
  -3   6   4 9867.90 1054.85  10
   3  -6  -4 10873.5 852.764   8
  -3   6   3 97.9960 155.662   1
   3  -6  -3 184.100 242.545   8
  -3   6   3 498.181 366.243   2
  -3   6   3 327.223 306.796   6
  -3   6   3 291.746 147.906   7
   3  -6  -3 266.456 191.630  13
   3  -6  -3 114.874 202.403   1
  -3   6   3 119.713 257.980  10
  -3   6   3 170.650 108.912  15
  -3   6   3 171.909 281.090  12
   3  -6  -2 108.532 292.004   8
   3  -6  -2 104.027 135.604   4
  -3   6   2-181.667 321.834   2
  -3   6   2 211.032 114.882  15
  -3   6   2-86.5514 153.299   7
   3  -6  -2 18.1479 194.637  13
   3  -6  -2 24.0878 172.719   1
  -3   6   2-149.451 356.387  12
  -3   6   2 204.127 300.684   6
  -3   6   2-24.2705 221.086  10
   3  -6  -2 26.7858 117.355   3
  -3   6   1 5534.05 738.342   2
   3  -6  -1 5756.21 537.169   4
   3  -6  -1 5083.92 651.001   8
   3  -6  -1 4879.48 399.681   3
   3  -6  -1 4887.72 515.144   1
  -3   6   1 4420.08 558.279  15
   3  -6  -1 5043.69 332.200   3
   3  -6  -1 5924.68 720.074  13
  -3   6   1 5296.32 745.890  12
  -3   6   1 4760.50 547.182  13
  -3   6   1 5568.10 816.844  10
   3  -6  -1 6328.49 670.504  14
   3  -6   0 758.850 212.626   1
   3  -6   0 639.082 209.407   4
   3  -6   0 637.697 332.224   8
  -3   6   0 964.234 272.068  15
  -3   6   0 1140.11 294.483  13
   3  -6   0 845.890 349.147  14
  -3   6   0 640.436 372.125   2
   3  -6   0 545.670 331.577  13
  -3   6   0 969.532 388.304  12
  -3   6   0 110.652 241.032  10
   3  -6   1 1603.70 421.549  14
   3  -6   1 1973.10 433.191   8
  -3   6  -1 1522.65 350.819  15
   3  -6   1 1914.18 496.233  15
   3  -6   1 2060.72 527.983  13
   3  -6   1 1595.18 261.087   1
  -3   6  -1 1998.72 470.634  12
  -3   6  -1 2373.87 523.449   2
  -3   6  -1 2025.62 562.550  10
  -3   6  -1 2058.13 416.393  13
   3  -6   2 23.1169 250.919   8
  -3   6  -2 242.932 199.065  15
  -3   6  -2 101.190 294.365   2
   3  -6   2 107.042 91.1020   1
   3  -6   2 267.226 220.680  14
   3  -6   2 115.771 340.668  13
  -3   6  -2-110.433 216.658  12
   3  -6   2-162.648 262.501  15
   3  -6   2-138.221 120.272   5
  -3   6  -2 175.561 365.940  10
   3  -6   3 792.302 79.9530   1
   3  -6   3 1019.50 366.948   8
   3  -6   3 782.662 408.664  15
  -3   6  -3 983.896 344.856   2
  -3   6  -3 1217.89 374.935  12
   3  -6   3 617.978 424.768  13
   3  -6   3 779.046 332.399  14
   3  -6   3 1166.59 300.287   5
  -3   6  -3 1149.77 437.151  10
  -3   6  -4 11337.8 1028.08   2
  -3   6  -4 11025.6 733.100   4
   3  -6   4 9926.22 1131.03  15
   3  -6   4 10720.9 965.326  14
  -3   6  -4 11101.8 925.817  12
   3  -6   4 10929.4 1198.20  13
   3  -6   4 10814.6 820.468   5
   3  -6   4 11297.0 1072.60   8
  -3   6  -4 10281.7 1107.48  10
   3  -6   5 1638.52 517.327   8
  -3   6  -5 1367.03 132.911   3
  -3   6  -5 1306.22 336.970   4
  -3   6  -5 1199.47 98.1716   3
  -3   6  -5 1728.95 408.343  12
   3  -6   5 2509.96 699.618  15
   3  -6   5 1769.78 467.512  14
   3  -6   5 890.824 473.421  13
  -3   6  -5 1467.39 515.153   2
  -3   6  -5 2112.99 371.225  14
  -3   6  -5 1182.34 520.873  10
   3  -6   5 1554.91 350.061   5
   3  -6   6 1844.52 618.895  15
  -3   6  -6 1098.42 374.814   4
   3  -6   6 1713.11 604.318   8
  -3   6  -6 1635.40 273.378   3
  -3   6  -6 1859.73 390.432  14
  -3   6  -6 2066.92 408.286  12
   3  -6   6 2114.45 600.940  13
  -3   6  -6 1768.17 498.917   2
   3  -6   6 976.947 413.947  14
  -3   6  -6 1427.87 400.896  11
  -3   6  -6 1710.72 539.947  10
   3  -6   6 1807.92 369.481   5
   3  -6   7-149.837 385.457  15
  -3   6  -7-373.088 317.654   4
   3  -6   7 450.097 364.008   8
  -3   6  -7-221.756 371.799   2
  -3   6  -7-127.955 186.314  12
   3  -6   7 432.178 430.352  13
  -3   6  -7 217.503 252.993  11
  -3   6  -7 29.1503 195.415  14
  -3   6  -7-186.413 286.764  10
   3  -6   7 138.062 213.368   5
   3  -6   8 1381.47 416.818   5
   3  -6   8 1203.06 601.841  15
  -3   6  -8 695.723 382.675   4
   3  -6   8 2329.56 608.024   8
   3  -6   8 1384.03 566.166  13
  -3   6  -8 763.040 390.216   2
  -3   6  -8 1013.55 290.498  11
  -3   6  -8 798.351 429.279  10
  -3   6  -9 1341.08 553.477   4
   3  -6   9 1766.07 638.530   8
   3  -6   9 1817.72 414.704   5
   3  -6   9 1252.81 524.358  13
  -3   6  -9 1526.82 598.824   2
   3  -6   9 1302.14 639.199  15
  -3   6  -9 1323.36 407.057  11
  -3   6  -9 1504.06 560.145  10
  -3   6 -10 780.095 370.813   4
   3  -6  10 164.637 286.917   8
   3  -6  10 1267.35 486.243  13
  -3   6 -10 922.736 354.304  11
  -3   6 -10 524.728 394.585  10
   3  -6  11 967.066 443.944   8
  -3   5  11 760.082 604.503   9
  -3   5  10 838.035 413.570   9
   3  -5 -10 675.741 388.206   1
  -3   5  10 374.183 293.369   6
  -3   5   9 639.094 511.125   9
   3  -5  -9 243.455 196.643   8
   3  -5  -9 152.226 280.419   1
  -3   5   9 251.947 188.688   6
  -3   5   8-78.1233 268.706   9
   3  -5  -8 20.7854 137.829   8
   3  -5  -8 11.2254 212.762   1
  -3   5   8-80.1100 368.725  12
  -3   5   8 183.860 218.683   6
  -3   5   7 1607.50 574.254  12
   3  -5  -7 2383.74 383.788   8
  -3   5   7 2059.13 237.925  15
   3  -5  -7 2179.08 507.830   1
  -3   5   7 1953.81 494.077   6
   3  -5  -7 2412.91 351.515   7
  -3   5   7 1858.06 254.074  15
   3  -5  -6 12490.5 792.895   8
  -3   5   6 11899.4 1061.98   6
  -3   5   6 11842.3 1176.71  12
   3  -5  -6 12421.8 1031.07   1
  -3   5   6 11634.0 633.616  15
   3  -5  -5 23950.9 1108.85   8
  -3   5   5 21837.2 906.558  15
   3  -5  -5 23523.5 1317.29   1
  -3   5   5 23358.2 1466.37   6
  -3   5   5 24925.8 1638.02  12
  -3   5   4 622.617 307.044   1
   3  -5  -4 48.4094 164.801   5
  -3   5   4 531.642 402.895   6
  -3   5   4 288.106 315.742   2
  -3   5   4 513.845 147.083   7
  -3   5   4 317.359 174.791  15
   3  -5  -4 181.760 232.656   8
   3  -5  -4 441.326 185.881  13
   3  -5  -4-1.47671 196.670   1
  -3   5   4 320.926 349.289  12
   3  -5  -3 1383.20 349.441   1
   3  -5  -3 1220.94 362.435   8
  -3   5   3 1372.99 436.731   2
  -3   5   3 1251.26 191.271   7
  -3   5   3 1219.27 278.263  15
   3  -5  -3 1310.31 342.129   2
  -3   5   3 860.348 312.427   1
  -3   5   3 1587.28 503.618  12
  -3   5   3 1157.96 403.536   6
   3  -5  -3 1187.34 268.599  13
   3  -5  -3 1235.92 304.437  11
   3  -5  -3 1448.74 372.882  12
   3  -5  -2 3493.63 510.382   2
  -3   5   2 4408.13 656.548  12
   3  -5  -2 3900.11 512.643   8
   3  -5  -2 3917.08 468.487   1
  -3   5   2 4001.12 318.069   7
  -3   5   2 3814.26 447.580  13
   3  -5  -2 4241.12 326.639   3
  -3   5   2 3842.59 499.168   1
  -3   5   2 3461.02 603.550   6
   3  -5  -2 3946.05 497.195  13
   3  -5  -2 4441.95 625.900  12
  -3   5   2 3954.11 623.605  10
   3  -5  -2 4120.69 490.035  11
  -3   5   2 3383.16 435.890  15
  -3   5   2 4648.38 641.489   2
   3  -5  -1-48.3394 247.842   8
   3  -5  -1 20.3034 108.109   4
   3  -5  -1-9.22052 147.497   1
  -3   5   1-76.9886 115.266   1
  -3   5   1 11.0301 281.628   2
   3  -5  -1 225.573 247.244  13
  -3   5   1 40.1668 118.225  13
  -3   5   1 438.051 207.671  15
  -3   5   1-183.312 228.130  12
   3  -5  -1 67.2284 220.821  11
   3  -5  -1 251.411 195.583   3
  -3   5   1-275.510 285.160  10
  -3   5   1-108.312 326.342   6
   3  -5  -1-342.328 195.493   2
  -3   5   0 35280.3 1521.56   2
   3  -5   0 36601.6 1553.87   2
   3  -5   0 35580.1 1261.86   4
   3  -5   0 34861.3 1055.87   1
  -3   5   0 36621.6 1807.21  10
  -3   5   0 34656.5 1566.04  12
  -3   5   0 33752.6 1528.83  15
   3  -5   0 34451.6 1489.73  14
   3  -5   0 34550.3 1451.22   8
   3  -5   0 35800.3 1612.21  13
  -3   5   0 35366.5 1481.68  13
   3  -5   0 33541.8 756.798   3
   3  -5   0 38473.8 1539.12  11
   3  -5   1 3613.27 562.433  14
  -3   5  -1 3395.99 518.896   2
   3  -5   1 3247.38 420.256   4
   3  -5   1 3908.90 526.720   2
   3  -5   1 3663.89 513.377   8
  -3   5  -1 3449.16 451.974   8
   3  -5   1 3219.00 274.390   1
  -3   5  -1 2754.20 576.807  10
   3  -5   1 2662.96 519.876  15
  -3   5  -1 3149.87 495.621  15
  -3   5  -1 3607.60 527.967  13
   3  -5   1 3368.63 558.004  13
  -3   5  -1 2646.10 468.292  12
   3  -5   1 3986.94 560.406  11
  -3   5  -2 5688.65 682.727   2
   3  -5   2 5265.40 504.360   5
  -3   5  -2 6627.60 488.637   4
   3  -5   2 6211.69 657.946   2
   3  -5   2 6105.90 693.458   8
  -3   5  -2 6544.70 631.190   8
   3  -5   2 4957.11 705.067  13
   3  -5   2 5073.45 238.085   1
   3  -5   2 6192.45 695.456  14
  -3   5  -2 5768.95 716.786  15
   3  -5   2 5976.42 692.491  11
   3  -5   2 5014.47 764.335  15
  -3   5  -2 6503.63 733.017  13
  -3   5  -2 5729.89 646.054  12
  -3   5  -2 5969.81 772.049  10
  -3   5  -3 687.335 310.119   9
   3  -5   3 696.633 322.934   8
  -3   5  -3 425.417 233.903   4
  -3   5  -3 1118.35 330.498   8
   3  -5   3 713.472 374.188  15
  -3   5  -3 518.260 286.733  15
  -3   5  -3 895.390 240.470  14
   3  -5   3 1100.93 365.787  14
   3  -5   3 698.651 354.075  13
  -3   5  -3 515.795 222.398  13
  -3   5  -3 647.295 75.9177   3
  -3   5  -3 690.164 264.711  12
   3  -5   3 906.596 321.727  11
  -3   5  -3 680.306 294.362   2
  -3   5  -3 836.918 308.669  11
   3  -5   3 1088.28 286.084   2
  -3   5  -3 702.609 375.719  10
   3  -5   3 812.437 243.134   5
   3  -5   4 1182.62 374.646   8
  -3   5  -4 1091.28 292.179   4
   3  -5   4 1233.08 501.783  15
  -3   5  -4 1715.49 351.792  14
   3  -5   4 1180.90 458.401  13
  -3   5  -4 1082.38 425.424   2
  -3   5  -4 1290.29 339.772  12
  -3   5  -4 1104.35 352.272  11
  -3   5  -4 1300.41 189.572   3
  -3   5  -4 1518.46 477.477  10
   3  -5   4 1295.25 392.353  14
   3  -5   4 1711.07 398.141  11
   3  -5   4 1450.57 290.740   5
  -3   5  -5 9963.54 1045.23  10
  -3   5  -5 10471.0 978.864   2
  -3   5  -5 10942.4 939.480   4
   3  -5   5 10174.4 1061.78   8
  -3   5  -5 9081.72 792.566  14
  -3   5  -5 8733.66 980.365   7
   3  -5   5 10061.2 1005.74  14
   3  -5   5 9417.83 1147.50  15
   3  -5   5 10679.4 1077.17  11
  -3   5  -5 9932.00 753.499  12
  -3   5  -5 10925.4 848.066  11
  -3   5  -5 10359.0 659.334   3
   3  -5   5 11280.4 801.087   5
   3  -5   5 9893.62 1117.98  13
   3  -5   6-205.825 250.211  14
  -3   5  -6 180.023 292.917   4
   3  -5   6 220.918 329.928  15
   3  -5   6 470.349 380.029  13
   3  -5   6 727.148 344.784   8
  -3   5  -6 218.537 233.070  14
  -3   5  -6 193.779 139.892   3
  -3   5  -6 36.2041 319.467   2
  -3   5  -6 299.622 219.789  11
  -3   5  -6 306.083 293.183  10
  -3   5  -6 496.001 188.710  12
   3  -5   6 426.150 166.519   5
   3  -5   7 495.131 223.991   5
  -3   5  -7 714.311 391.120   4
   3  -5   7 1040.90 409.751   8
   3  -5   7 1293.03 463.277  13
  -3   5  -7 502.884 317.092  14
  -3   5  -7 897.072 354.411   3
  -3   5  -7 845.763 224.053  12
  -3   5  -7 649.077 415.382   2
  -3   5  -7 598.733 304.727  11
  -3   5  -7 459.404 350.732  10
   3  -5   7 634.867 497.536  15
  -3   5  -8 84.3626 346.613   4
   3  -5   8 564.281 368.344   8
   3  -5   8 253.566 390.935  15
  -3   5  -8 148.746 201.455  11
   3  -5   8-146.967 134.884   5
   3  -5   8-367.203 334.593  13
  -3   5  -8 23.2655 283.644   2
  -3   5  -8 292.392 287.375  10
   3  -5   9 1935.67 456.428   5
  -3   5  -9 1965.20 570.462   4
   3  -5   9 1439.80 565.442   8
  -3   5  -9 1410.59 395.124  11
   3  -5   9 1720.96 528.023  13
  -3   5  -9 2361.58 661.312   2
   3  -5   9 1359.89 496.752  15
  -3   5  -9 1480.81 440.588  10
   3  -5  10 1678.13 441.393   5
  -3   5 -10 2042.54 696.378   4
   3  -5  10 2236.52 715.288   8
   3  -5  10 2212.48 653.584  15
   3  -5  10 2123.50 729.989  13
  -3   5 -10 2333.20 541.845  11
  -3   5 -10 3101.43 649.221  10
  -3   5 -10 3708.83 783.569   2
  -3   5 -11-519.609 331.100   4
   3  -5  11-762.928 533.652   8
   3  -5  11 571.475 431.610  13
  -3   5 -12-809.673 418.640   4
  -3   4  11-452.965 492.350   9
   3  -4 -11 62.8562 336.523   1
  -3   4  10 872.395 532.978   9
   3  -4 -10 639.662 461.547   1
  -3   4  10 1158.59 323.671   6
   3  -4  -9-168.825 275.895   1
   3  -4  -9 7.90948 132.746   8
   3  -4  -9 0.97147 60.9909   7
  -3   4   9-198.893 125.420  15
  -3   4   9-2.96719 127.445   6
  -3   4   8 755.279 409.769   9
   3  -4  -8 480.901 184.307   8
   3  -4  -8 851.829 367.326   1
  -3   4   8 707.908 325.362   6
  -3   4   8 535.047 194.600  15
   3  -4  -8 294.681 163.167   7
  -3   4   7 3800.11 722.346   9
   3  -4  -7 3639.23 383.992   8
   3  -4  -7 3593.55 582.938   1
   3  -4  -7 3541.28 449.142   7
  -3   4   7 3179.09 359.390  15
  -3   4   7 4159.45 780.357  12
  -3   4   7 3774.27 600.420   6
   3  -4  -6 3550.70 406.495   8
   3  -4  -6 3420.57 572.489   1
   3  -4  -6 2930.53 359.893   7
  -3   4   6 3644.18 592.834   6
  -3   4   6 3617.27 654.791  12
  -3   4   5 1230.38 418.609  12
   3  -4  -5 1490.73 300.119   8
   3  -4  -5 1420.11 371.550   1
   3  -4  -5 1707.24 376.980   2
  -3   4   5 1310.55 385.575   1
   3  -4  -5 1049.98 404.713  12
   3  -4  -5 1537.86 355.966   5
  -3   4   5 1374.83 421.278   6
   3  -4  -4 989.997 318.383   5
  -3   4   4 1295.72 437.781   2
   3  -4  -4 1016.57 264.084   8
  -3   4   4 1245.97 437.981  12
   3  -4  -4 956.692 337.247   1
   3  -4  -4 1529.93 326.124   2
  -3   4   4 965.270 172.986  13
  -3   4   4 912.904 318.385   1
  -3   4   4 990.522 326.113   6
   3  -4  -4 1262.80 373.467  12
   3  -4  -3 3583.54 479.270   2
   3  -4  -3 3038.02 438.364   8
  -3   4   3 3372.85 557.977   6
  -3   4   3 3289.75 538.191   2
   3  -4  -3 3571.40 440.630   1
  -3   4   3 2813.01 448.266   1
   3  -4  -3 3286.01 403.289  13
  -3   4   3 3042.11 341.705  13
  -3   4   3 3569.89 599.449  12
   3  -4  -3 3250.06 414.922  11
  -3   4   3 3001.52 406.497  15
   3  -4  -3 2615.55 471.004  12
   3  -4  -2 7936.87 683.481   2
   3  -4  -2 7441.76 631.095   8
   3  -4  -2 8001.25 581.379   1
  -3   4   2 7080.35 282.368   7
  -3   4   2 7850.99 660.701  15
  -3   4   2 7508.73 609.537   1
   3  -4  -2 8220.40 448.418   3
  -3   4   2 8198.25 771.509   6
   3  -4  -2 7400.50 621.363  13
  -3   4   2 7445.13 575.350  13
   3  -4  -2 8076.06 770.175  12
  -3   4   2 8084.80 771.740  12
   3  -4  -2 8362.16 640.709  11
  -3   4   2 8928.61 783.979   2
   3  -4  -1 796.970 233.755   8
  -3   4   1 743.981 306.625   2
   3  -4  -1 903.918 246.160   4
  -3   4   1 592.682 206.721   8
  -3   4   1 760.335 210.143   1
   3  -4  -1 709.580 197.271   1
   3  -4  -1 803.136 178.819   3
  -3   4   1 879.833 335.600  12
   3  -4  -1 1012.17 302.584  14
   3  -4  -1 719.129 245.631   2
   3  -4  -1 639.098 231.280  13
  -3   4   1 741.016 274.543  15
  -3   4   1 679.107 229.367  13
   3  -4  -1 413.494 196.938  12
  -3   4   1 405.588 279.827   6
   3  -4  -1 752.316 243.117  11
   3  -4   0 60.8864 104.256   4
   3  -4   0-109.822 207.993   8
  -3   4   0-197.994 175.971   8
   3  -4   0 213.227 101.591   1
  -3   4   0-7.16455 228.185   2
  -3   4   0-312.599 173.901  15
  -3   4   0 176.645 170.124  13
   3  -4   0 147.799 158.638   2
  -3   4   0-128.925 204.989  12
   3  -4   0 11.6749 126.147  12
  -3   4   0 105.987 187.239   6
   3  -4   0-164.117 216.021  14
   3  -4   0-10.7554 121.801  11
   3  -4   0 144.806 81.9681   3
  -3   4   0-61.6150 98.6332   1
   3  -4   0 125.664 224.671  13
   3  -4   1 138.181 225.986  13
   3  -4   1 172.285 67.4985   1
  -3   4  -1 152.919 182.993  12
   3  -4   1 138.910 88.2129   4
   3  -4   1 358.845 234.389   8
  -3   4  -1 119.356 170.553   2
  -3   4  -1 256.699 131.773  13
  -3   4  -1 37.7118 168.304  15
   3  -4   1 101.486 161.297   2
   3  -4   1 479.382 219.741  11
  -3   4  -1 297.504 232.818  11
  -3   4  -1 235.611 252.636  10
   3  -4   1 181.057 80.0774   3
   3  -4   1 97.2980 176.359  14
  -3   4  -2 28307.4 1244.99   2
  -3   4  -2 28157.8 1100.85   4
  -3   4  -2 25323.8 622.625   3
   3  -4   2 28493.9 1376.81   8
   3  -4   2 29212.7 1292.99   2
   3  -4   2 30741.7 1512.31  11
  -3   4  -2 28241.7 1133.30  14
  -3   4  -2 28943.3 1307.58   7
   3  -4   2 28722.0 1576.34  15
  -3   4  -2 28499.1 1506.83  15
   3  -4   2 27932.0 1491.97  13
  -3   4  -2 28452.4 1169.58  12
  -3   4  -2 30157.9 1449.63  13
  -3   4  -2 28628.2 1204.02  11
   3  -4   2 27356.4 949.996   5
  -3   4  -2 30045.9 1494.37  10
   3  -4   2 29133.8 1409.45  14
  -3   4  -3 9845.95 799.039   2
  -3   4  -3 10041.1 769.433   4
  -3   4  -3 10373.6 779.591   8
   3  -4   3 9856.35 797.452   2
  -3   4  -3 9057.88 703.699  14
  -3   4  -3 8955.89 806.217   7
  -3   4  -3 10573.7 967.265  15
  -3   4  -3 9569.30 515.549   3
   3  -4   3 9715.69 959.359  13
  -3   4  -3 10227.2 901.326  13
   3  -4   3 9559.37 901.341   8
   3  -4   3 10614.6 1042.60  15
   3  -4   3 10320.7 894.159  14
   3  -4   3 10492.5 937.260  11
  -3   4  -3 10759.9 777.650  11
  -3   4  -3 10121.6 679.245  12
   3  -4   3 10409.1 611.163   5
  -3   4  -3 10096.2 898.746  10
  -3   4  -3 10922.2 1030.93   9
  -3   4  -4 6644.12 710.022   4
  -3   4  -4 6628.10 709.751   2
   3  -4   4 6577.12 812.973   8
  -3   4  -4 6241.26 648.487   8
   3  -4   4 6317.67 698.424   2
  -3   4  -4 7010.14 894.799   9
  -3   4  -4 6329.92 759.911   7
   3  -4   4 7268.41 908.726  15
  -3   4  -4 5659.23 503.197   3
   3  -4   4 6339.01 763.298  14
  -3   4  -4 6509.66 753.965  13
  -3   4  -4 6273.82 671.215  14
  -3   4  -4 6095.78 509.969  12
   3  -4   4 6020.86 802.746  13
   3  -4   4 7429.79 844.095  11
  -3   4  -4 7009.82 672.948  11
  -3   4  -4 6797.03 813.599  15
   3  -4   4 5932.16 501.632   5
  -3   4  -4 6826.56 770.040  10
  -3   4  -5 16007.8 1188.19   4
  -3   4  -5 17728.6 1185.71   2
   3  -4   5 16565.5 1315.66   8
  -3   4  -5 17605.3 1110.59   8
   3  -4   5 16315.1 1341.84  13
  -3   4  -5 17186.4 1327.99   7
  -3   4  -5 17296.7 1016.67   3
  -3   4  -5 18199.2 1158.59  14
   3  -4   5 16431.8 1423.85  15
   3  -4   5 18736.3 943.085   5
   3  -4   5 16624.3 1262.80  14
  -3   4  -5 17675.3 801.247  12
  -3   4  -5 19176.2 1183.56  11
  -3   4  -5 18197.6 1247.89  10
   3  -4   6 24.0245 158.869   5
  -3   4  -6-614.697 427.414   4
   3  -4   6 366.705 391.689   8
   3  -4   6 261.465 332.832  15
  -3   4  -6 11.6293 366.741  10
   3  -4   6 188.556 357.667  13
  -3   4  -6 88.2013 137.699   3
  -3   4  -6 194.755 128.738  12
  -3   4  -6-176.073 343.144  11
  -3   4  -6 292.781 164.419   5
  -3   4  -6 293.448 324.325   2
  -3   4  -6 204.503 189.536  14
  -3   4  -7 3405.64 705.910   4
   3  -4   7 4024.40 730.590   8
  -3   4  -7 4456.69 686.247   3
   3  -4   7 3873.48 798.481  15
  -3   4  -7 3913.43 657.890  14
   3  -4   7 4543.09 809.139  13
  -3   4  -7 3818.34 305.785  12
  -3   4  -7 4367.82 642.732  11
  -3   4  -7 4273.11 673.319   2
   3  -4   7 4426.28 540.217   5
  -3   4  -7 3111.82 462.434   5
  -3   4  -7 3537.80 622.477  10
   3  -4   8 3925.48 532.120   5
  -3   4  -8 2652.07 732.683   4
   3  -4   8 3820.26 741.596   8
   3  -4   8 3749.71 835.647  15
   3  -4   8 3572.24 754.667  13
  -3   4  -8 2661.44 184.000  12
  -3   4  -8 3298.16 634.611   3
  -3   4  -8 3943.93 702.036   2
  -3   4  -8 4089.46 654.445  11
  -3   4  -8 3888.88 540.917   5
  -3   4  -8 4204.64 673.326  10
   3  -4   9-166.768 182.742   5
  -3   4  -9 1.78662 322.194   4
   3  -4   9 271.795 324.190   8
  -3   4  -9 172.771 177.210   6
  -3   4  -9-245.587 313.348  11
  -3   4  -9 185.593 358.607   2
  -3   4  -9-381.771 203.310  10
   3  -4   9-159.410 380.899  13
   3  -4  10 421.657 210.639   5
   3  -4  10 411.909 300.413   8
  -3   4 -10 286.185 351.818   4
  -3   4 -10 424.828 392.176  11
   3  -4  10 819.249 465.460  15
   3  -4  10 589.873 307.303  13
  -3   4 -10 1083.36 407.364   2
  -3   4 -10 533.050 227.555  10
   3  -4  11-514.966 339.276   5
  -3   4 -11-606.331 551.241   4
   3  -4  11 922.187 685.437  15
   3  -4  11 217.852 263.747  13
  -3   4 -11-406.331 277.256  11
  -3   4 -11 109.633 343.813   2
  -3   4 -12-782.229 499.131   4
   3  -4  12 278.743 266.726  13
   3  -3 -12 762.926 381.332   1
  -3   3  12 1034.90 611.487   9
   3  -3 -11 78.0057 297.420   1
  -3   3  11 124.719 469.805   9
  -3   3  11 343.010 206.023   6
  -3   3  10 1104.99 490.257   9
   3  -3 -10 654.555 370.541   1
  -3   3  10 605.868 228.881  15
  -3   3  10 979.819 312.877   6
  -3   3   9 1802.73 648.263   9
   3  -3  -9 2163.32 205.561   8
   3  -3  -9 2556.29 536.390   1
   3  -3  -9 2377.86 497.368   7
  -3   3   9 2938.07 499.288   6
  -3   3   9 2534.96 417.383  15
  -3   3   8-45.9134 266.998   9
   3  -3  -8 71.0781 275.575   1
   3  -3  -8 303.822 120.831   8
  -3   3   8-39.0456 151.367  15
   3  -3  -8 391.810 190.359   7
  -3   3   8 346.209 247.715   6
  -3   3   7 4422.88 755.926   9
   3  -3  -7 3922.52 332.954   8
   3  -3  -7 3433.56 566.755   1
   3  -3  -7 3038.09 430.712   7
  -3   3   7 3614.81 554.162   6
   3  -3  -6 431.152 213.085   5
   3  -3  -6-17.2274 258.429   1
   3  -3  -6 23.3980 139.764   8
  -3   3   6 195.875 214.845   1
   3  -3  -6 140.959 177.378   2
   3  -3  -6 39.2874 98.3088   7
   3  -3  -6 301.784 245.731  12
  -3   3   6 199.484 254.933   6
   3  -3  -5 3844.74 365.356   8
   3  -3  -5 3697.52 497.207   1
   3  -3  -5 3539.63 328.565   7
  -3   3   5 3578.40 510.030   1
   3  -3  -5 4337.89 644.420  12
  -3   3   5 2958.89 535.155  12
  -3   3   5 3622.08 518.382   6
   3  -3  -5 3913.98 515.251   5
   3  -3  -5 3442.29 490.203   2
  -3   3   4 14407.6 1058.10  12
   3  -3  -4 16952.9 756.099   8
   3  -3  -4 16112.0 886.705   1
   3  -3  -4 14969.2 419.389   7
  -3   3   4 16229.4 973.875   1
  -3   3   4 15369.2 1009.86   6
  -3   3   4 15114.3 575.922  13
   3  -3  -4 16995.1 975.781   5
   3  -3  -4 14810.3 933.388   2
   3  -3  -3 13609.4 702.738   8
   3  -3  -3 13235.2 735.028   1
  -3   3   3 13626.8 927.664   6
  -3   3   3 12749.1 776.713   1
   3  -3  -3 14848.3 752.541  11
  -3   3   3 13032.8 632.598  13
  -3   3   3 14716.5 988.124  12
   3  -3  -3 14153.6 622.315   3
   3  -3  -3 12941.7 779.362   5
   3  -3  -3 13674.8 839.665   2
  -3   3   3 14037.8 948.431   2
   3  -3  -2 99098.0 2096.35   2
   3  -3  -2 101472. 1976.84   8
  -3   3   2 100450. 1853.12   8
   3  -3  -2 102320. 1795.39   1
   3  -3  -2 100720. 1524.41   3
  -3   3   2 95316.0 1902.29   1
  -3   3   2 100366. 2398.45   6
   3  -3  -2 96711.9 2030.58  13
  -3   3   2 97435.6 1926.44  13
   3  -3  -2 98578.6 2380.21  12
   3  -3  -2 102754. 2015.63  11
   3  -3  -2 94689.0 1911.81   5
  -3   3   2 100281. 2373.76  12
  -3   3   2 98235.2 2199.94   2
  -3   3   1 1828.48 338.211  15
   3  -3  -1 1647.67 220.055   1
   3  -3  -1 2088.33 334.014  11
   3  -3  -1 1688.65 313.123   8
  -3   3   1 1477.34 259.559   8
   3  -3  -1 1642.62 294.649   4
  -3   3   1 1399.97 150.946   7
  -3   3   1 1660.68 334.745   2
  -3   3   1 1837.98 254.346   1
   3  -3  -1 1750.82 351.817  14
   3  -3  -1 1354.44 286.371   2
   3  -3  -1 1659.84 320.617  13
   3  -3  -1 1821.88 238.270   3
  -3   3   1 1576.75 292.292  13
  -3   3   1 2055.03 354.871  12
   3  -3  -1 1307.93 277.118  12
  -3   3   1 1767.32 373.225   6
  -3   3   0 27696.9 1056.98   2
   3  -3   0 28235.6 1090.00   2
   3  -3   0 27474.3 1126.54   4
   3  -3   0 26788.2 665.541   1
   3  -3   0 28307.5 1179.42   8
  -3   3   0 27366.1 888.313   7
  -3   3   0 27541.2 668.720   3
  -3   3   0 26751.9 1285.74  15
   3  -3   0 27615.3 881.173   3
   3  -3   0 29371.1 1237.69  11
  -3   3   0 25391.2 734.558   1
   3  -3   0 27636.0 1239.89  14
   3  -3   0 26849.4 1245.19  13
  -3   3   0 27282.5 1241.86   6
  -3   3   0 28387.9 1213.19  13
  -3   3   0 27193.9 1092.11  12
   3  -3   0 27271.5 1108.93  12
   3  -3   1 2392.52 158.915   1
  -3   3  -1 3555.31 412.841   2
  -3   3  -1 2561.96 352.307   4
   3  -3   1 2656.17 424.314   8
   3  -3   1 2067.02 349.053   4
  -3   3  -1 2161.51 332.824  14
  -3   3  -1 2353.09 336.158   7
  -3   3  -1 2432.12 230.498   3
   3  -3   1 2107.66 275.168   3
  -3   3  -1 2203.15 408.001  15
   3  -3   1 2632.55 443.273  14
   3  -3   1 2071.88 410.277  13
  -3   3  -1 1813.39 350.384  13
   3  -3   1 2722.38 350.772  12
   3  -3   1 2941.22 425.283  11
   3  -3   1 2464.82 241.580   5
   3  -3   1 1987.07 324.534   2
  -3   3  -1 2080.30 159.162   1
  -3   3  -1 2381.27 419.702  10
  -3   3  -1 2229.37 421.399   6
  -3   3  -1 2278.65 323.454  12
  -3   3  -2 12973.4 780.421   2
   3  -3   2 11553.2 878.803   8
   3  -3   2 12711.9 786.718   2
  -3   3  -2 12851.5 850.208   7
   3  -3   2 13328.0 732.020   3
  -3   3  -2 12190.2 602.066   3
  -3   3  -2 12347.1 806.715   4
   3  -3   2 12029.1 980.040  15
  -3   3  -2 12887.6 651.677  12
   3  -3   2 12682.2 927.487  14
  -3   3  -2 11829.9 817.290   6
   3  -3   2 14573.4 1011.64  11
   3  -3   2 14026.3 545.713   5
   3  -3   2 13438.3 1003.32  13
  -3   3  -2 12643.4 888.490  10
  -3   3  -2 11988.0 779.781  14
  -3   3  -2 13387.6 841.409  11
  -3   3  -3 40788.4 1605.64   4
  -3   3  -3 40528.2 1445.25   2
   3  -3   3 39057.6 1684.76   8
   3  -3   3 38361.4 1760.23  13
   3  -3   3 41775.9 1549.90   2
  -3   3  -3 39762.5 1517.53  14
  -3   3  -3 43345.4 1592.27  11
  -3   3  -3 40726.1 1689.11   7
  -3   3  -3 37652.8 1257.74   3
   3  -3   3 40320.1 1704.10  14
  -3   3  -3 40038.6 1468.73   6
  -3   3  -3 38878.0 1012.67  12
   3  -3   3 40235.1 1755.20  11
   3  -3   3 40396.9 1859.24  15
   3  -3   3 40200.8 997.777   5
  -3   3  -3 42497.3 1595.50  10
   3  -3   4 233.436 129.644   5
  -3   3  -4 281.467 251.320   9
  -3   3  -4 470.528 169.957   8
  -3   3  -4 316.913 229.930  11
  -3   3  -4 100.488 197.316   4
   3  -3   4 236.002 218.720   8
  -3   3  -4 235.179 189.930   7
   3  -3   4 337.672 326.471  15
   3  -3   4 259.006 222.108  14
  -3   3  -4 181.010 99.1263  12
   3  -3   4 33.9255 294.241  13
  -3   3  -4 186.172 183.574  14
  -3   3  -4 194.131 184.946  13
  -3   3  -4-0.64282 117.567   3
  -3   3  -4 249.668 237.627   2
  -3   3  -4 285.658 134.591   5
  -3   3  -4 116.267 210.212  10
  -3   3  -5 11551.1 1158.76   9
  -3   3  -5 8942.83 965.521   4
   3  -3   5 10919.7 1072.73   8
  -3   3  -5 9622.93 857.350   2
  -3   3  -5 10454.3 942.619  14
  -3   3  -5 10089.5 987.257   7
   3  -3   5 9383.20 1048.66  15
  -3   3  -5 10387.0 875.010   3
  -3   3  -5 10509.3 1059.04  15
  -3   3  -5 10029.4 641.834   5
   3  -3   5 9832.29 989.206  14
  -3   3  -5 11049.7 860.282   8
  -3   3  -5 9403.87 727.162   6
   3  -3   5 10642.6 1050.59  13
  -3   3  -5 10076.8 933.480  13
  -3   3  -5 9202.75 362.630  12
  -3   3  -5 10128.4 892.385  11
   3  -3   5 9997.53 638.312   5
  -3   3  -5 10514.3 858.110  10
  -3   3  -6 5801.21 838.644   4
  -3   3  -6 5972.15 763.376   3
   3  -3   6 5901.64 853.584   8
  -3   3  -6 6144.32 774.028   2
  -3   3  -6 6209.79 702.603   8
   3  -3   6 6252.49 574.922   5
   3  -3   6 5722.70 931.305  15
  -3   3  -6 6246.93 605.511   6
   3  -3   6 5162.44 845.428  13
  -3   3  -6 6089.27 325.666   1
  -3   3  -6 6278.75 797.438  14
  -3   3  -6 5046.44 677.895  11
  -3   3  -6 5679.46 527.924   5
  -3   3  -6 6305.62 685.265  10
   3  -3   7-385.486 208.526   5
  -3   3  -7-2.87280 304.146   4
  -3   3  -7 116.490 141.010   5
   3  -3   7-97.6195 329.589   8
  -3   3  -7-78.0255 141.245  14
   3  -3   7 217.932 326.355  15
  -3   3  -7 160.960 117.233   6
  -3   3  -7-44.6712 263.157   3
   3  -3   7-606.324 393.075  13
  -3   3  -7 59.1181 85.0943   1
  -3   3  -7 190.179 240.968  11
  -3   3  -7-38.9260 278.678   2
  -3   3  -7-230.621 224.831  10
   3  -3   8 2270.52 433.162   5
  -3   3  -8 2368.73 279.078   1
  -3   3  -8 1722.48 589.934   4
   3  -3   8 1952.64 672.599  15
   3  -3   8 2408.30 620.137  13
  -3   3  -8 2472.26 470.329  10
  -3   3  -8 2412.57 373.298   6
  -3   3  -8 2561.24 526.249  11
  -3   3  -8 2200.96 520.500   2
   3  -3   8 2942.82 635.854   8
  -3   3  -8 2693.14 451.629   5
   3  -3   8 3452.53 791.465   9
   3  -3   9-398.364 378.714   9
  -3   3  -9 42.8569 302.877   4
  -3   3  -9 871.430 373.878   2
   3  -3   9 650.432 410.904  15
  -3   3  -9 350.314 154.387   1
   3  -3   9 279.568 230.272  13
  -3   3  -9 382.717 150.187   6
   3  -3   9 453.946 210.594   5
  -3   3  -9 825.210 347.890  11
  -3   3  -9 550.017 252.622  10
   3  -3  10 698.092 437.896   9
  -3   3 -10 452.348 307.684  11
   3  -3  10 119.654 126.567   5
  -3   3 -10 46.2370 219.646   2
   3  -3  10 938.308 540.444  15
   3  -3  10 99.1420 264.671  13
   3  -3  11 686.171 437.989   9
  -3   3 -11-99.8383 489.332   4
   3  -3  11-227.406 384.962  15
   3  -3  11-231.653 416.195  13
  -3   3 -11 36.6876 120.454  11
  -3   3 -11 166.038 303.494   2
  -3   3 -12-737.351 512.343   4
  -3   2  12-393.247 404.975   9
  -3   2  12 153.462 310.588  15
   3  -2 -12 108.811 232.942   1
   3  -2 -11-29.1388 199.652   1
  -3   2  11 297.668 536.739   9
  -3   2  11-18.1487 229.333  15
  -3   2  11-184.233 153.396   6
   3  -2 -10 306.134 343.748   1
  -3   2  10-389.906 398.209   9
   3  -2 -10 454.146 300.886   7
  -3   2  10 70.9033 213.475  15
  -3   2  10 324.428 210.478   6
   3  -2 -10 178.453 177.740   6
  -3   2   9 3689.06 767.240   9
   3  -2  -9 3622.61 569.990   1
   3  -2  -9 2933.07 536.494   7
  -3   2   9 3720.95 522.563  15
  -3   2   9 4134.01 603.919   6
   3  -2  -9 3143.10 520.938   6
  -3   2   9 4412.58 660.114  10
  -3   2   8 13283.8 1290.90   9
   3  -2  -8 12749.2 1000.54   1
   3  -2  -8 12380.2 987.119   7
  -3   2   8 12283.8 889.952  15
  -3   2   8 12418.4 964.009   6
   3  -2  -8 12547.3 961.101   6
   3  -2  -7 494.027 235.918   5
  -3   2   7 239.566 260.097   1
  -3   2   7 328.791 245.004   6
  -3   2   7 183.152 394.455   9
   3  -2  -7 227.825 239.646   1
   3  -2  -7 310.886 82.5422   8
   3  -2  -7 420.900 212.344   2
   3  -2  -7 474.217 184.082   7
   3  -2  -7 321.967 249.843  12
   3  -2  -7 281.841 230.569   6
   3  -2  -6 4855.11 302.471   8
   3  -2  -6 5088.80 584.823   1
   3  -2  -6 4381.32 469.709   7
  -3   2   6 5764.69 649.592   1
   3  -2  -6 4893.33 573.542   6
   3  -2  -6 4773.74 644.274  12
   3  -2  -6 4824.63 565.747   5
  -3   2   6 4797.91 573.474   6
   3  -2  -6 4344.27 579.358   2
   3  -2  -5 509.805 217.773   5
   3  -2  -5 249.223 239.064   1
   3  -2  -5 469.355 132.226   8
   3  -2  -5 198.596 166.037   2
   3  -2  -5 455.641 130.131   7
  -3   2   5 237.238 90.0991  13
  -3   2   5 475.555 265.724   6
   3  -2  -5 382.441 240.651   6
  -3   2   5 567.458 250.890   1
  -3   2   4 444.776 121.459  13
   3  -2  -4 546.352 202.387   5
   3  -2  -4 497.295 193.168   1
   3  -2  -4 450.518 147.284   8
   3  -2  -4 540.163 203.800   2
   3  -2  -4 608.173 127.866   7
  -3   2   4 708.927 299.726   6
  -3   2   4 570.144 199.940   1
   3  -2  -4 501.033 233.063   6
   3  -2  -4 682.529 180.532  11
   3  -2  -3 24610.3 1009.78   2
   3  -2  -3 24327.4 857.478   8
  -3   2   3 24011.7 768.367   8
   3  -2  -3 24785.2 927.523   1
  -3   2   3 25527.9 1011.45   1
  -3   2   3 24505.6 1143.08   6
  -3   2   3 22791.1 854.644  13
   3  -2  -3 24318.2 888.741  11
   3  -2  -3 24125.5 952.790   5
   3  -2  -3 23346.8 789.281   3
  -3   2   3 26157.5 1127.71   2
   3  -2  -2 98.0825 133.280  11
   3  -2  -2 125.710 123.108   1
   3  -2  -2 116.499 114.760   5
  -3   2   2 34.5602 94.6481   1
   3  -2  -2-185.955 113.900   2
   3  -2  -2 117.805 148.466   8
  -3   2   2 72.0817 92.8868   8
  -3   2   2 18.0914 145.768   2
   3  -2  -2 128.277 192.250  14
  -3   2   2 74.1709 81.3166  13
  -3   2   2-145.898 187.094  12
   3  -2  -2 85.9040 132.415  12
  -3   2   2 60.8461 161.785   6
   3  -2  -2 56.4560 145.493   3
  -3   2   1 16089.5 714.871   2
   3  -2  -1 16570.1 708.798   2
   3  -2  -1 15163.0 574.578   1
   3  -2  -1 17176.1 861.857   4
  -3   2   1 16191.4 744.324   8
  -3   2   1 15555.2 866.710   6
  -3   2   1 15352.5 603.718   1
  -3   2   1 15474.4 455.931   7
   3  -2  -1 14914.5 682.045   3
   3  -2  -1 15504.5 862.254  14
  -3   2   1 15884.9 810.091  12
  -3   2   1 16431.8 586.822   3
   3  -2  -1 14703.8 553.645   5
   3  -2  -1 14770.5 829.769  13
   3  -2  -1 17004.1 856.897  11
  -3   2   1 15066.5 807.932  13
   3  -2  -1 15726.8 797.998  12
   3  -2  -1 16081.9 816.146   8
   3  -2   0 19774.7 595.046   1
  -3   2   0 19121.7 764.386   2
   3  -2   0 19780.6 784.780   2
   3  -2   0 20811.6 995.301   4
  -3   2   0 21408.6 900.543   4
  -3   2   0 19060.8 551.890   1
  -3   2   0 19332.8 729.303   7
   3  -2   0 20947.5 841.055   3
  -3   2   0 18453.3 655.338   3
   3  -2   0 19037.2 949.216   8
  -3   2   0 20086.9 960.526   6
   3  -2   0 18900.7 992.842  13
  -3   2   0 19639.3 983.180  13
   3  -2   0 18504.7 787.516  12
   3  -2   0 19939.5 1006.97  11
  -3   2   0 20527.9 835.523  12
   3  -2   0 19441.0 1023.96  14
  -3   2  -1 680.594 192.826   7
   3  -2   1 617.291 224.788   4
   3  -2   1 477.950 286.522   8
  -3   2  -1 472.460 82.0418   1
  -3   2  -1 447.053 229.834   4
   3  -2   1 543.591 205.073   3
  -3   2  -1 669.118 182.994   3
   3  -2   1 608.345 294.690  14
   3  -2   1 522.186 156.144  12
   3  -2   1 507.353 290.405  13
  -3   2  -1 549.591 158.112  12
  -3   2  -1 419.857 257.986   6
   3  -2   1 1171.73 305.693  11
   3  -2   1 584.594 80.7977   5
  -3   2  -1 645.331 195.696   2
   3  -2   1 694.129 183.603   2
  -3   2  -2 7103.75 651.829   4
  -3   2  -2 7202.92 543.412   2
   3  -2   2 6963.64 691.903   8
   3  -2   2 6499.23 528.933   2
  -3   2  -2 6466.48 600.390   7
   3  -2   2 6716.77 583.120   3
  -3   2  -2 6804.49 584.605  10
  -3   2  -2 6664.32 527.288   3
   3  -2   2 6470.54 687.568  13
   3  -2   2 7412.19 694.410  11
  -3   2  -2 7211.60 373.137  12
   3  -2   2 6714.40 678.750  14
   3  -2   2 6638.89 270.086   5
  -3   2  -2 6891.72 615.368  14
  -3   2  -2 7192.32 572.928   6
  -3   2  -3 17401.9 1104.90   4
   3  -2   3 18149.5 1151.77   8
  -3   2  -3 20709.2 961.996   2
  -3   2  -3 19513.8 918.852   6
  -3   2  -3 19826.4 1172.25   7
  -3   2  -3 17063.8 358.492   1
   3  -2   3 18760.1 1043.03   3
   3  -2   3 19853.5 1258.61  15
  -3   2  -3 16921.0 948.422   3
   3  -2   3 17753.9 1155.63  14
   3  -2   3 19033.1 1206.79  13
  -3   2  -3 18997.3 1093.28  14
  -3   2  -3 19886.2 1104.43  11
  -3   2  -3 17553.9 571.145   5
  -3   2  -3 20090.7 974.678  10
   3  -2   3 19525.3 609.629   5
   3  -2   4 60.6914 96.3981   5
  -3   2  -4 212.949 279.887   4
   3  -2   4-209.851 255.393   8
  -3   2  -4 106.839 139.990   6
  -3   2  -4 395.857 173.868   8
  -3   2  -4 148.801 69.2597   1
  -3   2  -4 288.702 182.401   7
   3  -2   4 147.729 250.713  13
   3  -2   4-308.533 244.508  14
   3  -2   4-226.978 290.098  15
  -3   2  -4 113.078 192.852  14
  -3   2  -4-516.874 200.461   3
  -3   2  -4 159.202 177.621  13
  -3   2  -4 27.0679 229.374  11
  -3   2  -4 221.814 223.616   2
  -3   2  -4 198.214 153.534  10
  -3   2  -4 289.151 111.128   5
  -3   2  -5 6278.30 830.798   9
  -3   2  -5 5772.50 804.753   4
   3  -2   5 6122.57 775.153   8
  -3   2  -5 6536.14 684.491   8
  -3   2  -5 5716.94 619.138   2
   3  -2   5 5758.12 751.359  13
  -3   2  -5 5126.30 324.040   1
  -3   2  -5 4939.77 734.567   7
  -3   2  -5 4973.82 681.511   3
  -3   2  -5 5790.12 772.834  15
  -3   2  -5 5547.49 487.047   6
  -3   2  -5 5783.97 724.008  14
   3  -2   5 4987.35 774.444  15
  -3   2  -5 6670.83 738.899  13
  -3   2  -5 6594.20 749.825  11
  -3   2  -5 5704.93 462.280   5
  -3   2  -5 5990.37 565.671  10
   3  -2   5 5917.48 488.413   5
   3  -2   5 6349.06 811.310   9
  -3   2  -6 28300.8 1693.40  14
  -3   2  -6 27828.0 1818.09   4
   3  -2   6 27204.5 1684.68   8
  -3   2  -6 27803.5 1443.49   8
  -3   2  -6 26593.0 1430.96   2
  -3   2  -6 26686.8 843.849   1
  -3   2  -6 26044.7 1750.00   7
  -3   2  -6 27235.9 1178.89  10
  -3   2  -6 25416.5 1618.66   3
  -3   2  -6 27255.5 1690.17  15
   3  -2   6 27133.5 1751.33  15
  -3   2  -6 25749.5 974.686   6
  -3   2  -6 27480.1 1555.16  13
  -3   2  -6 25321.7 1466.56  11
  -3   2  -6 25932.1 1069.96   5
   3  -2   6 27043.3 1686.12  13
   3  -2   6 26654.5 1157.51   5
   3  -2   6 27447.3 1746.23   9
   3  -2   7 10725.6 810.497   5
  -3   2  -7 11143.5 954.046   8
  -3   2  -7 10665.1 605.130   1
  -3   2  -7 10953.0 973.409   2
  -3   2  -7 10704.3 1151.84   3
   3  -2   7 12354.8 1250.36  15
  -3   2  -7 10284.5 576.249   6
   3  -2   7 10831.8 1138.06  13
  -3   2  -7 10898.9 1022.29  11
  -3   2  -7 10320.5 745.347   5
  -3   2  -7 11274.8 771.128  10
   3  -2   7 10747.5 1211.96   9
   3  -2   8 293.979 335.505   9
  -3   2  -8-105.925 116.911   1
   3  -2   8-382.116 237.583   5
  -3   2  -8 35.0649 79.1651   6
   3  -2   8 51.1082 413.619  15
   3  -2   8-276.308 266.943  13
  -3   2  -8-89.8393 87.4610   6
  -3   2  -8 121.050 236.673  11
  -3   2  -8-201.339 219.930   2
  -3   2  -8 94.1692 111.892   5
  -3   2  -8 162.151 111.396  10
   3  -2   9-47.5965 390.116   9
   3  -2   9-36.2598 93.7804  13
  -3   2  -9-16.4163 99.7716   1
   3  -2   9-92.6866 245.791  15
  -3   2  -9-36.6327 164.640  11
  -3   2  -9-167.489 241.013   2
  -3   2  -9 14.5637 97.1272  10
   3  -2  10 138.329 202.551   9
   3  -2  10 201.269 292.655  15
  -3   2 -10 171.691 194.774  11
  -3   2 -10 37.0320 326.888   2
  -3   2 -10 327.114 210.318   1
   3  -2  11 291.719 294.724   9
  -3   2 -11 572.795 289.910  11
   3  -2  11 422.632 486.822  15
  -3   2 -11-1.57639 273.638   2
  -3   2 -12-297.539 202.145  11
   3  -2  12 286.827 238.390  15
  -3   1  13 1655.95 595.334   9
  -3   1  13 1898.47 499.376  15
   3  -1 -13 1039.45 414.209   1
  -3   1  12 275.854 203.195   6
  -3   1  12 45.8244 84.0439  15
   3  -1 -12 99.0448 260.852   1
  -3   1  11 951.649 549.202   9
  -3   1  11 1463.51 424.951  15
  -3   1  11 1511.11 401.698   6
   3  -1 -11 1114.35 427.452   1
  -3   1  10-101.573 300.943   5
  -3   1  10 265.610 396.917   9
  -3   1  10 158.890 239.315  15
   3  -1 -10 107.633 170.902   7
  -3   1  10-202.432 257.677   6
   3  -1 -10-142.094 199.895   6
   3  -1 -10 54.0832 253.946   1
  -3   1   9 1759.98 528.414   5
  -3   1   9 1565.59 567.985   9
   3  -1  -9 1679.00 427.530   7
  -3   1   9 1632.73 165.699  13
  -3   1   9 1681.68 417.313  15
  -3   1   9 2410.63 464.991   6
   3  -1  -9 1925.89 420.303   6
  -3   1   9 2128.14 477.134  10
   3  -1  -9 1890.75 471.755   1
   3  -1  -8 2772.78 504.819   1
  -3   1   8 4018.94 550.295  15
  -3   1   8 3571.32 631.899   5
  -3   1   8 2455.82 598.717   9
   3  -1  -8 2508.23 451.164   7
  -3   1   8 2867.59 242.291  13
  -3   1   8 2758.93 481.715   6
   3  -1  -8 2805.34 552.412  12
   3  -1  -8 2810.49 475.299   6
  -3   1   8 2547.23 486.397  10
  -3   1   7 1065.89 372.155   5
  -3   1   7 1463.92 464.119   9
  -3   1   7 1128.49 327.401   1
   3  -1  -7 1242.33 319.726   7
  -3   1   7 1150.89 155.564  13
   3  -1  -7 1230.10 397.228  12
   3  -1  -7 1312.52 328.949   6
  -3   1   7 1012.60 318.166   6
   3  -1  -7 1391.79 366.860   1
  -3   1   7 1684.06 416.719  10
   3  -1  -7 1577.53 342.562   5
   3  -1  -6 2225.53 401.901   1
  -3   1   6 2542.84 466.256   5
  -3   1   6 2546.29 515.362   9
   3  -1  -6 2353.09 356.570   7
   3  -1  -6 3232.55 530.339  12
  -3   1   6 2158.46 406.468   6
   3  -1  -6 2800.12 437.657   6
   3  -1  -6 2862.50 420.056   5
   3  -1  -5 18.8713 98.4352   5
  -3   1   5-11.0048 212.275   5
   3  -1  -5-119.375 66.9031   8
   3  -1  -5 105.653 179.964   6
   3  -1  -5 80.2502 132.562   2
  -3   1   5 52.6810 198.027   6
   3  -1  -5 69.4134 97.8163  11
   3  -1  -5 110.765 242.999   1
   3  -1  -4 103177. 1460.38   8
   3  -1  -4 107014. 2006.80   1
  -3   1   4 100318. 1191.55   8
   3  -1  -4 101774. 2133.74   2
   3  -1  -4 100444. 1724.63   3
   3  -1  -4 106223. 2338.74   6
   3  -1  -4 103874. 1626.95  11
   3  -1  -4 105549. 2061.52   5
  -3   1   4 106100. 2316.22   6
  -3   1   4 107602. 2212.07   5
   3  -1  -3 9033.16 558.061   1
  -3   1   3 8543.86 427.318   8
   3  -1  -3 8129.83 476.363   8
  -3   1   3 8535.70 544.559   1
   3  -1  -3 9039.26 523.769   3
   3  -1  -3 9664.08 551.415  11
  -3   1   3 8879.53 658.425   6
   3  -1  -3 8476.57 521.958   5
  -3   1   3 8587.44 563.740   5
   3  -1  -3 8335.61 529.312   2
   3  -1  -2 36756.1 947.744   2
   3  -1  -2 38452.7 1039.42   1
   3  -1  -2 36871.0 1111.11   8
   3  -1  -2 38831.1 1247.78   4
  -3   1   2 36186.7 1007.27   8
  -3   1   2 38578.2 1020.83   1
   3  -1  -2 39014.2 780.914   7
   3  -1  -2 40019.7 1299.21  12
  -3   1   2 37233.1 959.673   3
   3  -1  -2 36796.2 1203.08  14
  -3   1   2 38401.2 1031.65   2
   3  -1  -2 38648.8 1155.03  11
  -3   1   2 40147.0 1064.80  11
   3  -1  -2 37958.0 917.300   5
  -3   1   2 37845.4 975.464   5
   3  -1  -2 35183.6 1060.83   3
  -3   1   2 38435.8 1296.26   6
  -3   1   1 11979.6 498.354   2
   3  -1  -1 11006.2 469.755   2
   3  -1  -1 11213.9 705.618   4
  -3   1   1 11294.2 495.778   1
   3  -1  -1 12469.4 721.567   8
  -3   1   1 11433.8 630.438   8
   3  -1  -1 11316.6 641.329   3
   3  -1  -1 11759.0 518.854   7
  -3   1   1 12318.4 479.158   7
  -3   1   1 11322.9 713.061  13
  -3   1   1 11588.6 546.315   3
   3  -1  -1 12457.1 801.248  14
   3  -1  -1 11350.3 626.669  12
   3  -1  -1 11754.8 696.978  11
  -3   1   1 12750.4 740.047   6
   3  -1  -1 12066.8 403.400   5
  -3   1   1 11300.5 421.844   5
  -3   1   0 110010. 1391.43   1
  -3   1   0 110887. 1472.23   2
   3  -1   0 108141. 2300.38   4
   3  -1   0 110745. 2292.37   8
   3  -1   0 107571. 1499.99   2
   3  -1   0 111236. 1895.40   7
  -3   1   0 109545. 1834.22   7
   3  -1   0 107941. 2049.63   3
  -3   1   0 106063. 1813.92   3
  -3   1   0 112916. 2064.87   6
   3  -1   0 108773. 2034.35   6
   3  -1   0 112609. 1720.59  12
   3  -1   0 110080. 2286.95  11
   3  -1   0 111991. 2356.41  14
   3  -1   1 64837.6 1921.48   4
  -3   1  -1 62533.2 1226.30   2
   3  -1   1 63942.5 1877.35   8
   3  -1   1 62917.3 1304.42   2
   3  -1   1 65716.3 1680.31   7
  -3   1  -1 61908.1 1622.89   7
   3  -1   1 63905.7 1713.80   3
  -3   1  -1 64950.6 1587.24   3
   3  -1   1 61299.5 1474.10   6
   3  -1   1 62004.7 1868.83  14
   3  -1   1 63632.7 1085.12  12
   3  -1   1 59876.5 1800.23  11
  -3   1  -1 64614.8 1530.45   6
  -3   1  -2 42020.2 1629.16   4
  -3   1  -2 41491.9 1176.33   6
   3  -1   2 43087.7 1650.08   8
  -3   1  -2 42334.9 1151.86   2
   3  -1   2 41956.2 1533.48   7
  -3   1  -2 39955.8 1487.67   7
   3  -1   2 42881.4 1551.94   3
   3  -1   2 41802.2 1652.68  14
  -3   1  -2 39843.5 1416.45   3
   3  -1   2 38997.5 612.976  12
  -3   1  -2 39738.3 594.318   5
  -3   1  -2 42185.9 1613.29   9
  -3   1  -3 4848.18 607.313   9
  -3   1  -3 4349.04 612.706   4
   3  -1   3 5535.56 657.764   8
  -3   1  -3 4790.92 466.512   2
   3  -1   3 4752.80 603.876   7
  -3   1  -3 4312.71 567.958   7
   3  -1   3 5549.57 634.878   3
  -3   1  -3 4474.76 547.691   3
   3  -1   3 4672.21 622.930  14
  -3   1  -3 4818.53 396.643   6
  -3   1  -3 5249.24 357.833   1
  -3   1  -3 4782.77 297.933   5
  -3   1  -3 4586.81 396.048  10
   3  -1   3 4978.73 624.722  13
  -3   1  -4 28562.1 1544.83   9
  -3   1  -4 27516.0 1583.55   4
   3  -1   4 26957.3 1471.08   8
  -3   1  -4 27653.9 1346.48   8
  -3   1  -4 27761.6 1214.46   2
   3  -1   4 28715.7 1545.54   7
  -3   1  -4 27445.5 1518.18   7
  -3   1  -4 26243.4 1422.30   3
  -3   1  -4 28895.5 1510.55  15
  -3   1  -4 26518.6 861.638   1
   3  -1   4 26678.8 1458.49  13
  -3   1  -4 27959.7 1508.87  14
   3  -1   4 27220.2 1472.43  15
  -3   1  -4 26578.7 1410.25  11
  -3   1  -4 25370.3 817.206   5
  -3   1  -4 28123.0 962.778  10
  -3   1  -4 27834.1 878.038   6
  -3   1  -4 27174.5 1411.51  13
   3  -1   4 28723.3 1491.57   9
   3  -1   5 277.359 257.362   9
  -3   1  -5 107.095 125.438   9
  -3   1  -5 37.0754 290.327   4
  -3   1  -5 112.867 211.192   8
  -3   1  -5-196.504 243.506   7
  -3   1  -5 141.816 214.694  15
  -3   1  -5 18.2651 213.587  14
   3  -1   5-121.909 281.897  13
  -3   1  -5 24.8560 231.154  13
  -3   1  -5-40.5765 84.8451   6
  -3   1  -5 60.7785 222.644  11
   3  -1   5-446.888 271.893  15
  -3   1  -5 124.239 122.669   1
  -3   1  -5 21.7889 71.9390  10
  -3   1  -5-71.5898 171.756   3
  -3   1  -5 65.9369 195.412   2
  -3   1  -5-48.8349 77.8276   5
  -3   1  -6 20786.9 1508.01   9
   3  -1   6 19302.4 1399.19  13
  -3   1  -6 20630.6 1296.39   8
  -3   1  -6 18856.8 1190.71   2
  -3   1  -6 18889.5 1343.93  11
  -3   1  -6 20464.9 778.626  10
  -3   1  -6 20192.6 1521.09   7
  -3   1  -6 20111.5 906.440   1
  -3   1  -6 21716.4 1558.75   3
   3  -1   6 20726.3 1468.66  15
  -3   1  -6 20839.3 1433.28  15
  -3   1  -6 19084.1 588.755   6
  -3   1  -6 20543.7 1335.32  13
  -3   1  -6 20069.2 1464.94  14
  -3   1  -6 18826.4 914.936   5
   3  -1   6 20848.0 1518.15   9
   3  -1   7 3997.99 752.838   9
  -3   1  -7 4728.52 675.310   8
  -3   1  -7 4582.17 487.367   1
   3  -1   7 3709.01 719.396  15
  -3   1  -7 2921.28 635.412  11
  -3   1  -7 3583.97 468.041   5
  -3   1  -7 4431.71 657.884  13
  -3   1  -7 3979.15 345.735  10
  -3   1  -7 3624.38 613.812   2
   3  -1   8-165.687 305.340   9
  -3   1  -8 158.270 178.249   1
   3  -1   8 245.131 343.611  15
  -3   1  -8 68.3329 149.966  11
  -3   1  -8-25.4036 53.2697   5
  -3   1  -8-325.143 281.185   2
   3  -1   9 1200.79 471.163   9
  -3   1  -9 927.402 321.402   1
   3  -1   9 412.970 377.289  15
  -3   1  -9 736.655 374.960  11
  -3   1  -9 585.387 315.453   2
   3  -1  10-323.211 349.075   9
  -3   1 -10-223.120 149.571   1
   3  -1  10 126.604 199.566  15
  -3   1 -10-296.598 454.537   2
  -3   1 -10-247.697 375.924  11
   3  -1  11 2735.23 678.413  15
   3  -1  11 2189.21 732.245   9
  -3   1 -11 2578.02 475.990   1
  -3   1 -11 1140.18 490.297  11
  -3   1 -11 2804.90 715.616   2
   3  -1  12-188.806 346.280  15
  -3   1 -12-712.365 477.491  11
  -3   0  14 918.837 472.583  15
  -3   0  13-128.982 338.186   9
  -3   0  13 304.371 361.270   5
  -3   0  13-372.274 342.979  15
   3   0 -13 152.632 228.498   1
  -3   0  12 535.403 380.218   5
  -3   0  12 386.344 471.273   9
  -3   0  12 467.373 258.458  15
   3   0 -12 348.020 318.754   1
  -3   0  12 342.254 171.326   6
  -3   0  11-231.682 362.602   5
  -3   0  11 1.84745 214.892   9
  -3   0  11 72.8209 279.000  15
  -3   0  11 186.259 148.100  13
  -3   0  11-149.468 243.176   6
   3   0 -11 210.862 207.214   6
   3   0 -11-2.13146 294.292   1
  -3   0  10 1557.61 529.007   5
  -3   0  10 1339.08 596.297   9
  -3   0  10 1316.46 443.252  15
  -3   0  10 1703.06 422.823   6
  -3   0  10 1756.67 300.830  13
   3   0 -10 1649.98 381.930   6
   3   0 -10 2264.87 523.858   1
  -3   0   9 894.219 413.480   5
   3   0  -9 1226.29 401.466   1
   3   0  -9 821.976 295.217   7
  -3   0   9 1116.60 472.301   9
  -3   0   9 998.535 397.199  15
  -3   0   9 1204.50 246.150  13
   3   0  -9 1003.77 348.230   6
  -3   0   9 1130.76 368.659   6
  -3   0   9 1264.91 405.355  10
  -3   0   8 9594.07 1032.88   9
   3   0  -8 9637.26 819.203   1
  -3   0   8 10717.7 882.037   6
   3   0  -8 10622.6 875.162   6
  -3   0   8 10212.7 620.248  13
  -3   0   8 10310.0 903.285  15
   3   0  -8 9607.03 955.660  12
  -3   0   8 10072.6 988.180   5
  -3   0   8 10441.9 956.661  10
  -3   0   7 158.973 294.272   5
  -3   0   7-29.4750 254.533   9
   3   0  -7-85.9035 187.122  12
  -3   0   7 285.851 163.603   1
  -3   0   7 229.771 226.462   6
  -3   0   7 39.0814 118.255  13
   3   0  -7 67.4143 165.956   6
   3   0  -7 149.747 204.207   1
   3   0  -7 224.125 196.095   5
  -3   0   7 36.1655 142.065  10
  -3   0   6 10362.2 887.689   9
   3   0  -6 11110.4 759.295   1
   3   0  -6 11090.5 830.090   6
   3   0  -6 10856.9 462.386  11
   3   0  -6 10668.1 783.267   5
  -3   0   6 11017.0 860.021   5
  -3   0   6 11379.7 904.566  10
  -3   0   6 10686.9 814.766   6
  -3   0   5 21249.0 1130.95   9
   3   0  -5 20466.1 1070.15   6
   3   0  -5 19874.3 947.665   1
  -3   0   5 18563.7 1031.11   6
   3   0  -5 17737.6 798.341   3
   3   0  -5 19929.5 634.200  11
   3   0  -5 20582.8 981.763   5
  -3   0   5 19648.0 1025.00   5
  -3   0   5 20187.6 1135.99  10
   3   0  -4 4657.25 449.168   1
  -3   0   4 4319.91 259.897   8
   3   0  -4 4153.71 400.417   3
  -3   0   4 4164.50 506.335   6
   3   0  -4 4393.58 426.636   5
  -3   0   4 4548.28 477.392   5
   3   0  -4 4227.77 330.035  11
   3   0  -3 65829.1 1539.52   1
  -3   0   3 65508.7 1282.86   8
   3   0  -3 63405.1 1441.52   3
   3   0  -3 63235.2 1452.02  14
   3   0  -3 65101.7 1383.96   5
   3   0  -3 64245.1 1309.42  11
  -3   0   3 66763.4 1761.06   6
  -3   0   3 67887.4 1486.48   5
  -3   0   3 70490.7 1199.40  11
   3   0  -3 63120.6 1289.97   2
  -3   0   2 61213.4 1311.25   1
  -3   0   2 59120.6 1402.44   8
   3   0  -2 60923.5 1580.90   4
  -3   0   2 63706.7 1324.80  14
   3   0  -2 57100.1 1462.08   3
  -3   0   2 59472.8 1589.27   6
   3   0  -2 58028.2 1374.32  11
   3   0  -2 61829.8 1578.68  14
  -3   0   2 61540.2 1284.37  11
   3   0  -2 59293.7 1157.10   5
  -3   0   2 63268.6 1215.46   5
   3   0  -2 58812.0 936.060   2
  -3   0   1 8899.13 478.405   1
   3   0  -1 9341.23 293.158   2
   3   0  -1 9420.37 660.291   4
  -3   0   1 8851.83 603.703   8
   3   0  -1 9036.88 619.899   3
   3   0  -1 9178.74 548.662   7
   3   0  -1 9313.72 659.438  14
  -3   0   1 8501.36 555.354  11
  -3   0   1 9791.10 636.794   6
   3   0  -1 9731.79 405.932   5
  -3   0   1 9434.72 389.137   5
  -3   0   1 9285.13 305.293   2
  -3   0   0 5677.38 260.058   2
   3   0   0 5341.68 527.095   4
   3   0   0 5910.79 511.342   7
  -3   0   0 5528.46 462.443   7
   3   0   0 5713.85 532.558   3
  -3   0   0 5594.29 467.536   6
   3   0   0 5853.73 577.445  14
   3   0   0 5900.71 458.833   6
  -3   0   0 5519.44 242.040   5
   3   0   1 32780.9 1414.77   4
  -3   0  -1 35119.6 819.082   2
   3   0   1 32893.3 1398.69  14
   3   0   1 34628.0 1325.05   7
  -3   0  -1 34559.9 1266.32   7
   3   0   1 33417.4 1353.07   3
  -3   0  -1 35522.2 1057.81   6
   3   0   1 35418.0 1056.53   6
  -3   0  -1 33832.2 1214.02   9
  -3   0  -2 56466.7 1729.36   9
  -3   0  -2 61954.9 1334.09   2
   3   0   2 58941.4 2013.53  14
   3   0   2 60793.8 1943.38   7
  -3   0  -2 59462.3 1849.29   7
   3   0   2 58665.3 1960.04   3
  -3   0  -2 60871.6 1907.64  15
  -3   0  -2 59106.8 1296.06   6
   3   0   2 58820.9 1275.28   6
  -3   0  -2 60166.5 1070.16   5
  -3   0  -2 59220.5 1875.36   3
  -3   0  -3 49458.1 1766.78   9
  -3   0  -3 50843.4 1837.04  15
  -3   0  -3 50346.6 1853.30  13
   3   0   3 51598.9 1933.51   7
   3   0   3 51966.7 1980.28   3
  -3   0  -3 51457.5 1888.70   3
  -3   0  -3 49670.8 1154.35   5
  -3   0  -3 48003.6 1079.06   6
   3   0   3 48369.8 1963.94  14
   3   0   3 46877.6 1033.97   6
  -3   0  -3 52222.4 1382.73   1
  -3   0  -3 49517.2 984.017  10
   3   0   3 49706.7 1746.20   9
  -3   0  -4 22206.0 1302.26   9
  -3   0  -4 21230.3 1258.22   8
   3   0   4 22494.5 1393.55   7
   3   0   4 23617.5 1423.40   3
  -3   0  -4 22355.2 1373.97   3
  -3   0  -4 21252.7 954.065   1
  -3   0  -4 22355.8 1290.04  13
  -3   0  -4 20782.2 626.827   6
  -3   0  -4 22133.6 1270.35  15
  -3   0  -4 20988.2 858.779   5
  -3   0  -4 21121.1 544.865  10
   3   0   4 21806.2 1271.05   9
  -3   0  -5 3883.95 608.738   9
   3   0   5 3198.63 563.759   9
  -3   0  -5 3531.77 561.188   8
   3   0   5 4335.77 694.787   7
  -3   0  -5 3814.93 646.015   7
  -3   0  -5 2951.28 504.446  15
  -3   0  -5 3510.48 426.304   1
  -3   0  -5 3551.07 627.673  14
  -3   0  -5 4006.39 678.769   3
  -3   0  -5 3363.77 537.152  13
  -3   0  -5 3220.32 394.657   5
  -3   0  -6 5441.18 742.326   9
  -3   0  -6 4453.88 633.733   8
   3   0   6 6741.69 847.961   9
   3   0   6 4877.26 800.271   7
  -3   0  -6 5096.12 786.168   3
  -3   0  -6 5095.24 716.896  15
  -3   0  -6 5454.66 559.056   1
  -3   0  -6 5146.30 685.306  13
  -3   0  -6 5052.38 810.236  14
   3   0   6 4597.45 691.987  15
  -3   0  -6 5261.53 550.952   5
  -3   0  -7 2455.64 429.237   5
   3   0   7 2478.04 601.848   9
  -3   0  -7 3032.75 568.726   8
  -3   0  -7 2154.74 464.348  13
  -3   0  -7 2617.82 568.959  15
  -3   0  -7 2644.65 447.551   1
   3   0   7 1963.81 599.307  15
  -3   0  -8 337.196 277.692  13
  -3   0  -8 415.439 259.690   1
   3   0   8 335.869 204.452  15
   3   0   8-60.5038 303.306   9
  -3   0  -8 36.1176 112.865   5
   3   0   9 1775.20 636.049   9
  -3   0  -9 1076.93 330.945   1
   3   0   9 439.156 409.396  15
   3   0  10 435.484 353.824   9
  -3   0 -10 172.627 256.911   1
   3   0  10-522.970 281.995  15
   3   0  11 484.789 355.228   9
  -3   0 -11 464.410 306.786   1
  -3   0 -11 403.816 360.860  11
  -3   0 -12 63.4857 356.977  11
  -3  -1  14 1220.92 511.921  15
   3   1 -14 64.6873 320.163   1
  -3  -1  13 132.259 277.771   5
  -3  -1  13 125.918 170.451   9
  -3  -1  13 134.140 159.800  15
   3   1 -13 230.022 197.602   1
  -3  -1  12-73.1131 273.880   5
  -3  -1  12-2.05909 583.102   9
  -3  -1  12 279.532 209.407  15
   3   1 -12 255.176 339.939   1
  -3  -1  11 405.846 312.013   9
   3   1 -11 82.9787 198.162   6
  -3  -1  11 260.791 399.965  15
  -3  -1  11 409.883 233.770  13
   3   1 -11 74.7167 286.134   1
  -3  -1  11-45.2710 120.812   5
  -3  -1  10-124.968 277.912   5
  -3  -1  10 37.6497 252.266   9
  -3  -1  10-17.5799 310.298  15
  -3  -1  10 86.7933 144.893   6
  -3  -1  10 346.458 212.586  13
   3   1 -10 14.2736 200.348   6
   3   1 -10-133.114 239.733   1
  -3  -1   9 1528.92 465.805   5
  -3  -1   9 801.001 486.505   9
  -3  -1   9 692.261 397.173  15
  -3  -1   9 1002.47 380.590   6
   3   1  -9 939.930 349.352   1
  -3  -1   9 747.927 269.788  13
   3   1  -9 540.122 241.731   6
  -3  -1   9 1455.79 401.319  10
  -3  -1   8 8988.81 984.473   9
   3   1  -8 7842.92 731.371   1
  -3  -1   8 8563.58 799.273   1
  -3  -1   8 6989.88 751.852   6
   3   1  -8 8246.92 798.362   6
  -3  -1   8 8189.81 854.735  15
  -3  -1   8 7277.77 622.716  13
   3   1  -8 7953.57 336.377  11
  -3  -1   8 7783.34 882.865   5
  -3  -1   8 8170.85 872.328  10
  -3  -1   7 765.436 359.232   5
  -3  -1   7 1434.61 368.377  15
  -3  -1   7 812.933 412.654   9
  -3  -1   7 1244.66 294.564   1
   3   1  -7 1069.15 130.307  11
  -3  -1   7 1358.42 282.153  13
   3   1  -7 1176.85 329.424   6
   3   1  -7 1398.28 370.022   1
  -3  -1   7 1120.98 346.021   6
   3   1  -7 923.111 297.006   5
  -3  -1   7 1208.12 358.903  10
  -3  -1   6 17979.1 1125.66   9
   3   1  -6 16915.0 970.829   1
   3   1  -6 17041.1 843.955   3
   3   1  -6 17684.0 1045.91   6
  -3  -1   6 17716.4 1061.77   6
   3   1  -6 15471.2 446.924  11
   3   1  -6 17497.8 997.708   5
  -3  -1   6 17730.5 1129.03  10
  -3  -1   5 10.7320 180.187   9
  -3  -1   5 72.7659 158.417   6
   3   1  -5 28.3281 204.409   1
   3   1  -5 92.3850 60.9222  11
   3   1  -5 157.756 162.734   6
   3   1  -5 170.719 201.991   3
   3   1  -5 157.930 158.710   5
  -3  -1   5 307.559 204.697  10
  -3  -1   4 27959.7 1086.88   9
  -3  -1   4 26582.9 1198.74   6
   3   1  -4 26252.7 998.200   3
  -3  -1   4 26921.2 1070.02   5
  -3  -1   4 28103.0 1264.36  10
   3   1  -4 26311.2 882.559  14
   3   1  -4 25804.6 1029.79   5
  -3  -1   3 73513.1 1889.48   6
   3   1  -3 71678.2 1715.66   3
  -3  -1   3 72514.4 1191.98  11
   3   1  -3 74014.0 1598.29   5
  -3  -1   3 76733.2 1586.37   5
  -3  -1   3 75098.9 1934.42  10
   3   1  -3 71392.7 1583.75  14
   3   1  -2 32703.6 1202.61   4
   3   1  -2 28016.7 460.681   2
   3   1  -2 29996.0 1091.13  14
   3   1  -2 31389.7 1192.07   3
  -3  -1   2 29935.2 1176.06   6
  -3  -1   2 28773.6 910.385  14
  -3  -1   2 30015.6 943.203  11
  -3  -1   2 30713.9 913.355   5
  -3  -1   2 29919.6 1155.49  10
   3   1  -2 28968.2 929.356   5
   3   1  -1 51068.3 1567.47   4
   3   1  -1 54461.2 1499.67   7
   3   1  -1 50549.5 1536.46   3
   3   1  -1 51023.4 1484.81  14
  -3  -1   1 52558.3 1463.85   6
  -3  -1   1 49986.0 1353.49  14
  -3  -1   1 50698.9 1069.55   5
  -3  -1   1 50491.9 1386.20  10
   3   1   0 31031.6 1299.05   4
  -3  -1   0 33000.8 1104.58   6
   3   1   0 32681.6 1273.05   7
  -3  -1   0 33515.2 1180.84   7
   3   1   0 30564.5 1257.49  14
   3   1   0 31906.4 1061.60   6
  -3  -1   0 30865.8 1207.31  14
  -3  -1   0 32830.5 1028.14  10
   3   1   0 31994.1 1305.59   3
  -3  -1   0 31508.1 859.421   5
  -3  -1   0 31340.1 907.606   9
  -3  -1  -1 28106.2 991.434   9
   3   1   1 28453.3 1355.37   3
   3   1   1 28364.6 1345.03   4
  -3  -1  -1 28375.7 977.169   6
   3   1   1 28034.7 1294.60   7
   3   1   1 26794.7 919.677   6
  -3  -1  -1 27902.7 854.609  10
   3   1   1 28879.9 1336.02  14
  -3  -1  -2 126368. 2418.40   9
   3   1   2 128897. 2983.02   7
   3   1   2 130579. 3080.83   3
  -3  -1  -2 130347. 1918.53   6
   3   1   2 126465. 1871.88   6
  -3  -1  -2 124447. 2643.57  15
  -3  -1  -2 126286. 1527.67  10
   3   1   2 128654. 2412.21   9
   3   1   3 847.814 280.882   9
  -3  -1  -3 715.964 245.730   9
  -3  -1  -3 439.396 245.684   1
  -3  -1  -3 1028.21 337.266   8
   3   1   3 541.123 133.186   6
  -3  -1  -3 163.496 212.886  13
   3   1   3 584.501 326.291   3
  -3  -1  -3 491.442 238.089  15
   3   1   3 216.041 305.436   7
   3   1   3 432.941 141.261  12
  -3  -1  -3 683.353 153.237   6
   3   1   4 1358.70 357.273   9
  -3  -1  -4 1888.26 331.084   5
  -3  -1  -4 1466.37 373.419   9
  -3  -1  -4 2270.81 472.705   8
  -3  -1  -4 1612.72 329.708   1
   3   1   4 1616.48 433.329   7
   3   1   4 1856.77 477.467   3
  -3  -1  -4 1983.57 396.070  15
   3   1   4 1702.87 155.815   6
  -3  -1  -4 1583.18 413.270   3
   3   1   4 1543.59 206.373  12
  -3  -1  -4 1977.19 430.317  13
  -3  -1  -5 1661.32 304.037   5
   3   1   5 979.845 337.178   9
  -3  -1  -5 1793.35 427.288   9
  -3  -1  -5 1241.44 389.181   8
  -3  -1  -5 1579.73 484.670   3
   3   1   5 1507.51 465.443   7
  -3  -1  -5 1304.05 334.747   1
  -3  -1  -5 1094.95 343.749   7
  -3  -1  -5 1306.55 434.394  14
  -3  -1  -5 1284.70 337.117  13
   3   1   5 1419.87 204.721  12
  -3  -1  -5 1496.00 373.802  15
  -3  -1  -6 66.2001 128.815   5
   3   1   6-399.714 345.854   9
  -3  -1  -6 157.796 273.639   9
  -3  -1  -6 276.967 234.215   8
  -3  -1  -6 2.30179 246.771   1
   3   1   6-301.421 321.447   7
  -3  -1  -6 465.820 259.185  15
  -3  -1  -6 244.380 229.240  13
  -3  -1  -7 3792.96 552.958   5
   3   1   7 4263.34 773.350   9
  -3  -1  -7 2918.35 646.185   8
   3   1   7 4588.45 891.465   7
  -3  -1  -7 3861.93 649.470  15
  -3  -1  -7 2837.54 548.451  13
  -3  -1  -7 3404.21 526.716   1
   3   1   8-28.6000 309.933   9
  -3  -1  -8 115.807 213.624  15
  -3  -1  -8 501.196 261.694  13
  -3  -1  -8 7.41219 234.361   1
   3   1   9 1356.10 543.324   9
  -3  -1  -9 1763.96 445.780   1
   3   1  10-358.288 420.653   9
  -3  -1 -10 200.485 256.855   1
   3   1  11 408.908 408.243   9
  -3  -1 -11 204.749 201.893   1
  -3  -1 -12 913.134 342.282   1
  -3  -2  14 49.9251 339.699  15
   3   2 -14 853.152 338.748   1
  -3  -2  13 513.388 320.064   5
  -3  -2  13-489.212 353.587   9
  -3  -2  13-1013.13 557.841  15
   3   2 -13-132.202 211.971   2
   3   2 -13-16.0279 307.749   1
  -3  -2  12 148.064 237.183  13
  -3  -2  12 18.3205 169.575   5
  -3  -2  12-690.240 410.262   9
  -3  -2  12 99.0435 151.589  15
   3   2 -12-98.0139 289.814   1
  -3  -2  11 169.708 326.173   5
   3   2 -11-217.537 269.350   1
  -3  -2  11-604.481 515.439   9
  -3  -2  11-105.472 304.223  15
  -3  -2  11 259.382 250.082  13
   3   2 -10 2323.55 480.482   6
  -3  -2  10 2254.88 542.119   5
  -3  -2  10 1932.76 565.688   9
  -3  -2  10 3110.67 724.094  15
   3   2 -10 2127.63 503.063   1
  -3  -2  10 2578.06 458.887  13
  -3  -2   9-78.8286 201.183   5
  -3  -2   9 466.206 361.088   9
   3   2  -9 47.1195 290.875   1
  -3  -2   9 31.2318 366.519  15
  -3  -2   9 78.4959 219.061  13
   3   2  -9 472.655 231.786   6
   3   2  -9 34.0632 299.100   3
  -3  -2   8 9653.18 1006.55   9
   3   2  -8 9694.98 857.947   1
  -3  -2   8 8430.91 344.348   8
  -3  -2   8 9369.14 852.961   1
  -3  -2   8 9432.67 974.191  15
   3   2  -8 9404.51 747.395   3
   3   2  -8 9618.39 867.897   6
  -3  -2   8 9570.20 777.840  13
  -3  -2   8 8510.14 892.264   5
  -3  -2   8 8353.01 915.062  10
  -3  -2   8 10103.0 919.299   6
  -3  -2   7 3428.21 541.771   5
   3   2  -7 3174.31 527.450   1
  -3  -2   7 3759.80 594.232  15
  -3  -2   7 3362.41 564.371   9
  -3  -2   7 3394.76 253.634   8
  -3  -2   7 3431.07 492.681   1
   3   2  -7 3118.74 464.840   3
   3   2  -7 3740.99 553.706   6
  -3  -2   7 2518.85 468.032   6
  -3  -2   7 3717.54 479.148  13
   3   2  -7 3367.12 507.849   5
  -3  -2   7 3928.99 583.452  10
  -3  -2   6 16555.4 1051.90   9
  -3  -2   6 15837.7 940.583   1
  -3  -2   6 15657.7 529.397   8
   3   2  -6 16731.2 860.465   3
  -3  -2   6 16202.4 1059.67   6
   3   2  -6 17492.7 1073.38   6
   3   2  -6 16148.3 1001.08   5
  -3  -2   6 16448.1 1121.49  10
  -3  -2   5 22069.8 1061.55   9
   3   2  -5 24691.4 1039.26   3
   3   2  -5 22445.2 936.584   2
   3   2  -5 23598.2 803.028  14
   3   2  -5 23787.9 1200.29   6
  -3  -2   5 20210.3 1140.53   6
   3   2  -5 22278.4 1100.83   5
  -3  -2   5 22560.0 1255.17  10
  -3  -2   4 37001.3 1172.56   9
   3   2  -4 38484.7 1044.56   2
   3   2  -4 43207.8 1167.94  14
  -3  -2   4 37949.5 1493.27   6
  -3  -2   4 38332.0 665.307  11
   3   2  -4 37788.3 1363.29   5
  -3  -2   4 39130.9 1552.28  10
  -3  -2   4 38396.3 1126.61   3
   3   2  -3 21788.7 1057.93   3
   3   2  -3 23440.5 1040.55   4
   3   2  -3 16907.4 743.206  14
  -3  -2   3 16366.3 970.282   6
   3   2  -3 18208.4 580.028   2
  -3  -2   3 17226.9 652.569   9
   3   2  -3 18891.6 910.280   5
  -3  -2   3 19556.7 868.911   5
  -3  -2   3 18620.5 1029.13  10
   3   2  -2-11.0831 56.9268   2
  -3  -2   2 170.146 72.2886   9
  -3  -2   2-101.693 136.885  10
  -3  -2   2-69.0420 218.134   6
   3   2  -2 45.9068 136.735   4
   3   2  -2 81.8779 147.793  14
  -3  -2   2-174.564 125.940  14
   3   2  -2-385.863 279.777   3
  -3  -2   2 86.3504 145.038   5
   3   2  -2-1.09128 162.048  10
   3   2  -1 20468.1 1015.04   4
  -3  -2   1 22627.2 445.468   2
  -3  -2   1 23130.0 1002.75   4
  -3  -2   1 21308.4 932.376  14
   3   2  -1 23955.7 1126.48   7
   3   2  -1 21903.0 1094.09   3
   3   2  -1 21736.1 1010.75  14
  -3  -2   1 23033.2 1047.40   6
   3   2  -1 22554.5 1001.38   6
  -3  -2   1 21699.5 866.859   5
  -3  -2   1 22697.9 989.012  10
   3   2  -1 23154.1 978.969  10
   3   2  -1 22327.2 513.281   2
  -3  -2   0 2519.03 194.771   2
  -3  -2   0 2235.02 203.040   9
   3   2   0 2294.29 417.747   7
   3   2   0 2150.98 380.698   4
  -3  -2   0 1929.25 360.555   4
   3   2   0 2184.12 399.042  14
  -3  -2   0 2251.39 335.529   6
   3   2   0 2384.51 319.541   6
  -3  -2   0 2267.34 358.242  14
   3   2   0 2435.19 438.246   3
  -3  -2   0 1848.94 281.271  10
   3   2   0 2060.48 285.786  10
  -3  -2  -1 28789.9 921.558   9
  -3  -2  -1 29559.8 1379.89   4
  -3  -2  -1 30204.5 905.126   2
  -3  -2  -1 31836.1 1099.54   6
   3   2   1 31628.0 1482.99   7
   3   2   1 30822.8 1496.45   3
   3   2   1 29732.1 1047.56   6
  -3  -2  -1 31681.0 1431.12  14
  -3  -2  -1 27784.5 899.791  10
   3   2   1 31867.9 968.205   9
   3   2   2 3206.43 396.136   9
  -3  -2  -2 2788.50 358.314   9
  -3  -2  -2 3275.48 516.671   4
   3   2   2 3440.95 566.146   7
  -3  -2  -2 3293.15 520.621  14
   3   2   2 3095.08 327.033   6
   3   2   2 3564.62 613.124   3
  -3  -2  -2 3097.57 261.999  10
   3   2   3 1057.49 284.631   9
  -3  -2  -3 767.840 248.224   9
  -3  -2  -3 667.943 331.614   4
  -3  -2  -3 1062.46 273.050  15
   3   2   3 543.975 358.980   7
  -3  -2  -3 792.760 290.201   1
   3   2   3 826.370 396.444   3
   3   2   3 662.499 141.029   6
   3   2   3 610.879 210.692  12
   3   2   4 630.455 283.701   9
  -3  -2  -4 131.053 173.431   9
  -3  -2  -4 35.8301 224.754   1
  -3  -2  -4 345.949 234.237   4
  -3  -2  -4 345.983 290.474   7
   3   2   4 247.160 293.405   3
  -3  -2  -4 226.817 199.083  13
  -3  -2  -4 340.354 249.844   3
  -3  -2  -4 405.782 230.946  15
   3   2   4 242.806 93.1766   6
   3   2   4 103.162 323.991   7
   3   2   4 688.496 203.538  12
  -3  -2  -4 374.428 233.718  14
  -3  -2  -5 4911.13 668.247   9
   3   2   5 4053.77 758.050   7
  -3  -2  -5 3604.92 733.023   3
  -3  -2  -5 3651.59 704.147  14
  -3  -2  -5 4125.65 593.084   1
   3   2   5 4216.57 637.966   9
  -3  -2  -5 3993.29 617.022  13
   3   2   5 3929.90 428.965  12
  -3  -2  -5 3400.57 611.985   7
  -3  -2  -5 3756.09 532.328  15
  -3  -2  -5 4667.62 575.193   5
  -3  -2  -6-38.8940 88.9927   5
   3   2   6 183.930 243.749   9
  -3  -2  -6-197.365 224.958   9
  -3  -2  -6-176.109 311.102   8
   3   2   6-158.743 378.376   7
  -3  -2  -6 385.517 233.437  15
  -3  -2  -6 107.328 263.087   1
  -3  -2  -6 17.9859 230.369  13
   3   2   6 15.2932 127.976  12
   3   2   7 729.682 379.256   9
  -3  -2  -7 564.701 391.747   1
   3   2   7 163.351 420.594   7
  -3  -2  -7 127.818 280.220  15
  -3  -2  -7 457.880 238.821  13
   3   2   7 469.437 201.199  12
   3   2   8-143.352 232.691   9
   3   2   8 68.9548 355.170   7
  -3  -2  -8-239.001 236.233  15
  -3  -2  -8-297.696 192.523  13
  -3  -2  -8-97.0451 277.023   1
   3   2   9 439.083 420.212   9
  -3  -2  -9-125.252 202.422   1
   3   2  10 293.602 261.906   9
  -3  -2 -10 887.568 359.131   1
   3   2  11-525.661 358.487   9
  -3  -2 -11 565.107 351.040   1
  -3  -2 -12-327.124 345.479   1
  -3  -3  13-179.536 321.385   5
  -3  -3  13 530.038 350.323   9
  -3  -3  13-142.911 358.492  15
   3   3 -13-40.3003 271.061   3
   3   3 -13-56.4047 145.092   2
  -3  -3  12 73.0528 245.857   5
  -3  -3  12 316.470 338.512   9
  -3  -3  12 35.6808 251.995  15
  -3  -3  12 473.088 273.599  13
   3   3 -12 160.883 331.058   3
   3   3 -12-240.891 432.677   2
  -3  -3  11 2161.68 541.994   5
  -3  -3  11 2323.63 703.161   9
  -3  -3  11 1521.43 595.332  15
  -3  -3  11 1698.65 465.056  13
   3   3 -11 949.444 367.736   2
   3   3 -11 1651.66 457.919   3
  -3  -3  10 500.095 353.757   5
  -3  -3  10 331.706 313.352   9
  -3  -3  10 473.732 114.423   8
  -3  -3  10 562.961 417.852  15
  -3  -3  10 701.873 346.433  13
   3   3 -10 1318.61 399.088   3
   3   3 -10 489.252 296.084   2
  -3  -3   9 1003.87 354.607   5
  -3  -3   9 743.829 464.594   9
  -3  -3   9 667.779 167.053   8
  -3  -3   9 7.86726 308.111  15
   3   3  -9 264.712 197.511   6
  -3  -3   9 378.853 237.044  13
   3   3  -9 340.675 281.960   3
   3   3  -9 345.825 345.624   2
  -3  -3   8-456.335 357.931   9
  -3  -3   8 271.010 160.074   1
   3   3  -8 22.9285 111.565   9
  -3  -3   8 187.594 98.8094   8
   3   3  -8 230.390 190.379   6
  -3  -3   8 49.7380 214.591  13
   3   3  -8 23.6052 319.691   3
  -3  -3   8 13.7811 366.903  15
   3   3  -8 64.5168 227.242   2
   3   3  -8 374.340 294.928  10
  -3  -3   8 161.638 249.734   5
  -3  -3   7 866.292 324.631  13
  -3  -3   7 752.981 258.481   9
   3   3  -7 965.005 294.230   9
  -3  -3   7 878.983 205.644   8
  -3  -3   7 660.230 327.910   5
  -3  -3   7 865.626 402.015  15
   3   3  -7 727.438 271.002   6
   3   3  -7 883.989 333.808   3
   3   3  -7 681.458 344.186   5
   3   3  -7 876.208 331.707   2
  -3  -3   7 556.212 273.625  10
  -3  -3   7 822.702 277.497   1
   3   3  -7 518.257 317.587  10
  -3  -3   6-151.338 191.308   9
  -3  -3   6 117.055 283.751  15
   3   3  -6 426.437 191.729   9
   3   3  -6 202.210 115.531  14
   3   3  -6 197.430 268.188   6
  -3  -3   6 240.655 151.936   1
   3   3  -6 128.009 221.378   3
   3   3  -6 249.918 203.796   2
   3   3  -6 64.5738 152.677   5
  -3  -3   6 333.919 242.600  10
  -3  -3   6-54.3879 277.565   5
   3   3  -6-180.725 287.871  10
  -3  -3   5 13435.9 826.029   9
   3   3  -5 12461.8 725.428   9
  -3  -3   5 13758.1 861.771   1
   3   3  -5 13233.0 727.545   2
   3   3  -5 12469.8 847.680   3
   3   3  -5 13333.4 962.770   6
   3   3  -5 14712.8 615.988  14
   3   3  -5 14329.3 958.821   5
  -3  -3   5 13753.8 1041.54  10
  -3  -3   4 24.5219 136.338   9
   3   3  -4 15.5506 101.482  14
   3   3  -4 189.527 260.214   3
   3   3  -4 130.573 160.735   2
   3   3  -4-0.66772 166.533   5
  -3  -3   4 151.772 144.213   3
  -3  -3   4 36.3990 139.837  10
  -3  -3   3 63771.7 1095.83   9
   3   3  -3 67018.3 1319.67   2
   3   3  -3 72121.8 1913.48   4
   3   3  -3 70414.6 1995.29   3
  -3  -3   3 66339.0 1150.67  14
   3   3  -3 67828.4 1470.37  14
  -3  -3   3 72050.7 1871.33   5
  -3  -3   3 68665.9 2081.31  10
   3   3  -2 68861.2 1202.17   2
   3   3  -2 68890.8 1842.26   4
  -3  -3   2 69398.3 1164.28   2
   3   3  -2 67476.0 1957.70   3
   3   3  -2 68149.2 1647.72  14
  -3  -3   2 68044.5 1467.99  14
  -3  -3   2 72486.0 1838.84   5
  -3  -3   2 70491.4 1987.39  10
   3   3  -2 70285.0 1952.28  10
  -3  -3   2 74511.7 1805.88   3
  -3  -3   1 5400.12 331.740   2
   3   3  -1 5536.94 562.257   4
  -3  -3   1 5247.47 498.651   4
   3   3  -1 5677.29 633.692   7
   3   3  -1 5021.43 599.741   3
  -3  -3   1 5158.99 539.825   3
  -3  -3   1 4864.15 485.600  14
  -3  -3   1 5241.13 536.212   5
   3   3  -1 5533.02 564.034   6
  -3  -3   1 6526.89 583.951  10
   3   3  -1 5839.47 555.205  10
   3   3  -1 5683.98 389.767   2
  -3  -3   0 48205.5 1049.52   2
   3   3   0 46881.2 1702.59   4
  -3  -3   0 48635.5 1639.97   4
   3   3   0 50499.5 1900.37   7
   3   3   0 45070.3 1780.12   3
  -3  -3   0 47255.3 1686.08   3
  -3  -3   0 46805.8 1634.89  14
   3   3   0 48713.2 1542.83   6
  -3  -3   0 45569.5 1395.50  10
   3   3   0 47399.9 1425.06  10
   3   3   1 229.415 107.692   9
   3   3   1 75.2166 252.130   3
  -3  -3  -1-178.793 176.819   4
  -3  -3  -1 79.1208 88.5255   2
   3   3   1 175.577 155.634   6
   3   3   1-238.150 250.066   7
  -3  -3  -1 93.3739 140.824   3
  -3  -3  -1 19.6389 112.268  10
   3   3   1 97.4886 121.280  10
  -3  -3  -1 206.736 214.267  14
   3   3   2 50.1206 123.164   9
  -3  -3  -2 327.355 224.542   4
  -3  -3  -2 35.1828 114.270   2
   3   3   2-179.632 264.879   7
   3   3   2-167.779 130.670   6
   3   3   2 165.486 267.701   3
  -3  -3  -2-34.4923 114.753   3
  -3  -3  -2 74.6355 84.2932  10
   3   3   2-1.71401 104.357  10
  -3  -3  -2 445.054 294.917  14
   3   3   3 3703.97 498.051   9
  -3  -3  -3 3500.97 438.611   9
   3   3   3 3060.39 468.913  12
  -3  -3  -3 2808.58 563.262   4
   3   3   3 3231.98 673.360   3
  -3  -3  -3 2918.62 558.153   1
   3   3   3 2909.85 260.802  10
  -3  -3  -3 4218.81 599.502   7
   3   3   3 3519.83 657.243   7
   3   3   3 3144.50 346.449   6
  -3  -3  -3 2934.45 531.435  14
  -3  -3  -3 3601.71 567.135   3
  -3  -3  -3 3222.10 276.924  10
  -3  -3  -3 3061.72 434.182  15
  -3  -3  -3 3604.08 476.888   2
   3   3   4 812.450 323.746   9
  -3  -3  -4 1552.85 349.171   9
  -3  -3  -4 582.206 309.937   4
   3   3   4 875.113 184.250   6
  -3  -3  -4 942.763 313.191   2
   3   3   4 1287.71 549.028   3
   3   3   4 1155.46 474.332   7
  -3  -3  -4 1284.01 310.236  15
  -3  -3  -4 1255.29 388.808  14
  -3  -3  -4 567.054 264.756   3
  -3  -3  -4 1260.16 410.376   1
   3   3   4 721.640 278.334  12
  -3  -3  -4 1606.54 427.070   7
   3   3   5 7270.27 817.557   9
  -3  -3  -5 7485.62 803.650   9
  -3  -3  -5 6330.28 928.800   4
   3   3   5 7286.91 1003.10   7
  -3  -3  -5 6916.49 678.655  15
   3   3   5 6840.98 373.740   6
  -3  -3  -5 7521.19 803.531  13
   3   3   5 7178.14 665.682  12
  -3  -3  -5 7997.60 876.159   1
  -3  -3  -5 6818.12 720.576   5
  -3  -3  -5 6484.51 775.433   2
   3   3   6 307.810 298.772   9
  -3  -3  -6 229.650 234.671   9
   3   3   6 45.2805 402.186   7
  -3  -3  -6 259.016 164.427  15
  -3  -3  -6-199.789 357.854   1
  -3  -3  -6-16.4270 143.055  13
   3   3   6 197.860 243.662  12
   3   3   7 1188.06 482.570   9
  -3  -3  -7 1301.27 443.004   1
  -3  -3  -7 1039.48 331.969  15
  -3  -3  -7 1358.49 449.104  13
   3   3   7 1492.80 363.181  12
   3   3   7 1777.27 585.450   7
  -3  -3  -8-310.494 352.857   1
   3   3   8-326.329 239.995   9
   3   3   8 147.749 181.555  12
   3   3   8-760.287 450.046   7
   3   3   9 715.344 458.817   9
   3   3   9 743.336 448.336   7
  -3  -3  -9 364.612 319.324   1
   3   3  10 1050.79 607.574   9
  -3  -3 -10 1017.61 437.296   1
   3   3  11-510.173 326.966   9
  -3  -3 -11-565.212 358.858   1
  -3  -4  13 326.264 234.457   5
  -3  -4  13 2.23903 201.226   9
  -3  -4  13-444.406 429.054  15
  -3  -4  13 58.7085 96.4918  13
   3   4 -13 376.562 237.882   2
   3   4 -13 192.359 295.905   3
  -3  -4  12-110.775 190.020   5
  -3  -4  12 402.547 523.499   9
  -3  -4  12 403.377 401.538  15
  -3  -4  12-473.232 313.294  13
   3   4 -12 424.107 388.878   2
   3   4 -12 206.771 318.634   3
  -3  -4  11 1180.76 393.823   5
   3   4 -11 2173.39 534.883   2
  -3  -4  11 1550.47 568.101   9
  -3  -4  11 1420.60 520.349  15
  -3  -4  11 1629.71 454.543  13
   3   4 -11 2405.22 498.304   3
  -3  -4  10-101.762 249.250   5
  -3  -4  10-567.138 310.010   9
  -3  -4  10 64.1811 95.0341   8
  -3  -4  10 35.5344 288.270  15
   3   4 -10 85.9296 292.514   3
   3   4 -10 1.10610 168.953   2
  -3  -4  10-339.748 357.759  13
   3   4 -10-148.221 346.755  10
  -3  -4   9 37.6353 184.045   9
   3   4  -9 226.331 206.848   9
  -3  -4   9 149.262 95.1933   8
  -3  -4   9 407.614 279.848  15
  -3  -4   9 442.651 374.957  13
   3   4  -9 277.816 231.965   2
   3   4  -9 84.5445 287.693   3
   3   4  -9 424.014 275.466  10
  -3  -4   9-65.6101 259.966   5
  -3  -4   8 2492.47 559.487   9
   3   4  -8 2460.99 487.481   9
  -3  -4   8 2504.02 373.119   8
  -3  -4   8 2239.38 537.438  13
   3   4  -8 2869.51 274.416  14
  -3  -4   8 1840.28 552.664  15
   3   4  -8 2634.29 493.185   2
   3   4  -8 2674.41 481.870   3
  -3  -4   8 2071.01 459.347   5
   3   4  -8 1974.10 515.299  10
  -3  -4   7 17673.4 1216.62   9
   3   4  -7 17305.0 1090.32   9
  -3  -4   7 17509.6 1095.65   1
   3   4  -7 17206.2 1051.47   2
  -3  -4   7 17074.9 839.853   8
   3   4  -7 17389.9 591.814  14
  -3  -4   7 17645.1 1344.19  15
   3   4  -7 18196.4 1073.55   3
   3   4  -7 18358.9 1279.00   6
  -3  -4   7 18588.3 1226.26  13
  -3  -4   7 17837.4 1201.44   5
   3   4  -7 15871.0 1263.61  10
  -3  -4   6 52837.0 1864.85   9
   3   4  -6 50350.4 1662.91   9
  -3  -4   6 53983.0 1818.66   1
   3   4  -6 54085.6 1694.70   2
  -3  -4   6 55518.2 2185.02  15
   3   4  -6 51728.3 1758.69   3
   3   4  -6 53441.3 2092.84   6
   3   4  -6 51694.5 2040.08   5
  -3  -4   6 51323.2 1917.65   5
  -3  -4   6 55356.9 2268.37  10
   3   4  -6 52248.1 2184.36  10
  -3  -4   5 1609.72 306.346   9
   3   4  -5 1720.18 279.047   9
  -3  -4   5 1473.21 413.722  15
   3   4  -5 1384.04 143.212  14
   3   4  -5 1662.29 393.869   6
  -3  -4   5 1839.21 353.035   1
   3   4  -5 1481.25 291.674   2
   3   4  -5 2287.28 442.413   3
   3   4  -5 1612.37 393.431   5
  -3  -4   5 1482.78 386.207  10
  -3  -4   5 1740.76 397.952   5
   3   4  -5 1359.96 460.892  10
   3   4  -4 9418.64 504.548   9
   3   4  -4 9840.20 653.400   2
   3   4  -4 9629.19 712.321   4
  -3  -4   4 9250.73 618.049   2
   3   4  -4 9536.83 814.913   3
  -3  -4   4 9559.57 606.075   3
  -3  -4   4 9301.52 785.565   5
  -3  -4   4 9626.05 875.078  10
   3   4  -4 9587.52 886.022  10
   3   4  -3 8310.66 548.589   2
   3   4  -3 8179.86 656.845   4
  -3  -4   3 8086.99 525.896   2
   3   4  -3 7068.53 682.788   3
  -3  -4   3 7295.85 564.330   3
  -3  -4   3 7360.29 396.031  14
  -3  -4   3 7725.52 698.669   5
  -3  -4   3 8566.11 799.379  10
   3   4  -3 7330.19 741.137  10
   3   4  -2 288.243 178.981   2
   3   4  -2 315.374 182.214   4
   3   4  -2 324.277 200.922   6
  -3  -4   2 248.823 104.914  14
  -3  -4   2 123.389 170.244   3
   3   4  -2 186.817 229.993   3
   3   4  -2 162.890 228.289  10
  -3  -4   2 83.9606 124.168   2
  -3  -4   2 114.536 240.189   5
  -3  -4   2 335.757 190.149  10
  -3  -4   1 23187.4 845.982   2
   3   4  -1 21872.3 1117.74   4
  -3  -4   1 23279.2 1037.49   4
   3   4  -1 23021.7 1327.63   7
   3   4  -1 22885.5 1281.97   3
  -3  -4   1 23813.1 1168.42   3
   3   4  -1 24023.7 1251.99   6
  -3  -4   1 22883.3 1084.93  14
  -3  -4   1 22409.1 1162.60  10
   3   4  -1 22840.4 1172.63  10
   3   4  -1 23012.6 941.638   2
   3   4   0 1120.92 122.032   9
   3   4   0 1521.23 325.698   2
  -3  -4   0 776.052 295.173   4
   3   4   0 1385.45 431.379   7
  -3  -4   0 1078.48 303.293  14
  -3  -4   0 1358.78 233.825   2
   3   4   0 1110.79 351.260   3
   3   4   0 1060.24 300.510   6
  -3  -4   0 937.639 283.461   3
  -3  -4   0 1200.28 289.382  10
   3   4   0 1215.60 303.627  10
   3   4   1 13666.8 635.517   9
  -3  -4  -1 13400.7 732.756   2
  -3  -4  -1 12846.2 956.466   4
   3   4   1 14358.5 1188.87   7
   3   4   1 13863.5 1141.46   3
  -3  -4  -1 12835.6 1012.01   3
  -3  -4  -1 13131.5 1029.93  14
   3   4   1 14365.3 901.212   6
  -3  -4  -1 13563.4 825.821  10
   3   4   1 12540.1 788.283  10
  -3  -4  -2 2394.25 489.581   4
   3   4   2 2390.53 598.457   3
  -3  -4  -2 2375.75 358.954  10
   3   4   2 2689.96 567.325   7
  -3  -4  -2 2036.18 338.865   2
   3   4   2 2533.64 345.328   9
   3   4   2 2380.96 366.796   6
  -3  -4  -2 1999.30 460.619   3
  -3  -4  -2 2526.58 497.888  14
   3   4   2 2345.47 334.403  10
   3   4   3 5368.34 590.304   9
  -3  -4  -3 4576.30 713.472   4
   3   4   3 6028.87 886.157   7
   3   4   3 5348.44 816.567   3
  -3  -4  -3 5841.78 733.959   7
  -3  -4  -3 5724.05 566.936  15
  -3  -4  -3 5657.34 799.068   3
  -3  -4  -3 5493.16 783.370   1
  -3  -4  -3 6408.21 841.230  14
   3   4   3 5911.10 694.561  12
   3   4   3 6139.67 547.443   6
  -3  -4  -3 6016.82 490.435  10
   3   4   3 5188.01 434.104  10
  -3  -4  -3 5697.33 611.015   2
   3   4   4 3918.89 569.122   9
  -3  -4  -4 3537.02 676.598   4
  -3  -4  -4 3607.32 457.248  15
   3   4   4 2684.77 659.165   7
   3   4   4 3863.86 406.411   6
  -3  -4  -4 3732.12 654.494   1
   3   4   4 4129.96 602.259  12
   3   4   4 3523.71 296.367  10
  -3  -4  -4 3932.62 597.396   2
  -3  -4  -5-376.840 330.240   1
   3   4   5-5.16120 190.715   9
  -3  -4  -5-406.946 346.185   4
  -3  -4  -5 178.862 156.160   2
   3   4   5 1.54371 376.160   7
  -3  -4  -5-29.8218 79.2875  15
   3   4   5-19.4343 44.0481   6
   3   4   5 12.7433 252.962  12
   3   4   6 386.568 232.874   9
  -3  -4  -6-528.876 409.885   4
  -3  -4  -6-163.623 294.042   1
  -3  -4  -6-271.038 222.110  13
   3   4   6 248.462 444.825   7
   3   4   6 28.5587 44.3931   6
   3   4   6 17.5685 204.630  12
   3   4   6 131.461 71.2165   6
  -3  -4  -6 35.5919 156.495  15
   3   4   7-340.205 264.085   9
   3   4   7 74.6741 260.084  12
  -3  -4  -7 284.805 353.439   1
   3   4   7-37.1794 288.908   7
  -3  -4  -7-67.2933 163.945  13
   3   4   8 1969.15 619.740   9
  -3  -4  -8 1597.65 546.761   1
   3   4   8 1875.62 764.072   7
   3   4   8 2094.80 491.296  12
   3   4   9 1816.98 548.476   9
   3   4   9 310.366 394.631   7
  -3  -4  -9 907.283 467.590   1
   3   4  10 295.763 239.555   9
   3   4  10 425.575 542.709   7
  -3  -4 -10-528.574 302.501   1
  -3  -5  13-355.496 367.348  13
  -3  -5  13-398.709 300.403   9
   3   5 -13 1460.82 484.148   2
   3   5 -13 1037.51 414.092   3
  -3  -5  12-639.169 387.004   5
  -3  -5  12-793.217 367.961   9
  -3  -5  12 37.7238 240.262  13
   3   5 -12 427.713 244.814   2
   3   5 -12 399.244 334.408   3
  -3  -5  12-102.023 230.692  15
  -3  -5  11 2091.19 545.842   5
  -3  -5  11 2002.56 613.675   9
  -3  -5  11 1562.73 595.510  15
   3   5 -11 2354.03 495.285   3
  -3  -5  11 1743.54 467.557  13
   3   5 -11 2632.94 574.747   2
   3   5 -11 2595.47 660.336  10
  -3  -5  10 80.6089 183.993   9
  -3  -5  10 184.258 133.850   8
  -3  -5  10 334.598 323.242  13
  -3  -5  10 41.9894 464.307  15
   3   5 -10-143.974 207.972   2
   3   5 -10 656.021 333.843   3
   3   5 -10 663.843 423.516  10
  -3  -5  10 651.539 281.308   5
   3   5  -9 6144.01 772.411   2
   3   5  -9 4959.41 701.193   9
  -3  -5   9 6743.83 629.434   8
  -3  -5   9 6700.91 906.982  13
  -3  -5   9 6068.17 798.277   5
  -3  -5   9 5586.92 935.957  15
   3   5  -9 5673.78 698.794   3
   3   5  -9 5284.01 884.872  10
  -3  -5   9 5552.47 807.777   9
  -3  -5   8 1495.73 416.136   9
   3   5  -8 2150.70 424.167   9
  -3  -5   8 1824.32 352.975   8
  -3  -5   8 2101.74 590.402  13
  -3  -5   8 2073.47 552.378  15
   3   5  -8 1951.08 454.573   3
  -3  -5   8 1515.77 431.361   5
   3   5  -8 1658.31 548.012  10
   3   5  -8 2061.25 461.584   2
   3   5  -7 9630.26 837.879   9
   3   5  -7 11441.7 923.183   2
  -3  -5   7 11098.4 786.030   8
  -3  -5   7 9039.58 1050.51  15
   3   5  -7 9985.09 875.722   3
  -3  -5   7 11373.0 1043.68  13
  -3  -5   7 9744.11 940.059   5
   3   5  -7 10448.8 1133.48  10
  -3  -5   7 10957.2 955.858   9
   3   5  -6 8566.14 706.258   9
  -3  -5   6 8627.01 796.793   1
   3   5  -6 8484.27 776.039   2
  -3  -5   6 9358.55 1009.21  15
   3   5  -6 8641.55 840.354   3
  -3  -5   6 9220.19 787.080   9
  -3  -5   6 8918.94 374.950  11
  -3  -5   6 7763.74 839.219   5
   3   5  -6 7359.71 943.458  10
   3   5  -5 15432.6 818.883   9
   3   5  -5 17277.8 1005.46   2
   3   5  -5 17255.1 1268.20   6
   3   5  -5 17374.4 998.464   4
   3   5  -5 15716.7 1063.50   3
  -3  -5   5 16269.1 1200.33  15
  -3  -5   5 15991.6 1149.03   5
   3   5  -5 15655.6 1246.31  10
   3   5  -4 570.795 142.887   9
   3   5  -4 550.366 213.871   4
   3   5  -4 849.774 350.278  10
   3   5  -4 682.258 245.822   2
   3   5  -4 806.738 274.093   6
  -3  -5   4 634.489 348.096  15
   3   5  -4 327.303 204.793   3
  -3  -5   4 619.039 197.138   3
  -3  -5   4 762.658 329.647   5
  -3  -5   4 363.332 273.824  10
  -3  -5   4 958.611 256.314   2
   3   5  -3 262.193 72.7610   9
  -3  -5   3 5.75750 53.1468  14
   3   5  -3 75.5385 159.621   4
   3   5  -3 133.353 245.047   3
   3   5  -3 195.842 156.112   2
   3   5  -3 10.7003 89.3495   6
  -3  -5   3 319.538 178.437   3
  -3  -5   3 219.989 144.545   2
  -3  -5   3 163.327 238.217   5
  -3  -5   3 380.042 243.335  10
   3   5  -3 616.698 304.073  10
   3   5  -2 7419.89 595.561   2
   3   5  -2 6890.06 621.463   4
  -3  -5   2 7438.45 554.397  14
  -3  -5   2 7805.41 577.392   2
  -3  -5   2 7131.60 640.301   3
   3   5  -2 7824.92 774.601   3
   3   5  -2 8441.40 824.258   6
  -3  -5   2 6881.07 750.478   5
  -3  -5   2 7697.01 797.314  10
   3   5  -2 7219.12 768.055  10
  -3  -5   1 201.728 161.173   4
   3   5  -1 228.944 206.038   2
   3   5  -1 432.396 249.372   7
   3   5  -1 669.399 275.263   6
   3   5  -1 217.675 290.440   3
  -3  -5   1 232.054 153.239   2
  -3  -5   1 260.716 193.523   3
  -3  -5   1 222.807 183.482  10
  -3  -5   1 180.879 150.334  14
   3   5  -1 331.152 232.822  10
   3   5   0 1012.11 140.395   9
  -3  -5   0 908.639 264.055   4
   3   5   0 1082.68 321.197   2
   3   5   0 1137.80 431.603   7
  -3  -5   0 709.264 255.321   3
  -3  -5   0 1121.63 251.544   2
   3   5   0 1536.70 376.655   6
   3   5   0 638.269 365.570   3
  -3  -5   0 1007.50 303.467  10
  -3  -5   0 832.740 271.494  14
   3   5   0 1363.33 369.986  10
   3   5   1 145.808 67.8025   9
  -3  -5  -1-224.080 239.267   4
  -3  -5  -1-9.56081 147.071   2
  -3  -5  -1 280.696 265.988  14
   3   5   1 250.483 200.804   6
   3   5   1-400.873 382.604   7
   3   5   1 134.489 334.355   3
  -3  -5  -1 290.797 178.249   3
  -3  -5  -1 53.8101 159.268  10
   3   5   1 34.9716 168.236  10
  -3  -5  -2 1039.76 286.071   2
   3   5   2 1397.17 290.014   9
  -3  -5  -2 977.489 331.254   4
   3   5   2 566.079 373.057   7
  -3  -5  -2 642.781 278.444  14
   3   5   2 1320.15 537.087   3
   3   5   2 1028.28 275.155   6
  -3  -5  -2 758.479 289.662   3
  -3  -5  -2 1010.26 242.344  10
   3   5   2 733.549 254.308  10
  -3  -5  -3 8001.75 744.745   2
   3   5   3 8279.27 732.871   9
   3   5   3 7589.77 883.255  12
  -3  -5  -3 7618.65 1009.05  14
  -3  -5  -3 7901.10 915.747   4
   3   5   3 8222.07 1068.82   7
   3   5   3 8029.29 1036.60   3
   3   5   3 7222.73 686.585   6
  -3  -5  -3 8493.67 645.712  15
  -3  -5  -3 7931.84 982.373   1
   3   5   3 8204.02 636.505  10
   3   5   4 2894.26 519.112   9
  -3  -5  -4 1835.53 563.639   4
  -3  -5  -4 3641.75 732.607   1
  -3  -5  -4 3101.82 539.838   2
  -3  -5  -4 3420.71 407.711  15
   3   5   4 3428.44 758.835   7
   3   5   4 3434.93 448.553   6
   3   5   4 2855.97 584.134  12
   3   5   4 3312.63 381.385  10
  -3  -5  -5 1743.75 510.627   1
   3   5   5 1354.17 415.609   9
  -3  -5  -5 1357.95 526.423   4
   3   5   5 1488.30 567.030   7
  -3  -5  -5 1845.28 288.283  15
   3   5   5 1633.26 291.364   6
   3   5   5 1567.83 455.308  12
   3   5   5 1676.90 223.447  10
   3   5   6 1059.41 346.039   9
  -3  -5  -6 779.076 415.809   4
   3   5   6 667.526 269.929  12
   3   5   6 1207.14 488.882   7
  -3  -5  -6 463.334 300.630  13
  -3  -5  -6 1087.76 413.111   1
   3   5   7 554.084 327.111   9
  -3  -5  -7 197.048 342.497   4
  -3  -5  -7-6.13547 264.904   1
   3   5   7 1036.98 588.535   7
   3   5   7 874.849 370.482  12
   3   5   8 2160.56 560.617   9
  -3  -5  -8 2215.87 664.052   4
  -3  -5  -8 1845.90 578.111   1
   3   5   8 2719.27 832.776   7
   3   5   8 2202.88 514.135  12
   3   5   9-108.224 198.608   9
  -3  -5  -9-526.413 516.075   4
   3   5   9 141.035 409.024   7
   3   5  10-1173.58 570.299   9
  -3  -6  13 771.474 387.351   9
  -3  -6  13 1385.36 504.140  13
   3   6 -13-224.011 365.987   3
  -3  -6  12-145.939 459.981   9
  -3  -6  12-528.600 408.977  13
   3   6 -12 379.905 279.994   2
   3   6 -12 81.6038 261.960   3
   3   6 -12-226.696 304.240  10
  -3  -6  11 1087.21 521.594   9
  -3  -6  11 997.846 438.869  13
   3   6 -11 885.149 378.473   2
  -3  -6  11 710.797 505.802  15
   3   6 -11 586.597 340.964   3
   3   6 -11 1121.34 494.768  10
  -3  -6  11 1143.57 442.081   5
  -3  -6  10 262.411 222.731   9
  -3  -6  10-359.446 395.868  13
  -3  -6  10 98.3611 181.711   8
  -3  -6  10 335.867 368.691  15
   3   6 -10 497.394 450.036  10
   3   6 -10 577.995 342.670   2
   3   6 -10 96.2220 272.719   3
  -3  -6  10-339.155 211.598   5
  -3  -6   9-108.326 223.440   8
  -3  -6   9-44.5436 340.633  15
   3   6  -9-108.905 242.375   2
   3   6  -9 75.9554 277.412   3
  -3  -6   9-154.792 296.269  13
  -3  -6   9 6.39894 182.983   5
   3   6  -9-122.061 289.833  10
  -3  -6   9-393.267 341.721   9
   3   6  -8 3135.79 515.145   9
  -3  -6   8 3665.53 550.991   8
  -3  -6   8 3058.79 578.640   5
  -3  -6   8 4264.84 767.236  13
   3   6  -8 3092.00 572.318   2
   3   6  -8 3060.50 571.412   3
  -3  -6   8 3962.38 794.589  15
   3   6  -8 3013.70 728.277  10
   3   6  -7 616.797 220.333   9
  -3  -6   7 690.729 297.302   8
   3   6  -7 717.536 223.294   4
  -3  -6   7 626.122 499.173  15
   3   6  -7 555.347 263.475   2
   3   6  -7 987.492 322.607   3
  -3  -6   7 620.929 337.554   5
   3   6  -7 418.724 358.888  10
  -3  -6   7 453.056 103.125  11
  -3  -6   7 589.162 383.754  13
   3   6  -6 2668.12 415.381   9
   3   6  -6 2849.95 434.964   4
   3   6  -6 2741.07 490.710   2
  -3  -6   6 3351.36 685.959  15
  -3  -6   6 3505.20 649.614  13
   3   6  -6 3078.61 569.135   3
  -3  -6   6 3826.56 330.761  11
  -3  -6   6 2658.69 563.582   5
   3   6  -6 2279.84 633.358  10
   3   6  -5 11261.2 722.520   9
   3   6  -5 11580.1 923.646   2
   3   6  -5 11029.9 783.938   4
  -3  -6   5 11817.3 893.417   2
  -3  -6   5 12187.5 1144.76  15
   3   6  -5 10874.5 930.744   3
   3   6  -5 11306.8 1151.24  10
  -3  -6   5 10697.2 997.475   5
   3   6  -4 5068.23 419.568   9
   3   6  -4 5490.71 619.342   2
   3   6  -4 5282.07 673.036   3
   3   6  -4 5528.26 546.065   4
  -3  -6   4 5757.84 608.292   2
  -3  -6   4 6375.77 804.089  15
  -3  -6   4 5831.26 520.675   3
  -3  -6   4 5738.87 748.022   5
   3   6  -4 4454.22 724.206  10
   3   6  -3 8542.02 418.370   9
   3   6  -3 11087.3 842.052   2
   3   6  -3 8931.74 691.066   4
  -3  -6   3 9555.01 731.966   2
  -3  -6   3 10175.1 903.278  15
  -3  -6   3 9838.81 708.918   3
   3   6  -3 9668.18 893.523   3
  -3  -6   3 9396.94 473.092  14
  -3  -6   3 9326.44 930.172   5
   3   6  -3 8969.58 965.082  10
  -3  -6   2 211.012 166.578  14
   3   6  -2 385.684 253.171   2
   3   6  -2 620.763 330.686   3
  -3  -6   2 384.406 207.028   2
  -3  -6   2 666.390 293.739  15
  -3  -6   2 511.167 204.219   3
  -3  -6   2 207.874 303.114   5
  -3  -6   2 483.332 260.265  10
   3   6  -2 460.467 287.235  10
   3   6  -1 8384.86 341.346   9
  -3  -6   1 10663.0 774.123   2
  -3  -6   1 10764.6 702.423   4
   3   6  -1 10476.5 1089.19   7
   3   6  -1 10122.6 998.237   3
  -3  -6   1 10094.8 853.658   3
  -3  -6   1 8651.18 747.875  14
   3   6  -1 10854.6 992.350   6
  -3  -6   1 10296.2 799.268  15
  -3  -6   1 8884.73 889.826  10
   3   6  -1 9079.63 911.508  10
   3   6  -1 10237.2 848.683   2
   3   6  -1 8272.21 353.061   9
   3   6   0 1749.76 213.358   9
   3   6   0 1551.04 461.586   3
  -3  -6   0 1477.41 318.567   4
   3   6   0 1772.31 410.163   2
   3   6   0 2116.14 550.072   7
   3   6   0 1446.61 373.072   6
  -3  -6   0 1993.59 440.483  14
  -3  -6   0 2172.30 390.943   2
  -3  -6   0 1998.73 418.007   3
  -3  -6   0 2106.70 447.614  10
   3   6   0 1733.81 431.216  10
   3   6   1 681.138 165.247   9
  -3  -6  -1 531.682 224.829   2
  -3  -6  -1 966.727 294.043   4
   3   6   1 371.177 370.798   7
   3   6   1 703.552 394.600   3
   3   6   1 973.449 289.235   6
  -3  -6  -1 590.836 236.225   3
  -3  -6  -1 490.675 243.870  14
  -3  -6  -1 858.151 290.050  10
   3   6   1 1063.88 369.654   2
   3   6   1 490.599 264.826  10
   3   6   2 1358.29 284.906   9
  -3  -6  -2 1197.02 372.712   4
   3   6   2 1602.92 557.291   7
  -3  -6  -2 883.941 386.612  14
   3   6   2 1308.36 502.695   3
   3   6   2 1068.33 372.362   6
   3   6   2 1128.00 453.121  12
  -3  -6  -2 1304.44 365.869   2
  -3  -6  -2 2244.95 585.794   1
  -3  -6  -2 1404.23 357.498  10
   3   6   2 1355.98 353.759  10
   3   6   3 506.708 244.388   9
  -3  -6  -3 691.262 451.587   1
  -3  -6  -3 318.664 272.660   4
  -3  -6  -3 450.511 226.335  15
   3   6   3 1071.57 439.870   7
   3   6   3 655.011 246.085   6
   3   6   3 434.898 317.169  12
  -3  -6  -3 570.116 306.453   2
   3   6   3 449.878 244.798  10
   3   6   4 2769.70 501.071   9
  -3  -6  -4 2887.80 659.019   4
   3   6   4 4039.67 835.092   7
  -3  -6  -4 3649.69 741.457   1
   3   6   4 2928.17 516.014   6
   3   6   4 3663.78 700.237  12
   3   6   4 3839.57 462.744  10
   3   6   5 126.872 210.842   9
  -3  -6  -5-450.691 318.612   4
   3   6   5 488.381 374.180   7
   3   6   5 448.720 358.483  12
  -3  -6  -5 832.888 462.349   1
   3   6   5 579.991 186.558  10
   3   6   6 747.162 298.022   9
  -3  -6  -6 1623.81 545.344   4
  -3  -6  -6 1694.01 645.960   1
   3   6   6 921.965 467.671   7
   3   6   6 694.763 397.836  12
   3   6   7 1191.43 400.595   9
  -3  -6  -7 1663.89 549.205   4
  -3  -6  -7 707.059 419.691   1
   3   6   7 792.801 510.437   7
   3   6   7 939.227 352.172  12
   3   6   8 541.222 385.999   9
  -3  -6  -8-292.490 394.640   1
  -3  -6  -8-472.137 560.306   4
   3   6   8-1223.45 516.106   7
   3   6   8 443.872 237.123  12
   3   6   9-423.420 392.352   9
   3   7 -12 170.220 162.397   2
   3   7 -11 2328.99 576.758   3
   3   7 -11 1584.36 540.864   2
  -3  -7  11 2427.07 706.100  13
   3   7 -11 2714.17 885.624  10
  -3  -7  11 2049.11 547.607   5
  -3  -7  10 631.381 257.379   8
  -3  -7  10-132.890 307.942  13
   3   7 -10-241.396 315.127   2
  -3  -7  10 473.958 431.016  15
   3   7 -10-277.822 252.299   3
   3   7 -10-111.997 224.309  10
  -3  -7  10 77.7213 265.975   5
  -3  -7   9 663.491 316.430   8
  -3  -7   9 335.754 443.952  15
  -3  -7   9 387.170 391.517  13
   3   7  -9 328.253 185.645   2
   3   7  -9 305.414 290.448   3
  -3  -7   9 423.645 265.270   5
   3   7  -9 271.491 215.431  10
  -3  -7   8 986.940 378.720  13
  -3  -7   8 352.829 357.634  15
  -3  -7   8 428.028 305.784   8
   3   7  -8 183.025 307.004   2
   3   7  -8 231.525 252.775   3
  -3  -7   8 585.500 263.247   5
   3   7  -8-97.4589 339.836  10
   3   7  -7 7827.03 782.563   9
   3   7  -7 10555.4 1010.64   2
  -3  -7   7 10204.0 927.974   8
  -3  -7   7 9462.83 1153.12  15
   3   7  -7 10163.5 977.155   3
  -3  -7   7 10922.1 1208.06  13
  -3  -7   7 9017.20 1031.72   5
   3   7  -7 10314.5 1248.11  10
   3   7  -6 446.471 204.426   9
   3   7  -6 679.220 243.489   4
  -3  -7   6 547.693 270.810   8
  -3  -7   6 467.480 405.056  15
   3   7  -6 579.523 307.786   2
  -3  -7   6 589.294 413.400  13
   3   7  -6 691.866 256.927   3
  -3  -7   6 525.239 165.520  11
  -3  -7   6 303.075 231.835   5
   3   7  -6 842.631 355.376  10
   3   7  -5 519.638 199.890   9
   3   7  -5 621.220 210.096   4
  -3  -7   5 738.127 404.243  15
  -3  -7   5 862.357 442.087  13
   3   7  -5 547.795 268.786   3
   3   7  -5 479.554 283.666   2
  -3  -7   5 547.102 298.507   5
  -3  -7   5 413.407 230.758   2
   3   7  -5 366.440 387.792  10
   3   7  -4 215.578 113.692   9
   3   7  -4 268.039 147.907   4
  -3  -7   4-130.230 336.645  15
   3   7  -4-397.316 258.874   2
   3   7  -4 302.304 283.805   3
  -3  -7   4 156.842 195.236   2
  -3  -7   4 19.3266 128.246   3
  -3  -7   4-148.674 268.686   5
   3   7  -4-274.041 341.811  10
   3   7  -3 146.141 84.2532   9
   3   7  -3 12.0996 191.897   2
  -3  -7   3-147.626 255.935  15
   3   7  -3-52.1393 267.044   3
  -3  -7   3 296.525 196.382   2
  -3  -7   3 219.560 177.962   3
  -3  -7   3 59.8665 276.227   5
   3   7  -3 98.8051 250.734  10
  -3  -7   2 398.040 224.127   2
   3   7  -2 155.605 65.9460   9
  -3  -7   2 155.122 130.288   3
   3   7  -2 353.220 256.621   2
  -3  -7   2 156.766 249.580  15
   3   7  -2 692.120 319.899   7
  -3  -7   2 476.980 164.761  14
   3   7  -2 74.9789 244.402   3
  -3  -7   2 356.698 299.778   5
   3   7  -2 461.879 325.112  10
  -3  -7   1-59.9127 139.244  14
   3   7  -1 124.873 57.2522   9
   3   7  -1 68.0856 54.5951   9
   3   7  -1 376.916 276.655   2
  -3  -7   1 515.101 228.898  15
   3   7  -1 430.163 323.686   7
   3   7  -1-119.557 148.843   3
  -3  -7   1-52.7546 204.399   2
  -3  -7   1-7.76819 51.6884   3
   3   7  -1 29.0598 174.162  10
   3   7   0 66.5685 90.8479   9
   3   7   0-196.263 286.861   2
  -3  -7   0-113.075 139.892   4
  -3  -7   0 259.091 193.837  14
  -3  -7   0 433.130 194.370   2
   3   7   0 295.384 368.925   3
   3   7   0-196.750 162.415  10
  -3  -7   0 306.132 211.843   3
  -3  -7   0-53.0349 172.024  15
   3   7   0-10.4510 330.287   7
   3   7   1 1511.05 515.594   3
   3   7   1 2156.05 324.060   9
   3   7   1 2397.95 535.004   2
  -3  -7  -1 2091.69 438.063   4
  -3  -7  -1 2372.28 666.757   1
  -3  -7  -1 2775.20 401.990  15
  -3  -7  -1 2036.48 525.445  14
  -3  -7  -1 1916.66 411.235   2
   3   7   1 1443.54 458.980   7
  -3  -7  -1 1633.47 461.398  10
   3   7   1 1695.22 439.917  10
   3   7   2 36.8288 144.838   9
  -3  -7  -2-36.8008 96.2603   4
   3   7   2-412.077 400.361   7
  -3  -7  -2 207.285 183.378  15
  -3  -7  -2 355.834 330.223   1
   3   7   2 547.667 460.244  12
  -3  -7  -2 327.823 172.831  10
   3   7   2-223.503 234.938  10
   3   7   3 109.020 129.391   9
  -3  -7  -3 220.704 151.108   4
   3   7   3-514.372 460.415   7
   3   7   3 179.765 305.516  12
  -3  -7  -3 41.5874 247.804   1
   3   7   3 89.8748 190.940  10
   3   7   4 2352.80 467.184   9
  -3  -7  -4 2075.50 555.078   4
  -3  -7  -4 3776.85 800.727   1
   3   7   4 1977.71 683.187   7
   3   7   4 1913.06 613.180  12
   3   7   4 2060.65 431.635  10
   3   7   5 730.445 322.871   9
  -3  -7  -5 1217.15 451.834   4
   3   7   5 233.578 404.034   7
   3   7   5 33.2181 165.918  12
  -3  -7  -5 954.266 463.816   1
   3   7   6-549.977 262.167   9
  -3  -7  -6 822.657 467.561   4
   3   7   6 550.907 340.792   7
  -3  -7  -6 386.844 305.324   1
   3   7   6 717.043 382.124  12
   3   7   7 207.652 406.828   9
  -3  -7  -7-309.139 242.124   4
   3   7   7 329.173 270.592   7
   3   7   7-143.271 229.034  12
  -3  -7  -8 271.247 532.987   4
   3   7   8 43.1554 176.908  12
   3   8 -11 421.971 287.228   2
  -3  -8  10 1876.39 495.544   8
  -3  -8  10 1089.74 518.531  13
   3   8 -10 1059.73 521.314   2
  -3  -8   9 194.002 290.855   8
  -3  -8   9 955.067 542.035  15
   3   8  -9 404.410 330.436   2
  -3  -8   9 854.993 511.815  13
   3   8  -9 1506.52 564.920  10
  -3  -8   9 498.914 341.973   5
  -3  -8   8 156.138 248.010   8
  -3  -8   8 749.967 486.581  15
   3   8  -8 698.241 309.975   2
  -3  -8   8 1452.26 559.027  13
   3   8  -8 879.584 378.038   3
  -3  -8   8 755.392 320.688   5
   3   8  -8 557.084 372.968  10
  -3  -8   7-156.351 179.922   8
   3   8  -7-110.580 233.613   2
  -3  -8   7-115.804 282.086  13
   3   8  -7-12.7765 48.6274   3
  -3  -8   7-201.723 302.652  15
  -3  -8   7 759.958 332.329   5
   3   8  -7 145.848 262.165  10
  -3  -8   6 475.845 365.606   8
  -3  -8   6 56.4717 248.050  15
   3   8  -6 78.3797 230.067   2
  -3  -8   6 580.236 406.128  13
   3   8  -6 285.385 214.296   3
  -3  -8   6-50.7243 218.723   5
   3   8  -6 533.774 417.039  10
  -3  -8   5 2391.94 602.242  15
   3   8  -5 3716.31 650.286   2
   3   8  -5 3306.70 580.774   3
  -3  -8   5 3490.50 714.909  13
  -3  -8   5 3557.89 709.465   5
   3   8  -5 2874.76 715.364  10
  -3  -8   4 705.288 208.547   3
  -3  -8   4 650.049 351.030  15
   3   8  -4 633.882 263.716   3
  -3  -8   4 466.205 406.585  13
   3   8  -4 948.733 442.663   2
  -3  -8   4 827.135 384.472   5
   3   8  -4 747.305 394.897  10
   3   8  -3 5357.16 743.418   2
   3   8  -3 5482.04 787.512   3
  -3  -8   3 4051.37 693.934  15
  -3  -8   3 3656.23 464.141   3
  -3  -8   3 5036.58 817.733   5
   3   8  -3 3557.81 718.000  10
   3   8  -2 567.004 345.982   2
  -3  -8   2 472.189 334.488  15
   3   8  -2 221.129 351.727   7
   3   8  -2 974.026 399.746   3
  -3  -8   2 641.513 210.798   3
  -3  -8   2 599.240 368.015   5
   3   8  -2 792.632 415.825  10
   3   8  -1 905.857 390.517   3
   3   8  -1 538.519 128.511   9
   3   8  -1 385.679 339.179   2
  -3  -8   1 1262.99 333.406  15
   3   8  -1 933.151 427.961   7
  -3  -8   1 1180.91 319.273   3
  -3  -8   1 995.942 438.906   5
   3   8  -1 767.791 397.634  10
   3   8   0 58.8378 52.7402   9
   3   8   0-68.1999 281.632   2
  -3  -8   0-157.190 117.604   4
   3   8   0 193.460 182.027   3
  -3  -8   0-197.233 235.956  15
   3   8   0 371.413 314.710   7
  -3  -8   0 749.868 290.557  14
   3   8   0-290.539 231.120  10
   3   8   1-357.304 368.123   7
  -3  -8  -1 231.100 357.498   1
  -3  -8  -1 196.100 122.667   4
  -3  -8  -1 386.627 154.446  15
   3   8   1-285.460 356.478  12
   3   8   1-87.8794 314.503   2
   3   8   1-90.9304 266.533  10
  -3  -8  -2 603.246 404.552   1
  -3  -8  -2 696.655 275.783   4
   3   8   2 174.387 382.894   7
   3   8   2 708.780 449.709  12
   3   8   2 302.201 284.467  10
  -3  -8  -3 106.085 196.877   4
   3   8   3-36.3340 356.304   7
  -3  -8  -3 112.144 312.725   1
   3   8   3-163.750 417.535  12
   3   8   3 534.388 269.844  10
  -3  -8  -4 1678.29 573.275   1
  -3  -8  -4 1117.46 389.871   4
   3   8   4 1700.88 648.941   7
   3   8   4 1524.97 591.856  12
  -3  -8  -5 2282.86 578.253   4
   3   8   5 2638.72 821.213   7
  -3  -8  -5 2436.18 711.481   1
   3   8   5 2282.98 627.807  12
   3   8   6 390.663 312.547   7
   3   8   6-191.217 324.944  12
  -3  -8  -7 401.020 298.817   4
   3   8   7-1186.30 465.588  12
  -3  -9  10-51.6791 169.157   8
   3   9 -10 627.780 360.952   2
  -3  -9   9 1981.87 575.042   8
   3   9  -9 2575.18 635.843   2
  -3  -9   8 22.1774 286.587   8
  -3  -9   8 218.118 246.829  15
   3   9  -8 76.8444 166.355   2
  -3  -9   8 479.288 371.442   5
  -3  -9   7 1482.80 481.424   8
  -3  -9   7 1081.57 644.084  15
   3   9  -7 1162.82 389.728   2
  -3  -9   7 641.060 426.191  13
  -3  -9   7 1138.36 363.693   5
   3   9  -7 1846.80 614.467  10
  -3  -9   6 116.491 293.034   8
   3   9  -6 113.517 239.307   2
  -3  -9   6-429.974 450.633  15
  -3  -9   6-288.573 374.470  13
  -3  -9   6 448.936 311.940   5
   3   9  -6 58.9363 213.688  10
  -3  -9   5 293.714 331.221   8
  -3  -9   5 150.827 174.662  15
  -3  -9   5-187.448 353.013  13
   3   9  -5 321.072 208.595   2
  -3  -9   5-115.239 203.585   5
   3   9  -5 274.403 255.623  10
   3   9  -4 911.034 373.399   2
  -3  -9   4 237.087 216.530  15
   3   9  -4 40.4790 304.276   3
  -3  -9   4 225.390 390.901  13
  -3  -9   4-88.7998 147.706   5
   3   9  -4-437.922 329.727  10
   3   9  -3 670.175 358.128   2
  -3  -9   3 445.204 337.235  15
   3   9  -3 303.413 460.852   7
   3   9  -3-13.3135 136.202   3
  -3  -9   3 430.886 409.685  13
  -3  -9   3 332.798 271.297   5
   3   9  -3-564.862 345.603  10
   3   9  -2-302.633 268.476   2
  -3  -9   2-197.351 187.735  15
   3   9  -2 199.258 262.067   3
   3   9  -2 231.276 293.550   7
  -3  -9   2 240.761 305.800  13
  -3  -9   2-48.8092 269.576   5
   3   9  -2-180.871 348.223  10
   3   9  -1 491.401 355.522   2
  -3  -9   1 346.278 239.698  15
   3   9  -1 89.4794 160.676   3
   3   9  -1 384.875 401.868   7
  -3  -9   1 500.722 508.860   5
   3   9  -1 800.894 359.412  10
   3   9   0 493.375 294.672   2
   3   9   0-94.1028 236.974  12
   3   9   0 334.395 283.682   7
  -3  -9   0 533.368 291.333   1
   3   9   0 253.700 282.980  10
  -3  -9  -1 330.671 235.930   1
   3   9   1 205.943 200.341   7
   3   9   1 411.352 288.390  12
   3   9   1 425.050 400.371   2
   3   9   1 827.780 408.806  10
   3   9   2-698.910 470.154   7
  -3  -9  -2-544.741 432.871   1
   3   9   2 434.383 530.098  12
   3   9   2 485.236 249.250  10
  -3  -9  -3 151.832 329.839   1
   3   9   3 229.654 286.828  12
   3   9   4 2021.38 672.412   7
   3   9   4 1174.32 568.368  12
  -3 -10   8-131.584 235.830   8
   3  10  -8 95.0929 114.188   2
  -3 -10   7 305.439 235.760   8
  -3 -10   7-576.476 392.206  15
   3  10  -7-324.039 247.619   2
  -3 -10   6 357.612 376.750   8
  -3 -10   6 280.910 349.065  15
   3  10  -6 551.653 396.845   2
  -3 -10   5 987.327 363.919   8
   3  10  -5 515.470 195.026   2
  -3 -10   5-243.431 424.788  15
   3  10  -5 268.324 385.379  10
  -3 -10   4 345.066 300.063  15
  -3 -10   4 386.240 348.647  13
  -3 -10   4 850.370 390.337   5
   3  10  -4 456.073 291.704  10
   3  10  -4-100.708 159.933   2
   3  10  -3 475.643 304.539   2
  -3 -10   3-347.639 410.750  15
  -3 -10   3 372.090 254.889  13
   3  10  -3 195.411 340.207   7
  -3 -10   3 191.734 261.303   5
   3  10  -3-249.019 354.997  10
   3  10  -2-94.8944 248.341   2
   3  10  -2-222.674 236.141   7
  -3 -10   2-536.985 331.551   5
  -3 -10   2 298.545 241.852  13
   3  10  -2-139.401 226.691  10
   3  10  -1-916.390 461.955   7
   3  10  -1 486.034 329.020   2
  -3 -10   1 763.369 414.157   1
  -3 -10   1-276.111 299.087  13
   3  10  -1 28.3985 150.413  12
   3  10  -1-342.360 284.580  10
   3  10   0 649.531 445.140   2
   3  10   0 719.022 395.008   7
  -3 -10   0 674.018 436.615  13
  -3 -10   0-238.494 334.060   1
   3  10   0 921.465 456.517  10
   3  10   1 880.488 549.105   7
  -3 -10  -1 1218.86 438.813  13
   3  10   1 1570.40 474.863  10
   3  10   2-62.4211 272.491   7
  -3 -10  -2 668.492 307.029  13
   3  11  -5-922.738 465.965   2
   3  11  -4 833.167 385.515   2
   3  11  -3 1.88872 133.065   2
   3  11  -2-653.404 345.037   2
   3  11  -1 558.720 405.242   2
   4 -10  -5 421.466 270.035   1
   4 -10  -4 196.972 202.829   8
   4 -10  -4 870.881 425.959  14
   4 -10  -4 367.738 252.017   1
   4 -10  -3 590.709 362.395   1
   4 -10  -3 658.066 371.024   8
   4 -10  -3 145.074 173.230  14
   4 -10  -2-303.969 362.331  14
   4 -10  -2 281.639 299.235   8
   4 -10  -1 182.271 367.466   8
   4 -10  -1 310.023 254.691  13
  -4  10   1 329.433 371.633  12
   4 -10  -1-55.3815 126.943  14
   4 -10   0-137.175 328.513  14
   4 -10   0 175.719 355.250  13
  -4  10   0-307.413 290.774  12
   4 -10   0-96.5262 194.394   5
   4 -10   1 497.801 273.232  14
   4 -10   1 1.93394 229.985  13
  -4  10  -1-1.88343 249.455  12
   4 -10   1-41.9343 260.387   5
   4 -10   2 1064.94 487.431  13
   4 -10   2 1244.08 381.497   5
  -4  10  -2 142.785 362.426  12
   4 -10   3 1028.84 468.030  13
  -4  10  -3 35.2413 283.070  12
  -4  10  -4 661.948 477.774  12
  -4   9   7-478.533 327.113   6
  -4   9   7-618.803 357.095  10
   4  -9  -6 1017.52 352.523   8
   4  -9  -6 1124.81 389.120   1
  -4   9   6 831.121 405.927  10
   4  -9  -5-232.102 304.116   8
   4  -9  -5 436.739 216.571   1
  -4   9   5 488.859 367.229   6
  -4   9   5 201.810 262.912  10
  -4   9   4-255.360 296.255  12
  -4   9   4-924.161 500.063   2
   4  -9  -4 187.301 263.602   8
   4  -9  -4-385.218 275.796   1
   4  -9  -4 187.771 369.912  14
  -4   9   4-188.908 181.126   6
  -4   9   4 516.765 433.680  10
   4  -9  -3 282.806 288.196   8
  -4   9   3 271.553 412.212   2
   4  -9  -3 464.893 337.227  14
   4  -9  -3 557.326 241.415  13
   4  -9  -3 716.132 259.657   1
  -4   9   3 850.162 401.596   6
  -4   9   3 743.047 396.489  12
  -4   9   3-35.9157 237.405  10
   4  -9  -2 5343.41 813.795   8
   4  -9  -2 5072.80 810.026  14
   4  -9  -2 4435.87 616.798   1
  -4   9   2 5895.75 980.330   2
   4  -9  -2 3799.52 771.980  13
  -4   9   2 4011.88 849.772  12
  -4   9   2 5768.12 957.139   6
  -4   9   2 3709.47 809.818  10
   4  -9  -1 842.473 290.822   1
   4  -9  -1 104.169 219.131   8
  -4   9   1-18.3708 342.553   2
   4  -9  -1 531.230 301.335  13
  -4   9   1 388.773 329.422  12
  -4   9   1 166.327 322.581   6
   4  -9  -1-375.307 368.946  14
  -4   9   1 1064.12 565.009  10
   4  -9   0 2217.40 581.961   8
  -4   9   0 2654.26 696.309   2
   4  -9   0 1596.28 594.894  14
   4  -9   0 1904.68 522.343  13
  -4   9   0 2760.44 680.547  12
  -4   9   0 1203.37 478.597   6
  -4   9   0 2442.42 675.620  10
  -4   9  -1-341.398 342.230  12
   4  -9   1-361.865 349.559   8
   4  -9   1-428.698 232.270  14
  -4   9  -1 425.750 484.677   2
   4  -9   1-277.736 332.611  13
  -4   9  -1-805.412 549.608   6
   4  -9   1-2.50044 234.177   5
  -4   9  -1-159.744 474.056  10
   4  -9   2 11.4966 223.044  14
   4  -9   2 624.910 408.020   8
  -4   9  -2 320.031 347.744   2
   4  -9   2 578.001 409.280  13
  -4   9  -2-69.3023 314.995  12
  -4   9  -2-140.151 323.374   6
   4  -9   2 310.131 178.174   5
  -4   9  -2 399.346 424.700  10
   4  -9   3 249.305 242.801  14
   4  -9   3-365.790 328.272   8
  -4   9  -3-329.092 362.960   2
   4  -9   3 783.616 478.258  13
  -4   9  -3 156.689 348.422  12
   4  -9   3 210.668 166.167   5
  -4   9  -3 250.195 599.478  10
   4  -9   4 170.057 210.573   8
   4  -9   4 883.915 475.553  15
  -4   9  -4-129.354 421.922   2
   4  -9   4 347.521 343.727  13
  -4   9  -4 172.958 354.429  12
  -4   9  -4-369.405 426.782  10
   4  -9   4 403.604 223.786   5
   4  -9   5-57.9141 143.985   8
   4  -9   5 410.775 334.484  15
   4  -9   5 425.971 525.387  13
  -4   9  -5 516.731 357.957  12
  -4   9  -5-31.9089 430.844  10
   4  -9   6 432.863 522.016  15
  -4   9  -6 204.956 347.119  10
  -4   8   9 1008.10 564.646   6
  -4   8   9-932.940 432.400  10
  -4   8   8 998.289 387.296   6
  -4   8   8-485.272 287.592  10
   4  -8  -7 1415.39 370.589   8
   4  -8  -7 1876.94 539.110   1
  -4   8   7 1355.62 494.405   6
  -4   8   7 360.340 347.856  10
   4  -8  -6 2442.60 579.932   8
   4  -8  -6 2638.54 571.397   1
  -4   8   6 1606.74 568.007   6
  -4   8   6 3088.57 843.035  12
  -4   8   6 2045.72 596.662  10
   4  -8  -6 2791.49 414.407   3
  -4   8   5-531.338 456.596   2
   4  -8  -5-242.718 244.653   8
   4  -8  -5 429.017 270.120   1
  -4   8   5 397.554 367.910  12
  -4   8   5 283.934 501.193   6
  -4   8   5 394.272 265.393  10
   4  -8  -5 199.760 121.644   3
  -4   8   4 579.527 330.997   6
  -4   8   4 1097.25 523.388   2
   4  -8  -4 871.739 425.847   8
   4  -8  -4 1482.93 424.405   1
   4  -8  -4 1455.64 372.229  13
  -4   8   4 1020.60 569.201  12
  -4   8   4 1305.40 461.017  10
   4  -8  -4 948.001 232.818   3
   4  -8  -3 138.865 283.252   8
  -4   8   3 465.317 396.389   2
   4  -8  -3 448.719 245.129   1
   4  -8  -3 500.819 354.446  14
  -4   8   3-680.836 499.149  12
  -4   8   3 185.463 436.488   6
   4  -8  -3 143.620 151.692  13
  -4   8   3-1.76952 367.855  10
   4  -8  -2 179.139 295.804   8
  -4   8   2 241.098 320.440   2
   4  -8  -2 418.616 226.425   1
   4  -8  -2 306.343 288.722  14
   4  -8  -2 367.885 250.019  13
  -4   8   2 503.504 448.906  12
  -4   8   2 914.574 503.754   6
  -4   8   2 398.155 239.849  10
   4  -8  -1 203.011 330.203   8
  -4   8   1 78.6136 402.249   2
   4  -8  -1-62.6505 162.124   1
  -4   8   1 397.589 194.845   7
   4  -8  -1-109.530 296.903  14
   4  -8  -1 83.5589 279.940  13
  -4   8   1-6.08987 376.882  12
  -4   8   1-214.388 312.346   6
  -4   8   1-177.112 274.763  10
   4  -8   0 182.491 230.270   8
   4  -8   0-434.659 404.348  14
   4  -8   0 299.243 194.052   1
  -4   8   0 107.628 328.155   2
   4  -8   0 95.3140 336.962  13
  -4   8   0-30.6157 321.777   6
  -4   8   0-139.527 373.748  12
  -4   8   0 194.716 263.437  10
   4  -8   1-412.258 307.583  14
   4  -8   1-70.7741 283.381   8
   4  -8   1 158.342 118.928   1
  -4   8  -1 134.659 343.870   2
   4  -8   1-130.262 306.680  13
  -4   8  -1-450.860 386.447   6
  -4   8  -1-381.327 336.593  12
   4  -8   1-165.881 191.366   5
  -4   8  -1 47.1919 265.493  10
   4  -8   2 1528.36 483.819   8
  -4   8  -2 887.680 451.603   2
   4  -8   2 1736.22 474.394  14
   4  -8   2 1522.08 631.920  13
  -4   8  -2 938.364 444.422  12
   4  -8   2 1220.57 324.475   5
  -4   8  -2 779.709 371.182  10
   4  -8   3 888.115 423.272   8
  -4   8  -3 678.407 429.365   2
   4  -8   3 858.831 337.482  14
   4  -8   3 1284.78 544.392  13
  -4   8  -3 667.666 404.596  12
   4  -8   3 742.968 287.097   5
  -4   8  -3 642.433 492.770  10
  -4   8  -4 820.230 362.003  12
   4  -8   4-6.25272 263.654   8
   4  -8   4 333.947 329.855  14
  -4   8  -4 872.288 458.377   2
   4  -8   4 618.690 375.210  13
   4  -8   4 621.073 451.660  15
  -4   8  -4 894.562 526.206  10
   4  -8   4 376.187 255.916   5
  -4   8  -5 247.488 220.928  12
   4  -8   5-85.0876 232.189   8
   4  -8   5 652.073 418.377  15
   4  -8   5 222.452 265.463  14
  -4   8  -5 402.253 332.090   2
   4  -8   5 322.885 372.945  13
  -4   8  -5-213.395 441.241  10
   4  -8   5-157.968 201.460   5
   4  -8   6 101.343 345.250   8
   4  -8   6-359.698 354.865  15
   4  -8   6-328.143 348.555  13
  -4   8  -6 57.1959 264.831   2
  -4   8  -6 264.007 412.764  10
   4  -8   7 286.087 435.233   8
   4  -8   7-493.602 412.500  15
  -4   8  -7 9.66177 203.308  10
  -4   8  -8 1162.58 502.487   6
  -4   8  -8 193.582 303.788  10
  -4   8  -9-260.962 266.637  10
  -4   7  10-257.861 470.845  10
  -4   7   9 410.012 331.254   6
  -4   7   9 31.8464 340.332  10
   4  -7  -8 4675.35 783.078   1
  -4   7   8 4306.96 896.762  12
  -4   7   8 4187.84 753.219   6
  -4   7   8 3586.61 790.522  10
   4  -7  -7 2278.70 482.284   8
   4  -7  -7 2424.19 609.187   1
  -4   7   7 3252.00 724.615  12
  -4   7   7 2579.94 602.691   6
  -4   7   7 1746.08 542.487  10
   4  -7  -6 490.507 311.184   8
   4  -7  -6 530.291 341.419   1
  -4   7   6 498.460 442.445  12
  -4   7   6 502.229 303.662   6
  -4   7   6 145.631 184.856  10
  -4   7   5-210.708 422.447   2
   4  -7  -5 338.931 250.544   8
  -4   7   5-76.8574 275.071  12
   4  -7  -5 130.745 235.200   1
  -4   7   5 113.144 284.404   6
  -4   7   5 351.900 239.480  10
   4  -7  -5 422.874 208.617   3
   4  -7  -4 6496.50 761.389   8
   4  -7  -4 6601.97 760.700   1
   4  -7  -4 6782.53 535.651   3
  -4   7   4 6276.89 936.164   6
   4  -7  -4 6795.96 723.597  13
  -4   7   4 7158.22 1018.17  12
  -4   7   4 7391.26 1039.08  10
  -4   7   4 6968.88 989.689   2
   4  -7  -3 1291.44 380.027   8
  -4   7   3 829.634 473.796   2
   4  -7  -3 708.070 290.345   4
   4  -7  -3 954.057 317.406   1
  -4   7   3 1321.61 333.657  15
   4  -7  -3 1064.72 421.636  14
   4  -7  -3 688.469 248.768  13
  -4   7   3 1736.99 538.162  12
  -4   7   3 1007.55 411.432   6
   4  -7  -3 804.297 231.979   3
  -4   7   3 765.306 402.578  10
   4  -7  -2 6027.53 466.735   3
   4  -7  -2 5793.70 639.390   4
   4  -7  -2 5940.87 743.603   8
   4  -7  -2 6312.82 637.910   1
  -4   7   2 5503.97 408.842   7
  -4   7   2 4475.08 618.975  15
   4  -7  -2 6581.87 833.323  14
   4  -7  -2 5771.49 742.174  13
  -4   7   2 5925.85 921.477   6
  -4   7   2 5301.37 831.402  12
  -4   7   2 5155.84 870.710  10
  -4   7   2 6698.11 912.590   2
   4  -7  -1-87.6828 334.044  14
   4  -7  -1 228.150 136.403   4
   4  -7  -1 264.724 256.284   8
   4  -7  -1 320.256 206.144   1
  -4   7   1-38.8744 320.315   2
  -4   7   1 676.611 277.890  15
   4  -7  -1 251.811 93.2951   3
   4  -7  -1 568.133 333.976  13
  -4   7   1 378.616 184.487  13
  -4   7   1 263.866 147.334   7
  -4   7   1 340.931 298.495  12
   4  -7  -1 225.124 86.8301   3
  -4   7   1 159.288 356.457   6
  -4   7   1 151.609 244.448  10
  -4   7   0 4547.51 731.090   2
   4  -7   0 5534.36 591.755   4
   4  -7   0 6146.54 808.300   8
   4  -7   0 5152.87 473.908   1
  -4   7   0 5346.05 722.593  15
   4  -7   0 4562.23 716.570  14
   4  -7   0 4628.66 759.582  13
  -4   7   0 5426.61 805.709  12
  -4   7   0 5824.11 922.921   6
  -4   7   0 6014.73 935.912  10
   4  -7   1 245.603 117.700   1
   4  -7   1 502.856 450.000   8
   4  -7   1 718.801 383.231  14
   4  -7   1 671.170 382.488  13
  -4   7  -1 56.0396 227.114  12
  -4   7  -1 458.210 450.117   6
  -4   7  -1 577.442 393.537   2
   4  -7   1 167.174 251.506   5
  -4   7  -1 313.757 335.695  10
   4  -7   2-73.8401 380.183   8
  -4   7  -2 207.716 291.348   2
   4  -7   2 553.544 295.044  14
   4  -7   2 306.502 364.926  13
  -4   7  -2 183.085 274.981  12
  -4   7  -2 1079.50 497.448   6
   4  -7   2 543.532 210.518   5
  -4   7  -2 470.478 377.852  10
   4  -7   2 261.336 74.5662   1
   4  -7   3 1734.47 534.413   8
  -4   7  -3 1097.84 360.829   7
   4  -7   3 955.790 584.671  15
   4  -7   3 655.079 287.893  14
  -4   7  -3 1569.53 489.072   2
   4  -7   3 1335.65 493.592  13
  -4   7  -3 1124.21 443.931  12
  -4   7  -3 1743.56 599.817  10
   4  -7   3 2112.62 399.309   5
   4  -7   4 1345.05 472.041   8
   4  -7   4 1535.72 407.152  14
  -4   7  -4 1199.46 410.988   2
   4  -7   4 1461.22 518.611  13
  -4   7  -4 2440.68 504.841  12
   4  -7   4 1777.05 625.480  15
  -4   7  -4 1503.30 530.898  10
   4  -7   4 1465.33 327.957   5
   4  -7   5 4.71498 344.373   8
  -4   7  -5-127.217 193.579   4
   4  -7   5 54.0055 357.077  15
  -4   7  -5 278.976 278.946  12
   4  -7   5-45.8421 111.752  14
  -4   7  -5 262.431 359.167   2
  -4   7  -5-484.762 392.353  10
   4  -7   5 16.4437 203.523  13
   4  -7   5-274.672 145.469   5
   4  -7   6 1190.14 452.321   8
  -4   7  -6 1649.45 386.938   4
   4  -7   6 1051.21 480.625  15
   4  -7   6 1323.47 478.501  14
   4  -7   6 401.675 288.045  13
  -4   7  -6 933.419 476.393   2
  -4   7  -6 1133.62 312.895  12
  -4   7  -6 580.305 464.221  10
   4  -7   6 594.100 234.384   5
   4  -7   7 5205.14 969.659   8
   4  -7   7 3287.68 867.515  13
  -4   7  -7 4567.42 828.295   2
   4  -7   7 4775.14 1030.27  15
  -4   7  -7 3453.07 658.774   6
  -4   7  -7 4873.90 834.406  10
   4  -7   8 1788.06 585.939   8
   4  -7   8 1389.22 553.706  13
   4  -7   8 3477.86 952.313  15
  -4   7  -8 1973.28 660.662   2
  -4   7  -8 2366.41 612.292   6
  -4   7  -8 2198.39 649.187  10
   4  -7   9-155.897 218.061   8
  -4   7  -9-548.253 346.862  10
  -4   6  10-120.720 177.444   6
  -4   6   9 86.1914 375.280   9
   4  -6  -9-258.859 235.151   1
  -4   6   9 625.126 419.812   6
   4  -6  -8 963.891 436.295   1
   4  -6  -8 1483.61 326.926   8
  -4   6   8 1620.06 435.049   6
   4  -6  -7 278.557 249.854   8
   4  -6  -7 431.269 365.327   1
  -4   6   7 1132.01 472.759  12
  -4   6   7 301.447 330.286   6
  -4   6   6 1653.55 570.942  12
   4  -6  -6 2233.57 442.172   8
   4  -6  -6 3010.64 607.679   1
  -4   6   6 3021.03 622.849   6
   4  -6  -5 3974.15 549.061   8
   4  -6  -5 4336.53 635.027   1
  -4   6   5 3482.55 451.919  15
   4  -6  -5 4070.11 464.351   3
  -4   6   5 4137.43 771.749  12
  -4   6   5 3518.12 713.528   6
  -4   6   5 4019.35 844.554   2
   4  -6  -4 4909.41 625.102   8
  -4   6   4 4990.75 846.284   2
   4  -6  -4 5159.48 616.843   1
  -4   6   4 4910.72 551.707  15
   4  -6  -4 5555.12 490.601   3
   4  -6  -4 4641.49 572.643  13
  -4   6   4 5701.53 859.130  12
  -4   6   4 4290.06 722.041   6
  -4   6   4 4939.51 804.992  10
  -4   6   3 454.218 361.579  12
   4  -6  -3 863.184 341.157   8
  -4   6   3 473.962 389.750   2
   4  -6  -3 755.144 311.561   4
   4  -6  -3 533.907 262.267   1
  -4   6   3 449.579 179.781  15
   4  -6  -3 466.170 274.520  13
   4  -6  -3 1136.42 368.655  14
  -4   6   3 708.502 247.431  13
  -4   6   3 474.439 271.118   1
  -4   6   3 731.305 444.784   6
   4  -6  -3 806.008 230.305   3
  -4   6   3 335.398 340.388  10
   4  -6  -2 953.543 355.023  13
   4  -6  -2 720.060 302.939   8
   4  -6  -2 1112.96 322.216   4
   4  -6  -2 752.781 258.003   1
  -4   6   2 862.448 376.071   2
  -4   6   2 855.854 317.798  15
  -4   6   2 822.588 126.236   7
   4  -6  -2 1082.90 387.836  14
  -4   6   2 860.994 264.136  13
  -4   6   2 1180.14 508.160  12
  -4   6   2 489.251 332.540   6
  -4   6   2 726.271 290.239   1
   4  -6  -2 1141.77 225.474   3
  -4   6   2 865.836 414.292  10
   4  -6  -1 292.225 173.555   4
   4  -6  -1 194.450 287.349   8
   4  -6  -1 602.524 217.730   1
  -4   6   1 362.361 134.235   7
  -4   6   1 295.700 295.950   2
  -4   6   1 240.665 162.823  15
   4  -6  -1 380.272 284.511  13
  -4   6   1-55.1171 165.984  13
  -4   6   1 57.2267 334.507  12
  -4   6   1 72.4532 291.677   6
   4  -6  -1 73.9601 123.755   3
   4  -6  -1 588.703 377.195  14
  -4   6   1-12.0579 144.180  10
  -4   6   0 3594.18 621.344   2
   4  -6   0 3576.82 496.247   4
   4  -6   0 3270.54 576.640   8
   4  -6   0 3308.18 350.593   1
  -4   6   0 3317.41 420.489   7
   4  -6   0 2672.55 227.465   3
  -4   6   0 3155.37 567.118  15
   4  -6   0 2784.32 581.785  14
   4  -6   0 2833.43 557.783  13
  -4   6   0 3523.52 538.373  13
  -4   6   0 2113.76 503.936  12
  -4   6   0 2764.83 634.048   6
  -4   6   0 3052.11 687.310  10
  -4   6  -1 4924.57 707.847   2
   4  -6   1 4209.15 560.129   4
   4  -6   1 4398.99 701.305   8
   4  -6   1 4719.43 321.942   1
  -4   6  -1 5286.85 605.946   7
  -4   6  -1 4825.39 791.692  10
  -4   6  -1 4671.63 691.014  15
   4  -6   1 5078.75 756.918  14
   4  -6   1 4552.10 538.398   5
  -4   6  -1 4675.31 666.777  12
  -4   6  -1 4017.64 715.564   6
   4  -6   1 5182.68 750.787  13
   4  -6   2 266.507 258.143  14
   4  -6   2 116.342 278.730   8
  -4   6  -2-232.446 213.023   7
  -4   6  -2 126.324 306.776   2
   4  -6   2 127.081 223.641  13
  -4   6  -2 272.805 241.072  12
  -4   6  -2 124.034 351.970   6
   4  -6   2 253.271 182.158   5
  -4   6  -2-101.040 329.583  10
  -4   6  -3 6888.00 794.412   2
  -4   6  -3 7202.21 616.177   4
   4  -6   3 6818.25 874.867   8
  -4   6  -3 6913.67 810.396   7
   4  -6   3 7791.98 1056.09  15
   4  -6   3 6953.34 898.727  14
   4  -6   3 7545.72 981.932  13
  -4   6  -3 6736.31 907.490   6
  -4   6  -3 7387.25 781.440  12
   4  -6   3 7401.38 625.754   5
  -4   6  -3 7084.55 976.373  10
   4  -6   4 2672.47 637.806   8
  -4   6  -4 2452.68 437.369   4
  -4   6  -4 2332.36 529.434   7
   4  -6   4 1875.65 652.801  15
   4  -6   4 2124.40 541.568  14
  -4   6  -4 2529.84 554.774   2
   4  -6   4 1881.40 646.687  13
  -4   6  -4 2243.40 438.922  12
  -4   6  -4 2389.59 565.836   6
  -4   6  -4 1876.52 564.184  10
   4  -6   4 2196.87 376.920   5
   4  -6   5 141.153 299.126   8
  -4   6  -5-156.343 251.595   4
   4  -6   5 567.913 405.931  15
   4  -6   5-80.8628 122.221  14
  -4   6  -5-155.796 192.219  14
   4  -6   5-351.964 231.289  13
  -4   6  -5 54.7475 211.109   2
  -4   6  -5-3.51640 145.451  12
  -4   6  -5-93.0344 259.168   6
  -4   6  -5 345.159 249.107  11
  -4   6  -5-107.192 264.867  10
   4  -6   5 63.1090 71.3996   5
   4  -6   6 1631.47 503.462   8
  -4   6  -6 1687.15 470.837   4
   4  -6   6 2518.35 797.515  15
   4  -6   6 1990.88 533.886  14
   4  -6   6 1958.48 605.280  13
  -4   6  -6 1923.81 546.643   2
  -4   6  -6 1863.48 347.754  12
  -4   6  -6 1631.77 494.461   6
  -4   6  -6 2284.91 468.057  11
  -4   6  -6 2260.40 587.070  10
   4  -6   6 1993.84 369.745   5
   4  -6   7 832.330 267.984   5
   4  -6   7 1286.19 485.826   8
  -4   6  -7 1327.48 433.828   4
   4  -6   7 951.865 479.235  13
  -4   6  -7 779.951 419.561   2
  -4   6  -7 475.109 304.515   6
   4  -6   7 768.155 508.871  15
  -4   6  -7 540.659 329.139  11
  -4   6  -7 338.460 305.197  10
   4  -6   8-510.196 416.398   8
  -4   6  -8 495.988 382.369   4
   4  -6   8-56.8832 407.065  15
  -4   6  -8 696.829 427.089   2
   4  -6   8 160.916 199.986  13
  -4   6  -8 625.094 368.030   6
  -4   6  -8 633.833 345.624  11
  -4   6  -8 57.4869 298.224  10
   4  -6   9 122.980 342.621   8
  -4   6  -9 486.456 333.938   4
   4  -6   9-328.623 541.466  15
   4  -6   9 171.316 318.876  13
  -4   6  -9 308.527 436.688   2
  -4   6  -9 309.392 316.321  11
  -4   6  -9-717.863 405.246  10
   4  -6  10-323.902 434.020   8
  -4   6 -10 253.755 247.341  11
  -4   5  10 2763.97 793.699   9
   4  -5 -10 1798.30 555.032   1
  -4   5  10 2177.98 523.961   6
  -4   5   9 319.982 327.499   9
   4  -5  -9-369.222 305.400   1
  -4   5   9-296.565 194.081   6
   4  -5  -8-241.155 243.764   1
   4  -5  -8 91.4280 137.102   8
  -4   5   8-79.3127 122.631  15
  -4   5   8 212.015 338.272   6
  -4   5   7 446.411 416.488  12
   4  -5  -7 844.063 392.032   1
   4  -5  -7 496.255 234.914   8
  -4   5   7 362.310 258.740   6
   4  -5  -6 17642.9 981.059   8
   4  -5  -6 16072.5 1134.58   1
  -4   5   6 15433.5 972.335  15
  -4   5   6 16519.4 1309.72   6
  -4   5   6 17382.3 1494.87  12
   4  -5  -5 388.026 228.497   8
   4  -5  -5 5.57939 270.985   1
  -4   5   5-152.788 105.828  15
  -4   5   5 108.579 304.615  12
  -4   5   5-109.926 411.494   6
   4  -5  -5 283.170 217.512   3
   4  -5  -4 11788.1 865.229   8
   4  -5  -4 10962.7 839.442   1
  -4   5   4 11104.8 869.480  15
   4  -5  -4 11411.3 679.571   3
  -4   5   4 10977.2 950.607   1
  -4   5   4 10855.7 1075.10  12
  -4   5   4 10524.9 1039.51   6
  -4   5   4 10582.4 676.211  13
   4  -5  -4 11446.3 918.326   5
  -4   5   4 10286.6 1061.52   2
   4  -5  -3 903.689 310.279   2
   4  -5  -3 864.513 258.237   5
  -4   5   3 1378.48 345.337   1
   4  -5  -3 1364.73 363.084   8
   4  -5  -3 1439.03 340.801   1
  -4   5   3 1337.06 467.968   2
   4  -5  -3 914.412 294.875  13
   4  -5  -3 1313.53 298.394   4
  -4   5   3 913.010 247.410  15
  -4   5   3 981.381 245.471  13
  -4   5   3 480.364 336.541  12
  -4   5   3 1378.32 439.363   6
   4  -5  -3 774.478 278.072  12
   4  -5  -3 1583.37 402.445  14
   4  -5  -3 1140.53 262.640   3
  -4   5   2 9545.13 744.764   1
   4  -5  -2 10228.0 857.616   2
   4  -5  -2 9503.46 795.478   4
   4  -5  -2 10262.5 856.410   8
   4  -5  -2 9428.91 659.957   1
   4  -5  -2 10050.9 863.386  14
   4  -5  -2 9142.35 826.800  13
  -4   5   2 9804.80 869.268  15
   4  -5  -2 9629.99 604.019   3
  -4   5   2 9665.51 773.960  13
  -4   5   2 10222.1 966.183  12
   4  -5  -2 10008.4 958.336  12
  -4   5   2 9994.40 1001.58   6
  -4   5   2 10225.8 923.780   2
  -4   5   1 196.057 149.523   1
   4  -5  -1 101.319 129.733   1
   4  -5  -1 338.562 280.157   8
   4  -5  -1-73.1103 133.674   4
  -4   5   1 81.1761 89.6322   7
  -4   5   1 455.048 293.931   2
  -4   5   1 92.7644 222.332  15
   4  -5  -1-69.5046 263.640  14
   4  -5  -1 96.3598 233.575  13
  -4   5   1-250.392 226.354  13
   4  -5  -1 16.7553 155.110   2
  -4   5   1 8.32608 266.795  12
   4  -5  -1 62.0813 177.282  12
  -4   5   1 172.522 344.532   6
   4  -5  -1 381.589 170.537   3
   4  -5  -1-23.5504 202.327  11
  -4   5   1-63.1074 359.409  10
   4  -5   0 1658.40 225.086   1
   4  -5   0 1405.50 350.875   4
   4  -5   0 1101.17 367.651   8
  -4   5   0 2382.61 377.767   8
  -4   5   0 1577.58 395.823   2
   4  -5   0 1374.43 475.822  14
  -4   5   0 1503.30 274.741   7
   4  -5   0 1593.55 424.495  13
  -4   5   0 1125.20 323.124  13
   4  -5   0 1182.94 204.841   3
  -4   5   0 1032.41 331.178  12
  -4   5   0 1368.45 447.218   6
   4  -5   0 1822.66 380.373   2
   4  -5   0 1606.00 393.477  11
  -4   5   0 1372.42 473.308  10
  -4   5   0 929.573 299.350  15
  -4   5  -1 5855.92 679.022   2
   4  -5   1 5545.03 302.150   1
   4  -5   1 4558.94 586.224   4
   4  -5   1 5680.98 640.419   2
   4  -5   1 5872.29 740.123   8
  -4   5  -1 5295.75 605.352   8
   4  -5   1 5534.41 511.942   5
  -4   5  -1 5449.76 593.773   7
   4  -5   1 5089.28 394.753   3
  -4   5  -1 5344.07 728.130  15
   4  -5   1 5245.68 713.963  14
   4  -5   1 5408.10 768.627  13
  -4   5  -1 5258.93 730.138   6
  -4   5  -1 5924.90 650.975  12
  -4   5  -1 6470.38 755.009  13
  -4   5  -1 5370.70 791.320  10
  -4   5  -2 6239.41 704.404   2
  -4   5  -2 6601.32 586.824   4
   4  -5   2 5476.54 764.066   8
   4  -5   2 5392.16 643.456   2
  -4   5  -2 6148.17 681.526   7
  -4   5  -2 4896.46 731.525  15
   4  -5   2 5580.55 753.561  14
  -4   5  -2 5919.53 287.840   3
   4  -5   2 5919.54 837.484  13
  -4   5  -2 5699.38 748.760   6
  -4   5  -2 6601.76 665.542  12
  -4   5  -2 5953.04 667.018  11
   4  -5   2 5549.59 478.644   5
  -4   5  -2 4780.18 730.455  10
  -4   5  -3 10713.9 946.982   2
  -4   5  -3 11516.0 860.319   4
   4  -5   3 10112.2 1017.61   8
  -4   5  -3 10449.3 981.207   7
  -4   5  -3 9916.47 458.299   3
   4  -5   3 9774.10 1116.16  15
  -4   5  -3 10542.5 820.718  14
   4  -5   3 10470.9 1129.41  13
  -4   5  -3 10562.9 1025.55   6
  -4   5  -3 10397.8 784.588  12
  -4   5  -3 9898.82 857.591  11
   4  -5   3 11039.3 1061.18  14
   4  -5   3 12024.4 692.057   5
  -4   5  -3 11635.4 1105.94  10
   4  -5   4 855.247 398.944   8
  -4   5  -4 305.822 296.561   4
  -4   5  -4 562.452 333.601   7
   4  -5   4 682.678 488.997  15
   4  -5   4 394.640 337.631  14
   4  -5   4 536.604 435.935  13
  -4   5  -4 565.294 408.719   2
  -4   5  -4 351.287 209.168  12
  -4   5  -4 580.120 354.866   6
  -4   5  -4 682.535 190.534   3
  -4   5  -4 411.522 279.720  14
  -4   5  -4 805.080 400.795  11
  -4   5  -4 567.657 405.090  10
   4  -5   4 862.239 233.993   5
  -4   5  -5 6332.55 786.559   2
  -4   5  -5 5674.33 728.514   4
   4  -5   5 6503.49 937.708   8
   4  -5   5 5538.37 918.941  15
  -4   5  -5 6824.55 579.037   3
   4  -5   5 6611.88 928.541  14
  -4   5  -5 6070.93 750.040  14
   4  -5   5 7457.29 1062.71  13
  -4   5  -5 6587.20 800.202   6
  -4   5  -5 5942.46 524.073  12
  -4   5  -5 7248.52 785.174  11
   4  -5   5 6190.42 554.317   5
  -4   5  -5 6664.92 858.701  10
   4  -5   6 1645.16 306.921   5
   4  -5   6 1680.85 562.430   8
  -4   5  -6 1706.93 483.482   4
   4  -5   6 1549.75 491.263  14
   4  -5   6 1279.89 597.515  13
   4  -5   6 1729.14 588.847  15
  -4   5  -6 1536.44 351.110   3
  -4   5  -6 1922.30 264.026  12
  -4   5  -6 1721.75 555.181   2
  -4   5  -6 1903.58 453.391   6
  -4   5  -6 1834.29 479.034  11
  -4   5  -6 1666.75 505.817  10
   4  -5   7 808.976 215.851   5
   4  -5   7 657.291 426.510   8
  -4   5  -7 1239.24 492.299   4
   4  -5   7 655.033 469.336  15
   4  -5   7 734.024 435.846  13
  -4   5  -7 936.455 456.516   2
  -4   5  -7 508.596 266.757   6
  -4   5  -7 556.704 315.695  11
  -4   5  -7 694.789 377.175  10
   4  -5   8 154.975 113.411   5
  -4   5  -8 158.221 235.493   4
   4  -5   8 439.584 337.284   8
   4  -5   8 748.847 484.120  15
   4  -5   8 80.4146 138.872  13
  -4   5  -8 452.644 451.665   2
  -4   5  -8 655.165 237.249   6
  -4   5  -8 189.126 289.145  11
  -4   5  -8 506.162 254.281  10
  -4   5  -9 722.205 592.376   4
   4  -5   9 1111.16 566.056   8
  -4   5  -9 1028.37 397.029  11
  -4   5  -9 1590.22 537.238   2
   4  -5   9 908.571 417.748  15
   4  -5   9 506.805 493.799  13
  -4   5  -9 978.637 455.887  10
   4  -5  10 272.175 392.007   8
  -4   5 -10 569.437 532.331   4
   4  -5  10-188.359 441.014  13
  -4   5 -10-284.984 301.532  11
  -4   5 -11 902.556 585.710   4
  -4   4  11-64.8258 185.666   9
  -4   4  11-88.7330 208.991   6
   4  -4 -10 3658.75 679.214   1
  -4   4  10 4505.37 923.362   9
  -4   4  10 3383.74 617.066   6
  -4   4   9-9.03133 70.9788  15
   4  -4  -9-54.5527 242.126   1
  -4   4   9-176.602 301.263   9
  -4   4   9-421.891 279.347   6
  -4   4   8 7121.50 1060.63   9
   4  -4  -8 6685.41 510.582   8
   4  -4  -8 5748.20 730.760   1
  -4   4   8 6314.34 841.079   6
   4  -4  -8 5893.63 540.361   7
   4  -4  -7 988.516 330.629   1
   4  -4  -7 943.624 249.347   8
   4  -4  -7 793.184 177.864   7
  -4   4   7 970.609 421.797   6
   4  -4  -6 3726.79 422.433   8
   4  -4  -6 3392.94 545.237   1
  -4   4   6 2567.10 573.289   6
   4  -4  -5 8672.82 809.077   2
   4  -4  -5 8736.99 657.795   8
   4  -4  -5 8263.12 734.535   1
   4  -4  -5 8197.48 608.286   3
  -4   4   5 8117.56 822.168   1
  -4   4   5 8294.45 877.062   6
  -4   4   5 7700.58 472.101  13
  -4   4   5 8751.21 946.238  12
   4  -4  -5 8550.56 710.429  11
   4  -4  -5 8099.05 780.741   5
   4  -4  -4 1882.44 377.126   5
   4  -4  -4 2413.36 407.879   1
  -4   4   4 2570.47 518.834   2
   4  -4  -4 2435.58 390.078   8
  -4   4   4 1972.31 397.402   1
   4  -4  -4 2380.99 408.118   2
   4  -4  -4 2397.50 334.490   3
  -4   4   4 2196.19 318.789  13
  -4   4   4 2437.83 579.989  12
  -4   4   4 1814.92 470.632   6
   4  -4  -4 2690.16 502.349  12
   4  -4  -4 2291.96 390.590  11
   4  -4  -3 14967.3 982.217   2
   4  -4  -3 13478.8 868.150   8
   4  -4  -3 13657.8 716.127   3
   4  -4  -3 13871.3 807.166   1
   4  -4  -3 14364.3 948.887  14
  -4   4   3 12962.6 866.087   1
  -4   4   3 13858.4 996.793  15
  -4   4   3 13290.5 1054.29  12
  -4   4   3 13700.4 1070.92   6
  -4   4   3 12411.2 775.910  13
   4  -4  -3 12724.6 1036.09  12
   4  -4  -3 13729.9 892.652  11
   4  -4  -3 13102.8 855.177   5
  -4   4   3 13076.5 1022.19   2
   4  -4  -2 6855.74 649.097   2
   4  -4  -2 6900.91 665.676   4
   4  -4  -2 6217.32 635.476   8
  -4   4   2 6409.72 575.511   8
   4  -4  -2 6543.81 512.899   1
  -4   4   2 6000.77 672.513  15
  -4   4   2 6036.07 556.277   1
   4  -4  -2 5918.09 487.398   3
   4  -4  -2 6851.29 704.243  14
  -4   4   2 5954.58 589.618  13
  -4   4   2 6371.41 738.148  12
   4  -4  -2 6838.60 740.558  12
   4  -4  -2 6297.32 637.399  11
  -4   4   2 6474.24 774.735   6
   4  -4  -2 6361.40 554.554   5
   4  -4  -2 6724.04 664.268  13
  -4   4   2 6558.17 714.880   2
   4  -4  -1 283.757 150.054   1
   4  -4  -1 230.182 232.987   8
   4  -4  -1 286.666 215.054   4
  -4   4   1 95.9562 151.504   8
  -4   4   1 456.637 228.124  15
  -4   4   1 214.892 96.1360   7
  -4   4   1 308.867 245.535   2
   4  -4  -1 461.389 336.900  14
  -4   4   1 98.2035 123.502   1
  -4   4   1 297.226 184.909  13
   4  -4  -1 287.813 216.146   2
  -4   4   1 162.567 261.140  12
   4  -4  -1 414.708 191.228  12
  -4   4   1 123.221 306.092   6
   4  -4  -1 343.498 175.302   3
   4  -4  -1 680.125 278.948  11
   4  -4  -1 540.014 270.817  13
  -4   4   0 1013.73 202.422   1
   4  -4   0 1357.92 188.971   1
   4  -4   0 1114.01 307.986   4
   4  -4   0 1204.79 383.349   8
  -4   4   0 966.399 251.481   8
  -4   4   0 1189.62 344.377   2
  -4   4   0 1367.78 253.227   7
  -4   4   0 1242.82 362.655  15
   4  -4   0 933.269 349.209  14
   4  -4   0 1568.12 391.600  13
  -4   4   0 1207.98 352.536  13
   4  -4   0 1012.53 233.605   3
  -4   4   0 1391.31 360.533  12
   4  -4   0 1302.43 320.160   2
   4  -4   0 767.320 291.488  12
  -4   4   0 643.062 309.285   6
   4  -4   0 1485.85 365.635  11
  -4   4   0 1509.92 341.846  11
  -4   4   0 1585.36 445.835  10
  -4   4  -1 8386.04 713.648   2
   4  -4   1 8298.16 790.131   4
   4  -4   1 8340.81 707.720   2
  -4   4  -1 8599.13 671.485   4
   4  -4   1 8888.23 857.708   8
   4  -4   1 8652.41 908.051  13
  -4   4  -1 8173.27 716.788   8
  -4   4  -1 8186.83 661.164   7
   4  -4   1 7406.50 568.315   3
  -4   4  -1 8489.26 883.685  15
  -4   4  -1 8058.70 418.133   3
   4  -4   1 8433.89 869.571  14
  -4   4  -1 7713.91 798.386   6
  -4   4  -1 7976.74 782.658  13
  -4   4  -1 9534.22 713.942  14
  -4   4  -1 8550.79 691.197  12
   4  -4   1 8591.75 859.223  11
  -4   4  -1 8244.32 730.106  11
   4  -4   1 7382.78 467.099   5
  -4   4  -1 7748.93 832.368  10
  -4   4  -2 3105.20 466.394   2
  -4   4  -2 2681.69 443.110   8
   4  -4   2 2667.85 550.518   8
  -4   4  -2 3113.95 452.765  14
  -4   4  -2 2712.41 443.664   4
   4  -4   2 3077.91 402.234   3
  -4   4  -2 2607.64 458.575   7
  -4   4  -2 2989.66 308.173   3
   4  -4   2 3149.33 601.247  13
   4  -4   2 2439.48 508.985  14
  -4   4  -2 3073.68 560.471  15
  -4   4  -2 3562.19 430.698  12
  -4   4  -2 2992.52 536.609  13
  -4   4  -2 3048.43 560.400   6
  -4   4  -2 3115.88 484.297  11
   4  -4   2 3300.89 602.249  11
   4  -4   2 3407.50 310.399   5
   4  -4   2 2908.73 452.028   2
  -4   4  -2 2947.28 538.657  10
  -4   4  -3 1846.91 528.807   9
   4  -4   3 2529.48 556.142   8
  -4   4  -3 1695.40 415.843   4
  -4   4  -3 2540.68 454.209   8
  -4   4  -3 1998.72 431.967   7
  -4   4  -3 2052.05 475.463  15
  -4   4  -3 2441.72 458.672  11
  -4   4  -3 1965.96 301.734   3
   4  -4   3 1773.62 496.059  14
  -4   4  -3 2538.89 449.893  14
  -4   4  -3 2089.25 483.499   6
  -4   4  -3 2618.08 506.207  13
  -4   4  -3 1877.29 436.824   2
  -4   4  -3 2237.64 336.147  12
   4  -4   3 1900.17 480.268  11
   4  -4   3 2294.46 256.376   5
  -4   4  -3 2297.01 484.673  10
   4  -4   3 2671.41 473.108   2
   4  -4   3 2226.60 578.038  13
  -4   4  -4 6885.28 757.574   2
  -4   4  -4 7270.54 823.063   4
   4  -4   4 6745.57 898.113   8
   4  -4   4 7272.39 774.174   2
  -4   4  -4 7735.18 900.838   7
   4  -4   4 6287.72 1001.05  15
  -4   4  -4 6112.11 575.521   3
  -4   4  -4 6567.52 763.935  14
   4  -4   4 6767.75 969.945  13
  -4   4  -4 7435.35 799.776   6
   4  -4   4 6742.87 893.735  14
  -4   4  -4 6982.72 491.660  12
   4  -4   4 6756.74 900.389  11
  -4   4  -4 7890.25 834.932  11
   4  -4   4 6985.32 477.927   5
  -4   4  -4 6273.97 785.982  10
  -4   4  -5 30208.3 1762.03   4
  -4   4  -5 30381.4 1594.55   2
   4  -4   5 30594.2 1930.72   8
  -4   4  -5 28107.3 1787.99   7
  -4   4  -5 28673.7 1636.81  14
   4  -4   5 28338.2 1893.25  13
  -4   4  -5 30326.2 1525.16   6
   4  -4   5 27903.5 1937.01  15
  -4   4  -5 26619.7 727.181  12
   4  -4   5 30958.9 1910.61  14
  -4   4  -5 33427.0 1708.65  11
  -4   4  -5 26758.3 1348.40   3
   4  -4   5 29398.8 1046.24   5
  -4   4  -5 30573.9 1651.54  10
   4  -4   6 166.286 124.338   5
  -4   4  -6 455.563 371.322   4
   4  -4   6-58.9432 114.099   8
   4  -4   6 190.244 269.843  15
   4  -4   6-779.248 324.760  14
  -4   4  -6 104.454 208.063   3
   4  -4   6 701.360 437.396  13
  -4   4  -6 395.969 359.174   2
  -4   4  -6 196.731 259.280   6
  -4   4  -6 137.452 287.235  11
  -4   4  -6 225.677 287.395  10
   4  -4   7 1655.96 324.877   5
  -4   4  -7 1718.86 567.684   4
   4  -4   7 1325.54 580.376   8
   4  -4   7 981.754 454.750  15
   4  -4   7 1791.86 547.856  13
  -4   4  -7 1720.57 381.785   6
  -4   4  -7 2172.02 558.346   2
  -4   4  -7 1032.06 420.555  11
  -4   4  -7 1890.26 331.590   5
  -4   4  -7 1720.47 497.202  10
  -4   4  -7 1817.85 451.951   3
   4  -4   8-43.5198 139.222   5
  -4   4  -8 178.767 346.250   4
   4  -4   8 186.919 341.427  15
   4  -4   8-212.658 269.151  13
  -4   4  -8 321.346 210.725   6
  -4   4  -8-53.7283 287.712   2
  -4   4  -8-2.37893 226.475  11
  -4   4  -8 267.736 206.234  10
   4  -4   9 309.350 193.059   5
  -4   4  -9 681.230 420.147   4
   4  -4   9 361.557 422.172   8
   4  -4   9 196.495 317.218  13
  -4   4  -9 945.044 387.870   2
  -4   4  -9-37.8415 281.705  11
   4  -4   9 267.417 316.536  15
  -4   4  -9 89.7709 204.495  10
  -4   4 -10-63.2192 391.997   4
   4  -4  10 331.714 404.288  15
   4  -4  10 178.524 293.012  13
  -4   4 -10-18.1685 202.520   2
  -4   4 -10-257.636 269.266  11
  -4   4 -11-92.8866 546.094   4
   4  -4  11 109.188 443.571  13
  -4   4 -11-7.07885 383.022  11
  -4   3  12 1103.36 524.868   9
   4  -3 -12 736.164 375.370   1
   4  -3 -11-18.9709 288.789   1
  -4   3  11 348.059 468.149   9
  -4   3  11 31.7933 145.706  15
  -4   3  11-238.431 154.278   6
   4  -3 -10 637.975 323.372   1
  -4   3  10 411.900 369.148   9
  -4   3  10 478.486 279.179  15
  -4   3  10 420.253 264.870   6
   4  -3  -9 1195.87 416.339   1
  -4   3   9 744.517 479.158   9
  -4   3   9 395.065 245.017  15
   4  -3  -9 674.621 254.957   7
  -4   3   9 913.811 356.654   6
  -4   3   8 4904.14 859.806   9
   4  -3  -8 3443.17 294.402   8
   4  -3  -8 4655.66 678.627   1
   4  -3  -8 3284.32 447.758   7
  -4   3   8 4097.68 644.343   6
   4  -3  -7 5122.04 404.551   8
   4  -3  -7 4714.47 622.125   1
   4  -3  -7 4006.48 428.430   7
   4  -3  -7 4763.86 668.361   6
  -4   3   7 3935.90 637.146   6
   4  -3  -7 4744.37 509.160  11
   4  -3  -6 19286.8 826.509   8
   4  -3  -6 19080.9 1118.62   1
   4  -3  -6 18611.4 693.743   7
   4  -3  -6 18169.4 1245.83   6
  -4   3   6 17863.2 538.636  13
  -4   3   6 19388.7 1275.69   6
  -4   3   6 17979.2 1198.43   1
   4  -3  -6 19571.1 972.978  11
   4  -3  -6 20126.0 1202.29   5
   4  -3  -6 18447.9 1193.89   2
   4  -3  -5 2368.90 416.011   5
   4  -3  -5 2304.14 419.359   1
  -4   3   5 2572.34 498.219   6
   4  -3  -5 2300.53 337.668   8
   4  -3  -5 2231.73 403.458   2
   4  -3  -5 2661.58 366.206   3
  -4   3   5 1845.75 253.587  13
   4  -3  -5 2387.45 458.757  12
   4  -3  -5 2576.91 468.319   6
   4  -3  -5 2194.07 351.053  11
  -4   3   5 1973.73 419.219   1
   4  -3  -4 13278.7 881.423   2
   4  -3  -4 13506.8 785.203   8
   4  -3  -4 13377.0 811.860   1
  -4   3   4 12839.4 869.566   1
   4  -3  -4 13178.7 705.494   3
  -4   3   4 13429.2 1017.18   6
   4  -3  -4 13087.7 999.259   6
  -4   3   4 11744.4 690.986  13
   4  -3  -4 12928.4 1018.11  12
   4  -3  -4 13482.7 810.030  11
   4  -3  -4 12446.5 818.723   5
  -4   3   4 13111.2 993.621   2
   4  -3  -3 1359.08 280.745   1
   4  -3  -3 1511.14 299.145   5
   4  -3  -3 1692.10 330.249   8
  -4   3   3 1586.71 398.013   2
  -4   3   3 1305.34 247.115   8
   4  -3  -3 1634.51 319.312   3
   4  -3  -3 1486.85 323.532   2
   4  -3  -3 2628.16 471.087  14
  -4   3   3 1631.55 444.124  12
  -4   3   3 1393.53 368.383   6
   4  -3  -3 1123.68 308.256  12
   4  -3  -3 1755.31 336.782  11
  -4   3   3 852.408 255.671   1
  -4   3   3 1556.31 301.026  13
   4  -3  -2 18284.2 937.647   2
   4  -3  -2 20007.1 813.554   1
   4  -3  -2 20027.1 1107.79   4
   4  -3  -2 19291.7 1035.26   8
   4  -3  -2 18124.1 1070.76  12
  -4   3   2 18648.6 893.980   8
  -4   3   2 18162.8 853.656   1
  -4   3   2 18473.4 1010.39  13
  -4   3   2 19277.8 1115.79  12
   4  -3  -2 17761.7 842.291   3
   4  -3  -2 21321.8 1108.09  11
  -4   3   2 17057.1 1099.19   6
   4  -3  -2 18005.8 804.159   5
   4  -3  -2 19876.9 1119.49  14
  -4   3   2 19817.9 1034.30   2
   4  -3  -1 645.921 365.534  14
   4  -3  -1 269.133 129.199   5
   4  -3  -1 341.034 261.229   8
   4  -3  -1 392.439 213.305   4
  -4   3   1 521.828 199.430   8
  -4   3   1 560.401 255.475  15
  -4   3   1 263.471 243.405   2
  -4   3   1 322.718 97.2468   7
   4  -3  -1 193.528 201.879  13
  -4   3   1 520.499 210.159  13
   4  -3  -1 261.768 162.397   2
  -4   3   1 384.530 274.129  12
   4  -3  -1 507.514 205.959  12
  -4   3   1 463.409 313.999   6
   4  -3  -1 404.771 200.933   3
   4  -3  -1 833.431 289.988  11
  -4   3   1 309.522 136.685   1
   4  -3  -1 420.819 167.009   1
  -4   3   1 421.461 151.682   3
   4  -3   0 40564.6 964.685   1
  -4   3   0 41804.2 1359.40   2
   4  -3   0 38580.1 1670.75  13
   4  -3   0 40714.6 1650.33   4
   4  -3   0 40194.6 1368.99   2
   4  -3   0 40844.9 1635.81   8
  -4   3   0 41118.9 1480.34   8
  -4   3   0 39308.4 1178.46   7
  -4   3   0 40905.8 1800.34  15
  -4   3   0 38084.4 928.244   1
   4  -3   0 39624.7 1336.88   3
   4  -3   0 42002.4 1764.71  14
  -4   3   0 45199.7 1475.54  14
   4  -3   0 36061.6 1345.44  12
  -4   3   0 40347.6 1028.40   3
  -4   3   0 40768.7 1659.39  13
  -4   3   0 39981.7 1615.84   6
  -4   3   0 41473.8 1419.15  12
   4  -3   0 44282.9 1783.65  11
   4  -3   0 38769.1 868.212   5
  -4   3  -1 3735.84 453.376   2
   4  -3   1 4156.54 573.509   4
  -4   3  -1 3692.65 357.048   3
  -4   3  -1 3344.24 468.935   4
   4  -3   1 4652.14 611.232   8
   4  -3   1 3974.83 459.486   2
  -4   3  -1 4217.04 444.562  12
  -4   3  -1 3730.78 441.284   7
  -4   3  -1 4611.31 621.895  15
   4  -3   1 3588.85 462.419   3
  -4   3  -1 3691.52 226.813   1
  -4   3  -1 4019.76 501.512  14
  -4   3  -1 4274.70 588.678  13
   4  -3   1 3838.71 604.839  13
   4  -3   1 3916.88 431.538  12
   4  -3   1 4477.24 617.351  11
   4  -3   1 4176.29 243.544   5
   4  -3   1 3160.38 548.802  14
  -4   3  -1 3587.11 520.351   6
   4  -3   2 2574.90 464.806   4
   4  -3   2 2708.85 416.072   2
   4  -3   2 2548.41 471.720   8
  -4   3  -2 2181.37 398.648  14
  -4   3  -2 2501.34 459.184   4
  -4   3  -2 2651.69 442.378   7
  -4   3  -2 2246.82 490.291  15
  -4   3  -2 2407.54 329.766   3
  -4   3  -2 2537.68 466.299   6
   4  -3   2 2466.39 408.015   3
   4  -3   2 2420.25 552.609  13
  -4   3  -2 2516.33 467.661  13
  -4   3  -2 2571.79 426.224   2
  -4   3  -2 2690.08 324.878  12
  -4   3  -2 2872.44 494.505  11
   4  -3   2 2320.21 167.798   5
   4  -3   2 2194.41 527.398  14
  -4   3  -2 2447.44 468.626  10
   4  -3   2 3297.97 582.964  11
  -4   3  -2 2654.30 509.909   9
  -4   3  -3 23464.5 1169.47   2
  -4   3  -3 25280.0 1419.47   4
   4  -3   3 24528.5 1516.86   8
  -4   3  -3 23554.0 1282.06   8
   4  -3   3 25175.4 1267.66   2
  -4   3  -3 26290.1 1454.96   7
   4  -3   3 24042.7 1248.53   3
  -4   3  -3 26071.8 1608.95  15
  -4   3  -3 25800.4 1158.57   3
   4  -3   3 24738.3 1532.57  14
  -4   3  -3 24707.6 1357.71  14
  -4   3  -3 24283.7 1461.19  13
   4  -3   3 25883.9 1587.30  11
  -4   3  -3 25644.6 1376.10  11
  -4   3  -3 25529.6 1334.39  10
   4  -3   3 23760.9 618.089   5
  -4   3  -3 23711.2 1235.43   6
   4  -3   3 24252.6 1551.26  13
  -4   3  -3 27425.0 1691.55   9
  -4   3  -4 13408.3 1273.13   9
  -4   3  -4 11583.1 1060.42   4
  -4   3  -4 11331.3 893.953   2
   4  -3   4 12706.6 1187.37   8
  -4   3  -4 11517.4 947.144   8
  -4   3  -4 10984.0 1047.82   7
   4  -3   4 11689.2 1188.65  15
  -4   3  -4 11809.6 1161.19  15
  -4   3  -4 10646.5 857.346   3
   4  -3   4 10875.1 1098.26  14
  -4   3  -4 11381.5 864.252   6
  -4   3  -4 11804.8 1076.34  13
  -4   3  -4 11610.5 1018.93  14
   4  -3   4 12628.3 1199.94  13
  -4   3  -4 12322.7 940.069  10
   4  -3   4 11355.9 534.018   5
  -4   3  -4 12283.2 1014.21  11
  -4   3  -5 3519.05 680.465   4
   4  -3   5 4370.16 814.046   8
   4  -3   5 4423.13 860.172  15
   4  -3   5 4211.86 767.912  14
   4  -3   5 3561.08 716.015  13
  -4   3  -5 4087.84 528.726   6
  -4   3  -5 4097.84 635.212   3
  -4   3  -5 4384.34 655.112  11
  -4   3  -5 3763.77 364.145   5
  -4   3  -5 3452.22 598.874   2
  -4   3  -5 3247.66 668.309   7
  -4   3  -5 3913.48 594.297  10
  -4   3  -5 4007.94 678.807  14
   4  -3   5 3419.18 362.247   5
   4  -3   6 28.7409 98.9210   5
  -4   3  -6 488.321 378.693   4
   4  -3   6 248.167 281.004   8
   4  -3   6-479.152 354.243  15
   4  -3   6 186.861 288.106  13
  -4   3  -6 496.453 313.757   3
  -4   3  -6-161.903 190.565   6
  -4   3  -6-21.6601 201.001  11
  -4   3  -6 458.479 324.637   2
  -4   3  -6 371.878 143.636   5
  -4   3  -6 44.5287 182.694  10
   4  -3   7 321.353 143.754   5
  -4   3  -7-569.732 428.288   4
   4  -3   7 448.983 338.990   8
   4  -3   7 196.870 191.414  15
   4  -3   7 331.816 304.458  13
  -4   3  -7 112.079 190.976   3
  -4   3  -7 21.7277 47.3122   1
  -4   3  -7-60.7016 140.894   6
  -4   3  -7-28.1453 230.221  11
  -4   3  -7 118.276 235.851   2
  -4   3  -7 290.773 157.749   5
  -4   3  -7-77.5910 245.018  10
  -4   3  -8 670.910 443.412   4
   4  -3   8 160.538 291.679  15
   4  -3   8-294.839 360.514  13
  -4   3  -8-78.9840 67.3912   6
  -4   3  -8 426.831 216.659  11
  -4   3  -8-8.13825 252.874   2
  -4   3  -8-262.247 252.370  10
  -4   3  -9 6483.09 875.402   2
  -4   3  -9 5055.50 1086.39   4
   4  -3   9 6581.94 1137.84  15
   4  -3   9 7144.37 1088.71  13
  -4   3  -9 5788.94 852.814  11
  -4   3 -10 509.188 650.007   4
  -4   3 -10 123.894 205.030  11
  -4   3 -10 285.196 375.517   2
   4  -3  10 436.066 297.704  15
  -4   3 -11 1516.64 608.763   4
   4  -3  11 2112.93 687.457  15
  -4   3 -11 2065.90 569.726  11
  -4   2  12 1143.38 637.364   9
  -4   2  12 1278.37 382.051  15
  -4   2  12 1034.83 338.746   6
   4  -2 -12 1380.39 502.867   1
  -4   2  11 383.590 444.875   9
  -4   2  11 140.999 281.814  15
  -4   2  11 552.949 247.355   6
   4  -2 -11 417.847 316.498   1
  -4   2  10 9008.84 1254.39   9
   4  -2 -10 7643.79 894.048   1
  -4   2  10 7896.87 846.773  15
   4  -2 -10 5539.57 746.323   7
  -4   2  10 6676.01 824.800   6
  -4   2   9 261.918 504.165   9
   4  -2  -9 601.595 260.138   7
  -4   2   9 1026.26 327.609  15
  -4   2   9 290.219 255.621   6
   4  -2  -9 1010.26 363.082   6
   4  -2  -9 393.479 335.622   1
  -4   2   8 11365.8 1223.87   9
   4  -2  -8 9995.74 900.639   1
   4  -2  -8 10010.3 822.382   7
  -4   2   8 10102.4 973.362   6
   4  -2  -8 9798.66 942.025   6
   4  -2  -8 10833.2 692.732  11
  -4   2   7 5193.12 797.973   9
   4  -2  -7 4417.88 282.816   8
   4  -2  -7 5200.53 652.969   1
   4  -2  -7 4832.22 506.251   7
   4  -2  -7 5475.22 689.527   6
  -4   2   7 4593.75 277.167  13
  -4   2   7 5438.50 695.676   6
   4  -2  -7 5431.56 496.791  11
   4  -2  -7 4889.89 638.296   5
   4  -2  -7 5537.44 692.692   2
   4  -2  -6 8775.16 495.505   8
   4  -2  -6 9900.59 788.449   1
   4  -2  -6 8423.41 573.332   7
  -4   2   6 9944.56 862.829   1
   4  -2  -6 8467.17 654.140   3
  -4   2   6 8583.00 825.721   6
   4  -2  -6 9742.56 883.611   6
  -4   2   6 8929.48 506.828  13
   4  -2  -6 9675.58 944.103  12
   4  -2  -6 9048.33 618.535  11
   4  -2  -6 9500.68 787.929   5
   4  -2  -6 8780.87 805.907   2
   4  -2  -5 23648.5 903.696   8
   4  -2  -5 26052.1 1166.75   1
   4  -2  -5 24253.7 769.705   7
  -4   2   5 26934.2 1298.74   1
   4  -2  -5 26842.5 1045.70   3
  -4   2   5 25467.7 1356.23   6
  -4   2   5 25262.7 961.595  13
   4  -2  -5 25080.2 1433.24  12
   4  -2  -5 25368.7 1374.85   6
   4  -2  -5 24354.4 1007.34  11
   4  -2  -5 26228.9 1197.82   5
   4  -2  -5 24975.8 1208.08   2
   4  -2  -4 25466.0 1111.05   2
   4  -2  -4 27451.9 1102.83   1
   4  -2  -4 26857.9 1032.73   8
  -4   2   4 25707.2 862.925   8
   4  -2  -4 23094.5 526.164   7
  -4   2   4 27207.9 1195.26   1
   4  -2  -4 25537.9 494.470   7
   4  -2  -4 27277.1 1010.90   3
  -4   2   4 27732.9 1370.21   6
   4  -2  -4 28725.1 1414.27   6
  -4   2   4 24759.6 1030.77  13
   4  -2  -4 26746.8 1098.41   5
   4  -2  -4 30193.1 1158.26  11
   4  -2  -3 4083.48 419.933   2
   4  -2  -3 3586.89 385.618   1
   4  -2  -3 3673.04 425.319   8
  -4   2   3 3665.08 356.352   8
  -4   2   3 3559.73 395.958   1
   4  -2  -3 3391.85 397.237   3
  -4   2   3 3945.16 533.776   6
  -4   2   3 3476.30 417.347  13
   4  -2  -3 3470.62 495.266  12
   4  -2  -3 4060.73 463.864  11
   4  -2  -3 3871.76 487.976  14
   4  -2  -3 3471.74 364.432   5
  -4   2   3 4346.97 483.614   2
   4  -2  -2 1660.97 402.608  14
   4  -2  -2 971.766 282.091   8
  -4   2   2 1241.73 248.680   8
  -4   2   2 1653.34 253.738   1
   4  -2  -2 1585.53 334.533   4
   4  -2  -2 1186.93 135.553   7
  -4   2   2 1421.36 277.850   2
  -4   2   2 1578.12 247.993   3
   4  -2  -2 1418.82 245.854   2
  -4   2   2 1191.51 261.912  13
  -4   2   2 1263.31 350.173   6
   4  -2  -2 1376.35 282.167  12
   4  -2  -2 1381.98 247.665   1
   4  -2  -2 1747.43 314.455  11
   4  -2  -2 1267.26 282.689   3
  -4   2   2 1711.57 307.225  11
   4  -2  -2 1460.15 216.994   5
   4  -2  -1 7291.67 486.611   1
  -4   2   1 7504.83 535.516   2
   4  -2  -1 7529.09 517.540   2
   4  -2  -1 6770.05 673.163   4
   4  -2  -1 7722.65 694.391   8
  -4   2   1 6926.74 586.544   8
  -4   2   1 6886.74 439.251   1
   4  -2  -1 7602.62 456.403   7
  -4   2   1 7098.83 419.709   7
   4  -2  -1 7420.97 610.608   3
  -4   2   1 7431.43 483.126   3
  -4   2   1 7529.00 679.072   6
  -4   2   1 6593.15 639.500  13
   4  -2  -1 6573.35 568.296  12
   4  -2  -1 8060.15 712.069  11
   4  -2  -1 7208.38 363.824   5
   4  -2  -1 7265.48 752.390  14
  -4   2   0 48116.3 1269.23   2
   4  -2   0 50012.2 1845.16   4
   4  -2   0 46571.4 1738.26   8
   4  -2   0 47552.7 1299.40   2
  -4   2   0 47581.3 1569.74   4
  -4   2   0 47650.0 1591.47   8
  -4   2   0 46207.1 984.090   1
   4  -2   0 50407.9 1401.97   7
  -4   2   0 45533.8 1316.65   7
   4  -2   0 47084.8 1543.97   3
  -4   2   0 44299.3 1229.74   3
   4  -2   0 49162.9 1878.55  14
  -4   2   0 46529.4 1611.75   6
  -4   2   0 47858.9 1783.98  13
   4  -2   0 46959.2 1616.29   6
   4  -2   0 44299.1 1317.84  12
   4  -2   0 49575.4 1848.03  11
  -4   2  -1 9501.55 607.874   2
   4  -2   1 9444.71 859.602   4
  -4   2  -1 9875.16 803.999   4
   4  -2   1 10258.4 906.877   8
  -4   2  -1 8932.30 378.266   1
   4  -2   1 9555.76 627.300   2
   4  -2   1 10670.8 757.610   7
  -4   2  -1 8953.03 685.889   7
   4  -2   1 9726.87 763.343   3
  -4   2  -1 9353.30 638.400   3
   4  -2   1 9292.81 886.768  14
  -4   2  -1 9092.83 727.006   6
   4  -2   1 9077.45 544.559  12
   4  -2   1 9061.62 848.834  11
  -4   2  -2 7603.28 317.165   1
   4  -2   2 7877.79 823.100   4
  -4   2  -2 7558.24 590.649   2
  -4   2  -2 7589.17 761.179   4
   4  -2   2 7645.89 814.792   8
  -4   2  -2 7977.05 759.955  14
   4  -2   2 7287.60 591.862   2
  -4   2  -2 7288.60 696.637   7
   4  -2   2 7397.73 722.970   3
  -4   2  -2 7670.68 651.978   3
   4  -2   2 7138.14 843.301  13
   4  -2   2 6971.36 789.593  14
   4  -2   2 7141.96 412.631  12
  -4   2  -2 7765.16 684.040  10
  -4   2  -2 7579.89 661.956   6
  -4   2  -2 7212.53 807.695   9
  -4   2  -3 33896.9 1699.28   4
   4  -2   3 32992.3 1753.16   8
  -4   2  -3 34086.0 1290.17   2
  -4   2  -3 34432.9 1562.82   8
  -4   2  -3 34877.8 1666.82   7
   4  -2   3 35774.3 1640.87   3
  -4   2  -3 37151.0 1877.85  15
  -4   2  -3 34563.0 1504.31   3
   4  -2   3 35030.8 1810.54  14
  -4   2  -3 34918.0 1667.45  14
  -4   2  -3 36734.5 1370.00   6
   4  -2   3 35612.1 1805.64  13
  -4   2  -3 37567.4 1791.94  13
  -4   2  -3 33923.9 719.535   1
  -4   2  -3 36786.4 1680.67  11
  -4   2  -3 36296.5 1410.01  10
  -4   2  -3 38707.3 1926.21   9
  -4   2  -4 1316.18 433.842   9
   4  -2   4 725.866 349.099   8
  -4   2  -4 1193.94 455.061   4
  -4   2  -4 825.569 290.910   8
  -4   2  -4 736.377 313.909   3
  -4   2  -4 1018.59 144.497   1
  -4   2  -4 1291.93 418.398  15
   4  -2   4 787.190 445.926  14
   4  -2   4 1426.92 430.267   3
  -4   2  -4 607.593 322.886  11
  -4   2  -4 1246.81 388.851   7
   4  -2   4 879.435 386.907  13
  -4   2  -4 1040.98 370.158  13
  -4   2  -4 1229.49 283.771   6
  -4   2  -4 988.953 306.001   2
  -4   2  -4 936.065 298.151  14
  -4   2  -4 757.520 143.997   5
  -4   2  -4 1131.77 319.855  10
  -4   2  -5 26003.0 1738.43   4
   4  -2   5 28890.1 1817.60   8
  -4   2  -5 28298.0 1542.36   8
  -4   2  -5 28923.6 1382.33   2
  -4   2  -5 28394.3 777.805   1
  -4   2  -5 28157.0 1781.91   7
  -4   2  -5 30503.4 1680.68   3
   4  -2   5 28544.2 1828.78  14
  -4   2  -5 26946.1 1103.87   6
   4  -2   5 29870.6 1843.21  13
  -4   2  -5 26347.2 1574.41  11
  -4   2  -5 28471.6 925.477   5
  -4   2  -5 29280.0 1735.37  14
  -4   2  -5 31820.6 1318.32  10
  -4   2  -6 623.088 360.688   4
  -4   2  -6 455.368 152.889   1
   4  -2   6 522.140 354.951  15
  -4   2  -6 722.391 299.472   3
  -4   2  -6 551.441 197.744   6
   4  -2   6 85.1763 249.126  13
  -4   2  -6 572.776 356.762  11
  -4   2  -6 528.815 283.217   2
  -4   2  -6 537.398 186.270   5
  -4   2  -6 885.497 269.944  10
  -4   2  -7 9396.00 1252.91   4
  -4   2  -7 9202.03 923.416   2
  -4   2  -7 11080.7 605.439   1
  -4   2  -7 9789.08 1054.48  11
   4  -2   7 10834.6 1219.24  15
  -4   2  -7 10024.4 589.793   6
  -4   2  -7 10057.8 713.807   5
  -4   2  -7 10916.6 748.238  10
  -4   2  -8 3.56738 100.263   1
  -4   2  -8-678.189 494.637   4
   4  -2   8 121.043 293.941  15
  -4   2  -8 633.256 382.140  11
  -4   2  -8 187.832 255.895   2
  -4   2  -8 255.167 188.201   5
  -4   2  -8 177.045 158.734  10
   4  -2   8-259.689 286.928   9
  -4   2  -9 150.177 416.135   4
   4  -2   9 285.490 281.629  15
  -4   2  -9 575.713 418.279  11
  -4   2  -9 139.481 258.303   2
   4  -2   9 869.392 410.980   9
  -4   2 -10 1403.39 532.989   4
  -4   2 -10 798.871 385.298  11
   4  -2  10 1313.14 612.702  15
  -4   2 -10 543.996 349.549   2
   4  -2  10 422.479 319.308   9
  -4   2 -11-57.4177 387.284   4
  -4   2 -11 364.600 406.190  11
  -4   1  13 399.911 395.583   9
  -4   1  13 395.071 344.003  15
   4  -1 -13 912.910 526.330   1
  -4   1  12-397.609 341.754   9
  -4   1  12-92.1787 175.042   6
  -4   1  12 267.446 178.682  15
   4  -1 -12 62.7405 227.884   1
  -4   1  11 347.858 386.319   5
  -4   1  11-396.143 454.794   9
  -4   1  11 310.698 294.438  15
  -4   1  11 426.962 272.426   6
   4  -1 -11 579.273 345.674   1
  -4   1  10 926.780 481.028   5
  -4   1  10 270.055 421.532   9
   4  -1 -10 1096.87 409.713   7
  -4   1  10 664.377 99.8288  13
  -4   1  10 761.281 339.748   6
  -4   1  10 810.348 312.112  15
   4  -1 -10 857.430 280.127   6
   4  -1 -10 993.411 208.943  11
   4  -1 -10 1231.80 463.521   1
  -4   1   9 10805.1 1209.08   9
   4  -1  -9 9654.46 925.813   1
   4  -1  -9 8340.11 854.294   7
   4  -1  -9 8988.52 931.663   6
  -4   1   9 9893.68 485.233  13
   4  -1  -9 9955.76 622.667  11
  -4   1   9 11174.9 1009.47  15
  -4   1   9 10351.8 1118.23   5
  -4   1   9 10267.3 998.835   6
  -4   1   8 8152.85 1003.60   9
   4  -1  -8 7614.98 791.965   1
  -4   1   8 8073.37 868.562   6
   4  -1  -8 7181.86 731.175   7
   4  -1  -8 7390.69 810.831   6
  -4   1   8 7339.50 442.201  13
   4  -1  -8 8275.78 558.583  11
  -4   1   8 7457.61 907.451   5
  -4   1   8 7770.25 916.459  10
   4  -1  -8 7477.54 847.458   2
  -4   1   7 38.8769 226.530   6
  -4   1   7-5.72727 212.249   5
  -4   1   7 67.9787 130.403   1
  -4   1   7-22.1341 320.652   9
   4  -1  -7 157.905 121.172   2
   4  -1  -7 397.116 234.854  12
   4  -1  -7 524.163 190.921  11
   4  -1  -7 141.654 249.951   1
   4  -1  -7 126.731 228.179   3
   4  -1  -7 46.9280 139.322   6
   4  -1  -7-24.8721 135.777   5
  -4   1   6 8122.68 802.356   6
   4  -1  -6 8595.94 732.178   1
   4  -1  -6 8672.58 662.353   3
  -4   1   6 8975.26 782.103   1
   4  -1  -6 10215.0 891.554   6
   4  -1  -6 8506.08 883.425  12
   4  -1  -6 8836.06 565.225  11
   4  -1  -6 9369.51 745.644   5
  -4   1   6 8229.32 801.588   5
   4  -1  -6 8181.65 737.555   2
   4  -1  -5 11097.8 773.793   1
  -4   1   5 10809.2 448.255   8
  -4   1   5 10981.6 783.814   1
  -4   1   5 10443.0 868.511   6
   4  -1  -5 11255.6 900.166   6
   4  -1  -5 11058.5 690.998   3
   4  -1  -5 11550.7 681.586  11
   4  -1  -5 11661.0 769.496   5
  -4   1   5 10822.8 811.201   5
   4  -1  -5 9999.83 731.021   2
  -4   1   4 1128.99 276.945   5
   4  -1  -4 1550.12 262.980   8
  -4   1   4 1433.17 201.610   8
  -4   1   4 1370.62 299.361   1
   4  -1  -4 1085.50 223.199   2
   4  -1  -4 1314.27 300.732  14
  -4   1   4 1211.06 339.515   6
   4  -1  -4 1867.93 293.191  11
   4  -1  -4 1351.23 292.648   1
   4  -1  -4 1124.67 287.170   3
   4  -1  -4 1010.93 237.804   5
   4  -1  -3 1818.31 244.784   2
  -4   1   3 1512.49 270.709   5
  -4   1   3 1567.97 274.384   1
   4  -1  -3 1499.70 275.152   8
  -4   1   3 1318.17 233.815   8
   4  -1  -3 1322.86 294.179   4
   4  -1  -3 1495.41 204.960   7
   4  -1  -3 1537.94 335.718  14
  -4   1   3 1120.77 360.644   6
   4  -1  -3 1431.32 316.836  12
   4  -1  -3 1600.93 312.303   1
   4  -1  -3 1220.77 257.795  11
  -4   1   3 1555.80 261.461  11
   4  -1  -3 827.744 310.176   3
   4  -1  -3 1555.78 238.817   5
   4  -1  -2 44205.0 1040.69   2
   4  -1  -2 44319.1 1500.11   8
   4  -1  -2 46616.0 1654.97   4
  -4   1   2 45908.0 1395.75   8
  -4   1   2 47597.9 1246.82   1
   4  -1  -2 47458.7 1173.28   7
   4  -1  -2 44347.2 1479.82   3
  -4   1   2 44021.7 1601.60  13
   4  -1  -2 48770.3 1573.90  12
   4  -1  -2 45639.4 1660.66  14
  -4   1   2 49403.5 1260.50   3
   4  -1  -2 47989.1 1561.20  11
  -4   1   2 50267.1 1410.22  11
  -4   1   2 45337.0 1591.89   6
   4  -1  -2 46374.6 1031.85   5
  -4   1   2 44244.3 1075.10   5
  -4   1   2 46707.7 1167.49   2
  -4   1   1 14011.8 571.295   2
  -4   1   1 14687.6 646.615   1
   4  -1  -1 15618.7 607.611   2
   4  -1  -1 14973.1 987.361   4
   4  -1  -1 14479.7 932.550   8
  -4   1   1 14559.1 865.784   8
   4  -1  -1 14336.2 731.564   7
  -4   1   1 15241.9 678.781   7
   4  -1  -1 14124.6 880.809   3
  -4   1   1 13236.3 705.369   3
  -4   1   1 14385.4 895.315   6
  -4   1   1 14315.1 965.830  13
   4  -1  -1 15165.8 808.922  12
   4  -1  -1 14477.4 928.407  11
  -4   1   1 14894.1 834.079  11
   4  -1  -1 14447.9 470.314   5
  -4   1   1 14899.5 489.544   5
   4  -1  -1 16001.5 1052.95  14
  -4   1   0 46498.9 1089.65   1
  -4   1   0 49061.9 1073.98   2
   4  -1   0 48879.0 1837.57   4
   4  -1   0 46106.7 1744.86   8
  -4   1   0 47088.8 1627.17   8
   4  -1   0 49203.1 1127.91   2
   4  -1   0 48101.8 1490.07   7
  -4   1   0 49026.7 1567.61   6
  -4   1   0 49910.8 1455.71   7
   4  -1   0 46777.3 1543.42   6
   4  -1   0 47074.0 1639.87   3
   4  -1   0 46454.8 1822.93  14
   4  -1   0 47460.9 1284.56  12
   4  -1   0 45589.4 1722.50  11
  -4   1   0 48714.5 1453.75   3
   4  -1   1 91358.5 2645.95   4
  -4   1  -1 91321.9 1616.18   2
   4  -1   1 88833.2 2545.46   8
   4  -1   1 89795.6 2282.41   7
  -4   1  -1 89024.5 2193.92   7
   4  -1   1 90918.6 2391.65   3
  -4   1  -1 88674.9 2161.73   3
   4  -1   1 86815.9 2558.75  14
  -4   1  -1 93319.3 2098.07   6
   4  -1   1 90382.2 2059.37   6
   4  -1   1 92350.2 1547.62  12
  -4   1  -1 96517.5 2541.33   9
  -4   1  -2 266.954 197.367   9
   4  -1   2-13.9608 259.567   8
  -4   1  -2-145.544 203.339   4
   4  -1   2-19.0632 182.014   7
  -4   1  -2 4.41792 155.311   2
  -4   1  -2-49.7792 154.985   7
   4  -1   2-204.851 315.081  14
   4  -1   2 215.600 220.833   3
  -4   1  -2 117.753 172.138   6
  -4   1  -2-0.72902 168.984   3
   4  -1   2 3.36449 41.4856  12
   4  -1   2 53.0597 91.5932   6
  -4   1  -3 1295.73 337.383   9
  -4   1  -3 933.991 208.970   1
  -4   1  -3 881.150 406.944   4
   4  -1   3 597.861 320.627   7
  -4   1  -3 1095.63 350.302   7
   4  -1   3 1553.31 446.271  14
  -4   1  -3 594.797 267.563  14
  -4   1  -3 869.451 346.546  15
   4  -1   3 1117.74 413.171   3
  -4   1  -3 1024.07 326.320  13
  -4   1  -3 893.811 313.478   3
  -4   1  -3 811.739 208.990   6
  -4   1  -3 882.043 123.337   5
  -4   1  -3 449.803 227.388   2
  -4   1  -3 632.305 216.238  10
  -4   1  -4-20.0336 147.471   9
  -4   1  -4 345.576 258.014  14
  -4   1  -4 50.4393 216.436   4
   4  -1   4 234.924 211.299   3
  -4   1  -4-87.5348 147.079   8
   4  -1   4 529.641 286.464   7
  -4   1  -4 445.472 244.494  15
  -4   1  -4 325.234 272.712   7
   4  -1   4 233.294 260.764  14
  -4   1  -4 373.051 234.543  13
  -4   1  -4 292.755 151.271   1
  -4   1  -4 16.0670 215.310   3
  -4   1  -4 243.297 139.692   6
  -4   1  -4-9.21037 229.450  11
  -4   1  -4 372.744 213.009   2
  -4   1  -4 185.577 128.352  10
  -4   1  -4 179.911 88.6132   5
  -4   1  -5 467.749 282.876   9
  -4   1  -5 71.9192 152.815   1
  -4   1  -5-234.084 297.646   4
  -4   1  -5-287.940 283.060   8
   4  -1   5 718.470 320.148   7
  -4   1  -5 5.22834 183.968   7
  -4   1  -5-415.428 329.993  15
  -4   1  -5 245.839 318.077  13
  -4   1  -5 256.074 214.649   3
  -4   1  -5 42.6902 125.317   6
  -4   1  -5-524.351 405.679  11
  -4   1  -5 518.268 278.889  14
  -4   1  -5 68.1517 214.296   2
  -4   1  -5-22.8702 125.423  10
  -4   1  -5 283.394 146.705   5
   4  -1   6-448.343 339.051   9
  -4   1  -6-450.038 388.699   4
  -4   1  -6 40.7406 78.5739   6
  -4   1  -6 32.8308 98.3936   1
  -4   1  -6-241.628 268.286  11
  -4   1  -6 27.8228 125.035   5
  -4   1  -6-171.933 215.713   2
  -4   1  -6 31.8392 82.2085  10
   4  -1   7 5771.05 897.592   9
  -4   1  -7 4992.04 940.024   4
  -4   1  -7 4338.32 672.951   2
  -4   1  -7 5647.05 543.921   1
  -4   1  -7 5011.25 817.942  11
  -4   1  -7 4659.21 502.413   5
  -4   1  -7 4741.81 325.954  10
   4  -1   8 729.864 457.908   9
  -4   1  -8 485.781 495.533   4
  -4   1  -8 1051.17 308.077   1
  -4   1  -8 651.183 383.639  11
  -4   1  -8 451.001 372.500   2
  -4   1  -8 1390.42 328.338   5
   4  -1   9 5495.16 1037.68   9
  -4   1  -9 3809.93 842.090   4
  -4   1  -9 4010.25 502.589   1
  -4   1  -9 3373.27 803.547  11
  -4   1  -9 4172.01 693.396   2
   4  -1  10 364.790 277.715   9
  -4   1 -10-26.8310 89.9768   4
  -4   1 -10 276.876 388.040  11
  -4   1 -10 557.584 439.215   2
  -4   1 -11-432.955 308.875  11
  -4   1 -11-571.863 313.666   2
  -4   1 -12 238.289 447.505  11
  -4   0  14-64.9452 358.036  15
  -4   0  13 313.465 414.803   5
  -4   0  13 535.272 452.276   9
  -4   0  13 594.939 353.503  15
   4   0 -13-611.451 403.082   1
  -4   0  12 3742.96 892.526   5
  -4   0  12 2013.21 668.485   9
  -4   0  12 2026.60 580.379  15
  -4   0  12 2051.00 477.276   6
   4   0 -12 2386.13 584.769   1
  -4   0  11 88.5259 291.861   5
  -4   0  11 362.892 484.265   9
  -4   0  11-392.775 318.467   6
  -4   0  11 79.2981 297.926  15
   4   0 -11 310.130 255.319   1
  -4   0  10 8557.87 1163.87   9
   4   0 -10 8049.33 892.429   6
   4   0 -10 8434.09 914.993   1
   4   0 -10 7837.66 911.550   7
  -4   0  10 9430.22 1026.10  15
  -4   0  10 7987.71 904.641   6
  -4   0  10 8100.45 623.231  13
   4   0 -10 8334.42 512.978  11
  -4   0  10 7925.27 1026.79   5
  -4   0   9 735.950 469.197   5
  -4   0   9 1443.42 564.999   9
  -4   0   9 1451.66 435.867   6
  -4   0   9 1435.51 298.135  13
   4   0  -9 1602.47 430.532   6
   4   0  -9 1365.91 464.658   1
   4   0  -9 1531.71 245.857  11
  -4   0   9 1428.33 425.767  15
   4   0  -9 1455.46 424.546   3
  -4   0   8 14353.2 1255.17   9
   4   0  -8 14377.7 1046.41   1
   4   0  -8 13911.5 926.376   3
  -4   0   8 15353.2 1164.12   6
   4   0  -8 15108.5 1139.57   6
  -4   0   8 14208.6 754.106  13
   4   0  -8 15706.9 674.723  11
  -4   0   8 13971.4 1178.61   5
  -4   0   8 17126.9 1309.69  10
  -4   0   7 8832.10 910.925   9
   4   0  -7 7639.02 740.702   1
  -4   0   7 8040.58 751.142   1
   4   0  -7 8617.31 700.178   3
  -4   0   7 8126.01 829.558   6
   4   0  -7 8896.10 853.212   6
   4   0  -7 8539.31 513.420  11
   4   0  -7 9113.51 784.717   5
  -4   0   7 7496.27 812.571   5
  -4   0   7 9270.06 935.408  10
  -4   0   6 27245.3 1424.54   9
   4   0  -6 25198.8 1222.43   1
  -4   0   6 25322.8 1260.11   1
   4   0  -6 25975.1 1101.45   3
  -4   0   6 23829.6 1337.80   6
   4   0  -6 24676.6 867.370  11
   4   0  -6 25242.7 1202.98   5
  -4   0   6 26452.3 1331.89   5
   4   0  -6 25410.4 1374.16   6
  -4   0   6 25170.7 1436.46  10
   4   0  -5 11723.3 821.101   1
  -4   0   5 11722.6 494.208   8
   4   0  -5 11476.6 740.423   3
   4   0  -5 13498.1 758.053  14
   4   0  -5 12346.1 933.755   6
  -4   0   5 12203.9 934.942   6
   4   0  -5 12170.7 639.897  11
   4   0  -5 13159.8 803.701   5
  -4   0   5 12090.2 834.552   5
  -4   0   5 13261.3 995.782  10
   4   0  -5 11456.7 740.554   2
   4   0  -4 6259.55 569.432   1
  -4   0   4 6571.57 465.763   8
   4   0  -4 6361.22 579.904   3
   4   0  -4 5912.43 551.861  14
  -4   0   4 7176.46 693.081   6
   4   0  -4 6524.51 504.671  11
  -4   0   4 7341.93 449.853  11
   4   0  -4 6525.78 528.086   5
  -4   0   4 6056.86 551.232   5
   4   0  -4 6380.29 469.740   2
  -4   0   3 9776.66 634.059   1
  -4   0   3 9113.55 626.150   8
   4   0  -3 9314.02 748.115   4
   4   0  -3 9286.23 738.833  14
   4   0  -3 8910.73 707.550   3
  -4   0   3 8759.71 757.913   6
   4   0  -3 9190.44 648.529  11
  -4   0   3 10348.7 594.751  11
   4   0  -3 8506.85 538.230   5
  -4   0   3 9769.02 606.050   5
   4   0  -3 8990.64 454.191   2
  -4   0   2 332.863 156.441   8
   4   0  -2 324.201 195.938   4
  -4   0   2 466.699 187.048  14
   4   0  -2 499.312 190.122   7
   4   0  -2 201.525 195.395  14
   4   0  -2 387.224 82.4598   2
  -4   0   2 660.995 303.066   6
   4   0  -2 348.782 162.723  11
  -4   0   2 464.564 162.768   1
   4   0  -2 326.173 237.446   3
  -4   0   2 544.476 180.545  11
   4   0  -2 436.329 141.187   5
  -4   0   2 286.304 132.156   5
  -4   0   1 5717.57 438.752   1
   4   0  -1 6296.59 646.623   4
  -4   0   1 5385.91 556.018   8
   4   0  -1 5369.73 256.289   2
   4   0  -1 6177.33 574.900   6
   4   0  -1 6380.86 563.774   7
   4   0  -1 6168.33 638.784   3
   4   0  -1 6134.87 658.386  14
  -4   0   1 6094.25 603.753   6
  -4   0   1 5208.55 510.843  11
   4   0  -1 5487.96 352.321   5
  -4   0   1 6076.73 344.402   5
  -4   0   1 5908.06 268.815   2
   4   0   0 53.0872 259.716   3
   4   0   0 339.094 218.633   4
   4   0   0 180.157 190.048   7
  -4   0   0 156.239 129.535   7
   4   0   0 16.6802 261.390  14
  -4   0   0 129.147 83.9725   2
  -4   0   0 107.584 195.685   6
   4   0   0 93.1675 116.125   6
  -4   0   0 202.238 208.433   3
  -4   0   0-113.330 191.637  11
  -4   0   0 193.046 77.6837   5
   4   0   1 33495.2 1629.83   4
  -4   0  -1 32321.3 838.568   2
   4   0   1 33140.0 1475.34   7
  -4   0  -1 32984.8 1396.22   7
   4   0   1 36056.6 1599.05   3
  -4   0  -1 32472.6 1403.62   3
   4   0   1 31771.2 1582.02  14
  -4   0  -1 31613.5 1183.20   6
   4   0   1 32795.0 1208.54   6
  -4   0  -1 28876.2 614.674   5
  -4   0  -1 31783.5 1350.27   9
  -4   0  -2 1724.74 373.992   9
  -4   0  -2 2019.77 277.459   2
   4   0   2 1741.95 438.674   7
  -4   0  -2 1996.27 439.416  15
  -4   0  -2 1980.04 385.137   7
   4   0   2 2166.75 477.759  14
  -4   0  -2 1691.25 291.047   6
  -4   0  -2 1543.88 358.501   3
   4   0   2 1853.07 440.833   3
   4   0   2 1635.40 255.307   6
  -4   0  -2 1945.74 203.536   5
  -4   0  -3 41228.9 1766.08   9
  -4   0  -3 39639.1 1815.24   8
  -4   0  -3 41383.3 1331.70   2
   4   0   3 43270.9 1957.20   7
  -4   0  -3 41595.0 1868.39   7
   4   0   3 42994.4 1998.00   3
  -4   0  -3 41373.3 1841.56  15
  -4   0  -3 42595.6 1859.92   3
  -4   0  -3 39361.3 1197.63   6
  -4   0  -3 43261.1 1953.47  13
   4   0   3 39213.8 1165.73   6
  -4   0  -3 40542.6 1339.60   1
   4   0   3 39078.3 1933.99  14
   4   0   3 38726.5 670.010  12
  -4   0  -3 38913.4 1058.16  10
  -4   0  -3 38414.3 994.921   5
  -4   0  -4 121.768 88.3054   5
   4   0   4-92.1170 190.883   9
  -4   0  -4-42.4636 204.856   9
  -4   0  -4 68.1691 298.678   4
  -4   0  -4 105.190 216.614   8
  -4   0  -4 42.3904 142.414   1
   4   0   4-357.879 291.113   7
  -4   0  -4-319.758 310.730  15
  -4   0  -4-2.28845 222.561   7
  -4   0  -4-117.075 225.980  14
   4   0   4 127.936 235.559   3
  -4   0  -4 319.044 257.754  13
  -4   0  -4 206.596 147.089   6
  -4   0  -4-2.23164 192.176   3
  -4   0  -4 131.379 81.0670  10
  -4   0  -4 112.431 175.688   2
  -4   0  -5 17498.0 1345.54   9
  -4   0  -5 14943.8 1396.64   4
  -4   0  -5 15436.9 1256.11   8
  -4   0  -5 15250.6 1002.30   2
   4   0   5 16955.4 1407.77   7
  -4   0  -5 15522.8 1253.92  15
  -4   0  -5 16825.8 1404.53   3
  -4   0  -5 16208.0 939.164   1
  -4   0  -5 16077.9 591.006   6
  -4   0  -5 17126.4 1326.45  13
  -4   0  -5 15483.7 822.176   5
   4   0   5 15560.8 1247.76   9
  -4   0  -6 250.135 156.152   5
   4   0   6-239.454 341.599   9
  -4   0  -6-221.834 165.845   1
  -4   0  -6-357.725 492.752   4
   4   0   6-504.306 392.577   7
  -4   0  -6-49.6364 225.913  15
   4   0   7 3825.48 775.778   9
  -4   0  -7 3073.92 748.984   4
  -4   0  -7 3408.67 492.841   1
  -4   0  -7 2925.52 444.739   5
  -4   0  -8 2218.07 538.592   2
   4   0   8 3010.10 739.520   9
  -4   0  -8 1695.33 634.372   4
  -4   0  -8 2450.87 440.179   1
  -4   0  -8 1911.90 605.076  11
  -4   0  -8 2352.78 474.973   5
   4   0   9 3317.45 768.138   9
  -4   0  -9 1803.15 740.453   4
  -4   0  -9 2492.08 468.465   1
  -4   0  -9 2402.17 634.208  11
  -4   0  -9 2444.79 628.891   2
   4   0  10 166.428 267.479   9
  -4   0 -10-225.496 404.494   4
  -4   0 -10 607.907 329.302   1
  -4   0 -10 1126.61 559.542  11
  -4   0 -10 135.834 244.573   2
  -4   0 -11 1110.74 527.165  11
  -4   0 -11 498.079 347.229   2
  -4  -1  14 543.311 387.771  15
  -4  -1  13-286.146 219.263   5
  -4  -1  13 188.140 414.903   9
  -4  -1  13 686.815 324.174  15
   4   1 -13 287.480 282.813   1
   4   1 -13 225.653 351.686   3
  -4  -1  12 801.888 506.421   5
  -4  -1  12 1813.28 667.610   9
  -4  -1  12 621.279 459.760  15
  -4  -1  12 1027.07 393.717   6
   4   1 -12 995.511 382.675   1
   4   1 -12 891.281 468.995   3
  -4  -1  11 5813.86 932.239   5
   4   1 -11 5863.43 809.113   1
  -4  -1  11 5454.90 1001.29   9
   4   1 -11 6003.88 737.315   3
  -4  -1  11 5592.04 876.233  15
  -4  -1  11 5143.02 760.508   6
  -4  -1  11 5602.00 629.593  13
  -4  -1  10 959.536 472.810   9
  -4  -1  10 1315.61 518.131   5
  -4  -1  10 1555.50 503.819   6
  -4  -1  10 1016.31 319.803  13
   4   1 -10 947.024 422.495   1
   4   1 -10 1032.08 140.976  11
  -4  -1  10 896.931 458.916  15
   4   1 -10 1102.34 437.745   3
  -4  -1   9 3112.05 642.131   5
  -4  -1   9 3708.70 687.038   9
   4   1  -9 3674.29 555.135   3
  -4  -1   9 2933.36 459.253  13
  -4  -1   9 2853.30 537.793   6
   4   1  -9 3983.98 637.791   6
   4   1  -9 3509.55 619.516   1
  -4  -1   9 3565.04 677.107  15
   4   1  -9 2827.30 222.789  11
  -4  -1   8 463.418 366.735   5
  -4  -1   8 222.416 272.785   9
  -4  -1   8 473.161 328.566   6
   4   1  -8 238.286 267.926   6
   4   1  -8 379.104 108.252  11
   4   1  -8 505.446 367.588   1
   4   1  -8 742.491 330.453   3
  -4  -1   7 298.119 289.043   5
  -4  -1   7 653.631 341.248   9
  -4  -1   7 522.831 192.382   1
  -4  -1   7 681.496 324.410   6
   4   1  -7 238.932 306.190   1
   4   1  -7 323.207 243.731   6
   4   1  -7 399.181 111.946  11
   4   1  -7 448.148 290.003   3
   4   1  -7 379.014 217.356   5
  -4  -1   7 241.113 221.367  10
  -4  -1   6 1347.17 366.711   5
   4   1  -6 1215.06 344.417   1
  -4  -1   6 851.045 281.784   1
  -4  -1   6 1163.38 350.622   9
  -4  -1   6 880.074 148.360   8
   4   1  -6 1068.79 266.123  14
  -4  -1   6 643.524 321.704   6
   4   1  -6 896.668 343.601   6
   4   1  -6 889.164 168.255  11
   4   1  -6 1028.36 331.808   3
   4   1  -6 832.748 285.136   5
  -4  -1   6 1627.89 404.185  10
  -4  -1   5 18567.9 1022.67   9
  -4  -1   5 17978.6 773.700   8
   4   1  -5 17824.0 898.933  14
   4   1  -5 18870.7 1146.24   6
   4   1  -5 20094.2 1026.26   5
  -4  -1   5 18630.2 1012.23   5
  -4  -1   5 18201.3 1173.37  10
   4   1  -5 18918.1 1009.01   3
  -4  -1   5 18581.9 1159.18   6
   4   1  -4 80225.3 1910.50   5
   4   1  -4 82578.2 2135.67   3
   4   1  -4 83065.2 2032.82  14
  -4  -1   4 90156.4 1469.02  11
  -4  -1   4 86622.4 1967.36   5
  -4  -1   4 85444.0 2404.24  10
  -4  -1   4 79918.6 2274.09   6
   4   1  -3 14084.3 931.576   4
   4   1  -3 12729.9 902.141   3
   4   1  -3 13647.1 874.146  14
  -4  -1   3 14720.9 699.835  14
  -4  -1   3 12352.2 905.907   6
  -4  -1   3 12730.7 647.182  11
   4   1  -3 14069.7 761.520   5
  -4  -1   3 14213.0 725.488   5
  -4  -1   3 13457.4 912.803  10
   4   1  -3 12766.4 444.427   2
   4   1  -2 1775.70 370.805   4
   4   1  -2 2260.59 374.047   7
   4   1  -2 1740.72 388.580  14
  -4  -1   2 2349.34 419.584   6
   4   1  -2 1714.94 411.400   3
   4   1  -2 2081.85 300.111   5
  -4  -1   2 1887.08 307.703  11
  -4  -1   2 1680.71 263.003   5
  -4  -1   2 1421.87 271.914  14
  -4  -1   2 2262.68 374.670  10
   4   1  -1 89185.1 2440.85   4
   4   1  -1 89320.7 2251.02   7
   4   1  -1 87344.6 2362.67   3
   4   1  -1 84868.6 2288.27  14
  -4  -1   1 90224.7 2182.19   6
   4   1  -1 87293.0 2102.14   6
  -4  -1   1 86809.7 2065.49  14
  -4  -1   1 87666.1 2147.05  11
  -4  -1   1 88564.4 1511.27   5
  -4  -1   1 88005.5 2067.88  10
  -4  -1   0 3386.79 177.614   2
   4   1   0 3138.72 499.749   4
  -4  -1   0 3625.46 459.999   7
   4   1   0 3008.38 493.851   7
   4   1   0 3559.94 528.754  14
   4   1   0 3503.88 414.833   6
  -4  -1   0 3727.20 460.528   6
  -4  -1   0 3807.28 481.799  14
   4   1   0 3173.09 518.769   3
  -4  -1   0 3184.67 292.885   5
  -4  -1   0 3552.28 407.624  10
  -4  -1   0 3366.98 366.061   9
  -4  -1  -1 6848.85 565.618   9
   4   1   1 8050.16 821.898   4
  -4  -1  -1 6893.74 383.296   2
   4   1   1 7224.18 761.536   7
  -4  -1  -1 7283.84 709.132   7
   4   1   1 6935.88 781.884   3
   4   1   1 6634.47 548.395   6
  -4  -1  -1 7362.60 607.931   6
   4   1   1 7402.69 804.692  14
  -4  -1  -1 7033.88 520.242  10
  -4  -1  -2 8900.57 719.038   9
   4   1   2 9766.34 950.213   7
  -4  -1  -2 10047.9 885.518   7
   4   1   2 8534.68 917.406   3
  -4  -1  -2 9751.14 853.640  15
   4   1   2 9555.61 955.557  14
  -4  -1  -2 9078.05 629.647   6
   4   1   2 9500.88 619.951   6
  -4  -1  -2 9682.86 537.162  10
   4   1   3 366.631 225.343   9
  -4  -1  -3 213.203 173.384   9
  -4  -1  -3 20.3402 97.2916   5
  -4  -1  -3-166.135 261.843   8
  -4  -1  -3-43.4576 213.465   4
   4   1   3-81.0076 229.166   7
  -4  -1  -3-67.4824 130.831  15
  -4  -1  -3 29.4834 249.022   7
  -4  -1  -3-1.12378 83.4462  14
   4   1   3 199.894 259.066   3
  -4  -1  -3 249.785 236.451  13
  -4  -1  -3 22.6408 112.792   6
  -4  -1  -3 1.06196 195.792   3
   4   1   3 61.2565 72.7265   6
  -4  -1  -3 120.567 62.9572  10
  -4  -1  -4 5666.92 705.657   9
  -4  -1  -4 6251.02 803.819   8
  -4  -1  -4 4745.17 797.827   4
   4   1   4 5810.91 836.968   7
  -4  -1  -4 6289.89 821.764   7
   4   1   4 6699.25 903.346   3
  -4  -1  -4 6079.43 745.338  15
  -4  -1  -4 5322.89 783.974   3
  -4  -1  -4 5481.23 388.201   6
  -4  -1  -4 6404.98 855.731  14
   4   1   4 5426.55 378.214   6
  -4  -1  -4 5302.60 584.958   1
  -4  -1  -4 6947.20 832.482  13
   4   1   4 5650.46 373.233  12
  -4  -1  -4 5083.55 504.227   5
   4   1   4 6047.42 729.402   9
  -4  -1  -5 13090.0 1124.94   9
  -4  -1  -5 10040.3 1174.08   4
   4   1   5 10058.5 1159.91   7
  -4  -1  -5 12121.6 1089.37  15
  -4  -1  -5 11053.6 883.413   1
  -4  -1  -5 13601.9 1187.46  13
   4   1   5 11191.0 484.875  12
  -4  -1  -5 11155.4 812.359   5
   4   1   5 10480.2 1015.69   9
  -4  -1  -6 91.0737 142.428   5
   4   1   6 77.7533 257.874   9
  -4  -1  -6-94.1537 313.539   4
  -4  -1  -6 48.6243 243.969   1
  -4  -1  -6 323.056 218.176  15
   4   1   6 497.171 358.297   7
  -4  -1  -6 71.1187 247.603  13
   4   1   7 5531.94 903.458   9
  -4  -1  -7 5602.33 1029.14   4
   4   1   7 6503.35 1055.05   7
  -4  -1  -7 6061.35 705.563   1
  -4  -1  -7 6462.93 716.573   5
   4   1   8 728.335 407.206   9
  -4  -1  -8 502.827 465.835   4
   4   1   8 888.502 515.566   7
  -4  -1  -8 374.830 273.097   1
   4   1   9 44.0396 225.186   9
  -4  -1  -9-281.929 453.012   4
  -4  -1  -9 306.811 331.413   1
   4   1  10 12.9492 136.218   9
  -4  -1 -10-39.3529 432.235   4
  -4  -1 -10 146.808 204.552   1
  -4  -1 -11-273.606 244.130   1
  -4  -2  14-279.185 402.645  15
   4   2 -13-982.021 461.007   2
   4   2 -13 370.509 259.845   1
  -4  -2  13-296.771 304.282   5
  -4  -2  13-873.422 512.459   9
  -4  -2  13 495.061 378.572  15
   4   2 -13-165.633 333.543   3
   4   2 -12 615.111 346.538   1
  -4  -2  12 559.087 395.002   5
  -4  -2  12 1071.53 449.390   9
  -4  -2  12 335.016 431.602  15
  -4  -2  12 530.468 221.061  13
   4   2 -12 319.759 292.962   3
   4   2 -11 1460.67 464.991   1
  -4  -2  11 1061.81 472.901   5
  -4  -2  11 756.276 514.855   9
  -4  -2  11 1066.84 472.025  15
  -4  -2  11 1606.32 404.967  13
   4   2 -11 982.739 436.955   3
   4   2 -10 4723.49 771.997   1
  -4  -2  10 5769.45 917.628   9
  -4  -2  10 5201.81 829.684  15
   4   2 -10 6040.20 722.226   3
  -4  -2  10 4249.00 749.962   6
  -4  -2  10 5295.22 683.347  13
  -4  -2  10 5366.27 843.517   5
  -4  -2   9 5599.16 859.898   9
  -4  -2   9 5618.76 851.391  15
  -4  -2   9 6334.49 854.502   6
  -4  -2   9 5863.17 662.101  13
  -4  -2   9 5645.84 809.657   5
   4   2  -9 5542.31 684.199   3
  -4  -2   8 37198.9 1896.75   9
   4   2  -8 36854.2 1506.06   3
  -4  -2   8 39969.5 1945.46  15
  -4  -2   8 36408.9 1855.80   6
   4   2  -8 39169.3 1857.64   6
  -4  -2   8 36887.8 1792.59   5
  -4  -2   7 181.926 141.464   1
  -4  -2   7 292.967 150.575   9
  -4  -2   7-64.4451 285.758   6
  -4  -2   7 240.447 81.7575   8
   4   2  -7 442.645 210.946  14
   4   2  -7 334.112 215.012   6
   4   2  -7 554.037 315.130   3
   4   2  -7 536.081 297.268   5
  -4  -2   7 480.561 233.507  10
  -4  -2   7 320.657 275.949   5
  -4  -2   6 18936.5 1106.93   9
  -4  -2   6 19866.2 1090.87   1
  -4  -2   6 18466.3 1237.19   6
   4   2  -6 20276.5 1251.36   6
   4   2  -6 19197.4 903.950  14
   4   2  -6 18742.3 1107.99   5
  -4  -2   6 19548.4 1134.21   5
   4   2  -6 18138.1 1051.72   3
  -4  -2   6 20919.4 1358.85  10
  -4  -2   5 841.421 239.077   9
   4   2  -5 585.473 225.009  14
  -4  -2   5 711.566 345.674   6
   4   2  -5 656.133 231.876   6
  -4  -2   5 716.695 111.195  11
   4   2  -5 1258.87 349.007   3
   4   2  -5 587.974 232.207   5
   4   2  -5 623.226 194.473   2
  -4  -2   5 987.176 323.828  10
  -4  -2   5 666.788 296.038   5
  -4  -2   4 57.0461 130.836   9
   4   2  -4 810.172 260.318   4
   4   2  -4 225.837 132.847  14
  -4  -2   4 208.898 264.621   6
  -4  -2   4 89.0140 96.7947  11
   4   2  -4 377.391 271.719   3
   4   2  -4 148.893 103.962   2
   4   2  -4 19.6036 144.685   5
  -4  -2   4 149.081 196.805   5
  -4  -2   4 187.864 186.951  10
  -4  -2   3 15942.0 643.416   9
   4   2  -3 15575.5 447.858   2
   4   2  -3 16050.6 1012.40   4
   4   2  -3 15579.0 1052.53   3
   4   2  -3 15585.6 893.927  14
  -4  -2   3 16166.3 740.199  14
  -4  -2   3 14531.2 1000.04   6
  -4  -2   3 15090.6 761.622  11
   4   2  -3 16053.6 907.754   5
  -4  -2   3 15918.4 824.809   5
  -4  -2   3 15417.8 1011.47  10
   4   2  -2 290.018 235.826   4
  -4  -2   2 240.348 157.231  14
   4   2  -2 427.394 237.363   7
   4   2  -2 329.861 204.590  14
  -4  -2   2 354.498 262.460   6
   4   2  -2 402.950 190.994   6
   4   2  -2-0.79248 185.152   3
  -4  -2   2 230.699 167.927   5
  -4  -2   2 349.093 200.841  10
  -4  -2   1 168.011 102.440   9
   4   2  -1 181.844 160.500   4
   4   2  -1 33.4808 233.473   3
  -4  -2   1 326.714 197.406   4
   4   2  -1 117.276 176.614   7
   4   2  -1 134.789 209.117  14
  -4  -2   1 311.095 161.352  14
  -4  -2   1-44.8161 216.951   6
   4   2  -1 186.284 152.885   6
  -4  -2   1 157.946 158.769   5
  -4  -2   1 29.6270 159.817  10
  -4  -2   0 2488.21 282.955   9
  -4  -2   0 2497.27 178.436   2
   4   2   0 1970.73 414.360   4
  -4  -2   0 2443.35 440.313   4
   4   2   0 2986.60 523.372  14
  -4  -2   0 2832.08 441.495   6
   4   2   0 2045.32 332.411   6
   4   2   0 2299.56 471.310   3
  -4  -2   0 2581.41 346.123   5
   4   2   0 2507.23 482.523   7
  -4  -2   0 2789.37 372.726  10
  -4  -2   0 2270.60 398.653  14
  -4  -2  -1 52075.6 1431.88   9
   4   2   1 53599.9 2146.77   4
  -4  -2  -1 55263.0 2079.99   4
   4   2   1 54698.3 2154.40   7
  -4  -2  -1 57179.1 1994.96   7
   4   2   1 51957.6 2145.68   3
   4   2   1 51484.6 2078.03  14
  -4  -2  -1 52765.2 2033.26  14
  -4  -2  -1 54267.7 1647.28   6
   4   2   1 52170.2 1570.25   6
  -4  -2  -1 53128.8 1416.92  10
  -4  -2  -1 52097.9 1189.66   2
  -4  -2  -2 6320.04 577.427   9
  -4  -2  -2 6323.20 768.010   4
   4   2   2 6668.05 826.884   7
  -4  -2  -2 6855.79 758.758   7
   4   2   2 5834.40 790.642   3
  -4  -2  -2 6168.76 749.773  14
   4   2   2 6195.28 514.458   6
  -4  -2  -2 6540.83 546.373   6
  -4  -2  -2 5815.65 416.795  10
   4   2   2 6627.23 594.278   9
  -4  -2  -3 9024.56 784.470   9
  -4  -2  -3 8407.85 955.525   4
   4   2   3 9327.92 1022.16   7
  -4  -2  -3 9802.31 973.073   7
   4   2   3 8799.52 1051.86   3
  -4  -2  -3 9980.77 869.553  15
  -4  -2  -3 9586.70 1001.03   3
  -4  -2  -3 9335.21 1014.78  14
   4   2   3 8780.13 574.063   6
  -4  -2  -3 8667.73 387.768  10
   4   2   3 10191.2 820.867   9
   4   2   4-67.2935 219.436   9
  -4  -2  -4 369.700 253.957   9
  -4  -2  -4 209.221 219.153   8
  -4  -2  -4-108.239 240.910   4
   4   2   4-73.0992 289.922   7
  -4  -2  -4 47.0984 229.968  15
   4   2   4-193.768 355.625   3
  -4  -2  -4-138.205 207.699  13
   4   2   4 217.295 112.991   6
   4   2   4 272.363 158.937  12
  -4  -2  -4 113.902 231.183   1
  -4  -2  -5 5620.51 750.313   9
  -4  -2  -5 5398.02 887.243   4
  -4  -2  -5 6104.70 753.046  15
   4   2   5 4817.50 881.341   7
  -4  -2  -5 5630.33 719.031   1
  -4  -2  -5 5611.77 808.585  13
   4   2   5 5564.33 276.285   6
   4   2   5 5659.09 493.350  12
  -4  -2  -5 5535.93 641.614   5
   4   2   5 6098.88 784.219   9
   4   2   6 3530.38 643.064   9
  -4  -2  -6 4240.22 891.371   4
  -4  -2  -6 4293.30 641.367   1
   4   2   6 4485.79 925.741   7
  -4  -2  -6 4087.47 661.669  15
  -4  -2  -6 4054.55 705.728  13
   4   2   6 4201.27 432.854  12
  -4  -2  -6 4511.65 624.364   5
   4   2   7 9895.35 1153.84   9
  -4  -2  -7 9806.42 1307.64   4
   4   2   7 9781.76 1265.07   7
  -4  -2  -7 9286.45 984.547  15
  -4  -2  -7 10575.9 1004.76   1
  -4  -2  -8 37.4436 186.320   1
   4   2   8 958.826 476.695   9
  -4  -2  -8 240.735 238.612   4
   4   2   8 958.350 533.537   7
   4   2   9 1864.62 613.401   9
  -4  -2  -9 1125.31 502.320   4
   4   2   9 2185.91 692.080   7
  -4  -2  -9 1135.53 434.906   1
   4   2  10-547.451 403.595   9
  -4  -2 -10-31.6804 271.810   1
  -4  -2 -11 356.935 386.133   1
  -4  -3  13 3221.79 747.734   5
  -4  -3  13 2633.82 820.080   9
  -4  -3  13 3992.22 888.103  15
   4   3 -13 4052.31 707.891   3
   4   3 -13 3730.35 745.904   2
  -4  -3  12 3311.63 781.650   5
  -4  -3  12 1897.29 615.014   9
  -4  -3  12 3348.84 898.826  15
  -4  -3  12 2022.47 483.060  13
   4   3 -12 2168.35 499.158   3
   4   3 -12 1502.94 442.797   2
  -4  -3  11 4399.33 773.597   5
  -4  -3  11 4206.67 865.757   9
  -4  -3  11 4688.09 713.562  13
   4   3 -11 5098.85 679.829   3
  -4  -3  11 4319.57 883.513  15
   4   3 -11 4241.05 708.849   2
  -4  -3  10 3020.83 654.296   5
  -4  -3  10 3535.65 722.959   9
  -4  -3  10 3778.43 780.060  15
   4   3 -10 4483.61 656.836   3
  -4  -3  10 3757.96 617.826  13
   4   3 -10 3569.49 616.738   2
  -4  -3   9 2696.34 588.290   5
  -4  -3   9 2541.67 591.236   9
  -4  -3   9 1992.80 227.629   8
  -4  -3   9 2606.29 670.231  15
   4   3  -9 2668.98 351.947  14
  -4  -3   9 2094.87 491.429  13
   4   3  -9 2666.43 543.765   3
   4   3  -9 2296.11 510.712   2
  -4  -3   8 8791.11 935.379   9
  -4  -3   8 9686.93 523.845   8
   4   3  -8 9010.50 830.906   2
  -4  -3   8 9373.04 1028.20  15
   4   3  -8 9443.18 862.523   3
   4   3  -8 9792.98 636.849  14
  -4  -3   8 9418.40 1040.24   6
  -4  -3   8 8917.51 941.191   5
  -4  -3   7 17968.2 1182.33   9
   4   3  -7 18587.7 1045.19   2
   4   3  -7 17689.0 1124.87   3
   4   3  -7 18888.7 884.129  14
  -4  -3   7 18499.9 1336.27   6
   4   3  -7 19347.1 1316.87   6
  -4  -3   7 17787.3 1195.18   5
  -4  -3   6 7183.56 676.290   9
  -4  -3   6 7776.42 702.747   1
   4   3  -6 7123.42 580.487   2
   4   3  -6 7756.08 806.272   6
   4   3  -6 7776.28 759.394   3
   4   3  -6 7808.56 583.027  14
  -4  -3   6 6558.29 816.572   6
   4   3  -6 7585.58 769.572   5
  -4  -3   6 6157.40 683.761   5
  -4  -3   6 7258.30 846.622  10
   4   3  -6 7095.37 864.227  10
  -4  -3   5 91.6468 96.2225   9
   4   3  -5 155.551 124.816  14
   4   3  -5 457.003 222.549   4
  -4  -3   5-30.4741 272.736   6
   4   3  -5 99.6388 135.380   6
  -4  -3   5 172.766 127.768   1
   4   3  -5 240.795 137.265   2
  -4  -3   5 175.583 79.6526  11
   4   3  -5 375.352 304.472   3
   4   3  -5-0.80804 172.669   5
  -4  -3   5 320.894 158.944   3
  -4  -3   5 118.295 130.077  10
  -4  -3   5 151.616 202.729   5
   4   3  -5 200.490 260.410  10
  -4  -3   4 204.043 105.072   9
   4   3  -4 60.6225 221.287   4
  -4  -3   4 131.289 177.957   6
   4   3  -4 199.204 133.684   2
   4   3  -4 16.0514 109.385  14
  -4  -3   4-3.78612 89.1933  11
   4   3  -4 45.2733 311.982   3
   4   3  -4 10.0264 132.095   5
  -4  -3   4-148.659 149.990   3
  -4  -3   4 72.5943 182.220   5
  -4  -3   4 224.749 167.197  10
   4   3  -4-71.4644 210.215  10
  -4  -3   3 29444.5 642.723   9
   4   3  -3 34777.5 814.213   2
   4   3  -3 32825.2 1494.53   4
   4   3  -3 31576.6 1548.03   3
   4   3  -3 33127.5 1306.56  14
  -4  -3   3 42744.3 1471.00   3
  -4  -3   3 40071.7 1206.31  14
  -4  -3   3 32868.1 1568.08   6
  -4  -3   3 32889.2 1301.36   5
  -4  -3   3 32204.0 1530.95  10
   4   3  -3 30963.3 1461.38  10
   4   3  -2 9936.13 842.767   4
  -4  -3   2 9262.37 371.337   2
   4   3  -2 9283.00 858.625   7
   4   3  -2 9535.89 882.848   3
  -4  -3   2 9368.81 661.708  14
  -4  -3   2 9199.46 740.966   3
   4   3  -2 9239.21 783.886   6
  -4  -3   2 8982.86 822.478   6
   4   3  -2 9826.05 766.081  14
  -4  -3   2 9418.23 714.995   5
  -4  -3   2 9632.61 810.089  10
   4   3  -2 8792.40 759.180  10
   4   3  -2 9245.72 404.781   2
   4   3  -1 28873.3 1456.06   4
  -4  -3   1 27317.0 637.004   2
  -4  -3   1 28428.9 1312.89   4
   4   3  -1 28014.5 1515.53   7
   4   3  -1 26602.5 1470.62   3
  -4  -3   1 26671.8 1237.07  14
  -4  -3   1 28305.3 1357.04   3
   4   3  -1 27323.8 1373.17  14
  -4  -3   1 27954.3 1364.79   6
   4   3  -1 28977.5 1337.02   6
  -4  -3   1 27289.9 1188.45   5
  -4  -3   1 26644.2 1258.83  10
   4   3  -1 27360.5 1241.19  10
  -4  -3   0 5780.99 293.342   9
  -4  -3   0 6149.02 361.561   2
   4   3   0 6198.35 733.954   4
  -4  -3   0 5191.90 656.884   4
  -4  -3   0 6299.08 687.614  14
   4   3   0 6251.46 776.441   7
   4   3   0 5893.62 739.839   3
  -4  -3   0 5780.75 683.329   3
   4   3   0 6212.05 618.421   6
  -4  -3   0 6776.57 602.676  10
   4   3   0 6101.46 564.075  10
  -4  -3  -1-91.3154 116.308   9
   4   3   1 180.191 301.605   7
  -4  -3  -1-1.89731 200.644   4
  -4  -3  -1 55.8883 100.838   2
  -4  -3  -1 39.6817 206.873  14
   4   3   1-147.585 315.026   3
   4   3   1 69.1533 94.6117   6
  -4  -3  -1-279.201 160.908   3
  -4  -3  -1-36.0735 104.257  10
  -4  -3  -2 23575.7 1013.55   9
  -4  -3  -2 25078.5 1542.90   4
   4   3   2 24477.0 1627.84   7
  -4  -3  -2 25194.8 1478.52   7
   4   3   2 26331.2 1693.95   3
  -4  -3  -2 25680.5 1566.83   3
  -4  -3  -2 24197.4 1563.11  14
   4   3   2 22860.6 1060.50   6
  -4  -3  -2 22926.7 913.111  10
  -4  -3  -2 22744.1 1007.56   2
   4   3   2 24527.3 1077.73   9
  -4  -3  -3 23383.8 1175.40   9
  -4  -3  -3 22233.9 1562.63   4
   4   3   3 22582.4 1680.02   7
   4   3   3 24451.8 1771.68   3
  -4  -3  -3 22619.0 1289.62  15
   4   3   3 23644.5 1011.47   6
  -4  -3  -3 25701.6 1495.11   1
  -4  -3  -3 23717.7 1660.75  14
  -4  -3  -3 24575.2 774.486  10
  -4  -3  -3 23589.1 1171.31   2
   4   3   3 24649.8 1239.64   9
  -4  -3  -4 816.465 398.048   1
   4   3   4 954.481 363.836   9
  -4  -3  -4 1101.02 311.835   9
  -4  -3  -4 760.718 352.931   4
  -4  -3  -4 1299.50 343.948   2
  -4  -3  -4 881.066 319.194  15
   4   3   4 952.116 462.555   7
   4   3   4 613.282 440.499   3
   4   3   4 989.723 195.632   6
   4   3   4 1231.54 319.338  12
   4   3   5 12645.2 1109.55   9
  -4  -3  -5 11762.6 1052.48   9
  -4  -3  -5 10840.4 1260.60   4
  -4  -3  -5 12186.0 1096.19   1
   4   3   5 12097.1 1375.83   7
  -4  -3  -5 12318.9 1019.30  15
  -4  -3  -5 12008.1 1167.16  13
   4   3   5 11596.8 853.861  12
   4   3   5 11172.6 527.838   6
  -4  -3  -5 10990.2 935.254   5
  -4  -3  -5 11829.2 1032.93   2
   4   3   6 1561.08 479.663   9
  -4  -3  -6 1787.01 547.081   4
   4   3   6 2361.63 743.927   7
  -4  -3  -6 1775.08 400.898  15
  -4  -3  -6 2047.46 523.153   1
   4   3   6 2053.07 351.273  12
   4   3   7 1410.47 533.668   9
  -4  -3  -7 993.361 519.951   4
   4   3   7 1053.57 578.508   7
  -4  -3  -7 1388.95 476.131   1
   4   3   7 1591.14 342.083  12
   4   3   8-138.108 167.659   9
  -4  -3  -8 758.484 389.732   1
  -4  -3  -8 345.400 303.433   4
   4   3   8-42.9261 339.850   7
   4   3   9 149.406 184.747   9
  -4  -3  -9 61.9800 117.163   4
   4   3   9-175.218 309.546   7
  -4  -3  -9 81.5656 292.486   1
   4   3  10 629.050 376.757   9
  -4  -3 -10 400.533 275.934   1
  -4  -4  13-790.655 518.678   9
  -4  -4  13-61.8449 402.537  15
  -4  -4  13 150.082 296.945  13
   4   4 -13 140.574 290.179   3
   4   4 -13 175.210 217.368   2
  -4  -4  12-288.251 318.859   5
  -4  -4  12-231.780 332.229   9
  -4  -4  12 834.893 444.834  15
  -4  -4  12 201.884 187.421  13
   4   4 -12 255.523 400.936   3
   4   4 -12 49.1363 308.160   2
  -4  -4  11 234.791 318.820   5
  -4  -4  11 152.440 342.198   9
  -4  -4  11-47.9858 313.601  15
  -4  -4  11 133.608 276.975  13
   4   4 -11 159.391 309.029   3
   4   4 -11-315.785 255.121   2
  -4  -4  10 1948.95 525.217   5
  -4  -4  10 3340.15 705.314   9
  -4  -4  10 2080.67 302.696   8
   4   4 -10 1858.36 286.949  14
  -4  -4  10 2101.99 573.828  13
  -4  -4  10 2004.01 624.657  15
   4   4 -10 1644.46 493.637   3
   4   4 -10 1690.95 477.754   2
  -4  -4   9 863.088 353.621   9
  -4  -4   9 850.230 228.999   8
  -4  -4   9 888.752 527.835  15
   4   4  -9 813.021 216.630  14
  -4  -4   9 790.889 337.754  13
   4   4  -9 376.282 366.299   3
   4   4  -9 898.448 350.368   2
   4   4  -9 550.503 441.425  10
  -4  -4   9 916.849 429.132   5
  -4  -4   8 11420.4 1032.97   9
   4   4  -8 9161.84 812.325   2
  -4  -4   8 10817.4 659.914   8
   4   4  -8 10190.8 942.212   3
   4   4  -8 9032.01 561.191  14
  -4  -4   8 11073.2 1143.08  15
  -4  -4   8 9671.10 956.130  13
  -4  -4   8 8579.22 934.504   5
   4   4  -8 9815.58 1100.92  10
  -4  -4   7 2623.16 499.135   9
   4   4  -7 2856.35 327.212  14
   4   4  -7 2205.42 410.304   2
   4   4  -7 2429.60 533.878   3
  -4  -4   7 2915.21 589.276  15
  -4  -4   7 1918.37 457.218   5
   4   4  -7 2176.12 553.385  10
  -4  -4   6 16997.3 999.215   9
   4   4  -6 17013.0 1196.63   3
   4   4  -6 17497.1 935.003   2
   4   4  -6 16618.2 1076.65   4
   4   4  -6 15685.5 722.283  14
  -4  -4   6 16775.0 1136.49   5
   4   4  -6 16438.3 1300.51  10
   4   4  -5 2588.77 354.435   2
   4   4  -5 2133.65 421.632   4
  -4  -4   5 2488.38 362.161   3
   4   4  -5 1327.45 247.289  14
  -4  -4   5 1930.08 387.922   1
   4   4  -5 1664.01 402.934   6
   4   4  -5 2006.94 510.950   3
   4   4  -5 1876.88 451.536   5
  -4  -4   5 1995.13 451.857   5
  -4  -4   5 2312.19 483.216  10
   4   4  -5 1617.16 445.141  10
  -4  -4   5 2536.15 333.484   9
   4   4  -4 3310.52 349.399   2
   4   4  -4 3258.16 523.860   4
  -4  -4   4 3796.42 472.890   3
   4   4  -4 3095.52 393.799  14
   4   4  -4 3455.46 557.336   6
   4   4  -4 3108.86 582.207   3
  -4  -4   4 3421.54 517.644   5
  -4  -4   4 3079.22 539.117  10
   4   4  -4 3515.23 585.693  10
   4   4  -3 205.554 191.636   4
   4   4  -3 309.307 135.477   2
  -4  -4   3 358.941 143.963  14
   4   4  -3 377.781 213.573   6
   4   4  -3 616.308 326.170   3
  -4  -4   3 151.036 177.303   3
  -4  -4   3 536.477 269.230   5
  -4  -4   3 255.285 227.310  10
  -4  -4   3 348.961 137.066   2
   4   4  -3 184.173 226.149  10
   4   4  -2 6995.62 731.300   4
  -4  -4   2 6151.28 393.961   2
   4   4  -2 7666.52 854.097   7
   4   4  -2 6332.49 788.389   3
   4   4  -2 6245.25 680.482   6
  -4  -4   2 6024.75 652.732   5
  -4  -4   2 6058.83 551.741  14
  -4  -4   2 6428.44 652.841   3
  -4  -4   2 6348.25 706.790  10
   4   4  -2 6109.92 683.561  10
   4   4  -2 5797.28 435.950   2
   4   4  -1 21761.8 1290.43   4
  -4  -4   1 19650.3 716.983   2
  -4  -4   1 21482.5 1165.68   4
   4   4  -1 19062.0 1344.45   7
   4   4  -1 19012.4 1301.19   3
  -4  -4   1 20327.2 1219.30   3
  -4  -4   1 20136.4 1133.16  14
   4   4  -1 19991.3 1201.90   6
  -4  -4   1 20018.0 1153.36   5
  -4  -4   1 21083.8 1185.86  10
   4   4  -1 20369.0 1157.41  10
   4   4  -1 20324.3 856.815   2
  -4  -4   0 1287.55 398.825   4
   4   4   0 1319.12 431.378   7
  -4  -4   0 1857.00 401.442  14
  -4  -4   0 1379.55 224.059   2
   4   4   0 1790.78 494.665   3
   4   4   0 1610.78 358.608   6
  -4  -4   0 1520.45 428.472   3
  -4  -4   0 1846.22 348.225  10
   4   4   0 967.642 289.843  10
  -4  -4  -1 7554.80 541.684   2
  -4  -4  -1 7490.06 814.781   4
   4   4   1 7296.05 948.969   7
   4   4   1 6899.69 922.338   3
  -4  -4  -1 7285.75 843.626   3
  -4  -4  -1 7321.39 862.141  14
   4   4   1 6689.41 672.124   6
  -4  -4  -1 7081.64 620.009  10
   4   4   1 6858.66 611.924  10
   4   4   1 7113.40 435.792   9
  -4  -4  -2 6255.32 559.859   2
  -4  -4  -2 5425.18 753.807   4
   4   4   2 5661.64 888.357   7
  -4  -4  -2 5904.11 817.555  14
   4   4   2 6167.75 610.618   6
   4   4   2 5390.85 882.823   3
  -4  -4  -2 5577.47 797.282   3
  -4  -4  -2 5930.64 540.100  10
   4   4   2 5507.38 506.125  10
   4   4   2 5785.55 530.353   9
   4   4   3 1033.91 313.979   9
  -4  -4  -3 721.414 353.643   1
  -4  -4  -3 854.968 409.615   4
  -4  -4  -3 723.811 243.692   2
   4   4   3 1075.30 513.672   7
   4   4   3 1029.98 296.504  12
  -4  -4  -3 1211.07 330.863  15
   4   4   3 319.247 432.098   3
   4   4   3 494.759 222.463   6
  -4  -4  -3 792.412 189.847  10
   4   4   4 1947.75 420.391   9
  -4  -4  -4 2669.96 650.176   4
  -4  -4  -4 2655.90 490.598   2
  -4  -4  -4 2595.05 466.442  15
   4   4   4 2213.35 785.747   7
   4   4   4 2491.25 728.199   3
   4   4   4 2283.96 360.775   6
   4   4   4 2765.53 492.386  12
  -4  -4  -4 2726.57 629.015   1
   4   4   5 7969.02 870.036   9
  -4  -4  -5 7984.34 1105.97   4
   4   4   5 7990.74 1193.36   7
  -4  -4  -5 7518.21 777.714  15
   4   4   5 8565.93 557.936   6
  -4  -4  -5 7944.73 978.532   1
   4   4   5 8569.76 843.914  12
  -4  -4  -5 8599.07 902.880   2
   4   4   6 822.862 354.615   9
  -4  -4  -6 417.434 275.148   4
   4   4   6 1459.12 582.291   7
   4   4   6 938.150 355.599  12
  -4  -4  -6 1199.03 477.832   1
   4   4   7 1723.45 509.390   9
  -4  -4  -7 2248.46 700.824   4
   4   4   7 3476.07 857.670   7
  -4  -4  -7 2534.29 606.915   1
   4   4   7 2311.16 428.178  12
   4   4   8-202.500 281.214   9
  -4  -4  -8 27.0995 305.492   1
   4   4   8 665.313 490.567   7
   4   4   9 3.90572 184.171   9
  -4  -4  -9 173.858 171.466   1
   4   4  10 15.4329 241.197   9
  -4  -5  13 2346.09 839.372   9
  -4  -5  13 2588.04 711.949  13
   4   5 -13 3144.44 649.134   2
   4   5 -13 2209.94 558.051   3
  -4  -5  12 1363.83 511.711   5
  -4  -5  12 1333.53 478.784   9
  -4  -5  12 296.489 605.467  15
  -4  -5  12 1350.43 485.032  13
   4   5 -12 1306.14 460.271   2
   4   5 -12 1035.61 387.442   3
  -4  -5  11 1590.44 507.622   5
  -4  -5  11 1091.22 447.148   9
  -4  -5  11 522.377 382.480  15
  -4  -5  11 827.144 425.014  13
   4   5 -11 550.506 343.429   2
   4   5 -11 534.566 403.210   3
  -4  -5  10-219.651 252.421   9
  -4  -5  10 205.932 146.546   8
  -4  -5  10 418.967 378.292  15
  -4  -5  10 377.286 327.770  13
   4   5 -10 52.5300 172.788   2
   4   5 -10 243.728 340.042   3
   4   5 -10 1.67767 299.539  10
  -4  -5  10-245.351 262.000   5
   4   5  -9 8665.23 881.023   2
  -4  -5   9 10932.2 773.430   8
  -4  -5   9 10675.9 1248.57  15
   4   5  -9 9555.12 940.567   3
  -4  -5   9 10290.4 1122.43  13
  -4  -5   9 9726.00 1063.46   5
   4   5  -9 10179.2 1199.31  10
  -4  -5   9 11142.1 1110.78   9
  -4  -5   8 3985.30 652.328   9
   4   5  -8 4422.91 678.533   3
   4   5  -8 4744.61 620.057   2
  -4  -5   8 4939.19 530.186   8
  -4  -5   8 4653.75 861.385  15
  -4  -5   8 4532.01 751.325  13
  -4  -5   8 4471.92 715.814   5
   4   5  -8 3983.84 764.698  10
  -4  -5   7 251.779 166.102   9
   4   5  -7 637.909 236.412   4
  -4  -5   7 36.5061 304.869  15
   4   5  -7 393.398 277.386   2
   4   5  -7 342.643 302.535   3
  -4  -5   7 371.323 264.492   5
   4   5  -7 499.451 427.185  10
   4   5  -6 2623.67 457.530   4
   4   5  -6 2794.87 451.736   2
  -4  -5   6 3080.05 637.111  15
   4   5  -6 2200.94 568.439   3
  -4  -5   6 2529.54 550.068   5
   4   5  -6 2010.78 546.732  10
  -4  -5   6 3076.12 413.079   9
   4   5  -5 10450.9 746.760   2
   4   5  -5 8860.25 830.365   4
   4   5  -5 9867.76 989.048   3
  -4  -5   5 10239.6 724.017   3
  -4  -5   5 9204.56 908.474   5
   4   5  -5 9732.13 1037.00  10
   4   5  -4 10.2052 137.315   4
   4   5  -4 191.035 161.610   2
   4   5  -4-30.6314 223.576   3
  -4  -5   4-234.645 170.915   3
  -4  -5   4-111.904 312.641   5
   4   5  -4-39.5799 190.616  10
  -4  -5   4 66.7886 123.441   2
   4   5  -3 12377.7 721.735   2
   4   5  -3 10325.9 887.637   4
  -4  -5   3 10714.7 654.678   2
   4   5  -3 11629.7 1038.78   3
  -4  -5   3 11396.1 651.183  14
   4   5  -3 10971.5 1008.93   6
  -4  -5   3 11570.1 964.443   5
  -4  -5   3 10428.9 791.697   3
  -4  -5   3 13849.4 1144.53  10
   4   5  -3 12135.7 1065.04  10
   4   5  -2 251.399 216.359   4
   4   5  -2 377.802 195.849   2
   4   5  -2 423.486 357.097   7
  -4  -5   2 376.691 211.722  14
   4   5  -2 157.756 154.115   6
   4   5  -2 359.559 310.346   3
  -4  -5   2 321.326 153.803   2
  -4  -5   2 184.717 142.328   3
  -4  -5   2-20.4901 241.176   5
  -4  -5   2 332.770 244.205  10
   4   5  -2 482.543 296.705  10
   4   5  -1 241.848 199.114   2
  -4  -5   1 381.649 227.733   4
   4   5  -1 512.688 359.494   7
  -4  -5   1 415.286 179.929  14
   4   5  -1 179.094 167.126   6
   4   5  -1 23.1178 291.872   3
  -4  -5   1 218.586 126.159   2
  -4  -5   1 85.3730 140.336   3
  -4  -5   1 360.800 299.316   5
  -4  -5   1 325.684 217.480  10
   4   5  -1 354.490 268.403  10
  -4  -5   0 6450.60 531.787   2
  -4  -5   0 7077.64 750.768   4
   4   5   0 6729.71 969.392   7
  -4  -5   0 7421.29 838.006   3
   4   5   0 6468.37 936.145   3
  -4  -5   0 5918.60 726.628  14
   4   5   0 6547.66 733.925   6
  -4  -5   0 5657.17 653.814  10
   4   5   0 6310.90 687.816  10
  -4  -5  -1 6797.51 574.025   2
  -4  -5  -1 7257.87 810.348   4
   4   5   1 7555.15 1053.86   7
   4   5   1 6573.51 951.956   3
  -4  -5  -1 6452.88 818.967  14
   4   5   1 6817.11 728.958   6
  -4  -5  -1 6683.85 678.771  10
   4   5   1 5961.42 632.529  10
   4   5   1 6427.97 398.328   9
   4   5   2 11688.8 726.488   9
  -4  -5  -2 10901.7 777.102   2
  -4  -5  -2 11059.9 1094.45   4
   4   5   2 11260.5 1274.28   7
   4   5   2 10581.7 1243.29   3
  -4  -5  -2 10358.4 1135.28  14
   4   5   2 10443.1 876.754   6
  -4  -5  -2 11231.3 849.640  10
   4   5   2 10822.0 792.896  10
   4   5   3 15620.6 983.389   9
  -4  -5  -3 14887.9 993.201   2
  -4  -5  -3 14326.7 1324.97   4
   4   5   3 14509.6 1523.38   7
   4   5   3 15203.8 1523.58   3
   4   5   3 13216.9 939.227   6
  -4  -5  -3 14357.6 998.428  15
  -4  -5  -3 16054.9 1400.87   1
   4   5   3 14883.9 1221.43  12
  -4  -5  -3 14650.8 864.432  10
   4   5   3 14567.1 823.104  10
   4   5   4 453.259 223.226   9
  -4  -5  -4-230.764 309.611   4
  -4  -5  -4-264.672 165.991   2
  -4  -5  -4-491.461 219.929  15
   4   5   4-218.594 417.393   7
   4   5   4-75.3019 110.411   6
   4   5   4 315.982 260.057  12
  -4  -5  -4 102.732 408.798   1
   4   5   5 53.2897 216.862   9
  -4  -5  -5 35.9680 292.104   1
  -4  -5  -5 225.748 246.238   4
   4   5   5 619.193 372.626   7
   4   5   5 292.369 200.373  12
   4   5   6 956.462 369.592   9
  -4  -5  -6 336.443 334.606   4
   4   5   6 936.550 587.080   7
   4   5   6 78.1390 159.869  12
  -4  -5  -6 546.895 346.575   1
   4   5   7 1080.12 388.715   9
  -4  -5  -7 667.793 373.827   4
   4   5   7 40.9191 298.839   7
  -4  -5  -7 1270.90 591.320   1
   4   5   7 446.251 330.612  12
   4   5   8-189.028 421.125   9
  -4  -5  -8-400.534 535.111   4
  -4  -5  -8 90.2727 194.742   1
   4   5   8 790.937 507.267   7
   4   5   9 254.631 292.537   9
  -4  -6  13 295.779 301.951  13
   4   6 -13 1058.61 454.891   2
   4   6 -13 105.534 300.374   3
  -4  -6  12 927.534 477.432   9
  -4  -6  12 187.971 402.182  13
   4   6 -12 609.237 397.443   2
   4   6 -12 1101.14 434.584   3
  -4  -6  11 893.668 378.947   9
  -4  -6  11 14.8671 349.836  15
  -4  -6  11 507.129 521.548  13
   4   6 -11-19.1963 284.389   2
   4   6 -11 859.126 302.739   3
   4   6 -11 893.223 550.025  10
  -4  -6  11 113.968 226.643   5
  -4  -6  10 757.622 385.609   9
  -4  -6  10 611.220 213.033   8
  -4  -6  10 604.459 367.993  15
  -4  -6  10 1187.43 485.876  13
   4   6 -10 715.028 338.148   2
   4   6 -10 316.181 231.782   3
  -4  -6  10 475.783 348.830   5
   4   6 -10 1304.77 589.474  10
  -4  -6   9 171.583 304.873   9
  -4  -6   9 161.913 193.746   8
  -4  -6   9 13.8155 338.923  15
  -4  -6   9 518.378 333.376  13
   4   6  -9 79.5017 268.938   2
   4   6  -9 61.4936 279.672   3
  -4  -6   9 417.182 296.102   5
   4   6  -9-400.492 351.373  10
  -4  -6   8 1324.85 352.540   8
   4   6  -8 1734.83 375.886   4
  -4  -6   8 567.835 323.193  15
  -4  -6   8 1355.06 507.250  13
   4   6  -8 597.424 299.178   2
   4   6  -8 1225.09 389.889   3
  -4  -6   8 1346.47 495.549   5
   4   6  -8 1306.69 553.226  10
  -4  -6   7 1093.93 371.709  13
   4   6  -7 1422.70 344.384   4
  -4  -6   7 813.671 413.127  15
   4   6  -7 1005.12 340.670   2
   4   6  -7 612.810 378.997   3
  -4  -6   7 976.119 447.047   5
   4   6  -7 1244.18 443.112  10
   4   6  -6 3768.56 527.698   2
   4   6  -6 2733.68 510.787   4
  -4  -6   6 3338.44 651.861  15
   4   6  -6 3047.43 612.184   3
  -4  -6   6 2175.80 542.440   5
   4   6  -6 2332.96 550.960  10
   4   6  -5 587.529 245.323   2
   4   6  -5 472.392 188.001   4
   4   6  -5 518.677 308.604   3
  -4  -6   5 542.536 383.797  15
  -4  -6   5 368.731 210.087   3
  -4  -6   5 317.292 282.799   5
   4   6  -5 515.707 345.126  10
   4   6  -4 8005.86 694.467   2
   4   6  -4 6937.78 715.282   4
  -4  -6   4 7305.55 642.727   2
  -4  -6   4 7764.54 888.451  15
   4   6  -4 7370.39 850.087   3
  -4  -6   4 7989.52 669.772   3
  -4  -6   4 7239.13 852.966   5
   4   6  -4 5789.37 821.403  10
   4   6  -3 1051.37 312.162   4
   4   6  -3 1384.52 343.324   2
  -4  -6   3 1503.97 247.809  14
   4   6  -3 945.005 384.977   3
  -4  -6   3 1083.96 302.359   3
  -4  -6   3 1260.80 276.334   2
  -4  -6   3 903.767 381.668   5
   4   6  -3 1209.30 441.753  10
   4   6  -2 1651.75 353.991   2
   4   6  -2 1892.96 554.542   7
   4   6  -2 1891.27 502.570   3
  -4  -6   2 1688.47 295.147   2
  -4  -6   2 1676.15 329.204  14
  -4  -6   2 1424.37 340.992   3
  -4  -6   2 1857.00 482.172   5
   4   6  -2 1647.99 475.335  10
   4   6  -1 844.499 311.767   2
  -4  -6   1 761.393 238.592   4
  -4  -6   1 667.453 237.347  14
   4   6  -1 406.910 303.927   7
   4   6  -1 480.217 271.317   3
  -4  -6   1 460.570 191.168   2
  -4  -6   1 374.899 201.749   3
  -4  -6   1 542.191 370.451   5
  -4  -6   1 673.274 317.490  10
   4   6  -1 636.277 324.153  10
  -4  -6   0 327.763 218.297   4
   4   6   0 52.1781 447.752   7
  -4  -6   0 145.108 191.523  14
   4   6   0 290.514 377.495   3
  -4  -6   0 4.87397 116.242   2
  -4  -6   0 122.997 134.185  10
   4   6   0 292.469 302.301  10
   4   6   1 633.020 112.890   9
  -4  -6  -1 1011.86 389.110   4
   4   6   1 1007.12 438.053   7
  -4  -6  -1 746.444 297.461  14
   4   6   1 894.931 431.006   3
  -4  -6  -1 503.608 240.612   2
   4   6   1 562.958 295.725   6
  -4  -6  -1 825.315 316.242  10
   4   6   1 674.570 293.313  10
   4   6   2 1877.18 317.297   9
  -4  -6  -2 1945.37 500.032   4
  -4  -6  -2 3211.10 808.977   1
   4   6   2 2734.08 729.375   7
  -4  -6  -2 2410.90 413.061   2
   4   6   2 2403.48 709.883   3
   4   6   2 2120.73 447.972   6
  -4  -6  -2 2276.79 471.411  10
   4   6   2 2493.91 462.593  10
   4   6   3 13814.6 915.967   9
  -4  -6  -3 11608.6 945.569   2
  -4  -6  -3 12102.1 1219.98   4
   4   6   3 12927.8 1479.69   7
   4   6   3 13060.9 1467.66   3
   4   6   3 11193.1 945.354   6
  -4  -6  -3 14482.9 1438.39   1
   4   6   3 12704.0 1226.64  12
   4   6   3 12471.5 882.737  10
   4   6   4 144.478 141.087   9
  -4  -6  -4 520.179 297.479   4
   4   6   4 775.708 455.929   7
  -4  -6  -4 433.166 356.402   1
   4   6   4 432.626 325.052  12
   4   6   4 399.407 184.269  10
   4   6   5-86.2220 94.5088   9
  -4  -6  -5-18.8212 262.140   1
  -4  -6  -5 531.369 305.983   4
   4   6   5-128.170 149.422  12
   4   6   5 260.292 441.878   7
   4   6   6-326.007 299.830   9
  -4  -6  -6 593.216 395.388   4
   4   6   6-55.1874 336.765   7
   4   6   6 240.725 169.910  12
  -4  -6  -6 456.718 368.784   1
   4   6   7 175.930 261.327   9
  -4  -6  -7 480.332 477.377   4
   4   6   7-550.144 440.426   7
  -4  -6  -7 685.691 492.740   1
   4   6   7-554.602 393.241  12
  -4  -6  -8-191.726 219.320   4
   4   7 -12-577.251 287.325   2
  -4  -7  11 3145.34 815.963  13
   4   7 -11 3507.39 708.403   2
   4   7 -11 3869.29 765.263   3
  -4  -7  10 564.858 314.239   8
  -4  -7  10 56.2693 396.593  15
  -4  -7  10 1128.23 458.781  13
   4   7 -10 476.253 308.747   2
   4   7 -10 334.626 336.220   3
  -4  -7  10 120.228 161.034   5
   4   7 -10-136.632 174.563  10
  -4  -7   9 3207.83 536.317   8
  -4  -7   9 3832.09 865.973  15
   4   7  -9 2019.20 479.618   2
  -4  -7   9 2948.15 705.619  13
   4   7  -9 3083.13 604.452   3
  -4  -7   9 3226.60 691.655   5
   4   7  -9 3778.37 867.773  10
  -4  -7   8-206.651 248.030   8
   4   7  -8-222.666 236.628   2
  -4  -7   8-72.8176 331.240  13
   4   7  -8-138.109 293.853   3
  -4  -7   8-643.280 457.072  15
  -4  -7   8-133.536 272.857   5
   4   7  -8-184.246 334.401  10
  -4  -7   7 84.4243 321.143  15
   4   7  -7 164.367 271.108   2
  -4  -7   7 746.920 464.432  13
   4   7  -7 590.851 273.180   3
  -4  -7   7 595.667 404.670   5
   4   7  -7 769.388 393.315  10
   4   7  -6 620.309 251.286   4
  -4  -7   6 465.966 422.965  15
   4   7  -6-254.009 178.595   2
   4   7  -6-304.727 251.668   3
  -4  -7   6-65.8781 294.083   5
   4   7  -6 144.309 176.091  10
   4   7  -5 2731.88 445.525   4
  -4  -7   5 2002.91 552.433  15
   4   7  -5 2241.51 444.577   2
   4   7  -5 2096.53 520.991   3
  -4  -7   5 2289.24 353.237   3
  -4  -7   5 1833.19 491.493   5
   4   7  -5 1552.80 534.930  10
  -4  -7   5 1396.53 311.138   2
  -4  -7   4 294.461 260.125  15
   4   7  -4-35.0391 93.5219   4
   4   7  -4 70.1548 181.757   3
   4   7  -4-31.1315 189.282   2
  -4  -7   4-25.5235 145.249   3
  -4  -7   4-23.4097 296.208   5
  -4  -7   4 144.480 165.250   2
   4   7  -4-79.9024 259.134  10
  -4  -7   3 1579.37 483.979  15
   4   7  -3 1136.31 356.978   2
  -4  -7   3 1065.22 226.431  14
   4   7  -3 995.540 390.761   3
  -4  -7   3 839.089 247.669   2
  -4  -7   3 1121.96 305.192   3
  -4  -7   3 1202.66 448.592   5
   4   7  -3 1320.28 509.434  10
   4   7  -2 737.670 326.467   2
  -4  -7   2 670.589 315.056  15
   4   7  -2 1584.85 627.690   7
  -4  -7   2 1125.99 271.669  14
   4   7  -2 909.020 405.930   3
  -4  -7   2 935.095 284.485   2
  -4  -7   2 993.870 432.761   5
   4   7  -2 1922.44 556.233  10
  -4  -7   1 8104.19 739.570   2
  -4  -7   1 7923.69 694.875   4
   4   7  -1 9187.81 1195.42   7
   4   7  -1 8421.21 1062.28   3
  -4  -7   1 8667.24 814.020  15
  -4  -7   1 7524.46 790.589  14
  -4  -7   1 7709.90 984.240   5
   4   7  -1 7689.07 930.521  10
   4   7  -1 7838.18 849.664   2
  -4  -7   0 1549.59 385.280   4
   4   7   0 2602.86 762.119   7
  -4  -7   0 1280.99 395.951  14
   4   7   0 904.478 445.580   3
  -4  -7   0 1195.83 322.083   2
   4   7   0 1929.97 474.309   2
   4   7   0 2217.89 504.764  10
  -4  -7  -1 9526.50 814.468   2
  -4  -7  -1 9211.05 920.555   4
   4   7   1 11157.9 1365.21   7
   4   7   1 10823.0 1299.79   3
  -4  -7  -1 11007.3 1069.16  10
   4   7   1 9584.39 943.964  10
  -4  -7  -2 350.398 222.283   4
   4   7   2 318.793 393.629   7
  -4  -7  -2 694.522 458.144   1
   4   7   2 661.120 474.724   3
   4   7   2 1145.65 462.420  12
   4   7   2 322.531 168.022  10
  -4  -7  -3 2284.21 683.235   1
  -4  -7  -3 1856.37 513.814   4
   4   7   3 2298.75 715.452   7
   4   7   3 2011.59 604.623  12
   4   7   3 2483.63 415.360  10
  -4  -7  -4 2036.41 557.876   4
   4   7   4 3197.65 815.550   7
  -4  -7  -4 3456.62 809.297   1
   4   7   4 2551.14 617.775  12
  -4  -7  -5-44.4066 92.8416   4
   4   7   5-353.927 350.711   7
   4   7   5-58.4351 223.386  12
  -4  -7  -5 523.977 621.568   1
  -4  -7  -6 39.8922 248.096   4
   4   7   6 416.971 374.564   7
   4   7   6 260.698 238.754  12
  -4  -7  -7 1387.34 622.922   4
   4   7   7-62.9591 286.276  12
   4   8 -11-599.278 277.982   2
   4   8 -10-92.8536 316.916   2
  -4  -8   9 71.0836 126.904   8
  -4  -8   9-147.619 386.634  15
   4   8  -9 368.322 262.672   2
  -4  -8   9 281.775 397.442  13
   4   8  -9-278.803 308.125   3
  -4  -8   9-499.246 333.847   5
   4   8  -9-289.377 367.862  10
  -4  -8   8 368.517 264.227   8
  -4  -8   8 186.863 392.621  15
   4   8  -8 81.7227 175.323   2
  -4  -8   8 719.617 421.922  13
   4   8  -8 1179.24 403.641   3
  -4  -8   8 623.774 360.778   5
   4   8  -8-366.183 427.934  10
  -4  -8   7 272.642 273.883   8
  -4  -8   7 214.693 422.861  15
  -4  -8   7 115.438 280.553  13
   4   8  -7 585.374 267.129   2
   4   8  -7 189.815 250.626   3
  -4  -8   7-25.2264 275.893   5
   4   8  -7 171.160 202.390  10
  -4  -8   6 2687.16 687.147  15
   4   8  -6 2543.34 546.772   2
  -4  -8   6 3559.37 747.983  13
   4   8  -6 1599.45 437.496   3
  -4  -8   6 2619.97 604.082   5
   4   8  -6 2268.18 680.530  10
   4   8  -5 1047.98 394.838   2
  -4  -8   5 403.493 387.553  15
   4   8  -5 596.966 365.248   3
  -4  -8   5 1136.76 526.424   5
   4   8  -5 1093.16 544.125  10
   4   8  -4 1500.06 378.767   2
  -4  -8   4 1062.38 459.519  15
   4   8  -4 631.861 314.994   3
  -4  -8   4 1564.36 507.445   5
   4   8  -4 781.503 443.651  10
  -4  -8   3 101.702 239.164  15
   4   8  -3 398.680 249.291   2
   4   8  -3-14.0182 390.619   7
   4   8  -3 277.674 186.511   3
  -4  -8   3-22.8942 216.129   5
   4   8  -3 179.746 289.837  10
   4   8  -2 112.753 222.873   2
   4   8  -2 591.954 328.211   3
  -4  -8   2 309.555 311.297  15
  -4  -8   2 59.4240 318.677   5
   4   8  -2 320.068 336.613  10
   4   8  -1 78.9953 199.718   2
  -4  -8   1 694.902 340.159  15
   4   8  -1 624.614 443.516   7
   4   8  -1 1.56183 304.230   3
  -4  -8   1 214.187 373.495   5
   4   8  -1 364.172 258.921  10
  -4  -8   0 1282.62 294.710   4
  -4  -8   0 2575.49 464.996  15
   4   8   0 2906.84 845.402   7
   4   8   0 1849.66 560.694   3
   4   8   0 2706.37 565.924   2
   4   8   0 2061.95 505.124  10
  -4  -8  -1 1953.78 456.366   4
   4   8   1 1810.41 720.407   7
   4   8   1 1622.07 596.733   3
  -4  -8  -1 2767.43 660.518   1
   4   8   1 2296.61 492.277  10
  -4  -8  -2 437.440 229.722   4
  -4  -8  -2-228.107 262.800   1
   4   8   2 701.821 464.554  12
   4   8   2 693.857 299.074  10
  -4  -8  -3 1266.34 441.294   4
   4   8   3 1014.39 497.364   7
  -4  -8  -3 1099.71 559.713   1
   4   8   3 1003.22 426.812  12
  -4  -8  -4-81.3421 465.981   1
  -4  -8  -4-396.073 291.344   4
   4   8   4 910.901 546.762   7
   4   8   4 594.904 446.719  12
  -4  -8  -5 1106.96 452.060   4
   4   8   5 138.251 259.521  12
  -4  -8  -6 187.608 361.114   4
   4   8   6-438.013 331.184  12
   4   9 -10-69.6014 312.618   2
  -4  -9   9 39.6283 137.989   8
   4   9  -9-336.470 210.075   2
  -4  -9   8-214.954 203.178   8
  -4  -9   8 483.851 478.107  15
   4   9  -8 352.446 214.863   2
  -4  -9   7 666.841 295.538   8
  -4  -9   7-133.397 241.299  15
   4   9  -7-196.606 305.340   2
  -4  -9   7-47.5026 363.261  13
  -4  -9   7-302.185 297.863   5
   4   9  -7 307.285 309.618  10
  -4  -9   6-62.2992 342.631  15
   4   9  -6-63.3275 104.852   2
  -4  -9   6 151.846 354.563  13
  -4  -9   6 65.4401 282.585   5
   4   9  -6-384.419 273.736  10
   4   9  -5-27.2155 123.591   2
   4   9  -5 81.8576 143.636   3
  -4  -9   5-72.2073 257.650  13
  -4  -9   5-27.5677 444.107   5
   4   9  -5-453.138 427.614  10
   4   9  -4 348.059 312.780   2
  -4  -9   4 296.644 375.705  15
   4   9  -4 752.641 459.195   7
   4   9  -4-658.971 332.198   3
  -4  -9   4 369.664 361.758  13
  -4  -9   4 292.908 329.249   5
   4   9  -4 334.358 335.154  10
   4   9  -3 863.734 357.564   2
   4   9  -3 154.820 334.132   7
  -4  -9   3 608.109 263.712  15
   4   9  -3 1740.11 511.056   3
  -4  -9   3 1160.65 546.487   5
   4   9  -3 1185.59 511.167  10
   4   9  -2 1315.94 428.384   2
  -4  -9   2 1126.67 357.979  15
   4   9  -2 974.261 572.291   7
   4   9  -2 1062.06 469.136   3
  -4  -9   2 1052.28 500.604   5
   4   9  -2 1297.87 473.786  10
   4   9  -1 7519.22 1221.91   7
   4   9  -1 5462.42 830.885   2
   4   9  -1 6025.70 917.907   3
  -4  -9   1 5955.00 1020.56   5
   4   9  -1 4978.60 841.875  10
   4   9   0-424.116 500.190   7
   4   9   0-119.576 195.592   3
  -4  -9   0 429.542 379.695   1
  -4  -9   0-289.159 386.093   5
   4   9   0 655.071 308.621  10
   4   9   1 601.337 524.385   7
   4   9   1-373.838 259.128  12
  -4  -9  -1-502.832 415.102   1
   4   9   1 691.683 308.739  10
   4   9   2-641.050 404.504   7
   4   9   2-747.492 366.977  12
   4   9   3-805.842 457.745  12
  -4 -10   7 1698.04 567.708  15
   4  10  -7 717.862 323.363   2
   4  10  -6 591.925 309.543   2
  -4 -10   6-107.372 336.880  15
   4  10  -5-385.322 241.570   2
  -4 -10   5 71.5552 256.465  15
   4  10  -4-92.0519 126.726   2
   4  10  -4 10.2539 82.1416  10
   4  10  -3 124.140 159.050   2
   4  10  -3 430.192 465.182  10
   4  10  -2 17.2473 77.8222   2
  -4 -10   2 569.156 322.145  13
   4  10  -1 606.914 357.898   2
   4  10  -1 716.606 332.357  10
   4  10   0 423.045 246.871  10
   5 -10  -3-70.9283 308.279  14
   5 -10  -2-343.621 403.252  14
   5 -10  -1-156.131 378.310  14
   5 -10  -1-190.293 453.127  13
  -5  10   1-678.407 490.277  12
   5 -10   0 615.151 521.202  14
   5 -10   0-419.706 320.280  13
  -5  10   0 180.852 391.896  12
   5 -10   1 924.031 498.641  14
   5 -10   1 246.430 247.546  13
  -5  10  -1 671.360 343.437  12
   5 -10   2-132.136 247.227  13
  -5  10  -2 145.483 386.810  12
  -5  10  -3 524.026 389.305  12
   5  -9  -6 127.915 270.091   1
   5  -9  -6 380.784 357.384   8
   5  -9  -5 1103.34 486.536  14
   5  -9  -5 478.934 242.570   1
   5  -9  -5 188.709 308.243   8
   5  -9  -4 356.978 264.587   1
   5  -9  -4 1.44237 167.009   8
  -5   9   4-24.8409 67.8746  12
   5  -9  -4 300.020 266.658  14
  -5   9   4 714.193 401.290   6
  -5   9   4 366.385 415.155  10
   5  -9  -3-0.94677 158.871   1
   5  -9  -3-736.872 381.670   8
  -5   9   3-280.977 315.471   2
   5  -9  -3-418.663 370.127  14
  -5   9   3 716.932 399.933  12
  -5   9   3 234.875 336.611   6
  -5   9   3-154.163 484.273  10
   5  -9  -2-77.1908 227.323   8
  -5   9   2-645.373 380.575   2
   5  -9  -2 30.3062 273.502  14
   5  -9  -2 288.724 290.312  13
  -5   9   2 239.761 242.287  12
  -5   9   2 612.236 398.640   6
  -5   9   2-225.619 313.486  10
   5  -9  -1 108.366 279.448   8
  -5   9   1-213.018 338.412   2
   5  -9  -1-226.184 391.198  14
   5  -9  -1 192.410 318.984  13
  -5   9   1 930.796 502.798  12
  -5   9   1 1127.19 452.317   6
  -5   9   1 399.772 398.824  10
   5  -9   0 148.478 383.491   8
  -5   9   0 576.765 516.052   2
   5  -9   0-35.7534 88.7684  13
  -5   9   0 122.833 302.778  12
  -5   9   0 324.979 454.403   6
   5  -9   0 385.443 245.986   5
   5  -9   0 230.381 184.608  14
  -5   9   0 944.979 482.864  10
   5  -9   1-181.525 238.683   8
  -5   9  -1 908.917 481.516   2
   5  -9   1-79.8148 339.103  14
   5  -9   1-372.174 318.809  13
  -5   9  -1 426.671 371.804  12
  -5   9  -1-61.6235 419.511   6
   5  -9   1-427.402 286.121   5
  -5   9  -1-618.392 497.753  10
   5  -9   2 769.017 423.954   8
  -5   9  -2 232.115 471.458   2
   5  -9   2-85.5466 299.707  14
   5  -9   2 626.129 553.471  13
  -5   9  -2-191.515 208.936  12
  -5   9  -2 507.934 311.633   6
  -5   9  -2 253.319 345.011  10
  -5   9  -3 298.721 480.334   2
   5  -9   3 760.651 368.590  14
   5  -9   3 789.402 457.362  13
  -5   9  -3 85.8241 245.164  12
  -5   9  -3-536.384 460.679   6
  -5   9  -3-682.551 585.015  10
  -5   9  -4 852.941 499.120   6
  -5   9  -4 1002.34 534.348  10
  -5   8   8 188.428 357.108   6
  -5   8   8 11.0150 442.715  10
   5  -8  -7 252.509 217.041   1
   5  -8  -7-67.5668 168.860   8
  -5   8   7 84.6503 383.859   6
  -5   8   7-678.007 444.798  10
   5  -8  -6 682.683 343.520   1
   5  -8  -6 659.129 353.773   8
   5  -8  -6 219.006 318.450  14
  -5   8   6 357.392 275.049  12
  -5   8   6-145.672 243.292   6
  -5   8   6 199.687 335.795  10
   5  -8  -5-162.749 219.817   1
  -5   8   5 119.279 247.374   2
   5  -8  -5 155.815 135.244   8
   5  -8  -5 187.774 262.253  14
  -5   8   5-44.6551 327.965  12
  -5   8   5-427.959 360.744   6
  -5   8   5-147.787 420.350  10
   5  -8  -4-143.108 197.653   1
   5  -8  -4 362.694 264.672   8
  -5   8   4-20.4040 417.701   2
   5  -8  -4 543.044 394.498  14
  -5   8   4 173.441 349.899  12
  -5   8   4 417.188 370.324   6
  -5   8   4-230.245 330.346  10
   5  -8  -3 144.177 136.559   1
   5  -8  -3 51.8075 235.139   8
  -5   8   3 302.682 399.808   2
   5  -8  -3 68.6919 320.596  14
   5  -8  -3 99.2593 147.237  13
  -5   8   3-316.868 329.542  12
  -5   8   3-100.324 412.192   6
  -5   8   3 157.862 244.465  10
   5  -8  -2 211.737 151.018   1
   5  -8  -2 642.177 309.546   8
  -5   8   2 170.593 370.281   2
   5  -8  -2 585.016 405.031  14
   5  -8  -2 533.665 367.294  13
  -5   8   2 228.943 354.794  12
  -5   8   2 667.247 451.661   6
  -5   8   2 529.418 305.587  10
   5  -8  -1 2353.42 357.910   1
   5  -8  -1 2318.77 587.763   8
  -5   8   1 3032.86 768.867   2
   5  -8  -1 2154.26 628.470  14
   5  -8  -1 2742.84 650.452  13
  -5   8   1 3222.04 700.016  12
  -5   8   1 2421.48 747.902   6
  -5   8   1 2510.21 723.313  10
   5  -8   0 871.772 485.618   8
  -5   8   0 690.568 491.104   2
   5  -8   0 779.681 431.424  13
   5  -8   0 932.472 513.227  14
  -5   8   0 1302.41 469.979  12
  -5   8   0 1347.08 548.374   6
  -5   8   0 1949.01 700.504  10
   5  -8   1 2962.44 723.952   8
   5  -8   1 3718.78 755.573  14
  -5   8  -1 2714.59 685.716   2
   5  -8   1 2278.64 759.425  13
  -5   8  -1 1975.06 616.536  12
  -5   8  -1 3494.79 879.569   6
   5  -8   1 2332.57 438.410   5
  -5   8  -1 2983.61 795.757  10
   5  -8   2 1988.90 643.847   8
   5  -8   2 1721.58 567.573  14
  -5   8  -2 2571.64 658.774   2
   5  -8   2 2378.51 731.889  13
  -5   8  -2 1779.61 560.690  12
  -5   8  -2 2299.94 654.898   6
   5  -8   2 1539.03 363.730   5
  -5   8  -2 2188.78 717.975  10
   5  -8   3 315.006 332.655   8
  -5   8  -3-203.045 354.778   2
   5  -8   3-294.005 295.672  14
   5  -8   3-176.179 377.294  13
  -5   8  -3 88.7458 250.857  12
  -5   8  -3-7.02323 293.743   6
  -5   8  -3-111.450 334.987  10
   5  -8   4 408.078 311.328   8
   5  -8   4 67.4284 212.954  14
  -5   8  -4 216.125 255.233   2
   5  -8   4-8.42120 65.6031  13
  -5   8  -4 103.451 261.511  12
  -5   8  -4 275.246 385.071   6
  -5   8  -4 132.298 213.977  10
   5  -8   5 777.246 417.541   8
   5  -8   5 517.974 356.083  14
  -5   8  -5 623.009 476.319   2
   5  -8   5 916.321 413.482  13
  -5   8  -5 198.476 454.210   6
  -5   8  -5 861.752 577.799  10
  -5   8  -6 449.398 388.621   6
  -5   8  -6 337.206 416.843  10
  -5   8  -7 423.052 325.589   6
  -5   8  -7 396.245 494.460  10
  -5   8  -8 90.9807 324.962  10
  -5   7  10 77.3405 451.707   6
  -5   7  10 642.593 476.499  10
   5  -7 -10 145.454 192.343   3
  -5   7   9 133.355 249.269   6
  -5   7   9-470.065 442.119  10
   5  -7  -9 133.536 241.541   3
   5  -7  -8 1107.96 381.739   1
  -5   7   8 1885.56 602.137   6
  -5   7   8 1421.59 533.346  10
   5  -7  -8 1449.68 386.262   3
   5  -7  -7 407.686 294.039   1
   5  -7  -7 988.582 373.121   8
  -5   7   7 1895.65 647.319  12
  -5   7   7 1038.20 527.668   6
  -5   7   7 1466.46 501.743  10
   5  -7  -7 1238.49 337.794   3
   5  -7  -6 156.566 220.950   1
   5  -7  -6 161.649 142.600   8
  -5   7   6 560.885 482.862  12
  -5   7   6-163.229 387.565   6
  -5   7   6-56.3773 340.738  10
   5  -7  -6-12.8413 165.301   3
   5  -7  -5 150.590 325.821  14
   5  -7  -5 140.278 210.351   1
  -5   7   5-644.504 477.549   2
   5  -7  -5 423.535 266.089   8
  -5   7   5 212.510 320.369  12
  -5   7   5-1.60601 68.6643   6
   5  -7  -5 491.323 260.097   3
  -5   7   5 295.418 262.471  10
   5  -7  -4 102.722 211.558   1
   5  -7  -4 565.671 306.799   8
  -5   7   4 45.1532 329.187   2
   5  -7  -4 780.264 417.885  14
  -5   7   4-171.086 278.291  12
  -5   7   4-34.6398 160.177   6
   5  -7  -4-62.5868 175.528   3
  -5   7   4 440.844 308.668  10
   5  -7  -3 1574.51 352.676   1
   5  -7  -3 1315.35 407.905   8
   5  -7  -3 1896.89 514.541   4
  -5   7   3 1617.56 553.518   2
  -5   7   3 1096.77 367.480  15
   5  -7  -3 1505.67 528.173  14
   5  -7  -3 1382.33 414.753  13
  -5   7   3 1510.38 511.044  12
  -5   7   3 2084.27 643.955   6
   5  -7  -3 1544.71 301.366   3
  -5   7   3 1729.77 585.055  10
   5  -7  -2 1013.14 514.058  14
   5  -7  -2 864.261 290.781   1
   5  -7  -2 1318.03 395.995   4
   5  -7  -2 997.017 434.421   8
  -5   7   2 889.100 422.258   2
  -5   7   2 168.633 172.125  15
   5  -7  -2 1354.00 419.404  13
  -5   7   2 1019.24 508.089  12
  -5   7   2 814.048 377.959   6
   5  -7  -2 839.044 264.651   3
  -5   7   2 327.663 288.751  10
  -5   7   1 117.466 92.0698   7
   5  -7  -1 539.906 186.725   1
   5  -7  -1-74.3789 164.318   4
   5  -7  -1 184.654 300.146   8
  -5   7   1 91.1181 352.494   2
   5  -7  -1-237.835 403.461  14
   5  -7  -1 184.491 170.521  13
   5  -7  -1 212.802 95.6828   3
  -5   7   1 325.399 252.933  12
  -5   7   1 419.516 378.583   6
  -5   7   1 332.169 379.879  10
   5  -7   0 1910.31 276.397   1
   5  -7   0 2121.52 457.862   4
   5  -7   0 2183.72 537.999   8
  -5   7   0 1812.73 525.172   2
   5  -7   0 2059.12 605.869  14
   5  -7   0 1785.19 586.556  13
  -5   7   0 2857.14 602.672  12
  -5   7   0 1801.54 555.462   6
  -5   7   0 1492.47 527.322  10
   5  -7   1 1135.52 367.940   8
  -5   7  -1 1096.72 399.018   2
   5  -7   1 2016.44 582.404  14
   5  -7   1 1433.60 610.535  13
  -5   7  -1 1346.03 448.805  12
   5  -7   1 1000.32 144.861   1
  -5   7  -1 2041.84 615.534   6
   5  -7   1 1708.66 375.369   5
  -5   7  -1 1180.74 451.144  10
   5  -7   2 604.334 432.713   8
   5  -7   2 354.723 413.746  14
   5  -7   2 20.0409 339.504  13
  -5   7  -2 96.3458 248.097  12
  -5   7  -2 305.660 415.795   6
  -5   7  -2 532.420 303.153  10
   5  -7   2 276.914 168.673   5
  -5   7  -2 25.1484 304.371   2
   5  -7   3 2720.50 679.702   8
   5  -7   3 2625.54 713.915  14
  -5   7  -3 2767.79 621.150   2
   5  -7   3 2257.10 679.705  13
  -5   7  -3 2446.79 547.448  12
  -5   7  -3 2104.53 648.899   6
  -5   7  -3 2507.36 691.635  10
   5  -7   3 2145.61 355.432   5
   5  -7   4 2405.99 667.290   8
   5  -7   4 2260.78 624.417  14
  -5   7  -4 3188.93 656.967   2
   5  -7   4 2775.34 723.512  13
  -5   7  -4 3266.05 524.083  12
  -5   7  -4 3272.70 748.185   6
  -5   7  -4 3510.07 784.104  10
   5  -7   5 225.225 379.600   8
  -5   7  -5-180.659 130.221   4
   5  -7   5-80.9955 111.831  14
  -5   7  -5-163.229 253.866   2
   5  -7   5 151.145 284.932  13
  -5   7  -5-124.769 259.335   6
  -5   7  -5-160.277 366.796  10
   5  -7   6 200.416 271.812   8
   5  -7   6 375.835 247.387  14
  -5   7  -6 191.306 291.702   2
   5  -7   6 485.397 463.940  13
  -5   7  -6 468.329 240.932   6
  -5   7  -6 194.627 408.676  10
   5  -7   7 476.992 438.832   8
   5  -7   7 794.889 709.196  15
  -5   7  -7 1.56385 381.209   2
  -5   7  -7-80.9978 301.531   6
  -5   7  -7 204.724 177.296  11
  -5   7  -7 269.372 418.690  10
  -5   7  -8 80.1209 274.189   6
  -5   7  -8 421.870 351.102  11
  -5   7  -8 472.408 375.676  10
  -5   6  10 1192.52 501.937   6
   5  -6 -10 204.448 265.464   3
   5  -6  -9-97.0656 329.464   1
  -5   6   9-400.491 484.435   9
  -5   6   9-619.503 395.456   6
   5  -6  -9 292.289 297.128   3
   5  -6  -8-271.343 304.687   1
  -5   6   8 133.296 241.365   6
   5  -6  -8-513.303 278.465   3
   5  -6  -7 207.103 275.337   1
   5  -6  -7-142.976 125.556   8
  -5   6   7-60.7276 243.819   6
   5  -6  -7 116.800 231.330   3
   5  -6  -6 3.94456 171.617   1
   5  -6  -6 307.996 220.141   8
  -5   6   6-376.602 329.083  12
  -5   6   6-99.9557 267.223   6
   5  -6  -6 277.581 231.060   3
   5  -6  -5 334.123 222.657   1
  -5   6   5 403.467 388.858   2
   5  -6  -5 525.032 279.626   8
  -5   6   5 388.847 255.783  15
   5  -6  -5 984.653 391.685  14
  -5   6   5 637.070 439.713  12
  -5   6   5 81.4846 324.245   6
   5  -6  -5 399.962 221.886   3
   5  -6  -4 169.213 253.304   1
   5  -6  -4 136.203 212.599   8
  -5   6   4-115.620 286.097   2
   5  -6  -4 7.84160 117.787   4
  -5   6   4-267.749 240.739  15
   5  -6  -4 421.913 411.024  14
  -5   6   4-62.9639 114.334  13
  -5   6   4-75.1107 275.715  12
  -5   6   4-409.222 376.252   6
   5  -6  -4-334.286 204.081   3
   5  -6  -3 868.000 338.809   5
   5  -6  -3 896.897 300.917   1
   5  -6  -3 840.555 356.983   8
   5  -6  -3 729.688 271.954   4
  -5   6   3 649.834 471.581   2
  -5   6   3 1034.09 323.293  15
   5  -6  -3 694.289 362.024  14
   5  -6  -3 602.742 322.784  13
  -5   6   3 610.325 205.330  13
  -5   6   3 891.347 405.454  12
  -5   6   3 576.701 306.975   1
  -5   6   3 865.623 450.883   6
   5  -6  -3 1250.62 292.147   3
  -5   6   3 937.576 425.578  10
   5  -6  -2 547.635 210.322   1
   5  -6  -2 467.237 178.536   5
   5  -6  -2 576.365 342.916   8
   5  -6  -2 287.849 155.270   4
  -5   6   2 327.538 232.697   1
  -5   6   2 101.449 331.587   2
  -5   6   2-141.748 176.987  15
   5  -6  -2 86.4512 374.994  14
   5  -6  -2 384.258 270.723  13
  -5   6   2 681.865 244.924  13
  -5   6   2 406.900 357.722  12
  -5   6   2 491.861 340.680   6
   5  -6  -2 473.591 185.469   3
  -5   6   2 538.472 387.664  10
  -5   6   1 5434.99 781.251   2
   5  -6  -1 5495.93 713.728   4
   5  -6  -1 5361.30 457.338   1
   5  -6  -1 5581.16 791.387   8
  -5   6   1 4756.83 332.412   7
   5  -6  -1 5909.18 539.199   3
  -5   6   1 5421.91 782.270  15
   5  -6  -1 5823.59 869.792  14
  -5   6   1 5530.26 869.021   6
   5  -6  -1 5765.21 815.882  13
  -5   6   1 4774.61 677.132  13
  -5   6   1 5886.48 834.802  12
  -5   6   1 5554.18 917.590  10
   5  -6   0 3164.50 314.900   1
   5  -6   0 3093.42 551.046   4
   5  -6   0 2642.88 610.475   8
  -5   6   0 3075.61 393.975   7
   5  -6   0 3229.81 342.406   3
  -5   6   0 2357.47 586.786   2
   5  -6   0 2883.45 644.033  14
   5  -6   0 3546.29 683.550  13
  -5   6   0 3203.10 618.096  12
  -5   6   0 2961.88 667.285   6
  -5   6   0 2799.49 694.475  10
   5  -6   1 2348.53 486.738   4
   5  -6   1 2068.42 555.038  14
   5  -6   1 2436.93 563.468   8
   5  -6   1 1838.52 241.769   3
  -5   6  -1 2439.40 424.010   7
  -5   6  -1 2626.71 614.484   2
   5  -6   1 2389.37 598.460  13
  -5   6  -1 2161.95 498.117  12
  -5   6  -1 2899.23 693.261   6
   5  -6   1 2350.08 363.680   5
  -5   6  -1 2921.21 674.622  10
   5  -6   2-188.057 335.743   8
  -5   6  -2 370.052 242.204   7
  -5   6  -2 111.419 342.045   2
   5  -6   2 21.1006 397.917  14
   5  -6   2 9.16713 203.659  13
  -5   6  -2 329.163 285.349  12
  -5   6  -2 583.408 382.518   6
  -5   6  -2 300.144 328.196  10
   5  -6   2 114.049 141.257   5
  -5   6  -3 12479.4 1111.52   2
   5  -6   3 13431.8 1348.15   8
  -5   6  -3 13767.9 951.850   4
  -5   6  -3 10131.4 1035.32   7
   5  -6   3 11095.3 1245.18  14
   5  -6   3 12976.8 1398.50  13
  -5   6  -3 11810.9 1205.68   6
  -5   6  -3 12629.1 987.244  12
   5  -6   3 12940.2 728.100   5
  -5   6  -3 11334.4 1216.73  10
   5  -6   4 1826.10 518.515   8
  -5   6  -4 2014.29 489.052   4
   5  -6   4 2023.26 645.608  14
  -5   6  -4 1611.75 491.646   2
   5  -6   4 2398.69 714.432  13
  -5   6  -4 2162.12 420.100  12
  -5   6  -4 1995.95 582.579   6
  -5   6  -4 2053.92 486.016  11
  -5   6  -4 1235.94 526.374  10
   5  -6   4 1656.76 263.762   5
   5  -6   5 838.085 423.492   8
  -5   6  -5 1180.47 411.258   4
   5  -6   5 1505.85 565.465  14
   5  -6   5 858.767 407.230  13
  -5   6  -5 957.463 399.871   2
  -5   6  -5 548.558 191.937  12
  -5   6  -5 619.727 355.402   6
  -5   6  -5 1114.72 412.743  11
  -5   6  -5 789.326 360.762  10
   5  -6   6 449.066 404.853   8
  -5   6  -6-72.1252 258.634   4
   5  -6   6-62.5275 109.305  14
   5  -6   6 290.558 325.638  13
  -5   6  -6 323.009 315.254   2
  -5   6  -6 329.961 340.667   6
  -5   6  -6 140.403 324.627  11
  -5   6  -6 709.118 449.355  10
   5  -6   7-238.534 316.679   8
  -5   6  -7-456.433 355.939   4
   5  -6   7-72.4404 150.900  13
  -5   6  -7-156.683 322.043   2
  -5   6  -7 24.7113 138.043   6
  -5   6  -7-332.211 290.868  11
  -5   6  -7-35.2460 255.504  10
   5  -6   8 512.825 556.277   8
  -5   6  -8 24.1719 250.603   4
   5  -6   8-651.669 367.798  13
  -5   6  -8 157.569 168.571   2
  -5   6  -8 234.944 244.233  11
  -5   6  -8 48.1551 314.003  10
  -5   6  -9 647.226 358.550  11
  -5   5  11 129.655 339.641   6
   5  -5 -10 177.281 278.430   1
  -5   5  10 1153.68 511.377   9
  -5   5  10 238.240 278.804   6
   5  -5 -10 656.081 288.193   3
   5  -5  -9-423.812 300.397   1
  -5   5   9-580.002 319.248   9
  -5   5   9-495.990 345.229   6
   5  -5  -9 119.235 259.217   3
   5  -5  -8 1835.78 491.170   1
   5  -5  -8 1640.71 359.722   8
  -5   5   8 1475.05 508.843   6
   5  -5  -8 1428.77 386.663   3
   5  -5  -7 775.686 325.768   1
   5  -5  -7 1162.47 348.587   8
  -5   5   7 1806.99 561.406   6
   5  -5  -7 1362.74 390.781   3
   5  -5  -6 265.539 259.548   1
   5  -5  -6 294.731 188.131   8
  -5   5   6 638.057 388.791   6
   5  -5  -6 98.4352 268.682   3
   5  -5  -5 4690.46 588.657   8
   5  -5  -5 4563.20 614.720   1
  -5   5   5 3763.50 590.034  15
   5  -5  -5 5345.60 564.323   3
   5  -5  -5 4692.23 677.128  14
  -5   5   5 4212.63 455.727  13
  -5   5   5 4535.42 792.250  12
  -5   5   5 4261.16 714.513   6
  -5   5   5 4858.70 812.923   2
   5  -5  -4 369.486 173.019   5
   5  -5  -4 604.592 264.884   1
   5  -5  -4 541.863 281.449   8
  -5   5   4 545.403 349.913   2
   5  -5  -4 1066.66 322.182   4
  -5   5   4 15.6481 128.992  15
   5  -5  -4 1165.53 441.795  14
  -5   5   4 537.763 206.721  13
  -5   5   4 352.049 238.791   1
  -5   5   4 117.630 345.565  12
  -5   5   4 648.731 428.568   6
   5  -5  -4 551.561 260.725   3
   5  -5  -3 8762.73 849.950   4
   5  -5  -3 8080.00 831.984   8
   5  -5  -3 8048.59 665.637   1
  -5   5   3 7772.26 845.760  15
   5  -5  -3 8409.00 905.220  14
  -5   5   3 7286.43 736.255   1
  -5   5   3 7719.80 920.956   6
  -5   5   3 8197.11 756.317  13
   5  -5  -3 8699.03 692.352   3
  -5   5   3 7618.99 950.142  12
   5  -5  -3 8292.00 729.959   5
  -5   5   3 8488.11 950.095   2
   5  -5  -2 4809.56 625.145   2
  -5   5   2 6109.97 831.506  12
   5  -5  -2 5379.71 708.286   4
   5  -5  -2 5135.80 487.227   1
   5  -5  -2 5453.94 729.740   8
  -5   5   2 5371.87 607.803   8
  -5   5   2 4270.65 678.650  15
   5  -5  -2 5574.80 575.001   3
   5  -5  -2 4759.21 725.420  14
  -5   5   2 4653.74 536.219   1
  -5   5   2 5410.61 809.772   6
   5  -5  -2 5099.84 710.503  13
  -5   5   2 5110.57 634.894  13
   5  -5  -2 4913.27 733.839  12
   5  -5  -2 4324.96 501.671   5
  -5   5   2 4872.59 711.305   2
   5  -5  -1-185.637 135.345   5
   5  -5  -1 276.611 292.188   8
   5  -5  -1 109.086 214.991   4
  -5   5   1 94.6271 149.806   1
  -5   5   1 33.7120 115.307  15
  -5   5   1 157.337 352.002   2
  -5   5   1 106.544 51.0622   7
   5  -5  -1 116.115 326.368  14
   5  -5  -1 284.721 318.740  13
  -5   5   1 632.807 243.898  13
   5  -5  -1 8.96807 181.023   2
  -5   5   1 69.7055 285.893  12
   5  -5  -1 251.938 187.545   3
  -5   5   1 15.1773 440.158   6
   5  -5  -1-56.9022 70.1550  12
  -5   5   1 338.293 317.515  10
   5  -5  -1 62.4860 103.568   1
   5  -5   0 24.3985 191.814   4
   5  -5   0-49.5232 278.273   8
  -5   5   0 268.415 142.608   7
  -5   5   0 222.430 159.344  15
  -5   5   0 27.5199 318.870   2
  -5   5   0 159.147 179.052  13
   5  -5   0 79.4776 138.006   3
   5  -5   0 20.5780 90.2543   1
  -5   5   0 189.093 297.515  12
  -5   5   0 113.904 99.8310   1
  -5   5   0 204.526 391.099   6
   5  -5   0-226.012 200.947   2
   5  -5   0 275.398 367.375  13
   5  -5   0 103.413 165.262  12
  -5   5   0 332.715 301.534  10
   5  -5   0-24.2798 214.534  14
  -5   5  -1 8705.07 848.088   2
   5  -5   1 10090.5 960.447   4
   5  -5   1 9845.83 1056.19   8
  -5   5  -1 9544.22 789.937   7
   5  -5   1 9299.32 696.194   3
   5  -5   1 9294.16 1045.59  14
  -5   5  -1 9453.51 1015.92   6
   5  -5   1 9746.50 1090.86  13
  -5   5  -1 9538.14 856.523  12
  -5   5  -1 9560.17 859.622  11
   5  -5   1 9642.90 574.504   5
  -5   5  -1 9990.93 1079.82  10
  -5   5  -2 12752.3 1006.39   2
  -5   5  -2 12887.0 946.568   4
   5  -5   2 13176.8 1226.28   8
   5  -5   2 11833.0 1223.04  14
  -5   5  -2 12295.9 999.515   7
   5  -5   2 12732.2 820.878   3
  -5   5  -2 12260.8 546.730   3
  -5   5  -2 12849.5 1168.49   6
   5  -5   2 11134.3 1189.83  13
  -5   5  -2 12165.2 903.473  12
  -5   5  -2 11837.3 989.358  11
   5  -5   2 11851.3 582.119   5
  -5   5  -2 12215.2 1192.07  10
   5  -5   3 3965.38 766.256   8
  -5   5  -3 2995.20 550.614   4
  -5   5  -3 2954.21 563.739   7
  -5   5  -3 3034.92 344.620   3
   5  -5   3 3528.41 697.478  14
  -5   5  -3 3439.24 589.096   2
   5  -5   3 3383.94 756.835  13
  -5   5  -3 3906.47 482.023  12
  -5   5  -3 4098.36 695.428   6
  -5   5  -3 4083.22 629.309  11
   5  -5   3 3235.61 302.816   5
  -5   5  -3 2604.04 594.947  10
   5  -5   4 2917.54 699.040   8
  -5   5  -4 2692.24 551.713   4
  -5   5  -4 1533.09 495.002   7
  -5   5  -4 2703.41 367.825   3
   5  -5   4 2553.08 635.006  14
   5  -5   4 3066.57 718.209  13
  -5   5  -4 2733.22 555.927   2
  -5   5  -4 2801.55 357.533  12
  -5   5  -4 3025.98 579.700   6
  -5   5  -4 2583.99 552.608  11
   5  -5   4 2432.57 259.850   5
  -5   5  -4 2024.84 533.802  10
   5  -5   5 123.953 74.1675   5
   5  -5   5 87.8383 217.471   8
  -5   5  -5-111.929 226.649   4
   5  -5   5 217.750 195.509  14
   5  -5   5 31.9967 202.379  13
  -5   5  -5-52.4786 326.217   2
  -5   5  -5-165.937 301.129   6
  -5   5  -5 49.9188 65.0583   3
  -5   5  -5-170.659 298.922  10
   5  -5   6-331.890 260.033   8
  -5   5  -6-401.770 381.448   4
   5  -5   6-125.872 133.350  14
   5  -5   6 322.501 460.345  13
  -5   5  -6 508.710 398.624   2
  -5   5  -6 192.632 135.144   6
  -5   5  -6 96.0957 236.092  11
  -5   5  -6 85.5777 301.111  10
   5  -5   7 83.9064 421.642   8
  -5   5  -7-290.373 257.088   4
   5  -5   7 199.679 303.465  13
  -5   5  -7-210.243 320.073   2
  -5   5  -7-22.5826 218.179   6
  -5   5  -7 13.4164 332.256  11
  -5   5  -7 826.647 301.785  10
   5  -5   8 3382.11 877.734   8
  -5   5  -8 3643.46 846.895   4
   5  -5   8 2698.09 792.363  13
  -5   5  -8 4174.06 783.916   2
  -5   5  -8 2510.41 636.095  11
  -5   5  -8 2819.30 667.479  10
   5  -5   9 1444.75 662.449   8
  -5   5  -9 1650.68 674.904   4
   5  -5   9 272.747 327.532  13
  -5   5  -9 1375.42 510.761   2
  -5   5  -9 1193.67 466.918  11
  -5   5 -10 22.0529 514.769   4
  -5   5 -10-464.055 238.057  11
  -5   4  11 259.849 220.293   6
   5  -4 -11-117.060 216.441   1
  -5   4  10 317.358 457.213   9
  -5   4  10 497.885 255.522   6
   5  -4 -10 1013.02 368.868   3
   5  -4 -10 429.615 299.453   1
   5  -4  -9 210.285 233.936   1
  -5   4   9-132.885 396.890   9
  -5   4   9 293.163 349.616   6
   5  -4  -9-44.8316 273.788   3
   5  -4  -8 190.640 315.795   1
   5  -4  -8 277.765 129.599   8
  -5   4   8 96.2682 260.112   6
   5  -4  -8 138.204 287.375   3
   5  -4  -7 298.194 281.175   1
   5  -4  -7 2.94425 143.191   8
  -5   4   7 332.804 281.720   6
   5  -4  -7 475.056 296.232   3
   5  -4  -6 414.851 331.076   1
   5  -4  -6 636.166 253.121   8
  -5   4   6 894.217 178.209  13
  -5   4   6 888.775 387.836   6
   5  -4  -6 654.025 270.701   3
   5  -4  -5 1252.62 350.555   1
   5  -4  -5 1077.48 293.061   5
  -5   4   5 723.451 299.892   1
   5  -4  -5 1123.28 305.185   8
   5  -4  -5 1479.03 354.523   2
   5  -4  -5 1232.38 409.439  14
  -5   4   5 1278.87 236.107  13
  -5   4   5 804.187 384.487   6
   5  -4  -5 1257.01 336.456   3
   5  -4  -4 841.738 257.099   5
  -5   4   4 516.690 284.058   1
   5  -4  -4 838.074 313.202   8
  -5   4   4 632.996 370.301   2
   5  -4  -4 938.041 289.082   4
   5  -4  -4 859.067 392.392  14
   5  -4  -4 867.146 292.393   2
  -5   4   4 695.373 212.080  13
  -5   4   4 755.768 401.138   6
   5  -4  -4 669.739 286.611   3
   5  -4  -4 778.826 254.902   1
   5  -4  -3 4896.57 571.821   2
   5  -4  -3 5035.93 518.007   1
   5  -4  -3 5905.25 717.642   4
   5  -4  -3 5634.71 679.565   8
  -5   4   3 5845.20 565.917   8
  -5   4   3 6575.11 778.861  15
  -5   4   3 5204.59 568.375   1
   5  -4  -3 5345.63 558.953   3
   5  -4  -3 5638.48 750.171  14
  -5   4   3 5329.50 739.391   6
  -5   4   3 5028.16 578.069  13
   5  -4  -3 4656.46 678.499  12
   5  -4  -3 5960.21 694.930  11
   5  -4  -3 5662.22 546.851   5
  -5   4   3 5234.76 699.048   2
   5  -4  -2 12925.1 920.793   2
   5  -4  -2 12635.9 713.728   1
   5  -4  -2 13559.5 1078.31   4
   5  -4  -2 11398.0 960.986   8
  -5   4   2 13177.6 876.141   8
  -5   4   2 13891.2 1150.48  15
  -5   4   2 11375.3 761.641   1
   5  -4  -2 12898.7 858.210   3
   5  -4  -2 13739.6 1131.37  14
  -5   4   2 12047.1 1065.07   6
  -5   4   2 12761.0 974.690  13
  -5   4   2 12590.7 1037.76  12
   5  -4  -2 12796.3 1039.68  12
   5  -4  -2 14201.2 1065.32  11
   5  -4  -2 12965.5 745.935   5
  -5   4   2 12896.5 972.439   2
   5  -4  -1 793.849 184.130   5
   5  -4  -1 787.084 384.059   8
   5  -4  -1 903.711 337.759   4
  -5   4   1 769.251 237.025   1
  -5   4   1 766.709 253.852   8
  -5   4   1 713.800 270.353  15
  -5   4   1 1159.78 344.627   2
   5  -4  -1 1095.08 369.133  13
   5  -4  -1 345.625 339.484  14
  -5   4   1 387.001 178.750  13
  -5   4   1 744.678 336.087  12
   5  -4  -1 712.759 246.792   2
   5  -4  -1 683.895 183.643   1
  -5   4   1 977.166 396.124   6
   5  -4  -1 311.441 211.674  12
   5  -4  -1 786.179 280.392   3
   5  -4  -1 833.493 358.109  11
  -5   4   1 749.340 156.258   7
   5  -4   0-41.7829 77.2940   5
   5  -4   0 141.776 229.492   4
   5  -4   0 44.8848 226.238   8
  -5   4   0-29.7518 134.865   8
  -5   4   0-29.4153 91.3106  15
  -5   4   0-87.4079 152.713   7
  -5   4   0 27.8517 243.121   2
  -5   4   0 160.166 126.708   1
   5  -4   0 6.90344 288.683  14
   5  -4   0 92.3527 238.223  13
  -5   4   0-342.120 227.068  13
   5  -4   0 210.997 184.295   3
  -5   4   0-0.75754 238.686  12
  -5   4   0-263.030 252.298   6
   5  -4   0 366.894 171.192  12
   5  -4   0-82.8962 161.094   2
  -5   4   0 148.486 222.797  11
  -5   4   0 111.841 134.297   3
  -5   4  -1 15168.7 986.074   2
   5  -4   1 13552.1 1136.46   4
   5  -4   1 13823.4 1150.45   8
  -5   4  -1 13414.5 938.648   4
   5  -4   1 14276.4 970.468   2
  -5   4  -1 13831.2 913.536   7
  -5   4  -1 14451.2 1280.04  15
   5  -4   1 14408.6 929.336   3
  -5   4  -1 12858.8 455.402   1
  -5   4  -1 13693.5 663.620   3
   5  -4   1 14914.2 1259.94  14
  -5   4  -1 15080.9 987.370  14
   5  -4   1 13615.1 1217.94  13
  -5   4  -1 15067.2 1188.15  13
  -5   4  -1 15048.0 935.954  12
   5  -4   1 13397.6 891.330  12
  -5   4  -1 14145.6 1013.21  11
   5  -4   1 14574.0 499.384   5
  -5   4  -1 13239.2 1149.21  10
   5  -4   1 12980.7 472.751   5
  -5   4  -1 14606.0 1157.28   6
   5  -4   2 560.542 232.736   4
   5  -4   2 654.362 406.094   8
  -5   4  -2 524.876 322.717   4
  -5   4  -2 574.568 301.445   7
   5  -4   2 717.117 436.280  14
  -5   4  -2 1095.28 349.964  14
   5  -4   2 486.359 261.678   3
  -5   4  -2 825.016 340.302   2
   5  -4   2 774.970 423.499  13
  -5   4  -2 351.669 275.168   6
  -5   4  -2 620.562 354.773  11
  -5   4  -2 1020.55 218.776   3
   5  -4   2 671.684 92.1051   5
  -5   4  -2 1015.83 409.413  10
   5  -4   2 705.352 259.533   2
  -5   4  -3 18760.0 1185.87   2
  -5   4  -3 18767.5 1285.55   4
   5  -4   3 20285.4 1567.58   8
   5  -4   3 20311.0 1303.51   2
  -5   4  -3 19461.6 1361.26   7
   5  -4   3 21632.2 1250.64   3
  -5   4  -3 18270.4 959.727   3
   5  -4   3 19040.6 1511.25  14
  -5   4  -3 19002.9 1315.20   6
   5  -4   3 18252.6 1534.78  13
  -5   4  -3 21419.1 1391.61  11
  -5   4  -3 17576.1 1292.36  10
   5  -4   3 16465.2 404.319   5
   5  -4   4-48.9819 50.0423   5
   5  -4   4 10.3651 327.167   8
  -5   4  -4-438.843 357.137   4
  -5   4  -4 55.4192 298.417   7
   5  -4   4 167.417 265.490  14
   5  -4   4 9.24772 276.951  13
  -5   4  -4-303.410 252.887   2
  -5   4  -4-465.570 313.969   6
  -5   4  -4-335.039 210.135   3
  -5   4  -4-661.929 395.448  11
  -5   4  -4-217.160 268.630  10
  -5   4  -5 6602.45 778.251   2
  -5   4  -5 5498.70 822.036   4
   5  -4   5 5818.37 987.820   8
   5  -4   5 6202.07 977.642  14
  -5   4  -5 5406.38 647.768   3
   5  -4   5 6908.07 1052.74  13
  -5   4  -5 6129.40 719.065   6
  -5   4  -5 5994.14 836.904  11
  -5   4  -5 6109.50 794.567  10
   5  -4   5 6056.30 387.072   5
   5  -4   6 52.9751 259.061   8
  -5   4  -6 314.259 372.772   4
   5  -4   6 435.561 396.746  13
   5  -4   6 314.212 385.014  14
  -5   4  -6-149.834 149.896   3
  -5   4  -6 494.130 376.914   2
  -5   4  -6 161.309 190.342   6
  -5   4  -6 211.917 336.745  11
  -5   4  -6 405.792 297.412  10
   5  -4   7 48.0584 317.398   8
  -5   4  -7 972.056 473.447   4
   5  -4   7 1700.94 528.760  13
  -5   4  -7 984.757 289.326   6
  -5   4  -7 1113.58 444.401   2
  -5   4  -7 562.192 366.966  11
  -5   4  -7 646.667 264.565  10
   5  -4   8 945.909 609.203   8
  -5   4  -8 168.810 382.420   4
   5  -4   8-348.202 354.611  13
  -5   4  -8 518.038 344.942   2
  -5   4  -8 188.260 301.874  11
  -5   4  -8 340.767 282.683  10
  -5   4  -9 460.278 480.190   4
   5  -4   9 153.796 217.491  13
  -5   4  -9-383.589 348.879  11
  -5   4 -10 61.2742 418.519   4
  -5   4 -10 18.5163 352.747  11
  -5   3  12-141.525 321.814   6
  -5   3  11 712.266 557.932   9
  -5   3  11 640.918 280.208  15
  -5   3  11 571.723 256.239   6
   5  -3 -11 507.185 371.556   1
   5  -3 -11 748.933 336.120   3
  -5   3  10 1403.91 568.999   9
  -5   3  10 1231.55 326.152  15
  -5   3  10 1028.89 373.936   6
   5  -3 -10 1071.34 382.142   3
   5  -3 -10 868.935 338.435   1
  -5   3   9 72.5480 483.821   9
  -5   3   9 107.427 250.879   6
   5  -3  -9 83.8682 258.481   3
   5  -3  -9 350.085 363.582   1
   5  -3  -8 141.816 109.483   8
   5  -3  -8 94.6990 117.389   7
  -5   3   8-26.2846 253.429   6
   5  -3  -8 358.459 323.655   3
   5  -3  -8 497.616 297.456   1
   5  -3  -7 6552.24 536.387   8
   5  -3  -7 6623.81 741.949   1
   5  -3  -7 6185.85 375.105   7
   5  -3  -7 6706.21 668.420   3
  -5   3   7 5595.96 810.079   6
  -5   3   7 5812.06 389.524  13
   5  -3  -7 6783.19 659.118  11
   5  -3  -6 5097.94 628.789   2
   5  -3  -6 6186.67 678.191   1
   5  -3  -6 5515.05 528.394   8
   5  -3  -6 5782.76 605.641   3
  -5   3   6 4715.12 443.369  13
  -5   3   6 5591.23 787.837   6
   5  -3  -6 6558.51 648.232  11
   5  -3  -6 5353.39 624.685   5
   5  -3  -5 8730.85 750.192   2
   5  -3  -5 7912.28 720.449   1
   5  -3  -5 8988.82 720.165   8
  -5   3   5 8805.70 808.381   1
   5  -3  -5 8860.17 704.838   3
   5  -3  -5 8441.88 805.322  14
  -5   3   5 8862.05 927.888   6
  -5   3   5 8612.10 653.955  13
   5  -3  -5 9485.84 799.252  11
   5  -3  -5 8431.48 729.625   5
   5  -3  -4 7653.01 684.489   2
   5  -3  -4 7479.46 643.809   1
   5  -3  -4 7631.27 682.974   8
   5  -3  -4 9048.76 830.050   4
  -5   3   4 6956.24 556.058   8
  -5   3   4 7572.74 703.080   1
   5  -3  -4 6606.02 630.574   3
   5  -3  -4 7510.93 768.060  14
  -5   3   4 7872.22 684.453  13
   5  -3  -4 7585.00 823.672   6
   5  -3  -4 6996.25 801.275  12
   5  -3  -4 8029.33 753.719  11
   5  -3  -4 7927.96 663.407   5
  -5   3   4 8108.53 800.951   2
  -5   3   4 7536.55 857.611   6
   5  -3  -3 447.853 172.204   5
   5  -3  -3 139.334 166.785   8
  -5   3   3 294.095 154.275   8
  -5   3   3 201.409 234.436   2
   5  -3  -3 453.452 251.877   4
   5  -3  -3 903.829 396.565  14
  -5   3   3 410.699 202.259  13
   5  -3  -3 600.865 212.616   2
  -5   3   3 499.201 207.519   1
  -5   3   3 692.766 355.930   6
   5  -3  -3 240.552 199.076  12
   5  -3  -3 324.634 238.422   6
   5  -3  -3 794.466 245.741  11
   5  -3  -3 443.443 210.832   1
   5  -3  -3 721.721 280.132   3
   5  -3  -2 8363.52 599.439   1
   5  -3  -2 8040.41 668.670   2
   5  -3  -2 7782.50 816.752   4
   5  -3  -2 7260.69 747.651   8
  -5   3   2 7902.67 666.021   8
  -5   3   2 7475.21 583.433   1
   5  -3  -2 7617.16 696.031   3
   5  -3  -2 10230.7 967.456  14
  -5   3   2 7492.19 802.562   6
  -5   3   2 7633.59 744.783  13
   5  -3  -2 7711.74 743.368  12
   5  -3  -2 7973.97 788.032  11
  -5   3   2 9494.19 733.871  11
   5  -3  -2 8495.60 528.797   5
  -5   3   2 8153.39 711.294   2
  -5   3   1 63040.4 1780.08   2
   5  -3  -1 62718.8 1769.73   2
   5  -3  -1 63547.9 2305.63   4
   5  -3  -1 62482.6 2217.98   8
  -5   3   1 65851.5 1992.35   8
  -5   3   1 58921.7 1445.82   1
  -5   3   1 63254.6 1323.37   7
  -5   3   1 67231.5 2562.96  15
   5  -3  -1 63741.2 1946.79   3
   5  -3  -1 64946.5 2416.12  14
  -5   3   1 64019.4 1448.76   3
  -5   3   1 64405.7 2239.93   6
  -5   3   1 63070.7 2216.94  13
   5  -3  -1 60135.0 1939.84  12
   5  -3  -1 67576.2 2357.14  11
  -5   3   1 64035.8 1908.21  11
   5  -3  -1 60970.8 1144.06   5
  -5   3   0 8619.00 682.792   2
   5  -3   0 8816.70 902.620   4
   5  -3   0 8161.28 870.444   8
   5  -3   0 6945.25 629.982   2
  -5   3   0 8536.73 746.218   4
  -5   3   0 8399.55 757.966   8
  -5   3   0 7835.19 460.703   1
  -5   3   0 8259.18 615.986   7
   5  -3   0 7959.22 740.034   3
  -5   3   0 8236.04 817.489   6
   5  -3   0 8515.80 952.512  14
  -5   3   0 7529.69 813.610  13
  -5   3   0 8591.06 734.906  14
   5  -3   0 7873.72 674.956  12
   5  -3   0 9774.57 975.642  11
   5  -3   0 7566.38 290.838   5
  -5   3   0 8856.05 784.886  11
  -5   3   0 9132.96 986.670  15
  -5   3   0 7794.41 554.628   3
   5  -3   0 7337.89 265.795   5
   5  -3   1 1400.56 413.213   4
   5  -3   1 949.510 412.330   8
  -5   3  -1 1352.85 305.906   8
  -5   3  -1 1522.76 390.728   4
  -5   3  -1 1014.34 150.369   1
  -5   3  -1 1542.58 400.926  15
  -5   3  -1 1030.09 275.954   7
   5  -3   1 779.183 434.728  14
  -5   3  -1 1449.44 359.472  14
  -5   3  -1 1325.68 312.432   2
  -5   3  -1 1356.10 375.839  13
   5  -3   1 1794.54 407.123   3
  -5   3  -1 1394.05 396.849   6
   5  -3   1 1201.35 244.388  12
   5  -3   1 1522.44 453.380  11
  -5   3  -1 1207.90 391.578  11
  -5   3  -1 1367.98 280.481   3
   5  -3   1 1257.10 301.939   2
  -5   3  -2 3734.74 663.250   9
  -5   3  -2 3400.74 476.090   2
   5  -3   2 3520.31 623.137   4
   5  -3   2 2973.03 629.083   8
   5  -3   2 4008.59 540.119   2
  -5   3  -2 3580.72 532.686   8
  -5   3  -2 2951.20 519.147   4
  -5   3  -2 2812.93 568.263  15
  -5   3  -2 2360.57 456.290   7
  -5   3  -2 3219.83 432.490   3
  -5   3  -2 3769.23 576.956  14
   5  -3   2 3678.33 698.534  14
   5  -3   2 2793.92 641.043  13
   5  -3   2 2086.73 451.199   3
  -5   3  -2 2616.27 515.500  13
  -5   3  -2 2905.94 518.622   6
   5  -3   2 3595.39 653.545  11
  -5   3  -2 3124.95 564.223  11
  -5   3  -2 2963.20 552.761  10
   5  -3   3 571.282 318.438   8
  -5   3  -3 967.948 412.168   4
  -5   3  -3 846.869 364.256   7
  -5   3  -3 812.424 352.271  14
   5  -3   3 1001.47 335.750   3
   5  -3   3 1294.53 503.317  14
   5  -3   3 428.051 444.263  13
  -5   3  -3 630.566 293.769   2
  -5   3  -3 1198.69 406.163   6
  -5   3  -3 1043.60 275.054   3
  -5   3  -3 1228.35 444.278  11
  -5   3  -3 1034.18 358.961  10
   5  -3   4 1505.49 510.940   8
  -5   3  -4 924.652 404.934   4
  -5   3  -4 1012.87 400.171   7
   5  -3   4 767.101 495.732  14
   5  -3   4 625.547 326.537   3
   5  -3   4 576.149 447.441  13
  -5   3  -4 644.364 363.560   6
  -5   3  -4 674.839 334.525   2
  -5   3  -4 968.236 318.194   3
  -5   3  -4 1098.55 409.834  11
  -5   3  -4 1220.73 396.017  10
   5  -3   5 593.369 474.355   8
  -5   3  -5 522.115 347.918   4
   5  -3   5 230.586 368.964  14
  -5   3  -5 374.823 221.493   3
   5  -3   5 585.780 431.363  13
  -5   3  -5 619.497 234.154   6
  -5   3  -5 958.007 372.664   2
  -5   3  -5 595.020 325.344  11
  -5   3  -5 517.348 227.231  10
  -5   3  -6 5258.64 712.885   2
   5  -3   6 4926.34 933.352   8
  -5   3  -6 4661.54 860.853   4
  -5   3  -6 4527.43 556.186   6
   5  -3   6 4906.87 875.354  13
  -5   3  -6 5619.08 792.004   3
  -5   3  -6 4337.43 387.339   5
  -5   3  -6 4909.86 813.192  11
  -5   3  -6 5418.36 676.975  10
  -5   3  -7 2514.94 674.795   4
  -5   3  -7 1653.41 334.515   6
  -5   3  -7 1943.22 495.765   2
  -5   3  -7 2027.67 559.408  11
  -5   3  -7 2067.33 427.959  10
  -5   3  -8 794.955 636.879   4
  -5   3  -8 1006.89 423.739   2
  -5   3  -8 228.836 349.784  11
  -5   3  -9 127.650 542.179   4
  -5   3  -9 141.706 294.951  11
  -5   3  -9 567.363 390.599   2
  -5   3 -10 454.738 371.266   4
  -5   3 -10-664.893 393.705  11
  -5   3 -10-332.424 315.002   2
  -5   3 -11-115.752 223.577  11
  -5   2  12 718.609 467.178   9
  -5   2  12 885.659 475.964  15
  -5   2  12 628.280 299.493   6
   5  -2 -12 219.810 341.545   1
   5  -2 -12 1159.83 411.137   3
  -5   2  11 277.972 410.288   9
  -5   2  11 427.427 236.156  15
  -5   2  11-87.0227 273.127   6
   5  -2 -11-253.052 247.985   1
   5  -2 -11 706.583 362.684   3
  -5   2  10 912.987 512.412   9
  -5   2  10 446.776 375.517   6
  -5   2  10 789.933 349.083  15
   5  -2 -10 741.307 371.485   1
   5  -2 -10 1008.93 428.613   3
  -5   2   9-424.682 416.707   9
   5  -2  -9-69.7170 124.705   7
  -5   2   9-121.097 228.058   6
   5  -2  -9-23.5501 129.575  11
   5  -2  -9-1.03107 321.635   1
   5  -2  -9 207.239 259.753   3
  -5   2   8 903.195 424.285   9
   5  -2  -8 824.893 229.304   7
  -5   2   8 839.716 161.323  13
  -5   2   8 608.784 366.165   6
   5  -2  -8 1153.31 280.932  11
   5  -2  -8 782.289 332.694   1
   5  -2  -8 1050.83 360.925   3
   5  -2  -7 259.012 142.128   2
   5  -2  -7 221.770 151.617   7
  -5   2   7 336.469 150.989  13
  -5   2   7 260.715 311.092   6
   5  -2  -7 25.7326 173.955  11
   5  -2  -7 51.6639 300.350   1
   5  -2  -7 72.5781 260.264   3
   5  -2  -6 278.413 141.620   8
   5  -2  -6 413.414 193.651   2
   5  -2  -6 305.943 109.009   7
  -5   2   6 129.354 166.770   1
  -5   2   6 594.408 197.094  13
  -5   2   6 647.147 363.632   6
   5  -2  -6 533.988 281.690   6
   5  -2  -6 420.308 230.609  11
   5  -2  -6 281.655 279.545   1
   5  -2  -6 793.607 316.637   3
   5  -2  -6 491.257 204.727   5
   5  -2  -5 2511.77 413.187   1
  -5   2   5 2222.75 298.503   8
   5  -2  -5 2059.02 343.526   8
   5  -2  -5 2139.28 212.938   7
   5  -2  -5 1918.36 179.041   7
   5  -2  -5 2584.31 398.110   2
   5  -2  -5 2517.96 473.473  14
  -5   2   5 2186.55 402.720   1
  -5   2   5 1523.16 302.335  13
  -5   2   5 2102.83 511.258   6
   5  -2  -5 2453.63 496.812  12
   5  -2  -5 1712.46 413.798   6
   5  -2  -5 2221.27 402.731  11
   5  -2  -5 2277.35 406.922   3
   5  -2  -5 2253.28 367.077   5
   5  -2  -4-21.3578 131.236   8
  -5   2   4 62.1674 124.458   8
   5  -2  -4 152.165 180.356   4
  -5   2   4 159.243 185.744   1
   5  -2  -4 49.8459 47.0767   7
   5  -2  -4-106.326 227.428  14
  -5   2   4 142.265 147.881  13
  -5   2   4 45.1343 263.525   6
   5  -2  -4 75.6595 78.6853  12
   5  -2  -4-186.157 215.918   6
   5  -2  -4 275.591 139.630   2
   5  -2  -4-29.1900 174.777   1
   5  -2  -4 86.2452 136.876  11
   5  -2  -4-152.342 316.081   3
   5  -2  -4-15.0357 130.449   5
   5  -2  -3 85.7707 195.253   8
  -5   2   3-1.77118 195.650   2
  -5   2   3 55.7876 123.281   8
   5  -2  -3-136.443 187.214   4
  -5   2   3-2.77200 94.3939   1
   5  -2  -3 37.4313 57.3736   7
   5  -2  -3-5.81167 120.866   2
   5  -2  -3 34.3304 322.915  14
  -5   2   3 94.9470 116.004  13
   5  -2  -3-59.7297 162.436   1
  -5   2   3-230.289 274.953   6
   5  -2  -3 83.3927 123.330  12
   5  -2  -3 114.377 232.122  11
   5  -2  -3 135.059 268.096   3
  -5   2   3 3.26226 180.057  11
   5  -2  -3 106.910 99.9115   5
   5  -2  -2 2307.81 330.486   2
  -5   2   2 2802.17 405.598   8
   5  -2  -2 2585.31 498.918   8
  -5   2   2 2451.91 327.009   1
   5  -2  -2 3191.68 544.162   4
   5  -2  -2 2317.33 269.085   7
  -5   2   2 2329.90 329.940   3
   5  -2  -2 2340.00 510.067  14
  -5   2   2 2290.39 468.013  13
  -5   2   2 2206.14 509.804   6
   5  -2  -2 2629.47 450.304  12
   5  -2  -2 2152.82 442.063   6
   5  -2  -2 2111.49 416.834   3
   5  -2  -2 2659.67 447.742  11
   5  -2  -2 2365.22 261.370   5
  -5   2   2 2263.89 379.514  11
  -5   2   2 2598.75 378.116   2
  -5   2   1 8898.57 592.091   2
   5  -2  -1 9396.84 900.334   4
   5  -2  -1 9338.07 618.357   2
   5  -2  -1 8354.14 839.160   8
  -5   2   1 8239.35 722.134   8
  -5   2   1 8263.97 534.471   1
   5  -2  -1 9278.35 620.063   7
  -5   2   1 9366.80 569.489   7
   5  -2  -1 8850.08 777.873   3
  -5   2   1 8410.70 593.764   3
   5  -2  -1 9450.19 957.046  14
  -5   2   1 9603.90 866.097   6
  -5   2   1 7868.53 812.063  13
   5  -2  -1 9094.46 818.831   6
   5  -2  -1 7909.11 680.605  12
   5  -2  -1 9122.28 874.816  11
  -5   2   1 9719.99 783.359  11
   5  -2  -1 9159.49 376.108   5
  -5   2   0 9000.02 604.857   2
   5  -2   0 8947.75 900.620   4
   5  -2   0 8655.42 904.523   8
  -5   2   0 9699.61 824.241   4
  -5   2   0 9591.27 826.097   8
  -5   2   0 8749.91 502.194   1
   5  -2   0 8913.76 617.246   2
  -5   2   0 8951.96 645.195   3
   5  -2   0 9761.38 729.720   7
  -5   2   0 9055.98 673.023   7
  -5   2   0 9486.62 967.228  15
   5  -2   0 9528.44 832.019   3
   5  -2   0 9350.66 991.529  14
  -5   2   0 8809.54 769.556  14
  -5   2   0 8640.77 811.160   6
  -5   2   0 8155.80 836.961  13
   5  -2   0 9371.45 812.911   6
   5  -2   0 8412.55 638.205  12
   5  -2   0 9404.39 931.609  11
  -5   2   0 8977.73 821.110  11
  -5   2  -1 17881.7 865.877   2
   5  -2   1 18099.3 1322.32   4
  -5   2  -1 18710.1 656.031   1
  -5   2  -1 18354.6 1204.62   4
   5  -2   1 17433.7 1289.05   8
  -5   2  -1 19456.6 1200.04   8
   5  -2   1 17954.3 949.226   2
   5  -2   1 17717.4 1092.39   7
  -5   2  -1 17607.7 1057.78   7
  -5   2  -1 18667.8 1381.78  15
   5  -2   1 17123.7 1151.83   3
  -5   2  -1 17155.9 978.987   3
   5  -2   1 18991.7 1407.97  14
  -5   2  -1 16738.1 1131.42  14
  -5   2  -1 18543.1 1117.09   6
  -5   2  -1 19099.0 1324.70  13
   5  -2   1 17837.3 824.600  12
   5  -2   1 18918.4 1361.72  11
  -5   2  -1 19165.9 1196.29  11
  -5   2  -2 941.067 304.620   9
   5  -2   2 741.805 327.150   4
   5  -2   2 1681.78 490.327   8
  -5   2  -2 1282.86 321.327   8
  -5   2  -2 726.138 361.372   4
   5  -2   2 1253.70 361.115   7
  -5   2  -2 1175.74 367.901  15
  -5   2  -2 776.353 311.679   7
   5  -2   2 898.431 360.420  14
   5  -2   2 1044.81 364.406   3
  -5   2  -2 1177.05 356.236  14
  -5   2  -2 1367.54 419.241  13
  -5   2  -2 942.563 263.800   2
  -5   2  -2 1078.92 290.350   6
   5  -2   2 1174.05 200.130  12
  -5   2  -2 1040.11 326.281   3
  -5   2  -2 1159.04 163.579   1
  -5   2  -2 1301.12 410.603  11
  -5   2  -3 10078.8 1085.76   9
  -5   2  -3 10823.7 465.238   1
  -5   2  -3 11405.8 1088.86   4
  -5   2  -3 10514.3 766.096   2
   5  -2   3 11715.3 1164.14   8
  -5   2  -3 9888.96 977.014   7
   5  -2   3 11347.0 1043.56   3
  -5   2  -3 10576.2 909.260   3
   5  -2   3 10925.5 1136.75  14
  -5   2  -3 11652.2 1059.55  14
  -5   2  -3 10903.4 825.536   6
  -5   2  -3 9895.91 489.449   1
  -5   2  -3 11437.8 1037.88  11
  -5   2  -3 9825.34 813.021  10
   5  -2   4 150.067 310.996   3
   5  -2   4 193.686 383.005   8
  -5   2  -4-38.7808 88.7518   1
  -5   2  -4 299.551 333.051   4
  -5   2  -4-5.06344 257.009   7
   5  -2   4-121.210 319.620  14
  -5   2  -4 288.064 212.268   6
  -5   2  -4-97.5000 147.417   3
  -5   2  -4 71.4795 228.073   2
  -5   2  -4 251.834 292.944  11
  -5   2  -4 138.202 186.313  10
  -5   2  -5 211.905 307.685   4
   5  -2   5-181.919 315.019  14
  -5   2  -5 76.4570 72.2804   1
  -5   2  -5 84.0949 227.795   3
  -5   2  -5 42.9327 134.897   6
  -5   2  -5-29.5101 228.682  11
  -5   2  -5-63.0636 166.690   2
  -5   2  -5 83.1196 52.1315   5
  -5   2  -5 17.9792 157.594  10
  -5   2  -6-543.699 471.714   4
  -5   2  -6 84.3404 100.467   1
  -5   2  -6 4.93313 104.830   6
  -5   2  -6-86.4027 314.455  11
  -5   2  -6 28.5324 270.973   2
  -5   2  -6 138.202 92.3326   5
  -5   2  -6 29.0420 133.959  10
  -5   2  -7 2634.70 723.982   4
  -5   2  -7 2982.44 333.151   1
  -5   2  -7 2911.71 367.154   6
  -5   2  -7 3015.48 695.626  11
  -5   2  -7 3286.99 577.465   2
  -5   2  -7 3168.16 414.196  10
  -5   2  -8-114.172 258.715  11
  -5   2  -8 481.799 360.062   2
  -5   2  -9 538.065 478.400   4
  -5   2  -9-253.732 313.534  11
  -5   2  -9 473.558 367.973   2
  -5   2 -10 397.569 539.118   4
  -5   2 -10 461.545 355.850  11
  -5   2 -10 943.023 460.024   2
  -5   1  13 621.071 298.817  15
  -5   1  13 319.540 242.646   6
  -5   1  12 747.616 524.946   5
  -5   1  12 279.697 234.430   9
  -5   1  12 418.695 238.519  15
  -5   1  12 1125.84 363.690   6
   5  -1 -12 236.307 294.035   1
   5  -1 -12 599.616 352.991   3
  -5   1  11 546.525 326.065  15
  -5   1  11 178.442 310.208   5
  -5   1  11 373.591 456.245   9
  -5   1  11-62.3414 204.381   6
   5  -1 -11 125.331 334.147   1
   5  -1 -11 718.035 401.563   3
  -5   1  10 217.968 394.848   5
  -5   1  10 596.544 425.139   9
   5  -1 -10 290.070 187.189   7
  -5   1  10 921.270 393.968  15
  -5   1  10-39.8311 300.137   6
   5  -1 -10 186.849 388.151   1
   5  -1 -10 395.855 313.873   3
  -5   1   9 562.901 377.242   5
  -5   1   9 823.465 429.814   9
   5  -1  -9 685.797 255.968   7
  -5   1   9 1254.25 450.065   6
  -5   1   9 1138.67 218.118  13
   5  -1  -9 1204.11 433.352   1
   5  -1  -9 952.119 286.601  11
   5  -1  -9 1178.87 420.252   3
  -5   1   8 7470.18 1001.23   9
   5  -1  -8 7195.32 787.704   1
  -5   1   8 6766.45 863.432   6
   5  -1  -8 5767.94 667.722   3
   5  -1  -8 6412.19 580.185  11
  -5   1   8 6298.90 829.958   5
   5  -1  -8 5479.00 682.836   2
  -5   1   7 1265.07 446.431   5
   5  -1  -7 1004.96 301.570   2
  -5   1   7 773.471 326.417   6
   5  -1  -7 930.106 376.863   6
   5  -1  -7 947.209 369.077   1
   5  -1  -7 1218.18 272.372  11
   5  -1  -7 962.885 379.108   3
   5  -1  -7 1303.57 330.828   5
   5  -1  -6 19130.4 1133.61   1
  -5   1   6 18636.9 636.508   8
  -5   1   6 19807.8 1179.72   1
   5  -1  -6 19294.5 1066.80   3
   5  -1  -6 20634.1 1114.62  14
  -5   1   6 19389.6 1303.92   6
   5  -1  -6 19745.3 1334.34   6
   5  -1  -6 20923.1 1425.68  12
   5  -1  -6 18870.8 962.054  11
   5  -1  -6 20161.8 1104.43   5
  -5   1   6 18849.6 1181.49   5
   5  -1  -6 17905.5 1029.42   2
   5  -1  -5 20300.4 1112.11   1
  -5   1   5 19192.3 780.531   8
  -5   1   5 20602.3 1123.32   1
   5  -1  -5 19062.2 1056.31   3
   5  -1  -5 19733.3 1110.37  14
   5  -1  -5 20566.6 1320.17   6
   5  -1  -5 21707.3 1378.21  12
   5  -1  -5 20011.6 1020.93  11
   5  -1  -5 20887.7 1036.61   5
  -5   1   5 19861.7 1115.43   5
  -5   1   5 19938.0 1279.18   6
   5  -1  -5 18874.7 952.444   2
   5  -1  -4 2096.48 294.661   2
  -5   1   4 2170.26 359.233   5
  -5   1   4 2173.77 358.127   1
  -5   1   4 1958.66 290.935   8
   5  -1  -4 2517.66 450.593   4
   5  -1  -4 2022.76 272.729   7
   5  -1  -4 2250.22 493.776  14
   5  -1  -4 2221.12 420.917   1
  -5   1   4 2040.37 449.213   6
   5  -1  -4 2097.86 423.130  12
   5  -1  -4 2357.99 489.308   6
  -5   1   4 1986.08 304.495  11
   5  -1  -4 2347.44 407.318  11
   5  -1  -4 2253.00 316.370   5
   5  -1  -4 2032.65 420.283   3
   5  -1  -3 58670.3 1329.69   2
   5  -1  -3 64335.8 2209.66   4
  -5   1   3 60097.4 1722.72   8
  -5   1   3 61494.2 1672.08   1
  -5   1   3 66507.1 1652.97   3
   5  -1  -3 62523.1 1511.18   7
   5  -1  -3 60150.8 1950.35   3
   5  -1  -3 64178.5 2192.99  14
   5  -1  -3 63367.9 2083.52  12
   5  -1  -3 62239.9 1963.91  11
  -5   1   3 64632.8 1680.44  11
  -5   1   3 61753.6 2114.18   6
   5  -1  -3 61653.3 1429.56   5
  -5   1   3 59399.5 1500.42   5
   5  -1  -2 2872.30 293.411   2
  -5   1   2 2633.73 345.864   1
  -5   1   2 2779.16 419.961   8
   5  -1  -2 2436.99 477.220   4
   5  -1  -2 2929.82 372.535   7
  -5   1   2 3134.03 390.181   3
   5  -1  -2 2928.51 542.603  14
  -5   1   2 2984.69 488.695  13
   5  -1  -2 3254.04 463.930  12
  -5   1   2 2975.17 492.636   6
   5  -1  -2 2884.53 454.794   6
   5  -1  -2 2357.44 474.321   3
  -5   1   2 2815.77 443.096  11
   5  -1  -2 3191.94 493.286  11
   5  -1  -2 3191.84 294.439   5
  -5   1   2 2241.30 264.801   5
  -5   1   2 2926.91 325.030   2
  -5   1   1 17518.2 685.727   2
  -5   1   1 17799.0 803.801   1
   5  -1  -1 17623.5 1226.08   4
  -5   1   1 16521.6 1066.56   8
  -5   1   1 18841.5 1108.91   4
   5  -1  -1 18124.5 704.738   2
   5  -1  -1 17018.1 954.270   7
  -5   1   1 18986.0 885.225   7
   5  -1  -1 16571.9 1090.17   3
  -5   1   1 17075.3 922.642   3
   5  -1  -1 16426.0 1214.41  14
  -5   1   1 17285.7 1086.66   6
   5  -1  -1 17122.6 1083.82   6
  -5   1   1 17696.2 1227.03  13
   5  -1  -1 17019.1 943.540  12
   5  -1  -1 17288.9 1150.81  11
  -5   1   1 15956.1 971.995  11
   5  -1  -1 16353.7 521.806   5
  -5   1   1 16156.5 523.129   5
  -5   1   0 14774.0 709.581   1
  -5   1   0 14528.4 641.141   2
   5  -1   0 14570.1 1148.59   4
  -5   1   0 14770.4 1034.74   4
  -5   1   0 14644.0 1036.66   8
   5  -1   0 15544.5 710.563   2
   5  -1   0 15083.9 977.322   7
  -5   1   0 15942.2 945.274   7
   5  -1   0 14926.3 1076.11   3
  -5   1   0 13836.4 880.455   3
   5  -1   0 15796.7 1230.51  14
  -5   1   0 15433.1 998.292   6
   5  -1   0 14792.9 980.512   6
  -5   1   0 18057.9 1265.21  13
   5  -1   0 14189.9 793.366  12
  -5   1   0 15362.8 1018.04  11
  -5   1  -1-1.89846 161.702   9
   5  -1   1-244.526 137.276   4
  -5   1  -1-69.5265 134.654   8
  -5   1  -1 22.5910 254.416   4
   5  -1   1 290.758 206.418   7
  -5   1  -1 113.969 304.815  15
  -5   1  -1-5.40617 137.762   7
   5  -1   1-210.019 294.424  14
  -5   1  -1-3.36330 61.4326  13
   5  -1   1-93.5062 197.952   3
  -5   1  -1-36.6610 161.270   2
  -5   1  -1-252.693 200.347   6
   5  -1   1 109.526 80.8926  12
   5  -1   1-104.337 149.284   6
  -5   1  -1 14.9831 161.347   3
  -5   1  -1-268.060 215.985  11
   5  -1   2 14891.7 1259.44   4
  -5   1  -2 15470.1 1199.83   4
  -5   1  -2 15025.4 777.526   2
  -5   1  -2 15139.5 1136.63   8
   5  -1   2 14170.1 1114.51   7
  -5   1  -2 16490.3 1152.85   7
   5  -1   2 15879.9 1223.53   3
  -5   1  -2 16703.2 1311.79  15
  -5   1  -2 16101.8 1099.72   3
  -5   1  -2 17716.7 1256.24  14
  -5   1  -2 15920.6 949.088   6
   5  -1   2 15588.0 1304.94  14
  -5   1  -2 16724.7 1317.93  13
   5  -1   2 16179.2 954.982   6
   5  -1   2 15827.8 613.420  12
  -5   1  -2 15985.8 1176.94  11
  -5   1  -2 15067.7 1174.79   9
  -5   1  -3 536.640 232.472   9
  -5   1  -3 194.012 196.324   8
  -5   1  -3 171.584 315.000   4
   5  -1   3 421.802 355.155   7
  -5   1  -3-13.6866 197.727  15
   5  -1   3 219.849 286.153  14
  -5   1  -3 235.909 222.489   7
  -5   1  -3-19.4034 91.6461  14
   5  -1   3 783.785 391.003   3
  -5   1  -3 356.752 194.954  13
  -5   1  -3 416.724 162.159   1
  -5   1  -3 387.141 194.153   6
  -5   1  -3 526.112 199.568   3
  -5   1  -3 35.3430 328.028  11
  -5   1  -3 207.192 161.038   2
  -5   1  -3 99.9087 155.996  10
  -5   1  -4 6164.64 869.439   9
  -5   1  -4 5932.33 605.227   2
  -5   1  -4 5428.29 873.077   4
   5  -1   4 5750.87 831.112   7
  -5   1  -4 5584.53 795.582   7
   5  -1   4 6160.01 855.520   3
  -5   1  -4 5225.14 769.397   3
   5  -1   4 6208.83 929.247  14
  -5   1  -4 5359.43 487.555   1
  -5   1  -4 5352.21 532.510   6
  -5   1  -4 5146.17 762.615  11
  -5   1  -4 5401.80 312.574   5
  -5   1  -4 5259.77 509.398  10
  -5   1  -5 3212.20 712.116   4
  -5   1  -5 2932.14 385.011   6
   5  -1   5 2045.95 604.429   7
   5  -1   5 3158.76 734.586   3
  -5   1  -5 3529.77 417.992   1
  -5   1  -5 1780.43 511.347  11
  -5   1  -5 2946.29 289.007   5
  -5   1  -5 2552.78 351.774  10
  -5   1  -5 2682.11 458.007   2
  -5   1  -6 686.436 537.737   4
  -5   1  -6 1108.30 197.933   6
  -5   1  -6 537.062 355.492  11
  -5   1  -6 1259.35 336.018   2
  -5   1  -6 1734.53 320.049   1
  -5   1  -6 1006.50 193.551  10
  -5   1  -6 1090.29 217.122   5
  -5   1  -7 1692.52 606.002   4
  -5   1  -7 2733.55 405.181   1
  -5   1  -7 2387.05 641.123  11
  -5   1  -7 2882.97 535.416   2
  -5   1  -8-39.8246 223.504   4
  -5   1  -8 11.6156 136.135  11
  -5   1  -8 164.558 113.690   1
  -5   1  -8 280.864 254.680   2
  -5   1  -9-299.777 365.449   4
  -5   1  -9-101.571 412.166  11
  -5   1  -9 441.343 334.318   2
  -5   1 -10-177.483 283.014  11
  -5   1 -10 337.036 276.586   2
  -5   0  14 627.213 402.057  15
  -5   0  13 45.3405 261.769   9
  -5   0  13 612.820 385.267  15
  -5   0  13 57.1117 291.688   6
  -5   0  12 404.614 430.079   5
  -5   0  12 1548.16 583.163   9
  -5   0  12 446.976 288.380   6
   5   0 -12 1096.63 440.706   1
  -5   0  12 494.510 327.483  15
   5   0 -12 526.539 332.031   3
  -5   0  11-544.458 410.784   5
  -5   0  11 287.102 367.760   9
  -5   0  11 561.581 445.140  15
  -5   0  11 153.878 216.758   6
   5   0 -11 141.059 355.084   1
   5   0 -11-170.360 384.552   3
  -5   0  10 3135.69 736.371   5
  -5   0  10 2768.42 739.648   9
   5   0 -10 3846.02 649.910   3
  -5   0  10 3789.67 477.728  13
  -5   0  10 2906.47 615.064   6
   5   0 -10 3060.38 655.129   1
  -5   0  10 3410.84 678.772  15
  -5   0   9 2868.78 622.701   5
  -5   0   9 2300.57 657.524   9
  -5   0   9 3441.53 428.179  13
  -5   0   9 2472.56 557.824   6
   5   0  -9 3218.33 622.423   1
   5   0  -9 2827.17 343.457  11
   5   0  -9 2899.11 556.551   3
  -5   0   8 1758.29 498.015   5
  -5   0   8 2357.35 615.126   9
  -5   0   8 2482.86 584.046   6
   5   0  -8 2828.02 523.214   1
   5   0  -8 2540.64 333.315  11
   5   0  -8 2922.70 523.107   3
   5   0  -8 2164.97 452.635   2
  -5   0   7 11149.5 1048.79   9
   5   0  -7 8882.81 826.850   1
  -5   0   7 10554.0 1034.06   6
   5   0  -7 10239.0 832.380   3
   5   0  -7 10699.6 812.074  14
   5   0  -7 10336.2 1018.41   6
   5   0  -7 9726.23 641.408  11
   5   0  -7 11069.1 890.499   5
  -5   0   7 10649.6 978.119   5
   5   0  -7 9373.18 810.396   2
  -5   0   6-8.12195 229.242   5
  -5   0   6 131.538 98.5615   1
  -5   0   6 48.8066 38.3319   8
   5   0  -6 142.109 89.2808   2
   5   0  -6 139.645 246.886  14
   5   0  -6-225.543 293.246   1
  -5   0   6-69.1999 366.400   6
   5   0  -6 98.6449 186.703   6
   5   0  -6 243.573 152.008  11
   5   0  -6-131.290 319.837   3
   5   0  -6-132.961 147.035   5
  -5   0   6 224.118 214.558  10
  -5   0   5 1883.35 395.629   5
  -5   0   5 2062.33 392.721   1
  -5   0   5 1719.43 268.861   8
   5   0  -5 1759.11 268.202   2
   5   0  -5 2010.25 436.298  14
  -5   0   5 1590.05 411.899   6
   5   0  -5 2415.31 481.316   6
   5   0  -5 2008.92 330.480  11
   5   0  -5 2208.19 441.600   3
   5   0  -5 2054.77 374.127   5
  -5   0   5 2978.56 527.884  10
  -5   0   4-190.081 189.942   5
  -5   0   4 261.184 135.017   8
   5   0  -4-4.26130 156.185   4
   5   0  -4-13.7732 71.2334   2
   5   0  -4-10.3050 284.834  14
  -5   0   4 69.7355 207.697   6
   5   0  -4-12.0453 193.994  11
   5   0  -4 210.243 245.206   3
  -5   0   4-46.9534 139.381  11
  -5   0   4-20.6673 131.904   3
   5   0  -4 100.493 108.670   5
  -5   0   4-93.5283 175.749   1
  -5   0   3-159.716 157.275   5
  -5   0   3 50.7495 158.328   8
   5   0  -3 81.4555 241.493   4
   5   0  -3 228.408 154.334   7
   5   0  -3 61.2298 81.5169   2
   5   0  -3-463.107 264.903  14
  -5   0   3-122.436 273.931   6
   5   0  -3-27.9475 166.055  11
   5   0  -3-51.7758 251.785   3
  -5   0   3-74.7202 199.341  11
  -5   0   3 108.214 157.345   1
  -5   0   3 87.0384 140.388   3
   5   0  -3 35.3951 143.727   5
  -5   0   2 258.679 174.865  14
  -5   0   2-190.518 193.401   8
   5   0  -2-187.196 213.821   4
   5   0  -2-116.857 187.921   7
   5   0  -2 101.679 223.409  14
  -5   0   2-39.3607 245.530   6
   5   0  -2-17.1465 203.329   6
  -5   0   2 62.5862 134.688   1
   5   0  -2 179.526 268.901   3
   5   0  -2 39.4518 57.3573   2
  -5   0   2-11.3129 124.784  11
  -5   0   2-176.104 158.600   3
   5   0  -2 245.295 148.862   5
  -5   0   2 108.789 108.882   5
  -5   0   1 27796.9 1077.01   1
   5   0  -1 30162.3 1625.71   4
  -5   0   1 28383.8 1430.29   8
   5   0  -1 28262.9 1329.08   7
  -5   0   1 27685.9 1242.43   3
   5   0  -1 28549.8 1491.15   3
   5   0  -1 28815.9 1576.13  14
  -5   0   1 27845.5 1318.34  14
  -5   0   1 27582.4 1352.30   6
   5   0  -1 28426.4 1352.56   6
  -5   0   1 28880.6 1345.65  11
  -5   0   1 28171.4 776.882   5
  -5   0   1 28667.8 634.485   2
  -5   0   0 8752.83 397.875   2
   5   0   0 9140.91 930.988   4
  -5   0   0 8101.59 831.344   8
   5   0   0 8795.10 816.501   7
  -5   0   0 8609.47 729.806   7
   5   0   0 7689.35 840.585   3
  -5   0   0 9061.40 783.072   3
   5   0   0 9406.58 933.131  14
  -5   0   0 8469.16 794.453  14
  -5   0   0 8502.93 765.324   6
   5   0   0 8969.44 764.911   6
  -5   0   0 8572.47 805.897  11
  -5   0   0 8488.75 361.409   5
  -5   0  -1 3735.70 331.406   2
  -5   0  -1 3821.51 508.798   6
   5   0   1 3985.57 644.496   4
  -5   0  -1 3859.29 597.527   8
  -5   0  -1 3506.88 623.263   4
   5   0   1 4002.48 617.894   7
  -5   0  -1 3657.51 548.849   7
  -5   0  -1 4220.34 595.933   3
  -5   0  -1 4111.96 570.409  14
   5   0   1 3180.35 627.190  14
   5   0   1 3443.62 456.541   6
   5   0   1 3881.69 638.241   3
  -5   0  -1 3684.77 577.734  11
  -5   0  -1 3606.96 218.248   5
  -5   0  -1 3885.42 541.446   9
  -5   0  -2 348.070 89.0617   5
  -5   0  -2 297.173 229.818   9
  -5   0  -2 175.482 177.878   8
  -5   0  -2 350.488 274.528   4
   5   0   2 334.795 311.591   7
  -5   0  -2 188.485 149.332  15
  -5   0  -2 750.342 313.078   7
   5   0   2 629.563 411.334  14
  -5   0  -2 111.919 209.833  14
   5   0   2 737.101 319.396   3
  -5   0  -2 652.453 323.602  13
  -5   0  -2 413.399 218.813   6
  -5   0  -2 350.507 269.712   3
   5   0   2 211.327 168.455   6
  -5   0  -2 406.101 110.730   5
  -5   0  -2 1.05306 186.111  11
  -5   0  -2 325.923 154.826   2
  -5   0  -3 100.932 82.7731   5
  -5   0  -3-215.685 225.014   9
  -5   0  -3-88.0403 190.926   8
  -5   0  -3-127.386 344.131   4
   5   0   3 131.181 274.383   7
  -5   0  -3-317.571 228.508  15
   5   0   3-156.160 266.490  14
  -5   0  -3-275.950 180.763  14
   5   0   3 147.920 328.446   3
  -5   0  -3-179.992 184.734  13
  -5   0  -3-63.3847 149.941   6
   5   0   3-0.57315 44.2087  12
  -5   0  -3-42.5863 226.267   3
   5   0   3 41.6137 62.6795   6
  -5   0  -3-4.60154 190.486  11
  -5   0  -3-330.469 244.268   7
  -5   0  -3 146.923 156.304   2
  -5   0  -4 341.022 133.631   5
  -5   0  -4 604.960 279.288   9
  -5   0  -4-83.5958 434.549   4
   5   0   4 359.352 360.320   7
  -5   0  -4 529.715 287.196  15
   5   0   4 271.601 398.641   3
  -5   0  -4 349.609 191.733   6
  -5   0  -4 370.524 218.792   1
  -5   0  -4 36.3307 338.068  11
  -5   0  -4 298.188 128.683  10
  -5   0  -4 18.8587 202.190   2
  -5   0  -5 14121.6 1479.67   4
  -5   0  -5 13614.1 968.087   2
   5   0   5 15079.3 1460.72   7
   5   0   5 14059.8 1418.27   3
  -5   0  -5 13765.3 926.395   1
  -5   0  -5 14051.1 697.193   6
  -5   0  -5 13059.8 1294.18  11
  -5   0  -5 13949.9 745.081   5
  -5   0  -5 13492.1 472.774  10
  -5   0  -5 12109.1 437.551  10
  -5   0  -6-307.736 346.963   4
  -5   0  -6 395.732 224.758   1
   5   0   6 430.394 369.625   7
  -5   0  -6 184.109 76.8241   6
  -5   0  -6 638.924 424.755  11
  -5   0  -6 114.200 261.089   2
  -5   0  -6 210.061 125.400   5
  -5   0  -7 1785.77 604.657   4
   5   0   7 1842.33 639.800   7
  -5   0  -7 1548.94 535.281  11
  -5   0  -7 1832.68 409.209   1
  -5   0  -7 2144.28 513.118   2
  -5   0  -7 1069.38 267.144   5
   5   0   7 2147.73 627.483   9
   5   0   8 525.428 287.769   9
  -5   0  -8 335.891 387.565   4
  -5   0  -8 796.235 243.183   1
  -5   0  -8 362.839 385.070  11
  -5   0  -8 804.741 346.541   2
   5   0   9 1127.20 545.712   9
  -5   0  -9 1260.25 710.213   4
  -5   0  -9 2141.11 469.560   1
  -5   0  -9 1774.36 698.797  11
  -5   0  -9 1797.30 565.657   2
   5   0  10 424.683 322.950   9
  -5   0 -10-169.142 313.585  11
  -5   0 -10-717.156 344.030   2
  -5  -1  14 518.194 347.894  15
  -5  -1  13 234.783 337.256   9
  -5  -1  13-39.0528 133.456  15
  -5  -1  13-87.8046 215.426   6
   5   1 -13-148.627 231.421   1
  -5  -1  12-81.3804 410.549   5
  -5  -1  12 403.694 496.047   9
  -5  -1  12 1022.74 362.868   6
  -5  -1  12-124.121 371.837  15
   5   1 -12-155.423 220.947   1
   5   1 -12 1156.56 451.654   3
  -5  -1  11 2507.54 705.679   5
  -5  -1  11 2265.14 660.405   9
  -5  -1  11 1935.56 531.829   6
   5   1 -11 2439.92 559.842   1
  -5  -1  11 1711.94 377.949  13
  -5  -1  11 2365.08 627.459  15
   5   1 -11 2384.15 575.941   3
  -5  -1  10 11637.5 1254.51   9
   5   1 -10 11494.4 1123.93   1
  -5  -1  10 10882.4 1202.41  15
   5   1 -10 12375.9 1040.49   3
  -5  -1  10 11791.1 1203.60   6
  -5  -1  10 11067.6 871.395  13
  -5  -1  10 10580.2 1180.79   5
  -5  -1   9 1094.11 450.487   5
  -5  -1   9 1311.62 541.880   9
  -5  -1   9 1400.56 508.907   6
   5   1  -9 1354.74 461.180   1
   5   1  -9 1453.87 483.118   3
   5   1  -8 6454.46 782.702   1
  -5  -1   8 6582.89 866.796   9
   5   1  -8 7059.78 740.349   3
   5   1  -8 7301.51 672.261  14
  -5  -1   8 6608.42 891.228   6
  -5  -1   8 5573.47 756.614   5
  -5  -1   7 1891.68 432.765   5
  -5  -1   7 2323.45 525.002   9
  -5  -1   7 1628.54 185.291   8
   5   1  -7 2035.59 418.617  14
  -5  -1   7 1546.11 498.331   6
   5   1  -7 1661.11 424.892   6
   5   1  -7 1455.81 466.486   3
   5   1  -7 2051.93 416.327   5
  -5  -1   6 3997.10 533.501   9
  -5  -1   6 2988.53 351.484   8
  -5  -1   6 3477.88 494.983   1
   5   1  -6 3271.56 477.994  14
   5   1  -6 3256.50 528.544   3
  -5  -1   6 3248.13 616.780   6
   5   1  -6 4259.36 625.676   6
   5   1  -6 3098.38 473.221   5
  -5  -1   6 3560.89 533.495   5
  -5  -1   6 3770.46 623.504  10
  -5  -1   5 29524.1 1312.53   1
  -5  -1   5 27922.1 1170.94   8
   5   1  -5 32332.7 1547.63   4
   5   1  -5 27940.8 1397.30   3
   5   1  -5 29086.6 1381.37  14
  -5  -1   5 29587.2 1579.96   6
   5   1  -5 30472.1 1573.43   6
  -5  -1   5 31084.1 917.074  11
   5   1  -5 30815.2 1337.06   5
  -5  -1   5 30240.2 1342.94   5
  -5  -1   5 33553.6 1703.28  10
   5   1  -5 28302.6 999.456   2
  -5  -1   4-139.254 164.264   8
   5   1  -4 173.488 283.468   4
   5   1  -4 44.1109 64.4321   2
   5   1  -4 182.291 240.017  14
  -5  -1   4 37.9736 183.543   6
   5   1  -4 301.230 270.412   3
  -5  -1   4-78.5487 169.896   1
  -5  -1   4-234.942 153.094  11
   5   1  -4-18.8121 196.870   5
  -5  -1   4 85.8805 184.624  10
  -5  -1   4-33.5011 161.802   5
  -5  -1   3 56066.8 1688.40   1
   5   1  -3 59139.5 2199.60   4
  -5  -1   3 50703.5 1783.69   8
   5   1  -3 55820.4 1800.92   7
   5   1  -3 59743.6 2169.61   3
   5   1  -3 57616.9 2052.44  14
  -5  -1   3 56750.2 1616.33  14
  -5  -1   3 55217.6 2021.53   6
  -5  -1   3 52870.1 1559.95  11
   5   1  -3 55560.0 1615.93   5
  -5  -1   3 56445.1 1509.99   5
  -5  -1   3 56463.0 2029.24  10
  -5  -1   2 2593.09 448.254   8
   5   1  -2 3416.58 585.490   4
   5   1  -2 2707.83 492.982   7
  -5  -1   2 3088.78 442.640  14
   5   1  -2 3382.75 563.897  14
  -5  -1   2 2686.11 501.546   6
   5   1  -2 2638.85 457.940   6
   5   1  -2 2892.19 554.145   3
  -5  -1   2 2832.20 428.208  11
  -5  -1   2 2960.63 343.761   5
  -5  -1   2 3121.19 489.966  10
  -5  -1   1 153.666 218.110   8
   5   1  -1 133.879 299.795   4
   5   1  -1 274.354 255.135   7
   5   1  -1-207.723 303.002  14
  -5  -1   1 251.743 187.310  14
  -5  -1   1 233.974 246.191   6
   5   1  -1 296.707 223.497   6
   5   1  -1-191.040 299.599   3
  -5  -1   1 52.1022 214.283  11
  -5  -1   1 111.831 115.044   5
  -5  -1   1 399.269 201.529  10
  -5  -1   0 45463.1 650.122   2
   5   1   0 47493.0 2118.67   4
  -5  -1   0 47471.7 2003.09   8
   5   1   0 47308.2 1982.13   7
  -5  -1   0 51624.4 1822.35   7
   5   1   0 47070.7 2059.75   3
  -5  -1   0 48590.6 1872.42   3
   5   1   0 45493.9 2018.30  14
  -5  -1   0 50027.7 1939.27  14
  -5  -1   0 46974.2 1715.77   6
   5   1   0 46285.0 1675.23   6
  -5  -1   0 46136.2 1875.30  11
  -5  -1   0 46418.1 1130.60   5
  -5  -1   0 48156.0 1622.23  10
  -5  -1   0 45224.1 1523.18   9
  -5  -1  -1 11968.7 840.442   9
   5   1   1 14128.0 1218.97   4
  -5  -1  -1 12541.8 1084.87   4
  -5  -1  -1 13433.7 1122.96   8
  -5  -1  -1 12694.1 515.332   2
   5   1   1 13463.8 1128.97   7
  -5  -1  -1 12353.1 986.760   7
   5   1   1 14336.4 1187.07   3
   5   1   1 12488.7 1123.85  14
  -5  -1  -1 13230.1 1058.48   3
  -5  -1  -1 13655.9 1094.74  14
  -5  -1  -1 13880.4 914.315   6
   5   1   1 13712.6 877.296   6
  -5  -1  -1 11694.6 999.502  11
  -5  -1  -1 12479.5 620.666   5
  -5  -1  -1 12723.1 789.321  10
  -5  -1  -2 1827.72 368.918   9
  -5  -1  -2 2228.29 286.463   2
  -5  -1  -2 1099.15 329.825   8
  -5  -1  -2 2184.25 527.248   4
  -5  -1  -2 2123.31 470.249  15
   5   1   2 1661.75 486.728   7
  -5  -1  -2 2321.93 472.022   7
   5   1   2 2916.61 606.008  14
  -5  -1  -2 2748.94 412.616   6
  -5  -1  -2 2301.39 463.166  14
  -5  -1  -2 2013.48 494.830  13
   5   1   2 1853.08 508.111   3
   5   1   2 2332.37 360.809   6
  -5  -1  -2 2178.32 490.234   3
  -5  -1  -2 1994.86 293.713  10
  -5  -1  -3 11184.5 962.732   9
  -5  -1  -3 11465.9 1168.57   4
  -5  -1  -3 9867.21 673.097   2
   5   1   3 9687.55 1066.46   7
  -5  -1  -3 11221.7 1067.60   7
   5   1   3 10346.0 1157.89   3
  -5  -1  -3 11309.9 1051.04  15
  -5  -1  -3 11649.5 1122.50   3
  -5  -1  -3 9928.63 709.711   6
   5   1   3 10606.8 704.615   6
  -5  -1  -3 13854.2 1275.01  13
  -5  -1  -3 10875.3 680.658   5
  -5  -1  -3 10408.0 566.519  10
  -5  -1  -4 2250.14 368.283   5
  -5  -1  -4 2387.51 515.501   9
  -5  -1  -4 2501.92 464.935   1
  -5  -1  -4 2127.54 561.960   4
   5   1   4 1913.17 548.479   7
  -5  -1  -4 2610.84 562.047  15
  -5  -1  -4 2472.47 339.872   6
   5   1   4 3143.86 746.670   3
   5   1   4 2533.79 257.863  12
   5   1   4 2103.42 288.554   6
  -5  -1  -4 2155.45 169.112  10
  -5  -1  -4 2622.24 413.984   2
  -5  -1  -5 11054.2 1106.29   9
  -5  -1  -5 10844.6 1295.45   4
   5   1   5 12586.2 1354.91   7
   5   1   5 11821.0 1332.04   3
  -5  -1  -5 12586.4 979.576   1
   5   1   5 10651.7 354.952  12
  -5  -1  -5 11880.7 837.063   5
   5   1   5 11585.7 1126.09   9
  -5  -1  -6 439.651 210.242   5
   5   1   6 260.952 316.932   9
  -5  -1  -6 619.748 435.576   4
   5   1   6 985.999 429.289   7
  -5  -1  -6 958.339 346.672   1
   5   1   7 288.044 243.314   9
  -5  -1  -7-159.065 199.029   1
  -5  -1  -7-77.0137 295.833   4
   5   1   7 130.804 162.151   7
  -5  -1  -8-623.435 255.331   2
   5   1   8 308.492 359.225   9
  -5  -1  -8-827.804 616.376   4
   5   1   8 295.260 289.982   7
  -5  -1  -8 158.045 226.797   1
   5   1   9 2226.61 751.614   9
  -5  -1  -9 1322.26 671.217   4
  -5  -1  -9 1192.08 343.728   1
  -5  -1  -9 1800.29 642.868  11
  -5  -1  -9 1103.70 439.985   2
   5   1  10 1603.31 563.701   9
  -5  -1 -10 1015.87 362.917   2
   5   2 -14-316.809 335.821   2
  -5  -2  13 114.978 279.681   9
  -5  -2  13 376.403 314.080  15
   5   2 -13-221.955 321.403   3
   5   2 -13-524.131 357.358   2
  -5  -2  12-87.4133 305.837   5
  -5  -2  12-488.122 450.930   9
  -5  -2  12 339.462 357.944  15
  -5  -2  12-94.1280 238.902  13
   5   2 -12 310.992 299.351   3
  -5  -2  11 364.472 394.609   5
  -5  -2  11-143.923 262.302   9
  -5  -2  11 311.619 270.026  15
  -5  -2  11-316.284 377.794   6
  -5  -2  11 287.369 212.620  13
   5   2 -11 180.949 326.314   3
  -5  -2  10 2681.39 606.397   5
  -5  -2  10 2540.87 644.166   9
   5   2 -10 4029.02 503.823  14
  -5  -2  10 2671.90 670.663  15
  -5  -2  10 2791.21 642.645   6
  -5  -2  10 3525.36 566.498  13
   5   2 -10 2616.46 597.739   3
  -5  -2   9 4781.24 774.937   5
  -5  -2   9 4940.05 771.416   9
   5   2  -9 5578.47 752.570   3
   5   2  -9 5473.72 585.721  14
  -5  -2   9 5060.41 839.789   6
  -5  -2   8 10434.2 1020.73   9
  -5  -2   8 9303.97 477.040   8
  -5  -2   8 9716.05 385.587   8
   5   2  -8 9088.30 913.354   3
   5   2  -8 9706.46 756.146  14
  -5  -2   8 8914.82 1027.01   6
  -5  -2   8 9722.67 983.145   5
  -5  -2   7 288.323 294.255   9
  -5  -2   7 478.888 152.596   8
   5   2  -7 497.451 260.093  14
  -5  -2   7 520.486 363.540   6
   5   2  -7 227.967 406.111   3
  -5  -2   7 410.437 308.263   5
  -5  -2   6 2094.41 410.836   9
   5   2  -6 2130.76 318.952   2
   5   2  -6 1820.53 393.492  14
  -5  -2   6 2039.32 519.791   6
   5   2  -6 2014.93 462.388   6
   5   2  -6 2271.01 463.166   3
   5   2  -6 2120.73 413.142   5
  -5  -2   6 1873.17 431.720   5
  -5  -2   5 670.327 229.201   9
   5   2  -5 750.043 296.528   4
   5   2  -5 275.406 178.512  14
  -5  -2   5 779.631 328.369   6
   5   2  -5 621.305 305.054   6
  -5  -2   5 414.117 219.146   1
   5   2  -5 761.491 337.052   3
  -5  -2   5 786.563 186.322  11
   5   2  -5 922.661 300.176   5
   5   2  -5 537.452 154.689   2
  -5  -2   5 375.215 169.064   3
  -5  -2   5 510.655 283.329  10
  -5  -2   5 330.292 228.224   5
  -5  -2   4 2945.96 356.478   9
  -5  -2   4 2507.06 404.611   1
   5   2  -4 2616.63 206.713   2
   5   2  -4 3793.04 598.272   4
  -5  -2   4 2943.65 410.932   3
   5   2  -4 2211.92 421.310  14
  -5  -2   4 2720.84 552.687   6
   5   2  -4 3371.34 532.454   6
  -5  -2   4 2592.31 328.853  11
   5   2  -4 2568.31 541.751   3
   5   2  -4 2476.30 427.571   5
  -5  -2   4 2510.09 407.313   5
  -5  -2   4 3400.37 550.666  10
   5   2  -3 15684.5 1181.43   4
   5   2  -3 15278.4 1046.85   7
   5   2  -3 12957.5 1121.25   3
  -5  -2   3 14897.5 907.715   3
   5   2  -3 14818.7 1049.02  14
  -5  -2   3 14582.3 837.858  14
  -5  -2   3 14588.9 1102.34   6
   5   2  -3 14514.5 1049.70   6
  -5  -2   3 13769.3 850.436  11
  -5  -2   3 15792.3 864.307   5
  -5  -2   3 15618.7 1093.96  10
   5   2  -2 1986.88 482.230   4
   5   2  -2 2240.60 481.083  14
  -5  -2   2 1842.79 367.152  14
  -5  -2   2 2131.75 472.898   6
   5   2  -2 2278.74 425.835   6
   5   2  -2 2159.13 499.860   3
  -5  -2   2 1496.63 334.614  11
   5   2  -2 2149.47 451.253   7
  -5  -2   2 1962.51 322.176   5
  -5  -2   2 2207.16 417.901  10
  -5  -2   1 1527.75 241.344   9
   5   2  -1 1348.08 446.121   4
  -5  -2   1 1472.68 403.711   4
   5   2  -1 1044.43 365.000   7
   5   2  -1 1320.08 353.579  14
  -5  -2   1 1258.26 318.781  14
  -5  -2   1 1220.47 361.737   6
   5   2  -1 1509.82 355.743   6
   5   2  -1 1165.79 386.250   3
  -5  -2   1 1316.80 279.491   5
  -5  -2   1 1660.25 372.109  10
  -5  -2   0 3989.85 407.247   9
  -5  -2   0 4299.90 190.063   2
  -5  -2   0 3986.76 179.067   2
   5   2   0 4235.30 656.596   4
  -5  -2   0 3952.88 623.846   4
  -5  -2   0 4299.81 622.991   3
   5   2   0 4071.30 654.388   7
  -5  -2   0 4008.66 557.186  14
   5   2   0 3655.74 644.222  14
  -5  -2   0 4383.16 577.758   6
   5   2   0 3841.35 506.187   6
   5   2   0 4296.96 711.397   3
  -5  -2   0 3817.50 421.974   5
  -5  -2   0 4341.60 522.667  10
  -5  -2  -1 6945.05 594.064   9
   5   2   1 7627.15 929.972   4
  -5  -2  -1 6458.65 846.003   4
   5   2   1 7508.21 898.602   7
  -5  -2  -1 8127.43 831.172   7
   5   2   1 7142.53 924.846   3
  -5  -2  -1 7888.57 860.516   3
   5   2   1 6039.72 831.240  14
  -5  -2  -1 6959.23 823.128  14
  -5  -2  -1 6972.32 690.729   6
   5   2   1 6411.69 622.328   6
  -5  -2  -1 6749.12 584.623  10
  -5  -2  -1 6520.24 418.030   2
  -5  -2  -2 1228.85 314.719   9
  -5  -2  -2 1009.11 404.832   4
   5   2   2 1258.30 521.070   7
  -5  -2  -2 1305.63 378.908   7
  -5  -2  -2 909.793 338.534  14
   5   2   2 1361.77 475.219   3
  -5  -2  -2 1237.49 314.846   6
   5   2   2 1271.65 287.518   6
  -5  -2  -2 1356.62 409.262   3
  -5  -2  -2 995.229 240.584   2
  -5  -2  -2 1362.32 243.234  10
  -5  -2  -3 11475.5 934.998   9
  -5  -2  -3 10541.8 1145.49   4
   5   2   3 12113.4 1304.20   7
   5   2   3 11653.1 1269.90   3
  -5  -2  -3 12646.9 1126.13  15
  -5  -2  -3 11011.8 756.998   6
   5   2   3 11527.7 749.658   6
  -5  -2  -3 11487.2 537.271  10
  -5  -2  -4 892.597 258.232   5
  -5  -2  -4 988.396 384.429   9
  -5  -2  -4 527.692 287.351   4
   5   2   4 610.197 371.080   7
  -5  -2  -4 1061.32 401.119  15
  -5  -2  -4 551.584 301.896   1
   5   2   4 1133.25 367.126   3
   5   2   4 1006.78 207.070   6
   5   2   4 941.616 232.759  12
   5   2   4 499.873 312.784   9
   5   2   5 4769.60 748.258   9
  -5  -2  -5 5108.85 759.057   9
  -5  -2  -5 4530.84 871.158   4
   5   2   5 5080.27 909.631   7
  -5  -2  -5 5609.82 806.700  15
   5   2   5 5516.66 987.482   3
  -5  -2  -5 5288.38 710.270   1
   5   2   5 4430.30 338.295   6
   5   2   5 5783.92 484.677  12
  -5  -2  -5 5151.58 633.213   5
   5   2   6 342.995 232.874   9
  -5  -2  -6 962.707 280.820   5
  -5  -2  -6 798.665 388.470   4
   5   2   6 336.122 279.087   7
   5   2   6 628.931 197.860  12
  -5  -2  -6 462.773 271.955   1
   5   2   7 89.2384 212.151   9
  -5  -2  -7-301.825 291.902   4
  -5  -2  -7 147.550 252.068   1
   5   2   7-56.2004 257.916   7
   5   2   8 333.357 343.793   9
  -5  -2  -8 101.936 282.304   1
  -5  -2  -8 518.056 458.282   4
   5   2   8-423.404 501.717   7
   5   2   9 70.4963 203.615   9
  -5  -2  -9 152.832 302.769   4
  -5  -2  -9-222.290 273.502   1
   5   2  10-40.6590 159.193   9
  -5  -2 -10 65.5609 128.819   1
   5   3 -14 691.082 389.688   2
  -5  -3  13-137.359 450.302   9
  -5  -3  13 48.9588 438.041  15
   5   3 -13 457.387 338.656   3
   5   3 -13-775.108 428.973   2
  -5  -3  12-138.762 306.124   5
  -5  -3  12 417.365 362.612   9
  -5  -3  12 297.013 425.940  15
  -5  -3  12 141.758 219.695  13
   5   3 -12 126.109 297.226   3
   5   3 -12 435.681 227.486   2
  -5  -3  11 585.310 382.143   5
  -5  -3  11 852.482 417.519   9
  -5  -3  11 691.301 531.354  15
   5   3 -11 747.920 255.146  14
  -5  -3  11 595.192 392.022  13
   5   3 -11 294.587 376.726   3
   5   3 -11 579.364 315.763   2
  -5  -3  10 5358.24 904.673   9
   5   3 -10 5846.37 741.671   2
  -5  -3  10 6476.66 1018.15  15
   5   3 -10 5346.93 767.736   3
   5   3 -10 5937.23 596.730  14
  -5  -3  10 5423.02 730.866  13
  -5  -3  10 5466.06 856.036   5
  -5  -3   9 939.520 401.622   5
  -5  -3   9 1324.94 461.194   9
  -5  -3   9 1005.37 184.861   8
  -5  -3   9 2158.16 598.564  15
   5   3  -9 1194.33 325.449  14
  -5  -3   9 957.081 520.381   6
   5   3  -9 1034.25 496.274   3
   5   3  -9 1220.95 375.574   2
  -5  -3   8 7656.88 856.186   9
   5   3  -8 6294.18 648.791   2
   5   3  -8 5600.59 789.740   3
   5   3  -8 6663.78 639.119  14
  -5  -3   8 6978.77 943.205   6
  -5  -3   8 6658.35 810.970   5
  -5  -3   7 5504.40 684.137   9
   5   3  -7 5811.49 563.804   2
   5   3  -7 6845.88 801.931   3
   5   3  -7 6091.22 593.400  14
  -5  -3   7 5204.08 814.248   6
  -5  -3   7 5571.01 715.942   5
  -5  -3   6 3681.77 486.732   9
   5   3  -6 4272.97 613.021   4
   5   3  -6 3096.22 355.129   2
   5   3  -6 3295.55 478.131  14
  -5  -3   6 2757.35 583.034   6
  -5  -3   6 3386.78 220.397  11
   5   3  -6 3386.54 634.311   3
   5   3  -6 3542.90 557.054   5
  -5  -3   6 3127.19 512.538   5
  -5  -3   5 16386.1 839.212   9
  -5  -3   5 18451.5 1126.84   1
   5   3  -5 18476.5 741.337   2
   5   3  -5 20432.9 1337.00   4
   5   3  -5 17455.8 1299.23   3
   5   3  -5 17120.7 1024.64  14
  -5  -3   5 15802.6 1262.42   6
  -5  -3   5 17496.4 961.034   3
   5   3  -5 16173.0 1205.23   6
  -5  -3   5 17460.2 731.863  11
   5   3  -5 17827.6 1196.46   5
  -5  -3   5 18407.6 1116.73   5
  -5  -3   5 17450.8 1289.77  10
  -5  -3   4 73.8987 58.8697   9
   5   3  -4 279.580 233.370   4
   5   3  -4 5.24576 150.045  14
   5   3  -4 73.5664 65.6760   2
  -5  -3   4 353.959 117.755  14
  -5  -3   4 344.697 256.956   6
   5   3  -4 142.846 108.205   6
   5   3  -4-251.401 391.087   3
  -5  -3   4 86.3097 150.442  11
  -5  -3   4 15.6161 110.452   3
  -5  -3   4 104.307 194.981   5
  -5  -3   4 131.687 127.923  10
  -5  -3   3 759.653 116.257   9
   5   3  -3 1187.83 324.174   4
   5   3  -3 970.807 363.456   7
   5   3  -3 448.848 232.109  14
  -5  -3   3 580.913 203.718  14
  -5  -3   3 560.923 328.894   6
   5   3  -3 1262.01 341.399   6
   5   3  -3 518.460 378.055   3
  -5  -3   3 640.544 269.408   3
  -5  -3   3 826.267 268.096   5
  -5  -3   3 1204.89 325.063  10
   5   3  -2 19576.7 1348.44   4
  -5  -3   2 19606.9 1159.19   4
   5   3  -2 20956.6 1382.29   7
   5   3  -2 19598.9 1391.11   3
  -5  -3   2 20253.0 1187.77   3
   5   3  -2 18796.3 1227.39  14
  -5  -3   2 18091.6 1043.62  14
  -5  -3   2 19507.8 1285.39   6
   5   3  -2 19744.6 1235.62   6
  -5  -3   2 17727.3 997.240   5
  -5  -3   2 21676.1 1290.18  10
   5   3  -1 5313.85 754.396   4
  -5  -3   1 4955.59 644.549   4
   5   3  -1 4835.23 721.252   7
  -5  -3   1 4713.55 614.856   3
  -5  -3   1 4216.17 555.065  14
   5   3  -1 4319.46 666.030  14
  -5  -3   1 4995.97 662.548   6
   5   3  -1 4838.22 605.991   6
   5   3  -1 4704.65 720.483   3
  -5  -3   1 4119.12 511.579   5
  -5  -3   1 4445.25 565.950  10
  -5  -3   0 3569.11 306.686   9
  -5  -3   0 3799.62 252.695   2
  -5  -3   0 4152.48 646.607   4
   5   3   0 4488.62 688.548   4
  -5  -3   0 4044.37 595.098   3
   5   3   0 4484.38 747.050   7
  -5  -3   0 3947.81 602.890  14
   5   3   0 4082.44 538.879   6
  -5  -3   0 3678.78 599.299   6
   5   3   0 4506.18 736.601   3
  -5  -3   0 3484.40 488.389   5
  -5  -3   0 3270.19 474.275  10
  -5  -3  -1 31596.1 930.946   2
  -5  -3  -1 33700.8 1137.98   9
  -5  -3  -1 33534.4 1832.40   4
   5   3   1 31111.9 1925.55   7
   5   3   1 33715.2 2032.07   3
  -5  -3  -1 32666.1 1821.30  14
   5   3   1 29737.2 1386.87   6
  -5  -3  -1 30669.4 1257.64  10
  -5  -3  -2 237.781 189.532   9
  -5  -3  -2 499.074 349.320   4
  -5  -3  -2 323.572 209.146   2
  -5  -3  -2 125.527 199.476  14
   5   3   2-26.1303 481.933   7
   5   3   2 244.560 558.722   3
   5   3   2 374.343 222.359   6
  -5  -3  -2 214.480 161.280  10
  -5  -3  -3 4231.74 566.488   9
  -5  -3  -3 3991.04 723.533   4
  -5  -3  -3 3215.87 543.219  15
   5   3   3 3925.15 796.261   7
   5   3   3 3844.27 825.629   3
   5   3   3 4286.51 469.831   6
  -5  -3  -3 4583.86 376.324  10
  -5  -3  -3 3919.25 495.262   2
   5   3   4 936.088 323.570   9
  -5  -3  -4 680.692 339.198   9
  -5  -3  -4 763.311 420.688   4
  -5  -3  -4 1266.14 393.388   2
   5   3   4 816.331 429.713   7
  -5  -3  -4 933.626 305.382  15
  -5  -3  -4 1287.28 449.635   1
   5   3   4 1285.24 604.525   3
   5   3   4 1105.29 238.165   6
   5   3   4 1156.84 314.172  12
   5   3   5 168.067 295.935   9
  -5  -3  -5 215.856 198.588   5
  -5  -3  -5 147.036 153.980   9
  -5  -3  -5-78.5216 147.853   4
  -5  -3  -5 82.5341 134.636   2
   5   3   5 495.282 436.477   3
  -5  -3  -5-211.530 243.972   1
   5   3   5-571.713 494.700   7
  -5  -3  -5 563.738 241.203  15
   5   3   5 201.333 134.159  12
   5   3   6 304.610 260.276   9
  -5  -3  -6 731.076 371.647   4
   5   3   6 411.627 211.014  12
  -5  -3  -6 660.238 364.990   1
   5   3   7-319.271 277.424   9
  -5  -3  -7 1412.05 518.545   4
   5   3   7 814.913 451.083   7
  -5  -3  -7 105.558 191.785   1
   5   3   8 394.907 324.694   9
  -5  -3  -8 726.380 341.988   1
   5   3   8 93.8730 341.213   7
   5   3   9-408.951 312.763   9
  -5  -3  -9-23.4761 138.719   1
   5   3  10 278.201 525.745   9
  -5  -4  13 898.221 642.433   9
  -5  -4  13 766.118 347.570  13
   5   4 -13-571.246 428.864   3
   5   4 -13 406.973 276.540   2
  -5  -4  12-380.079 336.810   5
  -5  -4  12 561.052 311.943   9
  -5  -4  12 235.506 433.351  15
  -5  -4  12-251.732 212.475  13
   5   4 -12-240.292 431.361   3
   5   4 -12 73.8478 100.820   2
  -5  -4  11 3779.15 740.044   5
  -5  -4  11 3685.84 759.101   9
  -5  -4  11 3623.37 894.630  15
  -5  -4  11 3186.21 626.982  13
   5   4 -11 3407.05 740.730   3
   5   4 -11 3180.15 588.147   2
  -5  -4  10 106.045 264.073   5
  -5  -4  10 1111.93 372.070   9
  -5  -4  10 753.354 484.326  15
   5   4 -10 655.608 294.313  14
  -5  -4  10 785.149 325.207  13
   5   4 -10 51.0293 392.240   3
   5   4 -10 875.722 344.227   2
  -5  -4   9 148.367 245.162   9
  -5  -4   9-38.9172 147.696   8
  -5  -4   9 435.122 322.304  15
   5   4  -9 30.1686 100.165  14
   5   4  -9 549.899 404.745   3
   5   4  -9 54.5505 173.923   2
  -5  -4   9 30.5150 231.457   5
  -5  -4   8 2180.09 469.204   9
  -5  -4   8 2337.63 643.221  15
   5   4  -8 2256.33 355.449  14
   5   4  -8 2407.16 415.547   2
   5   4  -8 2261.37 529.367   3
  -5  -4   8 2504.37 590.567   5
  -5  -4   7 318.698 153.715   9
   5   4  -7 382.178 288.446   4
   5   4  -7 555.565 215.830  14
   5   4  -7 561.830 261.209   2
   5   4  -7 608.312 377.142   3
  -5  -4   7 203.254 252.503   5
  -5  -4   6 9263.93 700.980   9
   5   4  -6 9993.01 693.499   2
   5   4  -6 10545.9 986.151   4
   5   4  -6 8995.76 1035.13   3
   5   4  -6 10747.4 758.010  14
  -5  -4   6 9487.10 416.730  11
  -5  -4   6 9896.51 911.348   5
   5   4  -6 9996.03 1063.35  10
  -5  -4   5 3919.08 359.795   9
   5   4  -5 5404.27 452.305   2
   5   4  -5 5273.77 750.896   4
   5   4  -5 5289.73 802.275   3
   5   4  -5 4153.63 515.311  14
  -5  -4   5 3909.83 409.216  11
  -5  -4   5 3979.10 594.853   5
   5   4  -5 3317.53 620.995  10
   5   4  -4 4264.69 350.414   2
   5   4  -4 4332.23 674.055   4
   5   4  -4 3643.27 530.882  14
  -5  -4   4 5868.82 608.211   3
  -5  -4   4 6182.36 487.056  14
   5   4  -4 4868.68 735.677   3
  -5  -4   4 3847.39 567.894   5
  -5  -4   4 4833.46 722.111  10
   5   4  -4 3602.04 666.727  10
   5   4  -3 481.401 267.430   4
   5   4  -3 559.422 135.935   2
   5   4  -3 800.684 332.200   7
   5   4  -3 318.026 241.210  14
  -5  -4   3 574.990 198.154  14
   5   4  -3 512.040 226.506   6
   5   4  -3 986.109 372.918   3
  -5  -4   3 168.558 149.723   3
  -5  -4   3 747.017 285.503   5
  -5  -4   3 688.617 272.037  10
   5   4  -3 308.183 331.249  10
   5   4  -2 471.087 290.434   4
   5   4  -2 28.6911 267.389   7
  -5  -4   2 593.066 198.277  14
   5   4  -2 471.928 207.660   6
   5   4  -2 165.092 275.770   3
  -5  -4   2 314.383 173.236   3
  -5  -4   2 430.650 251.778   5
  -5  -4   2 273.769 92.2166   2
  -5  -4   2 777.511 278.818  10
   5   4  -2 345.045 247.863  10
  -5  -4   1 2053.05 209.556   2
   5   4  -1 1990.59 441.401   4
  -5  -4   1 2524.21 470.288   4
   5   4  -1 2036.74 589.790   7
  -5  -4   1 1971.39 391.380  14
   5   4  -1 1593.43 388.978   6
   5   4  -1 2384.49 553.086   3
  -5  -4   1 1677.72 402.048   3
  -5  -4   1 1501.92 387.788   5
  -5  -4   1 2156.71 459.003  10
   5   4  -1 1935.88 417.750  10
  -5  -4   0 2410.92 468.761  14
  -5  -4   0 2176.99 260.939   2
  -5  -4   0 1602.01 479.252   4
   5   4   0 2826.67 651.164   7
   5   4   0 2030.61 613.690   3
   5   4   0 2333.07 442.423   6
  -5  -4   0 2026.62 438.118   5
  -5  -4   0 2340.26 436.432  10
  -5  -4  -1 14495.5 705.148   2
  -5  -4  -1 12557.8 1164.99   4
   5   4   1 14345.2 1411.64   7
   5   4   1 14327.8 1425.80   3
  -5  -4  -1 13769.2 1218.54  14
   5   4   1 13071.3 998.853   6
  -5  -4  -1 14642.2 942.393  10
  -5  -4  -2 1851.93 484.288   4
  -5  -4  -2 1871.81 314.655   2
   5   4   2 2062.82 604.389   7
   5   4   2 1710.74 616.515   3
   5   4   2 1609.44 323.358   6
  -5  -4  -2 2053.17 325.581  10
   5   4   3-378.213 231.418   9
  -5  -4  -3-114.481 275.502   4
  -5  -4  -3 2.03355 149.126   2
  -5  -4  -3 35.8291 239.549  15
   5   4   3-424.129 512.292   7
   5   4   3 111.038 386.456   3
   5   4   3-279.347 196.262   6
  -5  -4  -3 116.850 123.038  10
  -5  -4  -3-258.130 375.704   1
   5   4   4 303.397 175.769   9
  -5  -4  -4 237.833 291.051   4
  -5  -4  -4 568.802 313.492   1
  -5  -4  -4 469.268 234.446   2
  -5  -4  -4 856.720 353.378  15
   5   4   4 543.349 454.320   7
   5   4   4-187.237 481.825   3
   5   4   4 315.082 153.990   6
   5   4   4 424.928 253.381  12
   5   4   5-409.727 234.212   9
  -5  -4  -5 513.783 326.683   4
  -5  -4  -5-118.038 130.052   1
   5   4   5 156.256 234.775   7
   5   4   5 0.93446 52.1503  12
   5   4   6-141.864 140.038   9
  -5  -4  -6-75.9589 244.481   4
   5   4   6-263.979 506.110   7
   5   4   6-112.226 221.016  12
  -5  -4  -6 398.895 407.363   1
   5   4   7-126.242 159.710   9
  -5  -4  -7 370.401 481.812   4
   5   4   7-92.4036 168.093   7
  -5  -4  -7 308.130 354.510   1
   5   4   8-497.529 361.724   9
  -5  -4  -8 195.215 205.065   1
  -5  -4  -9 273.278 328.893   1
   5   4   9 1089.85 464.809   9
  -5  -5  13 323.654 544.196   9
  -5  -5  13 1011.56 420.555  13
   5   5 -13 657.762 339.665   2
  -5  -5  12 1957.41 548.421   9
  -5  -5  12 2044.67 621.807  13
   5   5 -12 2506.67 555.191   2
   5   5 -12 1776.19 496.288   3
  -5  -5  11 620.818 418.402   5
  -5  -5  11 1009.07 421.544   9
  -5  -5  11 604.661 397.098  15
  -5  -5  11 1136.69 460.350  13
   5   5 -11 1111.00 363.596   2
   5   5 -11 1384.14 489.180   3
  -5  -5  10 184.366 178.823   9
  -5  -5  10 195.765 415.226  15
  -5  -5  10 419.620 344.000  13
   5   5 -10 46.8000 182.342   2
   5   5 -10-167.961 248.994   3
  -5  -5  10 72.7793 319.208   5
  -5  -5   9 907.565 346.864   9
  -5  -5   9 540.124 253.969   8
  -5  -5   9 1169.01 587.861  15
  -5  -5   9 758.264 405.042  13
   5   5  -9 853.438 319.310   2
   5   5  -9 138.087 351.332   3
  -5  -5   9 784.427 360.535   5
  -5  -5   8 484.885 250.489   9
  -5  -5   8 375.501 335.777  15
   5   5  -8 518.610 131.626  14
   5   5  -8 748.078 304.197   2
   5   5  -8 659.601 366.995   3
  -5  -5   8 690.490 284.472   5
   5   5  -8 407.237 321.933  10
  -5  -5   7 2736.65 429.452   9
   5   5  -7 2873.54 556.444   4
  -5  -5   7 3657.45 733.687  15
   5   5  -7 2757.70 303.320  14
   5   5  -7 2389.55 429.308   2
   5   5  -7 3394.00 682.217   3
  -5  -5   7 2484.11 551.821   5
   5   5  -7 1933.71 569.093  10
   5   5  -6 341.370 287.044   4
   5   5  -6 286.257 164.823   2
   5   5  -6 265.191 403.245   3
  -5  -5   6-63.2601 69.2862  11
  -5  -5   6 171.197 206.197   5
   5   5  -6-174.576 285.288  10
   5   5  -5 1618.38 468.010   4
   5   5  -5 1705.47 302.879   2
   5   5  -5 2078.99 526.838   3
  -5  -5   5 1794.63 467.845   5
   5   5  -5 1320.14 490.734  10
   5   5  -4 1722.48 470.929   4
   5   5  -4 1482.25 252.360   2
  -5  -5   4 1589.48 252.253  14
   5   5  -4 1030.77 465.937   3
  -5  -5   4 1617.87 430.531   5
   5   5  -4 1188.46 464.716  10
   5   5  -3 5651.35 769.538   4
  -5  -5   3 6244.48 456.015   2
   5   5  -3 6200.36 877.430   7
  -5  -5   3 5862.32 547.528  14
   5   5  -3 4619.18 760.950   3
  -5  -5   3 5931.56 749.660   5
   5   5  -3 5916.27 785.147  10
   5   5  -3 5641.98 471.069   2
   5   5  -2 171.556 192.263   4
   5   5  -2-38.5886 178.747   2
   5   5  -2 24.5851 299.160   7
  -5  -5   2 30.0974 133.732  14
   5   5  -2 300.951 303.027   3
  -5  -5   2-12.4528 106.582   2
  -5  -5   2-344.215 336.129   5
  -5  -5   2 411.884 230.523  10
   5   5  -2 391.352 309.213  10
   5   5  -1 19138.4 1403.88   4
  -5  -5   1 19959.9 792.547   2
  -5  -5   1 19172.9 1226.73   4
   5   5  -1 19824.3 1629.61   7
   5   5  -1 17006.9 1487.71   3
  -5  -5   1 19156.5 1261.83  14
  -5  -5   1 19325.0 1309.42   5
  -5  -5   1 20346.4 1332.22  10
   5   5  -1 17910.0 1224.86  10
  -5  -5   0 2219.08 298.551   2
  -5  -5   0 2037.61 521.732   4
  -5  -5   0 2017.79 528.438  14
   5   5   0 1717.82 571.054   3
   5   5   0 2254.92 471.946   6
  -5  -5   0 2147.14 537.393   5
   5   5   0 2341.99 592.542   7
  -5  -5   0 2195.33 463.024  10
   5   5   0 1786.90 414.988  10
  -5  -5  -1 9704.83 654.269   2
  -5  -5  -1 10274.9 1061.18   4
   5   5   1 10949.0 1310.17   7
   5   5   1 11014.3 1287.35   3
   5   5   1 9568.17 905.288   6
  -5  -5  -1 9377.85 835.488  10
   5   5   1 9747.22 828.460  10
  -5  -5  -2 11970.1 801.246   2
  -5  -5  -2 11254.1 1153.66   4
   5   5   2 12856.8 1468.75   7
   5   5   2 12616.4 1447.19   3
   5   5   2 12005.9 981.193   6
  -5  -5  -2 12938.8 905.334  10
   5   5   3 1055.66 294.131   9
  -5  -5  -3 1295.50 445.672   4
  -5  -5  -3 1640.74 474.505  15
   5   5   3 1718.92 576.471   7
  -5  -5  -3 1139.52 292.378   2
   5   5   3 2278.17 702.151   3
   5   5   3 1213.34 288.244   6
   5   5   3 2062.47 489.562  12
  -5  -5  -3 2164.72 598.609   1
  -5  -5  -3 1642.71 306.316  10
   5   5   4-44.4277 75.0246   9
  -5  -5  -4-251.735 223.089   4
   5   5   4-561.939 450.493   7
   5   5   4 38.5646 124.497   3
   5   5   4 72.7147 198.996  12
  -5  -5  -4 160.317 390.633   1
   5   5   5 853.647 302.417   9
  -5  -5  -5 755.859 387.067   4
  -5  -5  -5 1344.29 510.700   1
   5   5   5 492.133 468.452   7
   5   5   5 786.751 355.763  12
   5   5   6 359.805 300.544   9
  -5  -5  -6 608.633 359.352   4
   5   5   6 1110.59 595.543   7
   5   5   6 394.433 211.269  12
  -5  -5  -6 628.247 446.635   1
   5   5   7 260.701 256.978   9
  -5  -5  -7-734.255 475.439   4
   5   5   7-1259.31 588.192   7
  -5  -5  -7 47.6933 114.938   1
  -5  -6  12 511.470 385.910  13
   5   6 -12 637.303 310.453   2
   5   6 -12 578.875 395.016   3
  -5  -6  11 472.522 542.122  15
  -5  -6  11 157.003 351.629  13
   5   6 -11 252.906 352.853   2
   5   6 -11 285.130 319.106   3
  -5  -6  11 805.898 463.037   5
  -5  -6  10-76.5722 258.597  15
  -5  -6  10-111.809 374.270  13
   5   6 -10-191.615 200.458   2
   5   6 -10 280.486 307.883   3
  -5  -6  10 108.213 249.368   5
   5   6 -10-310.287 360.701  10
  -5  -6   9 689.139 259.070   9
  -5  -6   9 1227.53 302.223   8
  -5  -6   9 1122.34 555.778  15
  -5  -6   9 1533.39 580.312  13
   5   6  -9 1141.12 363.526   2
   5   6  -9 780.129 384.332   3
  -5  -6   9 1621.96 473.322   5
   5   6  -9 747.965 465.036  10
  -5  -6   8 3135.38 716.945  15
   5   6  -8 2432.35 468.357   2
   5   6  -8 1740.94 544.495   3
  -5  -6   8 2606.02 608.360   5
   5   6  -8 2145.57 708.216  10
   5   6  -7 3803.54 558.446   2
   5   6  -7 2740.94 586.165   4
  -5  -6   7 3379.78 732.919  15
   5   6  -7 2446.15 606.733   3
  -5  -6   7 2251.79 565.048   5
   5   6  -7 2624.90 661.584  10
   5   6  -6 2266.30 481.114   4
  -5  -6   6 2995.55 642.716  15
   5   6  -6 2903.36 467.097   2
   5   6  -6 1805.89 515.464   3
  -5  -6   6 2583.93 589.272   5
   5   6  -6 2845.35 637.362  10
   5   6  -5 61.9141 153.008   4
   5   6  -5 197.047 157.482   2
   5   6  -5-66.3032 269.667   3
  -5  -6   5-90.6071 273.881   5
   5   6  -5-130.737 233.192  10
   5   6  -4 819.782 353.547   4
   5   6  -4 952.776 272.928   2
  -5  -6   4 754.288 170.894  14
   5   6  -4 617.114 417.141   3
  -5  -6   4 901.532 403.304   5
   5   6  -4 717.485 387.742  10
  -5  -6   4 346.881 191.847   2
   5   6  -3 6409.69 768.476   4
  -5  -6   3 6566.55 553.077   2
   5   6  -3 7057.67 989.752   7
   5   6  -3 7847.03 1009.71   3
  -5  -6   3 6417.69 596.479  14
  -5  -6   3 7454.24 885.167   5
   5   6  -3 6234.49 844.788  10
   5   6  -3 6819.56 611.682   2
   5   6  -2 374.854 294.433   4
   5   6  -2-4.47476 198.972   2
   5   6  -2 29.5179 335.320   7
  -5  -6   2 573.269 202.433  14
   5   6  -2 499.394 352.790   3
  -5  -6   2 39.9446 150.684   2
  -5  -6   2 111.868 291.936   5
   5   6  -2-94.6316 257.886  10
  -5  -6   1 3445.97 420.916   2
  -5  -6   1 3009.70 517.476   4
   5   6  -1 3362.96 803.876   7
  -5  -6   1 2616.05 469.538  14
   5   6  -1 2841.28 709.601   3
  -5  -6   1 3831.04 671.197   5
   5   6  -1 3044.31 563.610  10
  -5  -6   0 296.773 269.991   4
   5   6   0 1037.06 643.663   7
  -5  -6   0 138.284 219.478  14
   5   6   0 366.080 362.230   3
  -5  -6   0 570.356 237.743   2
  -5  -6   0 774.774 400.164   5
  -5  -6   0 1141.18 348.858  10
   5   6   0 1046.05 355.656  10
  -5  -6  -1 1795.89 437.856   4
   5   6   1 274.987 339.279   7
   5   6   1 1186.80 563.833   3
  -5  -6  -1 1255.54 291.029   2
  -5  -6  -1 1811.52 456.909  10
   5   6   1 1446.68 390.121  10
  -5  -6  -2 1416.32 457.429   4
   5   6   2 807.495 400.414   7
  -5  -6  -2 1206.36 337.934   2
   5   6   2 2441.72 772.041   3
   5   6   2 1257.46 325.036  10
  -5  -6  -3 302.313 234.896   4
   5   6   3 216.216 414.104   7
   5   6   3 200.057 436.731   3
   5   6   3 171.351 248.289  12
  -5  -6  -3 485.211 412.513   1
  -5  -6  -4 2057.08 591.391   4
   5   6   4 1770.39 665.391   7
   5   6   4 2335.82 551.322  12
  -5  -6  -4 1692.32 594.976   1
  -5  -6  -5 48.5864 236.423   1
  -5  -6  -5-520.960 296.908   4
   5   6   5-216.338 375.262   7
   5   6   5 1.40386 122.366  12
  -5  -6  -6-409.020 297.610   4
   5   6   6 256.641 318.503   7
   5   6   6 284.181 259.248  12
  -5  -6  -6-595.609 443.275   1
  -5  -6  -7 1113.91 599.818   4
   5   7 -11-311.209 259.237   2
   5   7 -11-524.220 367.328   3
  -5  -7  10-283.152 555.021  15
   5   7 -10-36.9178 206.173   2
  -5  -7  10-107.741 470.576  13
   5   7 -10-532.412 429.678   3
   5   7 -10 209.645 412.892  10
  -5  -7   9-176.912 199.669   8
  -5  -7   9-116.613 489.227  15
   5   7  -9-165.355 292.617   2
  -5  -7   9-122.780 352.538  13
   5   7  -9-191.605 355.088   3
  -5  -7   9-114.026 314.036   5
   5   7  -9 251.565 330.487  10
  -5  -7   8-447.533 425.160  15
   5   7  -8 579.912 268.685   2
  -5  -7   8 465.754 375.274  13
   5   7  -8-506.073 394.510   3
  -5  -7   8 598.285 414.543   5
   5   7  -8 32.2265 145.558  10
  -5  -7   7 200.629 338.947  15
   5   7  -7 279.259 294.804   3
   5   7  -7 282.081 162.078   2
  -5  -7   7-346.516 362.400   5
   5   7  -7 291.338 356.670  10
  -5  -7   6-22.2021 409.120  15
   5   7  -6 574.758 295.677   2
   5   7  -6 173.984 253.531   3
  -5  -7   6 295.129 341.841   5
   5   7  -6-296.379 278.633  10
  -5  -7   5 718.311 450.769  15
   5   7  -5 1096.76 298.090   2
   5   7  -5-106.570 332.213   3
  -5  -7   5 239.253 294.459   5
   5   7  -5 373.567 319.476  10
   5   7  -4-255.166 305.485   4
   5   7  -4 114.536 252.934   2
  -5  -7   4 70.6281 319.792  15
   5   7  -4 446.623 390.832   7
   5   7  -4 334.449 204.396   3
  -5  -7   4-246.077 343.487   5
   5   7  -4 299.551 340.470  10
   5   7  -3 12033.0 1380.38   7
   5   7  -3 11721.3 1258.70   3
  -5  -7   3 11447.9 1179.50   5
   5   7  -3 11567.0 1227.71  10
   5   7  -3 12408.3 926.630   2
   5   7  -2 1185.96 377.853   2
   5   7  -2 1013.88 568.616   7
   5   7  -2 664.414 343.325   3
  -5  -7   2 1553.76 541.977   5
   5   7  -2 1010.64 345.731  10
  -5  -7   1-6.13180 185.928   4
   5   7  -1 19.0756 449.011   7
  -5  -7   1 301.598 183.061  14
   5   7  -1 90.8880 328.351   3
  -5  -7   1-147.791 289.529   5
   5   7  -1-273.626 272.706  10
  -5  -7   0 457.113 229.410   4
   5   7   0 1441.17 563.323   7
   5   7   0 542.619 499.820   3
  -5  -7   0 1503.13 571.232   5
   5   7   0 602.568 324.212  10
  -5  -7  -1 62.1831 183.871   4
   5   7   1 10.5479 363.167   7
   5   7   1 932.761 434.570   3
   5   7   1 456.684 258.001  10
  -5  -7  -2-76.8011 286.499   1
  -5  -7  -2 30.7842 100.034   4
   5   7   2-500.998 468.800   7
   5   7   2 711.933 379.000   3
   5   7   2-373.332 406.338  12
   5   7   2-95.4456 182.995  10
  -5  -7  -3 300.291 393.292   4
   5   7   3-171.008 187.259   3
  -5  -7  -3-779.346 405.388   1
   5   7   3-187.067 195.841   7
   5   7   3-258.990 362.438  12
  -5  -7  -4 481.171 409.327   4
   5   7   4 756.307 499.126   7
  -5  -7  -4 38.6178 358.182   1
   5   7   4-31.3425 167.310  12
  -5  -7  -5-864.304 472.794   4
   5   7   5 274.400 352.200  12
  -5  -7  -6-167.856 177.957   4
   5   8  -9-28.9746 184.341   2
   5   8  -9 291.492 308.479   3
  -5  -8   8 909.970 370.049   8
  -5  -8   8 1343.35 538.411  15
   5   8  -8 1023.78 392.839   2
  -5  -8   8 683.572 494.256  13
   5   8  -8 270.888 296.218   3
  -5  -8   8 1176.28 520.024   5
   5   8  -8 2013.70 606.223  10
  -5  -8   7-9.01494 366.426  15
   5   8  -7 423.590 206.874   2
  -5  -8   7 72.9527 326.597  13
   5   8  -7 1.59388 231.669   3
  -5  -8   7 188.856 343.439   5
   5   8  -7-57.4299 226.902  10
  -5  -8   6 984.024 482.707  15
   5   8  -6 1724.44 450.677   2
   5   8  -6 1500.18 450.585   3
  -5  -8   6 1345.33 500.053   5
   5   8  -6 930.308 431.981  10
   5   8  -5 360.813 213.389   2
  -5  -8   5 467.167 394.389  15
   5   8  -5 392.301 426.956   3
  -5  -8   5 305.017 240.273   5
   5   8  -5-149.291 261.119  10
   5   8  -4 73.3679 198.961   2
  -5  -8   4 547.694 368.879  15
   5   8  -4 146.329 310.047   7
   5   8  -4-220.128 265.961   3
  -5  -8   4-114.483 339.579   5
   5   8  -4-156.384 247.592  10
   5   8  -3 362.004 258.907   2
  -5  -8   3 1138.15 406.216  15
   5   8  -3 486.051 421.999   7
   5   8  -3 790.390 526.528   3
  -5  -8   3 748.204 436.169   5
   5   8  -3 503.195 297.468  10
   5   8  -2 604.887 322.971   2
  -5  -8   2 1235.33 410.542  15
   5   8  -2 793.981 466.265   7
   5   8  -2 368.396 352.593   3
  -5  -8   2 389.104 337.312   5
   5   8  -2 683.138 316.937  10
  -5  -8   1-51.4844 186.729  15
   5   8  -1 38.7346 191.358   7
   5   8  -1-82.4018 189.160   3
  -5  -8   1-219.969 303.049   5
   5   8  -1-181.259 221.867  10
  -5  -8   0 88.0720 131.078   4
   5   8   0-210.613 298.242   7
  -5  -8   0-91.1762 276.544  15
   5   8   0 77.6634 131.166   3
  -5  -8   0 307.197 325.052   5
   5   8   0 50.3744 193.094  10
  -5  -8  -1 4.68968 104.570   4
   5   8   1 243.492 394.991   7
  -5  -8  -1-892.970 551.502   1
   5   8   1 451.031 387.371   3
   5   8   1-602.318 275.390  10
  -5  -8  -2-47.7730 277.940   4
   5   8   2-649.097 489.952   7
   5   8   2 196.924 335.868   3
   5   8   2 53.9249 451.181  12
  -5  -8  -2 371.265 399.264   1
  -5  -8  -3-1.58945 354.238   4
   5   8   3 270.122 362.293   7
   5   8   3 197.410 221.189  12
  -5  -8  -4-34.2912 330.514   4
   5   8   4 393.129 417.842  12
   5   8   5 1310.47 696.426  12
  -5  -9   9 139.098 137.417   8
  -5  -9   8 624.205 324.406   8
  -5  -9   7 339.236 278.244  15
  -5  -9   6 917.576 439.026  15
   5   9  -6 483.015 439.846   3
   5   9  -6 639.585 354.296  10
  -5  -9   5 191.918 206.444  15
   5   9  -5 179.518 263.569   3
  -5  -9   5 209.501 330.956   5
   5   9  -5 7.91458 126.625  10
  -5  -9   4-668.339 355.058  15
   5   9  -4 26.4238 258.270   7
   5   9  -4-431.174 430.631   3
  -5  -9   4-225.673 370.055   5
   5   9  -4-35.7654 138.536  10
  -5  -9   3-122.678 169.679  15
   5   9  -3 670.333 465.567   7
   5   9  -3 90.4416 194.314   3
  -5  -9   3-6.85428 366.418   5
   5   9  -3 368.587 308.103  10
  -5  -9   2 680.962 351.050  15
   5   9  -2 471.557 349.992   7
   5   9  -2 118.402 435.821   3
  -5  -9   2 283.021 337.577   5
   5   9  -2 317.705 285.236  10
   5   9  -1 411.733 441.695   7
   5   9  -1 552.139 512.013   3
  -5  -9   1-181.762 341.211   5
   5   9  -1 311.986 358.160  10
   5   9   0-222.566 492.811   3
  -5  -9   0-539.688 402.461   5
   5   9   0 52.8823 92.9751  10
   5   9   1 666.353 450.953   3
   5   9   1-409.977 289.873  12
   5   9   2-386.130 342.302  12
  -5 -10   6 573.481 462.644  15
  -5 -10   5 285.395 441.034  15
   5  10  -3 490.934 369.211  10
   5  10  -2 97.4409 306.188  10
   5  10  -1 673.271 364.406  10
   6 -10  -1 359.965 306.879  14
   6 -10   0-321.252 543.786  13
  -6  10   0 54.3757 332.192  12
   6  -9  -5 294.915 225.084   8
   6  -9  -4-137.187 138.175   8
   6  -9  -3 197.286 334.357   8
   6  -9  -3 652.654 420.701  14
  -6   9   3 76.4562 248.195  12
   6  -9  -2-1.89891 266.263  14
   6  -9  -2 239.426 325.933   8
   6  -9  -2-221.161 450.093  13
  -6   9   2 469.905 378.408  12
   6  -9  -1-96.0244 320.342   8
  -6   9   1 514.756 436.921   2
   6  -9  -1 794.607 530.269  14
   6  -9  -1 168.233 341.875  13
  -6   9   1-281.052 262.613  12
  -6   9   0 1580.12 564.770   2
   6  -9   0 2181.69 685.734  14
   6  -9   0 1080.28 488.832  13
  -6   9   0 1891.96 616.588  12
   6  -9   1 419.506 322.168  14
   6  -9   1 909.706 487.822  13
  -6   9  -1 309.503 321.347  12
   6  -9   2 1335.26 520.794  14
  -6   9  -2 1699.64 530.025  12
   6  -9   3-706.994 393.108  14
   6  -8  -7-54.2681 110.403   1
   6  -8  -6 194.770 224.970   1
   6  -8  -6 302.669 208.841   8
   6  -8  -5 146.018 232.517   1
  -6   8   5 14.3801 166.218   2
   6  -8  -5 693.124 306.492   8
   6  -8  -5 430.010 312.616  14
  -6   8   5 592.239 478.369  12
  -6   8   5-428.077 395.021   6
  -6   8   5 95.7364 332.937  10
   6  -8  -4-60.7117 117.597   1
   6  -8  -4 88.8551 112.046   8
  -6   8   4-67.5005 336.463   2
   6  -8  -4-766.476 424.332  14
  -6   8   4 276.301 406.491  12
  -6   8   4-485.759 403.018   6
  -6   8   4-1148.85 470.045  10
   6  -8  -3 2128.73 612.154   8
  -6   8   3 1089.75 572.339   2
   6  -8  -3 1629.82 595.606  14
  -6   8   3 732.169 457.099  12
  -6   8   3 930.754 526.133   6
  -6   8   3 1372.66 512.253  10
   6  -8  -3 1410.46 338.347   1
   6  -8  -2-50.8319 373.976   8
  -6   8   2 78.8443 498.755   2
   6  -8  -2-85.5250 419.200  14
   6  -8  -2 284.893 205.254  13
  -6   8   2 791.362 382.812  12
  -6   8   2 438.922 442.889   6
  -6   8   2 1008.61 454.568  10
   6  -8  -1 915.198 510.666   8
  -6   8   1 1027.69 545.421   2
   6  -8  -1 789.810 394.570  14
   6  -8  -1 1653.09 480.530  13
  -6   8   1 956.290 464.248  12
  -6   8   1 951.819 454.463   6
  -6   8   1 855.931 497.457  10
   6  -8   0 713.642 451.494   8
  -6   8   0 173.776 425.191   2
   6  -8   0 48.6770 86.5381  13
   6  -8   0 992.747 411.818  14
  -6   8   0-216.596 392.027  12
  -6   8   0 1288.46 575.028   6
  -6   8   0-64.6307 353.949  10
   6  -8   1 961.145 513.453   8
  -6   8  -1 526.797 472.198   2
   6  -8   1 684.723 401.083  14
   6  -8   1 926.844 483.415  13
  -6   8  -1 932.964 422.870  12
  -6   8  -1 346.229 400.721   6
  -6   8  -1 10.3629 401.546  10
   6  -8   2 3411.46 854.244   8
  -6   8  -2 2770.81 658.769   2
   6  -8   2 2294.57 623.837  14
   6  -8   2 3761.97 870.415  13
  -6   8  -2 3502.31 675.491  12
  -6   8  -2 3380.66 842.992   6
  -6   8  -2 2896.66 740.402  10
   6  -8   3 1113.22 527.207   8
  -6   8  -3 546.371 356.326   2
   6  -8   3 400.014 318.209  14
   6  -8   3 902.474 450.693  13
  -6   8  -3 408.352 262.364   6
  -6   8  -3 698.434 342.857  10
  -6   8  -4-114.919 243.082   2
   6  -8   4 599.993 372.912  14
   6  -8   4-367.272 304.171  13
  -6   8  -4-161.257 339.948   6
  -6   8  -4 88.6032 277.982  10
   6  -8   5 18.5942 439.763  14
  -6   8  -5-213.997 361.748   6
  -6   8  -5 29.0307 384.676  10
  -6   8  -6 26.8661 303.944   6
  -6   8  -6-477.657 303.192  10
  -6   7   9-387.742 322.769   6
   6  -7  -9 158.541 327.658   3
   6  -7  -8-167.523 159.563   1
  -6   7   8 391.269 379.881   6
   6  -7  -8 134.693 112.327   3
   6  -7  -7 1244.55 331.193   1
   6  -7  -7 1067.96 504.911  14
  -6   7   7 1240.13 468.074   6
   6  -7  -7 1450.36 390.010   3
   6  -7  -6 416.561 247.222   1
   6  -7  -6 99.6800 134.753   8
   6  -7  -6 364.951 359.259  14
  -6   7   6 702.583 410.389   6
  -6   7   6-261.503 249.558  10
   6  -7  -6-210.583 225.699   3
   6  -7  -5 1450.14 378.272   1
  -6   7   5 1151.24 472.260   2
   6  -7  -5 2015.82 528.821   8
   6  -7  -5 2514.35 651.105  14
  -6   7   5 2508.63 652.189  12
  -6   7   5 1323.58 516.496   6
   6  -7  -5 1620.63 390.131   3
  -6   7   5 1806.70 615.816  10
   6  -7  -4 146.669 178.040   8
  -6   7   4-181.410 428.238   2
   6  -7  -4-45.4710 405.708  14
  -6   7   4 165.417 265.863  12
  -6   7   4 186.136 276.926   6
   6  -7  -4 225.283 212.720   3
  -6   7   4-283.156 303.410  10
   6  -7  -4 20.1399 194.303   1
   6  -7  -3 2207.61 575.747   8
  -6   7   3 1825.55 641.860   2
   6  -7  -3 1661.56 573.819  14
  -6   7   3 2406.93 609.535  12
  -6   7   3 1712.57 623.732   6
   6  -7  -3 1611.40 387.267   3
  -6   7   3 822.753 463.200  10
   6  -7  -3 2005.73 372.091   1
   6  -7  -2 1634.50 523.950   8
  -6   7   2 1437.87 592.333   2
   6  -7  -2 208.331 412.481  14
   6  -7  -2 1025.47 437.539  13
  -6   7   2 1028.20 512.396  12
  -6   7   2 1622.20 610.547   6
  -6   7   2 722.932 532.816  10
   6  -7  -2 1308.69 299.876   1
   6  -7  -1 750.593 394.276   8
  -6   7   1-25.8889 398.331   2
   6  -7  -1 203.411 326.373  14
   6  -7  -1 55.0676 88.0999  13
  -6   7   1-398.752 334.859  12
  -6   7   1 355.888 401.772   6
   6  -7  -1 402.755 157.894   1
  -6   7   1 603.388 440.983  10
  -6   7   0 8011.69 1005.49   2
   6  -7   0 7254.45 1065.32   8
   6  -7   0 8456.91 1136.24  14
   6  -7   0 8726.46 1164.76  13
  -6   7   0 8414.76 1014.40  12
  -6   7   0 7200.48 1046.72   6
   6  -7   0 7397.83 714.353   5
  -6   7   0 7715.94 1166.34  10
   6  -7   1 189.322 332.083   8
  -6   7  -1 226.255 349.355   2
   6  -7   1 400.577 478.696  14
   6  -7   1 296.445 438.755  13
  -6   7  -1 663.804 420.813  12
  -6   7  -1 447.775 427.651   6
  -6   7  -1 527.128 442.414  10
   6  -7   2 2204.22 650.946   8
  -6   7  -2 3008.76 665.528   2
   6  -7   2 1798.20 551.858  14
   6  -7   2 797.646 502.661  13
  -6   7  -2 1925.68 478.841  12
  -6   7  -2 2708.25 664.841   6
  -6   7  -2 1533.54 592.581  10
   6  -7   3 251.554 244.664   8
  -6   7  -3-57.2713 311.855   2
   6  -7   3-56.8612 282.085  13
  -6   7  -3 302.037 236.726  12
  -6   7  -3 302.188 389.863   6
   6  -7   3-171.260 175.966  14
  -6   7  -3 756.671 449.963  10
   6  -7   4 540.783 420.030   8
   6  -7   4 1065.73 476.430  14
  -6   7  -4 198.776 296.181   2
   6  -7   4 123.791 151.308  13
  -6   7  -4 282.621 337.386   6
  -6   7  -4 146.184 395.051  10
   6  -7   5 750.129 488.383   8
   6  -7   5-152.417 239.936  14
  -6   7  -5-265.959 276.982   2
   6  -7   5 240.926 322.371  13
  -6   7  -5 781.171 389.258   6
  -6   7  -5 502.843 408.102  10
   6  -7   6 1880.85 597.184  14
  -6   7  -6 2069.78 573.695   2
  -6   7  -6 977.365 489.269   6
  -6   7  -6 2142.58 582.201  11
  -6   7  -6 1776.84 601.454  10
  -6   7  -7 674.522 451.657  11
  -6   7  -7 335.759 346.361  10
  -6   6  10 275.768 272.308   6
   6  -6 -10 315.885 206.094   3
  -6   6   9-95.2128 249.118   6
   6  -6  -9-303.606 214.035   3
   6  -6  -9-122.583 358.129   1
  -6   6   8 680.983 394.235   6
   6  -6  -8 228.554 259.157   3
   6  -6  -8 79.5698 217.953   1
   6  -6  -7 558.760 230.213   8
   6  -6  -7 638.166 367.940  14
  -6   6   7 954.616 529.893   6
   6  -6  -7 589.941 339.563   3
   6  -6  -7 312.246 257.916   1
   6  -6  -6 61.7249 121.431   8
   6  -6  -6 465.660 334.482  14
  -6   6   6-226.584 282.979   6
   6  -6  -6-142.066 281.721   3
   6  -6  -6 285.371 282.259   1
  -6   6   5 1611.67 558.777   2
   6  -6  -5 1457.01 460.650   8
   6  -6  -5 2019.35 628.748  14
  -6   6   5 1103.35 434.273   6
   6  -6  -5 770.949 302.974   3
   6  -6  -5 1204.09 375.423   1
   6  -6  -4 1324.81 436.119   8
  -6   6   4 1281.51 500.804   2
   6  -6  -4 1432.05 513.174  14
  -6   6   4 1018.68 287.550  13
  -6   6   4 1615.39 544.134   6
   6  -6  -4 1249.62 366.101   3
   6  -6  -4 1109.98 339.039   1
   6  -6  -3 65.9964 148.392   5
   6  -6  -3-10.8683 315.975   8
  -6   6   3-160.849 158.249   1
  -6   6   3-115.686 338.518   2
   6  -6  -3 242.030 396.880  14
  -6   6   3 168.649 158.212  13
  -6   6   3-22.7721 339.250  12
  -6   6   3 145.135 222.448   6
   6  -6  -3-330.584 220.709   3
   6  -6  -3 28.1302 214.484   1
   6  -6  -2-74.3402 82.7399   5
   6  -6  -2-217.451 318.946   8
   6  -6  -2 95.2695 186.753   4
  -6   6   2 86.0114 319.412   2
   6  -6  -2-618.658 476.978  14
  -6   6   2-304.488 362.356  12
  -6   6   2-195.514 149.219   1
  -6   6   2-222.049 317.473   6
   6  -6  -2 231.860 263.133   3
   6  -6  -2-14.3457 139.775   1
  -6   6   2 62.2756 273.543  10
   6  -6  -1 364.554 158.825   5
   6  -6  -1 191.437 225.041   4
   6  -6  -1 329.576 333.306   8
  -6   6   1 630.723 378.706   2
   6  -6  -1 692.481 429.774  14
   6  -6  -1 610.190 299.848  13
   6  -6  -1 397.930 191.879   3
  -6   6   1 409.267 372.353  12
   6  -6  -1 392.926 203.145   1
  -6   6   1 306.212 381.980   6
  -6   6   1 50.8341 215.341  10
  -6   6   1 260.244 182.844   1
  -6   6   0 4175.60 673.704   2
   6  -6   0 4945.64 754.206   4
   6  -6   0 5022.23 823.331   8
   6  -6   0 3872.45 471.909   3
   6  -6   0 4694.84 881.706  14
   6  -6   0 4091.17 771.131  13
  -6   6   0 4082.50 701.872  12
  -6   6   0 3895.07 796.995   6
   6  -6   0 3472.73 424.007   5
   6  -6   0 4054.94 433.116   5
  -6   6   0 4143.77 873.109  10
  -6   6  -1 8384.04 945.242   2
   6  -6   1 7720.12 920.208   4
   6  -6   1 8375.33 1070.99   8
   6  -6   1 8971.83 706.533   3
   6  -6   1 8887.74 1183.73  14
  -6   6  -1 8659.87 1099.28   6
   6  -6   1 9112.26 1182.84  13
  -6   6  -1 9351.01 928.812  12
   6  -6   1 8405.48 535.341   5
  -6   6  -1 8648.71 1128.86  10
   6  -6   2 1398.69 498.478   8
   6  -6   2 1720.02 333.165   3
  -6   6  -2 1948.86 560.725   2
   6  -6   2 1247.58 586.049  14
   6  -6   2 1863.41 606.238  13
  -6   6  -2 2211.05 431.793  12
  -6   6  -2 2136.35 633.932   6
  -6   6  -2 2239.70 642.654  10
   6  -6   3 3729.27 857.007   8
  -6   6  -3 3350.02 558.084   4
   6  -6   3 3494.38 732.420  14
  -6   6  -3 3380.39 634.458   2
   6  -6   3 2796.24 773.126  13
  -6   6  -3 3699.60 747.421   6
  -6   6  -3 3575.24 623.682  11
  -6   6  -3 3205.58 693.073  10
   6  -6   4 2484.84 689.410   8
  -6   6  -4 1941.85 478.012   4
   6  -6   4 2384.50 608.392  14
  -6   6  -4 1306.06 526.850   2
   6  -6   4 849.769 515.179  13
  -6   6  -4 1091.22 413.151   6
  -6   6  -4 1969.70 489.706  11
  -6   6  -4 956.105 467.924  10
   6  -6   5-143.397 341.499   8
  -6   6  -5-370.095 289.840   4
   6  -6   5 360.360 380.641  14
  -6   6  -5 73.1361 272.223   2
   6  -6   5-41.0531 304.374  13
  -6   6  -5 143.765 172.471   6
  -6   6  -5-44.6731 267.711  11
  -6   6  -5 314.004 298.882  10
   6  -6   6-742.664 475.244   8
  -6   6  -6-74.8995 272.045   4
   6  -6   6 327.009 259.888  14
   6  -6   6 276.777 335.314  13
  -6   6  -6-96.2034 309.587   2
  -6   6  -6 17.5676 68.0453   6
  -6   6  -6 449.308 284.466  11
  -6   6  -6 92.3020 139.580  10
  -6   6  -7 442.386 321.162   4
  -6   6  -7 249.713 249.355   2
  -6   6  -7 128.725 237.556   6
  -6   6  -7 361.108 330.040  11
  -6   6  -7-49.3953 127.467  10
  -6   6  -8 23.4901 354.725  11
  -6   5  11 128.267 205.664   6
  -6   5  10-461.060 408.912   6
   6  -5 -10 293.966 258.574   3
   6  -5 -10 34.3823 226.168   1
  -6   5   9 361.783 308.169   6
   6  -5  -9 1078.15 423.932   3
   6  -5  -9 1392.18 457.825   1
   6  -5  -8 504.266 249.375   3
   6  -5  -8 748.882 401.807   1
   6  -5  -7 1675.03 353.677   8
   6  -5  -7 2187.68 556.004  14
  -6   5   7 1441.84 507.264   6
   6  -5  -7 1426.76 406.386   3
   6  -5  -7 1597.92 451.157   1
   6  -5  -6 440.111 257.142   8
   6  -5  -6 914.953 439.240  14
  -6   5   6 612.656 405.514   6
   6  -5  -6 255.141 281.819   3
   6  -5  -6 164.492 230.323   1
   6  -5  -5 4713.26 621.122   1
   6  -5  -5 4526.55 677.432   8
  -6   5   5 5435.76 790.218  15
   6  -5  -5 3913.95 564.639   3
   6  -5  -5 5191.64 799.552  14
  -6   5   5 4320.47 546.429  13
  -6   5   5 4691.27 840.729   6
  -6   5   5 4373.72 806.879   2
   6  -5  -4 4573.06 559.285   1
   6  -5  -4 4128.38 640.970   8
  -6   5   4 4345.22 722.552   2
  -6   5   4 5092.35 795.593  15
   6  -5  -4 4516.29 589.720   3
  -6   5   4 4571.81 622.129   1
   6  -5  -4 4942.92 821.719  14
  -6   5   4 4758.12 599.797  13
  -6   5   4 4209.18 804.948   6
   6  -5  -4 4619.80 569.663   5
   6  -5  -3 7496.39 658.824   1
   6  -5  -3 8721.75 921.531   8
   6  -5  -3 8653.78 1069.58  14
   6  -5  -3 7083.45 744.549   3
  -6   5   3 7344.03 741.219   1
  -6   5   3 7888.77 988.963   6
  -6   5   3 6579.90 742.432  13
   6  -5  -3 8136.02 695.252   5
  -6   5   3 7760.32 917.526   2
   6  -5  -2 15988.8 867.428   1
   6  -5  -2 15910.8 1341.03   4
   6  -5  -2 15718.9 1276.81   8
   6  -5  -2 17286.6 1129.59   3
   6  -5  -2 14370.1 1360.67  14
  -6   5   2 14580.3 955.941   1
  -6   5   2 16132.0 1387.06   6
  -6   5   2 14923.5 1179.78  13
   6  -5  -2 14643.5 841.239   5
  -6   5   2 14647.3 1188.12   2
   6  -5  -1 1186.45 248.665   1
   6  -5  -1 1575.27 259.731   5
   6  -5  -1 1484.87 445.430   4
   6  -5  -1 1889.04 545.143   8
  -6   5   1 1462.51 170.754   7
  -6   5   1 1558.88 497.598   2
   6  -5  -1 1529.92 461.971  14
   6  -5  -1 1415.63 359.540   3
  -6   5   1 1223.61 491.889   6
   6  -5  -1 953.983 326.111  12
  -6   5   1 1502.31 297.259   1
   6  -5   0 820.100 162.867   5
   6  -5   0 381.832 312.810   4
   6  -5   0 797.596 375.640   8
  -6   5   0 625.255 179.238   7
  -6   5   0 698.414 362.246   2
   6  -5   0 855.733 421.258  14
   6  -5   0 451.914 374.545  13
  -6   5   0 715.605 211.128   1
   6  -5   0 880.104 275.590   3
  -6   5   0 503.628 417.862   6
   6  -5   0 977.701 341.786  12
   6  -5   0 401.703 131.318   5
  -6   5   0 888.195 391.585  10
   6  -5   1 127.906 61.1706   5
   6  -5   1 47.2623 219.377   4
   6  -5   1-378.721 341.530   8
  -6   5  -1 36.5952 170.444   7
  -6   5  -1 132.376 285.944   2
   6  -5   1-41.1962 388.789  14
   6  -5   1-157.131 325.068  13
   6  -5   1-59.2481 143.791   3
  -6   5  -1 146.884 348.474   6
  -6   5  -1 399.342 253.878  11
  -6   5  -1-470.569 369.787  10
  -6   5  -1-38.3383 109.337   3
   6  -5   1 29.4589 64.7089   5
   6  -5   2 87.5050 358.620   8
  -6   5  -2 67.5785 196.961   4
  -6   5  -2 11.9935 193.456   7
   6  -5   2 436.475 348.094  14
  -6   5  -2-92.2312 240.553   2
   6  -5   2-96.2863 111.803   3
   6  -5   2-534.511 437.561  13
  -6   5  -2-81.3023 289.911   6
  -6   5  -2-29.1606 268.946  11
  -6   5  -2 28.9723 91.8681   3
  -6   5  -2-93.9405 319.411  10
   6  -5   3-179.627 284.441   8
  -6   5  -3 304.130 307.849   4
  -6   5  -3 353.084 196.560   7
   6  -5   3 160.031 208.128   3
   6  -5   3 210.744 217.070  14
  -6   5  -3 57.6778 314.920   2
   6  -5   3 103.392 347.742  13
  -6   5  -3 71.4051 320.983   6
  -6   5  -3 552.493 295.637  11
  -6   5  -3 119.876 112.100   3
  -6   5  -3 134.479 259.573  10
   6  -5   4 1047.92 560.877   8
  -6   5  -4 1158.42 384.494   4
   6  -5   4 2094.80 631.036  14
   6  -5   4 2156.73 638.584  13
  -6   5  -4 1683.07 472.194   2
  -6   5  -4 1977.94 541.557   6
  -6   5  -4 2206.80 538.658  11
  -6   5  -4 2097.33 535.568  10
   6  -5   5 170.752 178.219   8
  -6   5  -5-383.702 391.128   4
   6  -5   5 210.792 254.592  14
   6  -5   5-247.247 439.500  13
  -6   5  -5-116.919 310.813   2
  -6   5  -5 273.042 219.592   6
  -6   5  -5-183.119 300.387  11
  -6   5  -5-100.594 218.436  10
   6  -5   6 5825.67 1133.97   8
  -6   5  -6 3797.93 776.508   4
   6  -5   6 4676.53 919.013  14
   6  -5   6 5032.37 955.312  13
  -6   5  -6 5299.49 813.786   2
  -6   5  -6 4618.62 688.889   6
  -6   5  -6 5627.99 908.294  11
  -6   5  -6 4978.91 832.276  10
   6  -5   7 325.361 347.999   8
  -6   5  -7-689.726 400.742   4
   6  -5   7 179.294 248.212  13
  -6   5  -7 156.767 267.888   2
  -6   5  -7-261.221 191.589   6
  -6   5  -7-312.683 399.381  11
  -6   5  -7-134.138 211.725  10
  -6   5  -8-54.2360 165.004   4
  -6   5  -8 220.576 238.052   2
  -6   5  -8-244.642 276.587  11
  -6   5  -9-292.985 265.479   4
  -6   4  12 148.185 255.721   6
  -6   4  11-61.3794 212.756   6
   6  -4 -11 318.553 367.957   3
  -6   4  10 539.995 450.988   9
  -6   4  10 220.212 224.320   6
   6  -4 -10 427.338 279.721   1
   6  -4 -10 498.560 311.989   3
  -6   4   9-44.2703 340.018   6
   6  -4  -9 184.064 214.977   3
   6  -4  -9 386.390 316.616   1
   6  -4  -8 379.946 171.912   8
  -6   4   8-26.3082 245.511   6
   6  -4  -8 561.417 326.200   3
   6  -4  -8 539.967 341.871   1
   6  -4  -7 1833.34 400.235   8
   6  -4  -7 2427.91 544.192  14
  -6   4   7 1769.71 495.873   6
   6  -4  -7 2212.18 473.314   3
   6  -4  -7 1680.98 477.796   1
   6  -4  -6 195.223 216.441   8
   6  -4  -6 100.489 287.788  14
  -6   4   6 89.3104 98.6498  13
  -6   4   6-79.6814 361.717   6
   6  -4  -6-142.903 299.407   3
   6  -4  -6-163.677 293.761   1
   6  -4  -5 2203.40 410.212   5
   6  -4  -5 2188.89 479.256   8
   6  -4  -5 1793.74 546.091  14
  -6   4   5 2664.81 416.384  13
  -6   4   5 2253.05 617.065   6
   6  -4  -5 1494.17 435.048   3
   6  -4  -5 1959.40 413.413   1
   6  -4  -4 88.6987 166.523   5
   6  -4  -4 178.499 240.749   8
  -6   4   4-68.4551 347.869   2
  -6   4   4 194.857 182.720   8
   6  -4  -4 314.796 339.883  14
   6  -4  -4 166.560 212.376   2
  -6   4   4-445.691 187.070  13
  -6   4   4 76.6882 376.372   6
   6  -4  -4 176.340 213.626   1
   6  -4  -4 240.719 217.490   3
  -6   4   4-53.4786 239.353   1
   6  -4  -3 342.589 165.350   5
   6  -4  -3 249.994 267.672   8
   6  -4  -3 645.002 345.595   4
  -6   4   3 328.063 174.288   8
  -6   4   3 187.510 308.821   2
  -6   4   3 387.129 260.345  15
   6  -4  -3 34.4584 349.124  14
   6  -4  -3 444.217 235.167   2
  -6   4   3 183.676 145.675  13
  -6   4   3 660.835 359.704   6
   6  -4  -3 83.6410 219.678   1
   6  -4  -3 423.821 311.254   3
  -6   4   3 82.0349 166.281   1
   6  -4  -2 10527.9 727.901   1
   6  -4  -2 11206.3 893.050   2
   6  -4  -2 11293.3 1119.98   4
   6  -4  -2 10242.2 1026.05   8
  -6   4   2 11112.3 877.742   8
  -6   4   2 10784.2 759.240   1
   6  -4  -2 11206.5 947.845   3
   6  -4  -2 10635.5 1153.53  14
  -6   4   2 11458.5 1118.95   6
  -6   4   2 10504.2 982.670  13
   6  -4  -2 10662.3 994.197  12
   6  -4  -2 11207.3 640.053   5
  -6   4   2 11666.2 961.498   2
  -6   4   1 8153.71 790.438   2
   6  -4  -1 8230.65 970.824   4
   6  -4  -1 7026.38 705.350   2
   6  -4  -1 6915.92 884.696   8
  -6   4   1 7264.42 449.144   7
  -6   4   1 6031.81 526.072   1
   6  -4  -1 6975.65 749.264   3
   6  -4  -1 7274.37 978.938  14
  -6   4   1 7133.18 901.903   6
  -6   4   1 6679.56 808.967  13
   6  -4  -1 6269.18 711.155  12
  -6   4   1 6901.31 721.129  11
   6  -4  -1 7137.89 421.859   5
  -6   4   0 5069.75 643.595   2
   6  -4   0 4342.48 554.853   2
   6  -4   0 3851.07 699.111   4
   6  -4   0 5228.65 807.151   8
  -6   4   0 4466.39 486.184   7
   6  -4   0 4131.79 594.797   3
  -6   4   0 4282.29 385.451   1
  -6   4   0 4205.56 413.734   3
   6  -4   0 4688.36 854.236  14
  -6   4   0 4556.34 695.920   6
   6  -4   0 3234.11 512.821  12
  -6   4   0 4859.38 658.113  11
   6  -4   0 4415.08 205.073   5
   6  -4   0 3982.46 182.993   5
  -6   4  -1 5571.64 647.101   2
   6  -4   1 6171.41 872.920   4
   6  -4   1 5834.95 892.925   8
  -6   4  -1 5101.69 669.174   4
   6  -4   1 5204.83 630.552   2
  -6   4  -1 6201.26 672.135   7
   6  -4   1 5608.11 726.714   3
  -6   4  -1 5115.10 478.666   3
   6  -4   1 5863.60 934.037  14
  -6   4  -1 6081.79 794.969   6
   6  -4   1 5580.54 602.701  12
  -6   4  -1 5837.84 739.891  11
  -6   4  -1 5212.89 821.802  10
  -6   4  -2 4117.08 602.103   2
  -6   4  -2 5209.62 714.782   4
   6  -4   2 5191.53 681.326   2
   6  -4   2 5171.61 862.574   8
   6  -4   2 5001.20 681.958   3
  -6   4  -2 4268.06 659.315   7
  -6   4  -2 4925.16 502.753   3
   6  -4   2 5018.13 878.372  14
  -6   4  -2 4882.72 715.605   6
  -6   4  -2 4810.25 739.291  11
  -6   4  -2 5230.31 785.192  10
   6  -4   3 522.585 444.936   8
  -6   4  -3 278.183 290.966   4
  -6   4  -3 571.419 294.281   7
   6  -4   3 971.569 532.778  14
   6  -4   3 657.680 303.504   3
  -6   4  -3 321.366 244.952   2
  -6   4  -3 660.594 313.858   6
  -6   4  -3 76.8768 143.613   3
  -6   4  -3 370.849 404.248  11
  -6   4  -3 143.391 303.316  10
   6  -4   4 730.359 364.583   8
  -6   4  -4 368.021 322.074   4
   6  -4   4 479.235 273.618   3
   6  -4   4 558.719 420.584  14
  -6   4  -4 645.457 307.266   2
  -6   4  -4 448.378 250.247   6
  -6   4  -4 203.011 191.412   3
  -6   4  -4 228.160 359.160  11
  -6   4  -4 354.440 267.603  10
   6  -4   5 1312.04 522.590   8
  -6   4  -5 658.011 400.630   4
   6  -4   5 1115.61 428.950  14
  -6   4  -5 1001.97 396.410   2
  -6   4  -5 1612.83 430.884   6
  -6   4  -5 1199.97 492.087  11
  -6   4  -5 1395.82 450.663  10
   6  -4   6 1367.40 491.767   8
  -6   4  -6 694.098 438.418   4
   6  -4   6 661.279 400.845  14
  -6   4  -6 2276.81 543.400   2
  -6   4  -6 981.733 286.826   6
  -6   4  -6 684.732 421.956  11
  -6   4  -6 1155.24 380.504  10
   6  -4   7 3555.65 860.601   8
  -6   4  -7 2002.10 671.581   4
  -6   4  -7 2037.52 566.759   2
  -6   4  -7 2298.95 662.034  11
  -6   4  -8-343.339 348.430   4
  -6   4  -8-23.7967 241.598   2
  -6   4  -8-321.242 236.471  11
  -6   4  -9 2354.21 750.800   4
  -6   4  -9 2220.84 635.669   2
  -6   4  -9 2371.08 772.464  11
  -6   3  12 3.31554 47.0976   6
  -6   3  11 878.457 425.316   9
  -6   3  11 942.683 362.832  15
  -6   3  11 350.573 227.679   6
   6  -3 -11 934.567 364.974   1
   6  -3 -11 745.175 382.491   3
  -6   3  10 38.6441 328.543   9
  -6   3  10 649.149 294.889   6
   6  -3 -10 217.445 305.412   1
   6  -3 -10 107.963 256.474   3
  -6   3   9 297.923 449.217   9
  -6   3   9 420.906 371.396   6
   6  -3  -9 516.296 395.191   1
   6  -3  -9 866.599 370.921   3
  -6   3   8 1794.08 506.896   6
   6  -3  -8 1812.88 442.719   1
   6  -3  -8 1470.13 403.239   3
   6  -3  -7 15866.5 1154.95   1
   6  -3  -7 14052.6 887.501   8
   6  -3  -7 14057.1 1016.10   3
   6  -3  -7 13204.1 1096.38  14
  -6   3   7 13649.6 1264.69   6
  -6   3   7 13883.9 834.606  13
   6  -3  -6 251.740 192.257   8
   6  -3  -6 49.9779 94.9830   2
   6  -3  -6 363.006 316.139  14
  -6   3   6-116.001 102.407  13
  -6   3   6-230.679 308.000   6
   6  -3  -6-41.3677 268.285   1
   6  -3  -6-367.660 298.120   3
   6  -3  -6 129.695 108.691   5
   6  -3  -5 5337.17 618.340   2
   6  -3  -5 5567.76 631.284   1
   6  -3  -5 5463.18 648.804   8
  -6   3   5 5320.20 520.218   8
  -6   3   5 6164.38 717.557   1
   6  -3  -5 4861.66 645.405   3
   6  -3  -5 5239.10 721.422  14
  -6   3   5 6487.46 663.160  13
  -6   3   5 4875.27 783.737   6
   6  -3  -5 5630.85 582.399   5
   6  -3  -4 16432.6 1000.93   1
   6  -3  -4 14819.5 943.763   2
   6  -3  -4 13746.1 1060.94   8
  -6   3   4 14671.6 891.511   8
  -6   3   4 15119.6 1024.40   1
   6  -3  -4 15079.7 1069.58   3
   6  -3  -4 13642.1 1169.15  14
  -6   3   4 14997.5 1247.01   6
  -6   3   4 15439.8 1101.91  13
   6  -3  -4 13772.4 833.483   5
  -6   3   4 14834.9 1089.05   2
   6  -3  -3 11859.0 817.135   1
   6  -3  -3 12742.6 852.007   2
   6  -3  -3 12391.7 1131.63   4
   6  -3  -3 11306.1 1009.82   8
  -6   3   3 11938.9 859.267   8
  -6   3   3 11373.5 829.145   1
   6  -3  -3 12729.5 1006.14   3
   6  -3  -3 11573.0 1111.66  14
  -6   3   3 11260.4 1107.56   6
  -6   3   3 12380.2 1035.71  13
   6  -3  -3 12457.0 1056.66  12
   6  -3  -3 11999.1 683.442   5
  -6   3   3 12010.4 929.877   2
   6  -3  -2 790.102 374.577   8
   6  -3  -2 583.263 376.846   4
  -6   3   2 1002.39 287.385   8
  -6   3   2 1151.56 349.987   2
  -6   3   2 926.290 246.596   1
   6  -3  -2 1312.43 461.290  14
  -6   3   2 1483.62 361.156  13
   6  -3  -2 1026.02 271.839   2
  -6   3   2 1722.15 531.131   6
   6  -3  -2 1266.45 346.566  12
   6  -3  -2 876.200 357.382   3
   6  -3  -2 1672.74 231.822   5
  -6   3   2 1624.07 378.908  11
  -6   3   2 1231.98 262.288   3
  -6   3   1 3695.28 498.916   2
   6  -3  -1 3131.34 431.542   2
  -6   3   1 3929.22 544.341   8
   6  -3  -1 3346.57 652.510   8
   6  -3  -1 2789.45 583.457   4
  -6   3   1 2884.49 358.738   1
  -6   3   1 3765.27 384.157   7
  -6   3   1 3703.13 403.435   3
   6  -3  -1 4389.35 737.696  14
  -6   3   1 3029.52 558.670  13
  -6   3   1 2911.84 585.802   6
   6  -3  -1 3584.82 561.558   3
   6  -3  -1 2760.05 449.014  12
  -6   3   1 4085.21 546.980  11
   6  -3  -1 3223.63 218.834   5
   6  -3   0 783.624 397.330   8
   6  -3   0 375.859 241.896   4
  -6   3   0 774.924 182.538   1
  -6   3   0 596.098 234.795   7
  -6   3   0 843.349 296.321   2
   6  -3   0 936.438 474.994  14
   6  -3   0 913.109 329.676   3
  -6   3   0 405.715 275.948   6
   6  -3   0 643.990 250.133  12
  -6   3   0 505.228 309.318  11
   6  -3   0 710.533 229.111   2
  -6   3   0 594.826 216.141   3
  -6   3  -1 2716.66 424.430   2
   6  -3   1 1719.54 525.647   4
   6  -3   1 1902.60 595.845   8
  -6   3  -1 2075.23 235.097   1
  -6   3  -1 2511.64 517.612   4
  -6   3  -1 1794.04 341.314   7
   6  -3   1 2550.40 691.544  14
   6  -3   1 2229.57 504.224   3
  -6   3  -1 2302.18 515.666   6
   6  -3   1 1687.10 327.953  12
  -6   3  -1 1757.17 510.543  11
  -6   3  -1 2151.03 362.656   3
   6  -3   1 2163.62 393.269   2
  -6   3  -2 4980.51 575.620   2
  -6   3  -2 4865.57 734.986   4
   6  -3   2 4978.10 854.942   8
   6  -3   2 4001.80 536.743   2
  -6   3  -2 3697.55 238.225   1
  -6   3  -2 3739.57 621.724   7
  -6   3  -2 4227.85 556.930   3
   6  -3   2 4175.34 837.064  14
   6  -3   2 3335.12 626.299   3
   6  -3   2 3838.81 396.979  12
  -6   3  -2 3662.08 604.064   6
  -6   3  -2 3754.82 697.669  11
  -6   3  -2 3779.13 638.353  10
   6  -3   3-122.942 381.513   8
  -6   3  -3-111.861 332.986   4
  -6   3  -3 213.418 310.053   7
   6  -3   3-57.3510 208.512  14
   6  -3   3 171.876 304.170   3
  -6   3  -3 180.979 240.476   2
  -6   3  -3 202.422 276.118   6
  -6   3  -3 534.011 233.064   3
  -6   3  -3-353.768 349.776  11
  -6   3  -3-142.735 242.743  10
  -6   3  -4 9756.34 892.274   2
  -6   3  -4 9184.15 1110.05   4
   6  -3   4 9929.78 1261.71   8
   6  -3   4 8798.88 1066.78   3
  -6   3  -4 9238.15 906.390   3
   6  -3   4 9846.98 1228.56  14
  -6   3  -4 9994.00 898.223   6
  -6   3  -4 10811.5 1124.63  11
  -6   3  -4 9784.21 934.762  10
   6  -3   5 351.345 395.602   8
  -6   3  -5 225.584 328.254   4
   6  -3   5-338.683 297.043  14
  -6   3  -5 340.222 260.996   6
  -6   3  -5 165.492 265.659   2
  -6   3  -5 176.107 268.843  11
  -6   3  -5-4.79372 125.500  10
  -6   3  -6-35.7888 353.985   4
  -6   3  -6-120.245 155.816   6
  -6   3  -6 100.831 200.340   2
  -6   3  -6-360.557 256.969  11
  -6   3  -6 140.334 217.955  10
  -6   3  -7 1046.42 563.929   4
  -6   3  -7 910.604 393.415   2
  -6   3  -7 413.979 320.796  11
  -6   3  -8 1042.66 720.214   4
  -6   3  -8 684.343 382.749   2
  -6   3  -8 827.460 334.471  11
  -6   3  -9 586.690 366.668   4
  -6   3  -9 285.841 285.057   2
  -6   3  -9-55.7429 255.188  11
  -6   2  13 386.250 279.061   6
  -6   2  12 409.274 312.688   9
  -6   2  12-116.225 264.305  15
  -6   2  12 45.6722 242.728   6
  -6   2  11 2766.84 797.152   9
  -6   2  11 1467.72 440.983  15
  -6   2  11 983.969 434.743   6
   6  -2 -11 1797.92 528.789   1
   6  -2 -11 1568.85 473.345   3
  -6   2  10 910.144 510.298   9
  -6   2  10 362.575 334.843   6
   6  -2 -10 1093.91 397.025   1
   6  -2 -10 440.305 337.237   3
  -6   2   9 7329.25 1065.93   9
   6  -2  -9 7060.87 851.493   1
   6  -2  -9 6306.29 736.940   3
  -6   2   9 6043.21 895.873   6
   6  -2  -8 196.993 107.542   7
   6  -2  -8 148.669 322.059  14
  -6   2   8 119.554 110.309  13
  -6   2   8 100.631 373.491   6
   6  -2  -8 254.239 293.528   1
   6  -2  -8 258.640 193.434  11
   6  -2  -8 10.9307 311.642   3
   6  -2  -7 758.472 194.795   7
   6  -2  -7 750.215 247.733   2
   6  -2  -7 1056.97 390.697  14
  -6   2   7 686.508 213.700  13
  -6   2   7 1107.01 395.894   6
   6  -2  -7 681.669 301.272   1
   6  -2  -7 1050.17 265.971  11
   6  -2  -7 1087.76 398.092   3
  -6   2   6 1958.92 283.303   8
   6  -2  -6 1522.52 211.686   7
   6  -2  -6 2153.25 234.137   7
   6  -2  -6 2115.38 390.500   2
   6  -2  -6 2259.61 501.984  14
  -6   2   6 2525.24 441.041  13
  -6   2   6 823.846 435.437   6
   6  -2  -6 2210.74 469.207   1
   6  -2  -6 2566.51 443.053  11
   6  -2  -6 1706.83 470.328   3
   6  -2  -6 1927.71 369.314   5
  -6   2   5 866.880 219.860   8
  -6   2   5 1290.08 359.905   1
   6  -2  -5 1051.42 154.729   7
   6  -2  -5 1073.18 303.413   2
   6  -2  -5 1042.11 506.529  14
  -6   2   5 1148.32 357.040  13
  -6   2   5 673.852 422.738   6
   6  -2  -5 1291.19 388.823   1
   6  -2  -5 1539.91 396.540  11
   6  -2  -5 1382.70 399.456   3
   6  -2  -5 996.242 285.985   5
   6  -2  -4 4158.96 563.749   1
   6  -2  -4 4217.17 458.513   2
   6  -2  -4 4088.96 579.893   8
  -6   2   4 4057.96 469.534   8
  -6   2   4 4503.17 550.876   1
   6  -2  -4 3768.61 308.760   7
   6  -2  -4 4575.24 650.236   3
   6  -2  -4 4149.94 738.560  14
  -6   2   4 3720.54 569.983  13
  -6   2   4 4062.00 674.630   6
   6  -2  -4 4503.43 661.482  12
   6  -2  -4 4451.24 596.415  11
   6  -2  -4 4514.00 451.503   5
   6  -2  -3 13198.1 761.151   2
   6  -2  -3 14085.1 1206.65   4
   6  -2  -3 13072.9 1053.64   8
  -6   2   3 13783.6 915.770   8
  -6   2   3 14123.8 879.471   1
   6  -2  -3 13626.7 661.096   7
   6  -2  -3 14501.7 1086.73   3
   6  -2  -3 13294.7 1217.48  14
  -6   2   3 14362.0 823.995   3
  -6   2   3 13538.3 1141.72   6
  -6   2   3 13389.5 1087.00  13
   6  -2  -3 13604.5 1061.09  12
   6  -2  -3 13959.7 1106.09  11
  -6   2   3 14435.2 923.689  11
   6  -2  -3 14182.0 703.140   5
  -6   2   3 14174.8 894.646   2
   6  -2  -2 10175.4 665.998   2
   6  -2  -2 11057.9 1077.19   4
   6  -2  -2 9431.26 938.700   8
  -6   2   2 11154.7 893.918   8
  -6   2   2 10466.1 715.974   1
   6  -2  -2 10005.9 660.169   7
   6  -2  -2 9975.69 942.609   3
   6  -2  -2 10730.9 1120.27  14
  -6   2   2 11344.5 729.145   3
  -6   2   2 9792.28 962.507   6
  -6   2   2 11454.2 1041.70  13
   6  -2  -2 11074.6 993.085   6
   6  -2  -2 11033.3 912.682  12
   6  -2  -2 12087.6 1076.84  11
  -6   2   2 10590.5 828.417  11
   6  -2  -2 11176.8 530.335   5
  -6   2   2 9814.47 697.526   2
  -6   2   1 2662.29 377.077   2
   6  -2  -1 2703.12 352.074   2
  -6   2   1 2523.02 339.482   1
   6  -2  -1 2610.41 560.175   8
   6  -2  -1 2395.51 534.093   4
  -6   2   1 2205.90 464.938   8
   6  -2  -1 3027.55 415.175   7
  -6   2   1 2752.78 374.028   7
   6  -2  -1 3113.27 685.755  14
  -6   2   1 2122.83 448.828  13
  -6   2   1 3429.11 579.356   6
   6  -2  -1 2013.36 479.051   3
   6  -2  -1 2452.29 416.225  12
   6  -2  -1 2591.68 489.963   6
   6  -2  -1 2480.66 552.029  11
  -6   2   1 2238.67 436.148  11
  -6   2   1 2317.41 382.996   3
  -6   2   0 11609.8 718.122   2
   6  -2   0 10646.4 1101.66   4
   6  -2   0 11488.5 1117.05   8
  -6   2   0 12528.1 1029.28   4
  -6   2   0 11703.4 640.242   1
  -6   2   0 11075.3 970.663   8
   6  -2   0 11829.1 759.213   2
   6  -2   0 11851.2 906.281   7
  -6   2   0 12428.8 881.899   7
   6  -2   0 12345.2 1083.41   3
  -6   2   0 11292.7 805.544   3
   6  -2   0 11877.4 1227.73  14
  -6   2   0 11358.4 995.297   6
  -6   2   0 11061.0 1108.22  13
   6  -2   0 11344.2 972.804   6
   6  -2   0 10701.2 770.991  12
  -6   2   0 12931.4 1042.86  11
   6  -2   1-166.472 312.235   4
   6  -2   1-191.587 362.982   8
  -6   2  -1 34.5864 268.734   4
   6  -2   1 466.995 261.151   7
  -6   2  -1 380.398 213.105   7
   6  -2   1-382.675 359.084  14
  -6   2  -1 128.961 171.245   2
   6  -2   1 128.007 258.996   3
  -6   2  -1 482.370 287.479   6
   6  -2   1 146.743 99.6544  12
  -6   2  -1 113.249 198.175   3
  -6   2  -1 39.2312 364.293  11
  -6   2  -1 289.402 114.312   1
  -6   2  -1 203.457 298.859   9
  -6   2  -2 4162.53 348.582   1
  -6   2  -2 3967.67 487.243   2
   6  -2   2 3905.94 786.223   8
  -6   2  -2 4012.72 704.256   4
   6  -2   2 4730.12 708.291   7
  -6   2  -2 4365.24 585.853   3
  -6   2  -2 4257.60 636.030   7
   6  -2   2 2400.86 659.266  14
   6  -2   2 4541.80 722.228   3
  -6   2  -2 3478.00 557.992   6
   6  -2   2 3839.35 363.576  12
  -6   2  -2 3545.66 640.474  11
  -6   2  -3 4791.11 361.847   1
  -6   2  -3 4546.15 560.053   2
  -6   2  -3 3885.85 715.825   4
   6  -2   3 5431.13 821.057   3
  -6   2  -3 4608.46 703.324   7
   6  -2   3 3588.10 835.477  14
  -6   2  -3 3769.33 582.919   6
  -6   2  -3 4112.11 383.592   1
  -6   2  -3 4238.16 646.680   3
  -6   2  -3 4099.82 737.828  11
  -6   2  -3 3967.08 579.827  10
  -6   2  -4 8404.24 1059.30   4
  -6   2  -4 9187.08 809.126   2
   6  -2   4 8818.19 1039.05   3
  -6   2  -4 8231.42 500.083   1
   6  -2   4 9308.02 1230.04  14
  -6   2  -4 8144.94 774.072   6
  -6   2  -4 9937.76 1070.44  11
  -6   2  -4 8230.09 779.637  10
  -6   2  -5 10025.1 1251.01   4
  -6   2  -5 10841.4 929.412   2
   6  -2   5 10808.2 1222.70   3
  -6   2  -5 10437.3 554.222   1
   6  -2   5 10892.8 1350.59  14
  -6   2  -5 9757.36 796.096   6
  -6   2  -5 10272.1 1148.41  11
  -6   2  -5 10279.6 839.212  10
  -6   2  -6-189.750 161.679   6
  -6   2  -6 363.009 275.633   2
  -6   2  -6 190.445 281.781  11
  -6   2  -6 22.8210 181.333  10
  -6   2  -7 3136.94 870.210   4
  -6   2  -7 2979.05 646.497  11
  -6   2  -7 3329.68 570.067   2
  -6   2  -8 351.112 538.728   4
  -6   2  -8 44.6173 138.791  11
  -6   2  -8 463.892 261.416   2
  -6   2  -9-35.6438 360.755   4
  -6   2  -9 307.404 231.460  11
  -6   2  -9-532.762 283.334   2
  -6   1  13 498.975 510.665  15
  -6   1  13 1587.27 622.956   6
  -6   1  12 1729.03 604.213   5
  -6   1  12 194.750 419.639   9
  -6   1  12 1841.21 520.092  15
  -6   1  12 1405.47 463.732   6
   6  -1 -12 1442.00 545.187   1
   6  -1 -12 954.631 439.626   3
  -6   1  11 614.223 420.002   5
  -6   1  11 237.991 327.090   9
  -6   1  11 251.354 295.968  15
  -6   1  11 293.699 211.463   6
   6  -1 -11 270.991 300.243   1
   6  -1 -11 77.7876 292.256   3
  -6   1  10 1468.41 485.258   5
  -6   1  10 1912.93 697.375   9
  -6   1  10 1127.85 497.431   6
   6  -1 -10 1619.91 492.316   1
   6  -1 -10 1105.23 442.418   3
   6  -1  -9 6432.56 840.014   1
  -6   1   9 5095.01 919.157   9
   6  -1  -9 4866.75 609.812   7
   6  -1  -9 4942.59 674.422   3
   6  -1  -9 5621.31 738.032  14
  -6   1   9 5232.16 890.137   6
   6  -1  -9 5185.36 562.505  11
  -6   1   9 5320.54 849.220   5
  -6   1   8 63.5359 296.655   5
  -6   1   8-81.3209 361.523   9
   6  -1  -8 150.075 191.030   2
   6  -1  -8 549.976 299.196  14
  -6   1   8 200.096 321.940   6
   6  -1  -8 110.741 298.715   1
   6  -1  -8 64.3361 163.240  11
   6  -1  -8 107.131 322.848   3
  -6   1   7 2209.03 518.020   5
  -6   1   7 2936.36 274.494   8
   6  -1  -7 2925.43 455.065   2
   6  -1  -7 3179.53 562.250  14
  -6   1   7 2660.64 587.447   6
   6  -1  -7 3169.43 579.586   1
   6  -1  -7 2917.64 437.466  11
   6  -1  -7 2505.80 522.893   3
   6  -1  -6 8108.72 811.091   1
  -6   1   6 9157.60 575.695   8
   6  -1  -6 7859.48 821.017   3
   6  -1  -6 8839.37 881.873  14
  -6   1   6 8514.52 983.398   6
   6  -1  -6 8393.34 754.246  11
   6  -1  -6 9620.76 790.255   5
  -6   1   6 8150.76 813.074   5
   6  -1  -6 8083.43 662.280   2
   6  -1  -5 36221.9 1253.01   2
  -6   1   5 35127.9 1252.43   8
  -6   1   5 35851.0 1549.95   1
   6  -1  -5 35055.6 1187.02   7
   6  -1  -5 34624.7 1620.21   3
   6  -1  -5 33931.7 1721.01  14
  -6   1   5 34008.2 1820.63   6
   6  -1  -5 36254.7 1591.91  11
   6  -1  -5 36406.5 1385.65   5
  -6   1   5 34505.2 1486.50   5
   6  -1  -4 2190.58 283.599   2
  -6   1   4 2010.35 362.545   5
  -6   1   4 1715.12 345.355   1
  -6   1   4 1512.92 302.711   8
   6  -1  -4 1849.57 446.921   4
   6  -1  -4 1627.72 313.286   7
   6  -1  -4 1157.07 456.479  14
  -6   1   4 1790.58 489.687   6
   6  -1  -4 1958.93 421.852  12
   6  -1  -4 1481.07 389.717  11
   6  -1  -4 1484.33 444.921   3
  -6   1   4 1961.50 367.983  11
  -6   1   4 1665.76 320.993   3
   6  -1  -4 1896.36 309.276   5
   6  -1  -3 5120.79 406.491   2
   6  -1  -3 6137.67 805.350   4
  -6   1   3 4953.29 597.512   8
  -6   1   3 5621.68 563.036   1
   6  -1  -3 5550.85 543.998   7
   6  -1  -3 6095.69 783.791   3
   6  -1  -3 5218.84 807.091  14
  -6   1   3 5808.19 554.197   3
  -6   1   3 4882.95 684.628   6
   6  -1  -3 5091.39 680.782   6
  -6   1   3 5601.45 738.871  13
   6  -1  -3 4888.61 631.802  12
   6  -1  -3 5752.87 702.745  11
  -6   1   3 5224.17 563.176  11
   6  -1  -3 5806.80 480.806   5
  -6   1   3 4979.20 471.788   5
   6  -1  -2 5951.74 788.412   4
  -6   1   2 4209.66 469.954   1
   6  -1  -2 4524.55 375.988   2
  -6   1   2 5125.60 636.204   8
   6  -1  -2 4543.55 536.062   7
   6  -1  -2 4572.81 680.687   3
  -6   1   2 4805.25 534.164   3
  -6   1   2 4433.33 535.581  14
   6  -1  -2 4321.23 801.018  14
  -6   1   2 4262.36 633.341   6
   6  -1  -2 4672.53 626.989   6
  -6   1   2 4614.67 682.268  13
   6  -1  -2 4558.92 586.941  12
   6  -1  -2 4549.35 664.781  11
  -6   1   2 5523.77 642.885  11
   6  -1  -2 4730.90 378.877   5
  -6   1   2 4149.38 360.470   5
  -6   1   2 4287.64 412.333   2
  -6   1   1 30199.5 1156.06   1
   6  -1  -1 29480.2 1785.20   4
  -6   1   1 28909.4 1529.42   8
  -6   1   1 30298.0 1546.84   4
   6  -1  -1 29343.2 968.513   2
   6  -1  -1 30113.6 1436.05   7
   6  -1  -1 27551.5 1604.01   3
  -6   1   1 24987.1 1224.15   3
   6  -1  -1 28392.4 1803.56  14
  -6   1   1 27688.6 1416.90  14
  -6   1   1 28603.0 1521.22   6
   6  -1  -1 28055.5 1523.13   6
  -6   1   1 32562.6 1846.63  13
   6  -1  -1 27154.2 1281.35  12
  -6   1   1 27569.0 1409.01  11
  -6   1   1 29193.4 938.077   2
  -6   1   0 8504.69 524.580   2
  -6   1   0 8092.17 591.394   1
   6  -1   0 8157.97 972.935   4
  -6   1   0 7884.89 855.591   4
  -6   1   0 8255.42 874.195   8
   6  -1   0 7838.98 800.162   7
  -6   1   0 8438.98 772.599   7
   6  -1   0 7728.98 908.367   3
   6  -1   0 7584.47 1015.22  14
  -6   1   0 7148.10 776.261  14
  -6   1   0 8035.91 809.901   6
   6  -1   0 7811.99 793.971   6
  -6   1   0 7436.09 937.421  13
   6  -1   0 7889.84 651.631  12
  -6   1   0 7455.00 724.035   3
  -6   1   0 7575.07 811.199  11
  -6   1  -1 2233.51 301.430   1
  -6   1  -1 2137.73 480.743   9
  -6   1  -1 1897.30 288.357   2
  -6   1  -1 2134.19 536.429   4
   6  -1   1 1294.31 445.533   7
  -6   1  -1 2227.65 439.778   7
   6  -1   1 1533.76 587.826  14
   6  -1   1 1726.49 503.946   3
  -6   1  -1 2046.14 446.643   6
   6  -1   1 1994.04 306.399  12
   6  -1   1 2128.64 411.655   6
  -6   1  -1 1597.62 385.058   3
  -6   1  -1 2059.87 469.196  11
  -6   1  -2 17552.7 885.162   2
  -6   1  -2 16816.5 1370.36   4
   6  -1   2 16595.4 1335.96   7
  -6   1  -2 15985.7 1220.43   7
   6  -1   2 17295.9 1416.13   3
  -6   1  -2 17448.4 1243.87   3
   6  -1   2 16433.6 1484.69  14
  -6   1  -2 15221.0 1037.47   6
   6  -1   2 16353.9 1073.18   6
   6  -1   2 16397.9 713.532  12
  -6   1  -2 16185.3 1289.65  11
  -6   1  -2 17213.6 1372.76   9
  -6   1  -3 2953.18 608.314   9
  -6   1  -3 3038.05 427.929   2
  -6   1  -3 2147.22 612.051   4
   6  -1   3 3095.30 636.696   7
  -6   1  -3 3127.20 564.815   7
   6  -1   3 2247.30 616.014  14
   6  -1   3 3374.21 760.004   3
  -6   1  -3 3019.88 399.465   1
  -6   1  -3 2412.74 419.209   6
  -6   1  -3 2446.31 589.259  11
  -6   1  -3 2859.15 471.896  10
  -6   1  -4 2293.55 635.405   4
  -6   1  -4 2298.01 365.270   1
   6  -1   4 2329.76 633.406   7
   6  -1   4 2162.39 697.657  14
   6  -1   4 2014.84 595.353   3
  -6   1  -4 2335.99 420.630   6
  -6   1  -4 2401.47 410.154   2
  -6   1  -4 1841.73 544.025  11
  -6   1  -4 2338.09 377.756  10
  -6   1  -5 794.678 405.447   4
   6  -1   5 1051.96 573.731   7
  -6   1  -5 1334.71 294.615   1
   6  -1   5 934.456 582.120   3
  -6   1  -5 1101.63 299.506   6
  -6   1  -5 933.400 441.249  11
  -6   1  -5 1152.97 311.879   2
  -6   1  -5 1172.68 289.807  10
  -6   1  -5 899.649 132.745   5
  -6   1  -6 628.424 256.880   1
  -6   1  -6 809.751 498.246   4
  -6   1  -6 731.629 204.085   6
  -6   1  -6 534.767 361.001  11
  -6   1  -6 1125.52 336.496   2
  -6   1  -7 1353.97 597.835   4
  -6   1  -7 362.229 316.259  11
  -6   1  -7 814.714 297.715   2
  -6   1  -8 5318.60 1111.02   4
  -6   1  -8 5916.79 1032.30  11
  -6   1  -8 5342.53 752.424   2
  -6   1  -9 735.021 530.053  11
  -6   1  -9 55.1254 128.538   2
  -6   0  13-130.437 182.541   9
  -6   0  13 352.868 336.510  15
  -6   0  13-355.810 291.422   6
  -6   0  12 1230.29 470.879   5
  -6   0  12 3046.66 900.623   9
  -6   0  12 1562.34 622.104  15
  -6   0  12 1379.07 441.164   6
   6   0 -12 2294.41 613.313   1
   6   0 -12 1780.67 509.676   3
   6   0 -11 6644.12 915.781   1
  -6   0  11 5818.66 985.519   5
  -6   0  11 7294.51 1121.84   9
  -6   0  11 6667.38 1026.65  15
   6   0 -11 6255.87 806.422   3
  -6   0  11 6615.52 988.623   6
  -6   0  10 708.906 469.823   5
  -6   0  10 651.200 444.747   9
   6   0 -10 1820.51 429.982  14
  -6   0  10 460.146 348.660   6
   6   0 -10 593.752 439.400   1
  -6   0  10 903.871 278.465  13
   6   0 -10 922.579 403.369   3
  -6   0   9 6139.50 920.205   9
   6   0  -9 6652.50 861.205   1
   6   0  -9 7850.36 882.885   3
   6   0  -9 6386.13 717.546  14
  -6   0   9 6672.98 951.984   6
   6   0  -9 6277.24 555.734  11
  -6   0   9 5811.57 873.389   5
   6   0  -9 5553.12 711.728   2
   6   0  -8 3413.54 599.978   1
  -6   0   8 3066.52 607.291   5
  -6   0   8 3570.29 717.357   9
   6   0  -8 3063.56 488.953   2
   6   0  -8 4057.44 613.080  14
  -6   0   8 2863.72 599.909   6
   6   0  -8 3335.62 424.271  11
   6   0  -8 2958.70 573.204   3
  -6   0   7-29.2026 306.111   5
  -6   0   7-256.965 260.108   9
  -6   0   7 134.858 111.879   8
   6   0  -7-17.3148 99.2113   2
   6   0  -7 90.9711 252.420  14
  -6   0   7-101.511 310.619   6
   6   0  -7 70.0866 173.989  11
   6   0  -7-128.770 383.870   3
   6   0  -7 6.81608 160.495   5
  -6   0   6 2047.47 454.920   5
  -6   0   6 1885.97 276.982   8
   6   0  -6 1889.66 309.263   2
   6   0  -6 1827.18 486.897  14
  -6   0   6 1575.38 508.162   6
   6   0  -6 2231.70 393.480  11
   6   0  -6 1936.65 449.311   3
   6   0  -6 2388.91 437.886   5
   6   0  -5 14560.1 700.419   2
  -6   0   5 13568.1 865.382   8
  -6   0   5 15710.8 1021.01   1
   6   0  -5 14452.6 890.110   7
   6   0  -5 14470.9 1103.40   3
   6   0  -5 14660.3 1155.67  14
  -6   0   5 14058.3 1177.56   6
   6   0  -5 13081.8 939.469  11
  -6   0   5 15821.0 804.297  11
   6   0  -5 14542.4 914.838   5
  -6   0   5 14103.1 957.931   5
   6   0  -4 3225.76 276.634   2
  -6   0   4 3646.82 478.523   1
  -6   0   4 3513.50 468.312   8
   6   0  -4 4244.27 662.306   4
   6   0  -4 3463.16 478.584   7
   6   0  -4 4381.14 657.125  14
  -6   0   4 3715.14 465.429   3
   6   0  -4 3681.21 577.421   6
  -6   0   4 4207.62 683.587   6
  -6   0   4 3524.65 435.543  11
   6   0  -4 3575.98 632.420   3
   6   0  -4 3607.81 451.236   5
  -6   0   4 3388.66 453.825   5
  -6   0   3 1755.64 300.893   5
   6   0  -3 1776.18 180.770   2
  -6   0   3 2157.66 442.274   8
   6   0  -3 1958.62 474.605   4
   6   0  -3 1648.58 355.428   7
   6   0  -3 2138.90 548.675  14
  -6   0   3 1578.65 338.132  14
  -6   0   3 1547.49 461.544   6
   6   0  -3 1543.54 372.886   6
   6   0  -3 1827.28 511.977   3
  -6   0   3 1451.82 366.097  11
  -6   0   3 1634.48 331.230   1
  -6   0   3 1812.60 335.187   3
   6   0  -3 1993.25 317.015   5
  -6   0   2 17940.5 975.062   1
   6   0  -2 18393.2 1395.19   4
  -6   0   2 17107.7 1184.70   8
   6   0  -2 17185.9 1106.62   7
   6   0  -2 18618.1 1334.05   3
  -6   0   2 15788.1 994.304   3
   6   0  -2 18016.5 1422.25  14
  -6   0   2 16638.2 1056.84  14
  -6   0   2 16848.1 1212.61   6
   6   0  -2 19058.8 1242.30   6
  -6   0   2 17546.1 1087.84  11
  -6   0   2 16624.8 730.036   5
  -6   0   1 2277.31 452.593   8
   6   0  -1 2440.17 521.742   4
  -6   0   1 2885.77 567.622   4
   6   0  -1 2903.70 540.046   7
   6   0  -1 2224.30 610.494  14
  -6   0   1 1990.34 443.439  14
  -6   0   1 2094.56 474.661   6
  -6   0   1 2501.74 394.744   1
   6   0  -1 2103.42 524.698   3
   6   0  -1 2274.51 438.346   6
  -6   0   1 2119.05 466.700  11
  -6   0   1 2346.22 439.660   3
  -6   0   1 2325.33 246.573   5
  -6   0   1 2272.34 190.219   2
  -6   0   0 5004.18 317.520   2
  -6   0   0 5062.68 742.287   4
  -6   0   0 5036.90 697.296   8
   6   0   0 4860.88 749.363   4
  -6   0   0 5393.44 634.410   7
   6   0   0 4165.57 657.652   7
  -6   0   0 5128.76 643.147   3
  -6   0   0 4118.64 617.876  14
   6   0   0 4539.18 777.717  14
  -6   0   0 4935.79 666.539   6
   6   0   0 5570.15 659.192   6
  -6   0   0 5677.26 832.745  13
   6   0   0 4349.15 740.531   3
  -6   0   0 4700.00 674.632  11
  -6   0   0 4577.23 267.312   5
  -6   0   0 4315.19 604.604   9
  -6   0  -1 1616.15 445.297   9
  -6   0  -1 1600.17 491.359   4
   6   0   1 2017.31 460.592   7
  -6   0  -1 1841.15 440.510   7
   6   0   1 1771.83 564.028  14
   6   0   1 1750.99 472.328   3
  -6   0  -1 1117.19 361.131   6
  -6   0  -1 1600.56 235.553   2
   6   0   1 1653.83 341.408   6
  -6   0  -1 2040.29 489.582   3
  -6   0  -1 1863.46 481.452  11
  -6   0  -1 1733.01 132.791   5
  -6   0  -1 1791.06 149.166   5
  -6   0  -2 10976.9 1043.26   9
  -6   0  -2 10976.1 1145.35   4
  -6   0  -2 12128.4 680.554   2
   6   0   2 12245.9 1186.13   7
  -6   0  -2 11495.4 1079.54   7
   6   0   2 12157.2 1256.67   3
   6   0   2 10442.4 1208.41  14
  -6   0  -2 11140.6 882.430   6
   6   0   2 11162.4 873.363   6
  -6   0  -2 9976.58 1044.06  11
  -6   0  -2 10752.6 331.315   5
  -6   0  -2 11070.0 346.055   5
  -6   0  -3 27741.6 1705.67   9
  -6   0  -3 29117.0 1945.30   4
  -6   0  -3 31006.3 1192.59   2
   6   0   3 31044.0 1972.51   7
   6   0   3 30589.0 2039.37   3
   6   0   3 28413.0 1990.66  14
  -6   0  -3 27587.4 1322.93   6
   6   0   3 25706.2 1259.92   6
   6   0   3 27957.2 762.896  12
  -6   0  -3 25629.9 1748.65  11
  -6   0  -3 27183.2 692.900   5
  -6   0  -3 26570.4 664.705   5
  -6   0  -4 1676.21 578.157   4
   6   0   4 2174.89 650.516   7
   6   0   4 1641.18 603.120   3
  -6   0  -4 1611.12 321.977   6
  -6   0  -4 1393.13 506.277  11
  -6   0  -4 1738.70 223.172   5
  -6   0  -4 1443.31 361.300   2
  -6   0  -4 1509.23 281.265  10
  -6   0  -4 1331.13 338.856   1
  -6   0  -4 1751.98 271.927  10
  -6   0  -5 1012.47 496.444   4
   6   0   5 897.924 581.964   7
   6   0   5 654.482 530.551   3
  -6   0  -5 1172.31 266.206   6
  -6   0  -5 416.389 318.443  11
  -6   0  -5 1236.56 338.451   2
  -6   0  -5 1122.50 317.910   1
  -6   0  -5 1009.63 167.425  10
  -6   0  -5 954.741 158.640  10
  -6   0  -5 1285.54 221.213   5
  -6   0  -6 1363.21 563.230   4
  -6   0  -6 1330.63 327.088   1
   6   0   6 782.205 497.739   7
  -6   0  -6 1041.61 522.687  11
  -6   0  -6 1549.38 414.189   2
  -6   0  -7 105.477 183.526   1
  -6   0  -7 687.396 506.540   4
   6   0   7 80.3195 323.047   7
  -6   0  -7 312.201 414.815  11
  -6   0  -7 660.795 283.653   2
  -6   0  -8-365.620 439.500   4
  -6   0  -8 116.605 304.549  11
  -6   0  -8-303.769 205.244   2
  -6   0  -9 125.938 261.033   2
  -6  -1  13-413.152 313.644   9
  -6  -1  13 135.234 164.155  15
   6   1 -13 510.403 300.866  14
  -6  -1  13-305.167 298.997   6
  -6  -1  12 2053.11 657.678   5
  -6  -1  12 1757.41 475.264   9
  -6  -1  12 2219.96 699.814  15
   6   1 -12 2100.30 451.243  14
  -6  -1  12 2077.44 572.746   6
   6   1 -12 1790.24 579.225   3
  -6  -1  11 4438.78 857.901   5
  -6  -1  11 4207.62 825.563   9
  -6  -1  11 4757.79 867.656  15
   6   1 -11 4610.81 628.430  14
  -6  -1  11 4476.84 610.507  13
  -6  -1  11 3451.34 775.341   6
   6   1 -11 3985.49 706.550   3
  -6  -1  10 960.540 488.153   5
  -6  -1  10 1733.34 609.020   9
   6   1 -10 1189.32 339.508  14
  -6  -1  10 396.786 375.732   6
   6   1 -10 254.335 400.057   3
  -6  -1   9 339.673 413.525   5
  -6  -1   9-375.524 401.785   9
   6   1  -9 127.822 300.656  14
  -6  -1   9 99.7079 468.986   6
   6   1  -9 35.2498 391.678   3
   6   1  -9 113.931 149.782   2
  -6  -1   8 8437.93 964.422   9
  -6  -1   8 7388.00 338.634   8
   6   1  -8 7692.21 911.474   3
   6   1  -8 8085.81 822.142  14
  -6  -1   8 7618.86 957.061   6
  -6  -1   8 7951.89 920.953   5
   6   1  -8 6080.34 672.485   2
  -6  -1   7 12757.0 1090.37   9
  -6  -1   7 13286.4 698.300   8
   6   1  -7 12074.1 1033.02   3
   6   1  -7 12662.0 1013.44  14
  -6  -1   7 13193.3 1238.94   6
  -6  -1   7 12785.2 1077.88   5
   6   1  -7 11800.0 825.224   2
  -6  -1   6 5109.73 646.760   9
  -6  -1   6 4773.80 509.055   8
  -6  -1   6 4822.80 790.214   6
   6   1  -6 3975.33 647.910  14
   6   1  -6 4838.95 581.846   5
   6   1  -6 3487.96 639.775   3
  -6  -1   6 4059.92 589.272   5
   6   1  -6 4078.64 414.975   2
  -6  -1   5 3590.64 488.787   8
   6   1  -5 3408.23 563.608  14
  -6  -1   5 2557.43 605.508   6
  -6  -1   5 3479.60 389.361  11
   6   1  -5 3661.27 516.565   5
   6   1  -5 3691.15 623.337   3
  -6  -1   5 3355.38 493.957   5
   6   1  -5 3660.35 310.408   2
   6   1  -4 1043.96 101.663   2
   6   1  -4 847.492 94.0361   2
  -6  -1   4 1215.01 293.843   8
   6   1  -4 831.422 359.047   4
   6   1  -4 1380.49 361.281   7
   6   1  -4 1247.86 406.638  14
  -6  -1   4 1385.56 481.743   6
   6   1  -4 978.551 326.951   6
   6   1  -4 1375.98 441.180   3
  -6  -1   4 1593.18 329.099   1
  -6  -1   4 1167.80 296.998  11
   6   1  -4 1337.39 341.354   5
  -6  -1   4 1221.85 311.277   3
  -6  -1   4 1632.90 445.521  10
  -6  -1   4 830.369 256.250   5
  -6  -1   3 28066.4 1296.35   1
   6   1  -3 30080.6 1795.27   4
  -6  -1   3 26738.9 1477.79   8
   6   1  -3 26476.7 1432.95   7
   6   1  -3 28046.4 1696.62   3
   6   1  -3 27854.3 1661.88  14
  -6  -1   3 27474.7 1287.02   3
  -6  -1   3 26941.5 1248.94  14
  -6  -1   3 28694.8 1617.84   6
   6   1  -3 26553.2 1504.15   6
  -6  -1   3 28127.0 1282.54  11
   6   1  -3 28340.7 1246.61   5
  -6  -1   3 26858.3 1109.61   5
  -6  -1   3 28332.2 1561.95  10
  -6  -1   2 620.554 263.747   8
   6   1  -2 315.710 345.505   4
   6   1  -2 268.412 292.358   7
   6   1  -2-25.0056 284.849  14
  -6  -1   2 256.869 173.951  14
  -6  -1   2 246.555 183.816   1
  -6  -1   2 33.1348 335.839   6
   6   1  -2 212.631 196.527   6
   6   1  -2 412.862 339.855   3
  -6  -1   2 283.609 236.861  11
  -6  -1   2 212.250 197.533   3
  -6  -1   2 205.964 178.727   5
  -6  -1   2 640.017 266.215  10
   6   1  -1 32196.4 1920.19   4
  -6  -1   1 30166.5 1692.13   8
  -6  -1   1 33420.1 1711.49   4
   6   1  -1 30743.7 1672.74   7
   6   1  -1 31520.9 1843.63   3
  -6  -1   1 31883.8 1561.02   3
   6   1  -1 31865.9 1858.49  14
  -6  -1   1 31067.1 1577.04  14
  -6  -1   1 30951.7 1595.54   6
   6   1  -1 30633.7 1548.83   6
  -6  -1   1 28784.1 1545.29  11
  -6  -1   1 31835.1 1020.30   5
  -6  -1   1 32552.4 1565.30  10
  -6  -1   1 28871.7 1328.53   9
  -6  -1   0 20618.2 1440.74   4
  -6  -1   0 19338.7 1415.40   8
   6   1   0 20105.5 1435.24   7
   6   1   0 19577.8 1505.20   3
  -6  -1   0 20054.7 1336.23   3
   6   1   0 22190.8 1591.08  14
  -6  -1   0 19120.5 1312.68  14
  -6  -1   0 19332.2 1237.48   6
   6   1   0 20705.0 1248.03   6
  -6  -1   0 19351.9 1347.78  11
  -6  -1   0 21031.7 783.544   5
  -6  -1   0 20856.7 1204.20  10
  -6  -1   0 18253.9 1113.15   9
  -6  -1  -1 154.370 173.252   9
  -6  -1  -1-231.814 396.526   4
   6   1   1-494.182 378.081   7
  -6  -1  -1-8.27134 181.173   7
   6   1   1 359.023 406.740  14
   6   1   1 126.839 346.152   3
  -6  -1  -1-68.3837 215.422   6
   6   1   1 76.1078 138.330   6
  -6  -1  -1-72.0036 90.8112   2
  -6  -1  -1-18.7087 151.744  11
  -6  -1  -1-32.1542 122.626   5
  -6  -1  -1 324.679 164.456  10
  -6  -1  -2 1714.19 431.357   9
  -6  -1  -2 2078.09 280.083   2
  -6  -1  -2 1959.27 581.190   4
   6   1   2 2454.33 624.294   7
   6   1   2 1972.76 569.053  14
   6   1   2 2299.72 629.130   3
  -6  -1  -2 1867.27 406.858   6
   6   1   2 2149.21 407.276   6
  -6  -1  -2 2358.52 310.300   5
  -6  -1  -2 2394.77 558.243  11
  -6  -1  -2 2111.27 348.318  10
  -6  -1  -3-62.0425 94.6210   5
  -6  -1  -3 682.373 320.146   9
  -6  -1  -3 523.858 283.202   4
   6   1   3-190.524 340.446   7
   6   1   3 665.203 405.563   3
  -6  -1  -3 44.0433 209.318   6
   6   1   3-40.4335 119.118   6
  -6  -1  -3-109.183 288.594  11
  -6  -1  -3 23.5407 155.218   2
  -6  -1  -3 93.0525 138.773  10
  -6  -1  -4 2221.70 320.998   5
  -6  -1  -4 1717.41 458.799   9
  -6  -1  -4 1763.89 581.647   4
   6   1   4 2494.95 657.060   7
  -6  -1  -4 2502.11 481.194   1
   6   1   4 2496.31 785.737   3
  -6  -1  -4 2134.84 368.134   6
   6   1   4 2033.59 227.247  12
   6   1   4 1898.83 318.905   6
  -6  -1  -4 1371.24 521.984  11
  -6  -1  -4 1797.68 214.164  10
  -6  -1  -4 2197.76 233.839  10
  -6  -1  -4 2011.34 388.496   2
  -6  -1  -5 161.915 131.987   5
  -6  -1  -5-85.3019 193.460   1
  -6  -1  -5 182.637 404.771   4
   6   1   5 240.982 376.083   7
   6   1   5-231.617 463.088   3
  -6  -1  -5 76.8057 258.096  11
  -6  -1  -5 69.1871 209.166   2
  -6  -1  -6 3808.07 897.982   4
   6   1   6 3917.89 971.620   7
  -6  -1  -6 3780.24 585.536   1
  -6  -1  -6 3092.07 766.706  11
  -6  -1  -6 3968.38 586.852   2
  -6  -1  -7 1062.83 620.800   4
  -6  -1  -7 959.051 329.531   1
   6   1   7 919.972 422.902   7
  -6  -1  -7 1112.68 439.839  11
  -6  -1  -7 1236.60 440.225   2
  -6  -1  -8 338.615 557.828   4
   6   1   8 193.057 332.636   7
  -6  -1  -8 389.409 312.355  11
  -6  -1  -8 602.742 240.107   1
  -6  -1  -8 437.920 290.389   2
  -6  -1  -9 927.036 471.310   2
   6   2 -14 88.8965 251.403   2
  -6  -2  13 2377.67 714.934   9
  -6  -2  13 1572.35 679.924  15
   6   2 -13 1802.59 489.405   2
  -6  -2  12-70.9791 302.704   5
  -6  -2  12 439.166 309.248   9
  -6  -2  12 456.449 322.406  15
   6   2 -12 131.952 249.353  14
  -6  -2  12-582.751 432.329   6
   6   2 -12-545.138 403.444   3
   6   2 -12-178.315 293.996   2
  -6  -2  11 1911.20 647.824   5
  -6  -2  11 1865.01 556.975   9
  -6  -2  11 2300.62 678.475  15
   6   2 -11 1745.74 401.225  14
  -6  -2  11 1831.74 514.462   6
  -6  -2  11 1974.47 454.958  13
   6   2 -11 1274.98 527.711   3
   6   2 -11 1664.86 399.224   2
  -6  -2  10 3989.73 736.846   5
  -6  -2  10 2682.18 697.284   9
   6   2 -10 4559.29 626.470  14
  -6  -2  10 3663.19 760.111   6
   6   2 -10 2424.21 606.512   3
  -6  -2   9 121.116 336.065   5
  -6  -2   9 353.168 307.329   9
   6   2  -9-2.59730 264.241  14
  -6  -2   9 605.946 363.954   6
   6   2  -9-180.209 501.420   3
   6   2  -9 253.773 258.829   2
  -6  -2   8 57.3324 252.762   5
  -6  -2   8-92.1613 242.624   9
  -6  -2   8 53.4216 102.333   8
   6   2  -8 159.814 255.489  14
  -6  -2   8 259.710 344.610   6
   6   2  -8 411.362 453.480   3
   6   2  -8-190.435 171.274   2
  -6  -2   7 14947.6 1123.57   9
  -6  -2   7 15375.9 929.043   8
   6   2  -7 16238.9 852.966   2
   6   2  -7 14412.4 1216.12   3
   6   2  -7 16161.3 1150.76  14
  -6  -2   7 15462.6 1352.37   6
  -6  -2   7 16044.4 1185.41   5
  -6  -2   6 1176.79 368.023   9
  -6  -2   6 723.274 253.513   8
   6   2  -6 777.229 195.076   2
   6   2  -6 725.664 333.901  14
  -6  -2   6 1101.25 418.574   6
   6   2  -6 507.715 394.298   3
  -6  -2   6 888.717 187.074  11
   6   2  -6 1535.63 395.617   5
   6   2  -6 990.227 205.279   2
  -6  -2   6 1152.47 393.448   5
  -6  -2   5 6023.95 600.778   9
  -6  -2   5 4852.76 613.301   8
   6   2  -5 5657.98 316.274   2
   6   2  -5 5871.10 843.001   3
   6   2  -5 6206.50 756.562  14
  -6  -2   5 6409.02 840.871   6
  -6  -2   5 5885.67 507.458  11
   6   2  -5 7003.29 748.233   5
  -6  -2   5 5879.27 642.545   5
   6   2  -5 5403.30 315.806   2
   6   2  -4 2074.46 539.022   4
   6   2  -4 1782.54 410.284   7
   6   2  -4 1686.08 465.546  14
  -6  -2   4 1656.14 470.970   6
   6   2  -4 1795.50 540.231   3
  -6  -2   4 1521.54 310.063  11
   6   2  -4 1405.41 383.114   5
  -6  -2   4 1819.98 362.987   5
  -6  -2   4 1690.29 471.055  10
  -6  -2   3 26.0694 176.699   1
   6   2  -3 515.119 398.360   4
   6   2  -3 263.452 290.241   7
   6   2  -3 254.463 253.162  14
  -6  -2   3 305.715 192.323  14
  -6  -2   3-148.915 219.772   6
   6   2  -3 514.497 261.562   6
   6   2  -3-507.622 416.037   3
  -6  -2   3 20.0383 148.056  11
  -6  -2   3 149.255 168.676   5
  -6  -2   3 127.675 185.466  10
   6   2  -2 9626.07 1061.67   4
   6   2  -2 9921.31 1004.42   7
   6   2  -2 10372.6 1144.24   3
   6   2  -2 9848.09 1021.15  14
  -6  -2   2 9752.65 839.670  14
  -6  -2   2 9359.62 959.187   6
   6   2  -2 9940.44 916.433   6
  -6  -2   2 10217.0 903.196  11
  -6  -2   2 10189.8 708.241   5
  -6  -2   2 10679.8 952.985  10
  -6  -2   2 8304.65 610.311   9
  -6  -2   1 543.123 247.817   9
  -6  -2   1 832.632 319.252   8
   6   2  -1 531.095 402.487   4
  -6  -2   1 264.707 362.477   4
   6   2  -1 198.959 328.017   7
   6   2  -1 809.443 460.232  14
  -6  -2   1 493.188 268.435  14
  -6  -2   1 257.108 348.881   6
   6   2  -1 469.005 388.607   3
   6   2  -1 905.783 321.427   6
  -6  -2   1 498.055 317.522  11
  -6  -2   1 560.894 227.523   5
  -6  -2   1 519.529 310.881  10
  -6  -2   0 30657.2 1251.80   9
  -6  -2   0 29945.5 1741.83   4
   6   2   0 31284.5 1893.16   7
   6   2   0 30772.8 1922.82   3
   6   2   0 27585.4 1788.18  14
  -6  -2   0 28675.4 1642.77  14
  -6  -2   0 29876.3 1576.79   6
   6   2   0 28088.5 1456.31   6
  -6  -2   0 28763.3 1675.55  11
  -6  -2   0 30693.6 1165.47   5
  -6  -2   0 30241.1 1457.41  10
  -6  -2  -1 7762.61 713.734   9
  -6  -2  -1 8139.49 989.839   4
  -6  -2  -1 8678.07 407.039   2
   6   2   1 7768.53 1067.45   7
   6   2   1 8121.47 1083.14   3
   6   2   1 8683.55 1104.28  14
  -6  -2  -1 9550.79 881.143   6
   6   2   1 7587.10 742.904   6
  -6  -2  -1 8026.69 629.710   5
  -6  -2  -1 8750.31 726.669  10
  -6  -2  -1 8206.20 428.513   2
  -6  -2  -2 701.863 229.252   9
  -6  -2  -2 899.240 200.483   2
  -6  -2  -2 744.653 479.799   4
   6   2   2 893.522 461.913   7
   6   2   2 660.995 363.339   3
  -6  -2  -2 951.185 277.869   6
   6   2   2 344.591 150.272   6
  -6  -2  -2 959.667 218.542   2
  -6  -2  -2 537.343 180.007  10
  -6  -2  -3 1330.29 416.125   9
  -6  -2  -3 1610.28 488.858   4
   6   2   3 1416.92 537.863   7
   6   2   3 1416.95 630.288   3
  -6  -2  -3 1627.87 361.474   6
   6   2   3 1813.38 339.520   6
  -6  -2  -3 1737.73 260.942  10
  -6  -2  -3 1628.98 293.261   2
  -6  -2  -4 1947.38 353.468   5
  -6  -2  -4 1680.45 432.278   9
  -6  -2  -4 2543.32 653.820   4
   6   2   4 2299.40 677.282   7
   6   2   4 2740.15 731.708   3
   6   2   4 1602.86 285.407   6
   6   2   4 2546.96 362.669  12
  -6  -2  -4 1420.04 433.280   1
  -6  -2  -4 2192.88 397.943   2
  -6  -2  -5-53.1667 151.387   5
  -6  -2  -5-90.3414 446.181   4
   6   2   5 250.104 283.731   7
  -6  -2  -5-10.2770 99.7418   1
   6   2   5-455.845 369.638   3
   6   2   5-45.0229 59.8058  12
  -6  -2  -5-363.106 239.280   2
  -6  -2  -6-660.430 369.256   4
   6   2   6-56.0228 137.296   7
  -6  -2  -6 367.403 293.287   1
  -6  -2  -6-252.774 210.803   2
  -6  -2  -7 469.958 380.044   4
   6   2   7 1006.49 515.072   7
  -6  -2  -7 1269.73 409.796   1
  -6  -2  -7 1634.97 418.494   2
  -6  -2  -8 743.293 338.549   1
  -6  -2  -8 367.422 268.437   2
  -6  -2  -9 22.9884 293.880   2
  -6  -3  13-982.857 694.386   9
   6   3 -13-477.332 318.758   2
  -6  -3  12 802.481 481.815   5
  -6  -3  12 1246.37 442.486   9
  -6  -3  12 1638.53 666.382  15
  -6  -3  12 1280.22 380.614  13
   6   3 -12 1164.11 566.075   3
   6   3 -12 679.654 351.132   2
  -6  -3  11 328.355 340.562   5
  -6  -3  11 622.798 354.237   9
  -6  -3  11 3.71855 295.990  15
  -6  -3  11 830.863 393.425   6
   6   3 -11-158.180 170.605  14
  -6  -3  11 502.335 283.991  13
   6   3 -11-488.497 396.415   3
   6   3 -11-66.0717 206.167   2
  -6  -3  10 1322.67 485.511   5
  -6  -3  10 1543.61 468.471   9
  -6  -3  10 1612.54 623.947  15
   6   3 -10 1514.56 374.716  14
  -6  -3  10 1731.59 532.241   6
   6   3 -10 607.911 452.203   3
   6   3 -10 1135.61 348.752   2
  -6  -3   9 3817.45 713.691   5
  -6  -3   9 2888.29 554.319   9
  -6  -3   9 4207.34 333.749   8
   6   3  -9 3616.48 525.836   2
   6   3  -9 3042.19 537.685  14
  -6  -3   9 4326.38 799.499   6
   6   3  -9 4317.49 727.841   3
  -6  -3   8 2456.60 461.068   9
   6   3  -8 3028.67 434.562   2
   6   3  -8 2589.15 492.280  14
  -6  -3   8 2923.50 661.323   6
   6   3  -8 2330.05 570.467   3
  -6  -3   8 2677.06 623.667   5
  -6  -3   7 3402.82 522.663   9
   6   3  -7 3675.82 407.672   2
   6   3  -7 3475.82 543.924  14
  -6  -3   7 3318.51 718.309   6
   6   3  -7 3699.96 724.236   3
  -6  -3   7 2899.22 553.055   5
  -6  -3   6 1018.77 273.836   9
   6   3  -6 871.829 347.366  14
  -6  -3   6 876.252 370.570   6
   6   3  -6 1080.07 211.404   2
   6   3  -6 669.503 475.982   3
  -6  -3   6 1164.80 216.191  11
  -6  -3   6 699.822 344.787   5
  -6  -3   5 16040.4 837.871   9
   6   3  -5 14782.6 464.603   2
   6   3  -5 18011.2 1490.62   3
   6   3  -5 17136.1 1196.49  14
  -6  -3   5 16370.0 1368.35   6
  -6  -3   5 17076.9 866.890  11
   6   3  -5 16044.9 1218.77   5
  -6  -3   5 14714.0 1031.64   5
  -6  -3   4 6270.38 436.213   9
   6   3  -4 6838.24 901.003   4
   6   3  -4 7111.52 855.752   7
   6   3  -4 6429.62 956.121   3
   6   3  -4 6985.31 803.423  14
  -6  -3   4 7372.86 618.287  14
  -6  -3   4 6678.74 875.213   6
  -6  -3   4 6487.58 648.031  11
  -6  -3   4 6776.26 686.754   5
  -6  -3   3 19615.8 613.060   9
   6   3  -3 20743.8 1584.77   4
   6   3  -3 19476.5 1438.95   7
   6   3  -3 18308.0 1504.21   3
   6   3  -3 20016.4 1371.99  14
  -6  -3   3 18569.0 1098.37  14
  -6  -3   3 19411.1 1429.85   6
  -6  -3   3 19276.1 1182.27  11
  -6  -3   3 18495.9 1069.65   5
  -6  -3   3 19474.7 1365.02  10
  -6  -3   3 16774.5 589.426   9
  -6  -3   2 22332.8 630.747   9
   6   3  -2 26097.0 1747.39   4
   6   3  -2 22723.6 1609.85   7
   6   3  -2 23499.6 1718.01   3
   6   3  -2 22182.6 1506.51  14
  -6  -3   2 22905.7 1336.42  14
  -6  -3   2 24399.3 1569.57   6
   6   3  -2 22759.3 1432.23   6
  -6  -3   2 24563.9 1211.77   5
  -6  -3   2 24029.4 1448.73  10
  -6  -3   1 1061.29 191.469   9
  -6  -3   1 876.943 456.245   4
   6   3  -1 740.731 475.017   7
   6   3  -1 975.678 441.825  14
  -6  -3   1 695.958 293.715  14
  -6  -3   1 650.776 374.505   6
   6   3  -1 1006.94 588.560   3
   6   3  -1 1765.99 382.396   6
  -6  -3   1 1013.78 346.814   5
  -6  -3   1 1546.71 391.166  10
  -6  -3   0 19926.6 841.320   9
  -6  -3   0 20654.6 1493.47   4
   6   3   0 20143.0 1628.62   7
   6   3   0 17510.0 1537.95   3
  -6  -3   0 17209.8 1330.65  14
  -6  -3   0 20672.5 1374.14   6
   6   3   0 18859.3 1231.87   6
  -6  -3   0 18988.1 1070.04   5
  -6  -3   0 19462.9 1194.30  10
  -6  -3  -1 8212.89 628.510   9
  -6  -3  -1 8382.07 436.411   2
  -6  -3  -1 7731.47 995.625   4
   6   3   1 9109.34 1142.32   7
   6   3   1 9328.85 1186.90   3
  -6  -3  -1 8177.93 825.107   6
   6   3   1 7748.84 760.706   6
  -6  -3  -1 8783.02 772.710   5
  -6  -3  -1 8165.27 723.013  10
  -6  -3  -2 958.416 301.806   9
  -6  -3  -2 689.362 313.290   4
  -6  -3  -2 1134.23 218.344   2
   6   3   2 1822.45 603.894   7
   6   3   2 1271.22 561.955   3
   6   3   2 722.329 302.974   6
  -6  -3  -2 980.780 222.724  10
  -6  -3  -3 1130.92 342.939   9
  -6  -3  -3 1059.36 413.964   4
  -6  -3  -3 581.593 222.486   2
   6   3   3 872.859 461.547   7
   6   3   3 1519.79 557.563   3
   6   3   3 663.121 226.585   6
  -6  -3  -3 855.476 174.923  10
  -6  -3  -4 3276.39 572.964   9
  -6  -3  -4 2870.27 690.618   4
  -6  -3  -4 3334.98 515.454   2
   6   3   4 3906.17 872.860   7
   6   3   4 2184.74 624.280   3
  -6  -3  -4 3212.17 639.390   1
   6   3   4 3536.36 495.463  12
  -6  -3  -5 846.565 375.753   4
   6   3   5 430.274 342.280   7
  -6  -3  -5 435.487 326.398   1
   6   3   5 536.468 410.899   3
   6   3   5 673.069 217.481  12
  -6  -3  -6 1736.44 654.816   4
   6   3   6 2042.89 666.326   7
  -6  -3  -6 2142.29 543.718   1
  -6  -3  -7 496.359 366.814   4
   6   3   7 1479.84 624.608   7
  -6  -3  -7 2245.86 545.472   1
   6   3   7 2523.25 628.743   9
  -6  -3  -8 261.189 401.887   1
   6   3   8 11.1620 214.264   9
  -6  -4  13 1346.97 697.898   9
   6   4 -13 997.993 350.934   2
  -6  -4  12-5.34867 399.339   9
  -6  -4  12 633.505 321.051  13
   6   4 -12 341.228 437.988   3
   6   4 -12 757.347 281.839   2
  -6  -4  11 198.701 361.979   5
  -6  -4  11 100.588 159.053   9
  -6  -4  11 430.339 426.248  15
  -6  -4  11 595.540 299.442  13
   6   4 -11 198.667 372.498   3
   6   4 -11 187.655 270.165   2
  -6  -4  10-251.255 331.542   5
  -6  -4  10-332.949 214.591   9
  -6  -4  10-306.511 341.484  15
   6   4 -10-53.4954 328.408   3
   6   4 -10-24.3893 138.461   2
  -6  -4   9 10929.1 1057.77   9
   6   4  -9 9933.46 820.318   2
   6   4  -9 10608.8 1156.14   3
   6   4  -9 10028.4 831.274  14
  -6  -4   9 9327.74 1047.75   5
  -6  -4   8 453.596 233.654   9
   6   4  -8 484.484 232.914  14
   6   4  -8 456.919 160.624   2
   6   4  -8 491.900 343.763   3
  -6  -4   8 160.013 281.955   5
  -6  -4   7 3641.36 508.529   9
   6   4  -7 3636.56 433.574   2
  -6  -4   7 4031.46 784.704   6
   6   4  -7 3512.41 524.708  14
   6   4  -7 3068.03 709.209   3
  -6  -4   7 2993.72 589.818   5
  -6  -4   6-22.0505 137.000   9
   6   4  -6-97.9608 165.454  14
  -6  -4   6-262.276 442.154   6
   6   4  -6 117.916 128.868   2
   6   4  -6 242.623 339.170   3
  -6  -4   6 8.62103 25.2819  11
  -6  -4   6 21.5086 297.652   5
  -6  -4   5 283.266 91.6969   9
   6   4  -5 257.138 92.5479   2
   6   4  -5-41.3307 228.940  14
  -6  -4   5 113.511 420.733   6
   6   4  -5 83.7369 388.447   3
  -6  -4   5 153.122 145.810  11
  -6  -4   5 178.170 294.868   5
   6   4  -4 106.729 207.318   7
   6   4  -4 673.408 346.913  14
  -6  -4   4 260.094 145.371  14
  -6  -4   4 177.732 351.842   6
   6   4  -4 72.8478 336.260   3
  -6  -4   4 128.235 124.468  11
  -6  -4   4 145.063 247.001   5
   6   4  -3 1457.60 499.030   7
  -6  -4   3 1220.13 474.914   6
   6   4  -3 934.271 342.204  14
  -6  -4   3 786.749 240.062  14
   6   4  -3 177.659 382.445   3
  -6  -4   3 775.869 304.285   5
   6   4  -2 2675.89 692.697   7
  -6  -4   2 3536.07 526.417  14
   6   4  -2 3585.02 727.681   3
  -6  -4   2 3889.60 589.311   5
  -6  -4   2 4272.64 678.268  10
  -6  -4   1 17680.8 1309.91   4
   6   4  -1 19036.1 1601.63   7
   6   4  -1 18378.9 1598.75   3
  -6  -4   1 19420.3 1327.62  14
  -6  -4   1 17572.8 1138.76   5
  -6  -4   1 19594.5 1308.67  10
  -6  -4   0 4418.70 275.841   2
  -6  -4   0 3797.29 690.535   4
   6   4   0 5721.43 963.998   7
   6   4   0 4197.45 886.941   3
   6   4   0 4176.77 644.367   6
  -6  -4   0 4208.84 619.298   5
  -6  -4   0 4416.24 608.494  10
  -6  -4  -1 1257.50 460.619   4
   6   4   1 1686.97 667.057   7
  -6  -4  -1 1542.15 231.266   2
   6   4   1 1175.45 652.654   3
   6   4   1 2043.05 419.790   6
  -6  -4  -1 1096.08 392.257   5
  -6  -4  -1 1206.69 282.822  10
  -6  -4  -2 9758.95 632.891   2
  -6  -4  -2 8676.06 1127.31   4
   6   4   2 9778.33 1310.54   7
   6   4   2 9123.83 1281.76   3
   6   4   2 8786.74 836.925   6
  -6  -4  -2 10285.6 772.649  10
  -6  -4  -3 1674.74 538.228   4
   6   4   3 1224.80 482.874   7
   6   4   3 1167.41 555.179   3
   6   4   3 1108.36 278.103   6
  -6  -4  -3 2152.04 537.593   1
  -6  -4  -4 13.1061 244.283   4
   6   4   4-142.774 263.817   7
  -6  -4  -4-233.899 332.169   1
   6   4   4 474.993 609.826   3
   6   4   4-52.2941 173.702  12
  -6  -4  -5 1505.42 603.559   4
   6   4   5 1338.98 553.903   3
   6   4   5 1750.94 659.714   7
  -6  -4  -5 532.350 447.179   1
   6   4   5 1412.17 387.688  12
  -6  -4  -6 272.756 358.808   4
   6   4   6 686.841 474.771   7
  -6  -4  -6 790.120 393.267   1
   6   4   6 659.171 316.767   9
  -6  -4  -7 735.380 350.113   1
  -6  -4  -8-161.730 308.657   1
  -6  -5  12-75.7115 232.243  13
   6   5 -12 97.7382 209.696   3
  -6  -5  11 325.998 281.249   5
  -6  -5  11-48.3339 331.331  15
  -6  -5  11 432.473 342.288  13
   6   5 -11 469.541 241.679   2
   6   5 -11-230.490 287.869   3
  -6  -5  10 104.278 327.675  15
  -6  -5  10 755.894 444.278  13
   6   5 -10 292.540 247.422   2
   6   5 -10-129.577 381.020   3
  -6  -5  10 169.517 266.238   5
  -6  -5   9-59.1080 109.970   9
  -6  -5   9 262.429 321.960  15
   6   5  -9 190.266 183.488   2
   6   5  -9 230.118 367.875   3
  -6  -5   9-117.873 298.658   5
  -6  -5   8 298.722 234.180   9
   6   5  -8-138.444 190.706   2
   6   5  -8 541.163 470.916   3
  -6  -5   8-240.057 299.589   5
   6   5  -7 3236.23 424.236   2
   6   5  -7 3475.11 494.688  14
   6   5  -7 3893.61 814.853   3
  -6  -5   7 3210.91 610.479   5
  -6  -5   7 2921.72 364.904   9
   6   5  -6 1439.31 344.114  14
   6   5  -6 1527.80 277.715   2
   6   5  -6 1663.70 608.484   3
  -6  -5   6 1286.98 248.358  11
  -6  -5   6 1433.20 464.140   5
   6   5  -5 16809.1 704.477   2
   6   5  -5 16046.2 1526.91   3
  -6  -5   5 14131.5 947.257  11
  -6  -5   5 16764.9 1267.71   5
   6   5  -4 20706.0 1604.07   7
   6   5  -4 21521.6 1765.06   3
  -6  -5   4 19680.0 980.937  14
  -6  -5   4 18977.8 1309.84   5
   6   5  -4 18027.1 668.108   2
   6   5  -3 1255.92 523.250   7
  -6  -5   3 781.072 253.179  14
   6   5  -3 678.077 529.434   3
  -6  -5   3 999.542 378.548   5
   6   5  -2 274.919 320.064   7
  -6  -5   2 324.553 167.466  14
   6   5  -2 136.325 327.876   3
  -6  -5   2 199.050 312.422   5
  -6  -5   1 2534.73 237.295   2
  -6  -5   1 2087.95 523.314   4
   6   5  -1 2223.29 701.578   7
  -6  -5   1 2199.84 477.116  14
   6   5  -1 2403.36 681.645   3
  -6  -5   1 2274.77 473.949   5
  -6  -5   1 2761.42 529.590  10
  -6  -5   0 88.9078 181.152   4
   6   5   0 575.811 549.638   7
   6   5   0 179.487 389.611   3
  -6  -5   0 226.644 102.333   2
  -6  -5   0 319.485 319.429   5
  -6  -5   0 517.318 262.857  10
  -6  -5  -1 526.330 331.254   4
   6   5   1-59.3009 247.609   7
   6   5   1 269.071 356.234   3
  -6  -5  -1 319.471 273.408   5
  -6  -5  -1 18.7427 227.611  10
  -6  -5  -2 417.273 419.498   4
   6   5   2-356.877 354.504   7
   6   5   2 79.2905 244.028   3
  -6  -5  -3-115.261 303.207   1
  -6  -5  -3-3.47534 157.839   4
   6   5   3 810.418 523.205   7
   6   5   3 401.175 450.643   3
   6   5   3 343.191 188.576  12
  -6  -5  -4 672.262 378.945   1
  -6  -5  -4 572.269 307.331   4
   6   5   4 744.008 566.924   7
   6   5   4 717.301 555.961   3
   6   5   4 1579.56 395.919  12
  -6  -5  -5 687.534 493.157   4
  -6  -5  -5 1262.65 532.603   1
   6   5   5 1644.18 774.466   7
  -6  -5  -6-112.369 408.646   4
  -6  -5  -6 160.867 179.959   1
  -6  -6  12 1139.34 434.898  13
  -6  -6  11 3037.90 801.409  13
   6   6 -11 2896.77 768.870   3
  -6  -6  10 75.8014 368.459  15
  -6  -6  10 710.106 470.733  13
   6   6 -10-159.501 365.839   3
  -6  -6  10-19.2319 278.542   5
  -6  -6   9 3346.48 843.809  15
   6   6  -9 2848.73 519.707   2
   6   6  -9 4861.23 927.574   3
  -6  -6   9 3360.84 716.635   5
  -6  -6   8-152.959 428.657  15
   6   6  -8 174.964 150.410   2
   6   6  -8 20.1724 290.380   3
  -6  -6   8 236.763 300.173   5
  -6  -6   7 1905.04 580.109  15
   6   6  -7 1227.95 343.910   2
   6   6  -7 1628.49 556.865   3
  -6  -6   7 1370.17 497.042   5
   6   6  -7 62.2929 370.205  10
   6   6  -6 51.0797 134.846   2
   6   6  -6-147.068 309.836   3
  -6  -6   6 206.368 122.157  11
  -6  -6   6 54.8866 261.338   5
   6   6  -6 130.346 235.494  10
   6   6  -5 355.818 121.411   2
   6   6  -5-182.273 395.105   3
  -6  -6   5 191.823 236.828   5
   6   6  -5 113.463 178.800  10
   6   6  -4 509.820 204.382   2
   6   6  -4 714.991 433.759   7
   6   6  -4 679.093 454.665   3
  -6  -6   4 296.789 315.187   5
   6   6  -4 217.652 295.591  10
   6   6  -3 3190.30 731.146   7
  -6  -6   3 2726.92 426.275  14
   6   6  -3 2786.89 772.837   3
  -6  -6   3 3903.37 666.374   5
   6   6  -3 2940.11 666.574  10
   6   6  -2-453.116 366.545   7
  -6  -6   2-281.951 198.058  14
   6   6  -2-685.296 454.846   3
  -6  -6   2 85.6829 293.428   5
   6   6  -2-18.9287 195.199  10
  -6  -6   1 408.728 258.129   4
   6   6  -1 1069.18 508.549   7
   6   6  -1 848.171 589.229   3
  -6  -6   1 680.514 370.435   5
   6   6  -1 672.806 334.527  10
  -6  -6   0 2611.26 566.948   4
   6   6   0 2499.85 636.328   7
   6   6   0 2169.76 665.430   3
  -6  -6   0 3054.34 606.213   5
  -6  -6  -1-394.522 383.438   4
   6   6   1-819.831 391.673   7
   6   6   1-286.069 517.445   3
  -6  -6  -1 261.511 285.919   5
  -6  -6  -2 866.275 347.767   4
   6   6   2 734.316 462.865   7
   6   6   2 764.635 604.870   3
  -6  -6  -3 1405.70 555.652   1
  -6  -6  -3 346.412 313.946   4
   6   6   3 1903.30 643.910   7
   6   6   3 966.731 517.559   3
   6   6   3 803.158 357.960  12
  -6  -6  -4 475.172 430.185   4
   6   6   4-147.400 535.732   3
   6   6   4-359.934 418.275   7
   6   6   4 976.619 375.790  12
  -6  -6  -4 248.904 223.275   1
  -6  -6  -5-155.499 402.676   1
  -6  -6  -5 197.206 228.408   4
   6   7 -11 182.507 462.957   3
   6   7 -10-88.4009 302.377   3
  -6  -7   9 929.822 341.174   8
  -6  -7   9 754.869 588.966  15
  -6  -7   9 685.459 420.356  13
   6   7  -9 54.1642 354.597   3
  -6  -7   9 709.636 435.211   5
   6   7  -9 712.014 400.628  10
  -6  -7   8 747.262 395.645  15
   6   7  -8 890.450 435.469   3
  -6  -7   8 2041.97 604.001   5
   6   7  -8 824.505 494.131  10
  -6  -7   7 1247.79 567.179  15
   6   7  -7 910.551 410.578   3
  -6  -7   7 628.723 386.157   5
   6   7  -7 859.438 511.195  10
  -6  -7   6 3715.17 758.456  15
   6   7  -6 3045.93 745.671   3
  -6  -7   6 3453.20 711.975   5
   6   7  -6 2950.04 685.451  10
   6   7  -5 1708.98 521.793   7
   6   7  -5 347.923 287.151   3
  -6  -7   5 972.675 425.174   5
   6   7  -5 1129.66 432.371  10
   6   7  -4-199.666 308.644   7
   6   7  -4 74.6247 196.759   3
  -6  -7   4-468.877 342.837   5
   6   7  -4-3.18397 280.484  10
   6   7  -3 2652.19 724.800   7
   6   7  -3 2478.12 642.863   3
  -6  -7   3 2261.21 576.383   5
   6   7  -3 2397.30 654.564  10
   6   7  -2 130.777 406.581   7
   6   7  -2 716.417 486.290   3
  -6  -7   2 881.889 404.622   5
   6   7  -2 798.222 362.841  10
   6   7  -1 783.436 523.357   7
  -6  -7   1 1624.80 411.998   4
   6   7  -1 1238.70 562.794   3
  -6  -7   1 1798.59 598.854   5
   6   7  -1 1094.48 345.383  10
  -6  -7   0 926.720 322.397   4
   6   7   0 1099.89 539.307   7
   6   7   0 1912.12 569.423   3
  -6  -7   0 242.847 359.192   5
   6   7   0 928.138 332.196  10
  -6  -7  -1-375.784 215.032   4
   6   7   1-286.385 308.835   7
   6   7   1-259.987 239.150   3
  -6  -7  -1-300.055 253.167   5
  -6  -7  -2 154.530 188.419   4
   6   7   2 802.715 425.844   7
   6   7   2 479.877 366.890   3
  -6  -7  -2 859.281 520.683   1
  -6  -7  -3 935.020 441.621   4
   6   7   3 1219.71 530.749   3
   6   7   3 257.832 199.497  12
  -6  -7  -4 613.770 386.259   4
   6   7   4-247.920 443.465  12
  -6  -7  -5 421.665 369.589   4
   6   8  -9-535.039 381.181   3
  -6  -8   8 799.654 425.772  15
   6   8  -8 233.453 308.465   3
  -6  -8   7 1835.94 565.595  15
   6   8  -7 1196.28 504.501   3
  -6  -8   7 1355.41 528.852   5
   6   8  -7 853.828 518.305  10
  -6  -8   6 305.395 500.158  15
   6   8  -6 520.998 331.412   3
  -6  -8   6-189.267 301.523   5
   6   8  -6-96.5457 174.841  10
  -6  -8   5 2993.55 691.341  15
   6   8  -5 3176.86 762.176   7
   6   8  -5 2555.41 659.588   3
  -6  -8   5 2305.00 660.208   5
   6   8  -5 1691.77 529.718  10
  -6  -8   4-226.190 239.774  15
   6   8  -4-96.8041 184.908   7
   6   8  -4-207.647 294.569   3
  -6  -8   4 329.716 372.383   5
   6   8  -4-359.880 314.968  10
  -6  -8   3 141.816 335.166  15
   6   8  -3 481.216 323.758   7
   6   8  -3 230.946 355.172   3
  -6  -8   3 532.432 417.051   5
   6   8  -3 671.489 421.787  10
   6   8  -2 257.046 371.592   7
   6   8  -2-460.136 351.586   3
  -6  -8   2 722.020 342.948   5
   6   8  -2 87.8135 218.318  10
   6   8  -1-414.108 331.947   7
  -6  -8   1-1.60083 186.623   5
   6   8  -1-85.1289 162.088  10
   6   8   0 35.6702 415.564   7
   6   8   0 185.749 349.237   3
  -6  -8   0 313.678 225.415   5
   6   8   0-43.5026 209.541  10
   6   8   1 60.7846 278.282   3
  -6  -8  -1 219.477 290.344   5
   6   8   2-287.081 372.886   3
   6   8   2 233.146 386.210  12
   6   8   3 380.018 340.838  12
  -6  -9   6-223.383 299.049  15
   6   9  -6 109.855 273.502   3
  -6  -9   5 471.038 325.213  15
   6   9  -5 377.623 387.998   3
   6   9  -5 45.2859 110.951  10
  -6  -9   4 226.191 275.322  15
   6   9  -4-102.856 262.786   3
   6   9  -4 169.979 243.171  10
   6   9  -3-14.7703 252.836   3
   6   9  -3 505.582 459.325  10
   6   9  -2 779.565 740.454   3
   6   9  -2 1576.60 496.845  10
   6   9  -1-735.916 412.846   3
   6   9  -1 568.559 288.955  10
   6   9   0 443.191 311.285   3
  -7   9   2 1390.05 558.326  12
  -7   9   1 1067.02 516.710  12
   7  -9   0-893.341 553.815  14
   7  -9   0 612.680 395.937  13
  -7   9   0-176.531 416.004  12
   7  -9   1-193.683 345.276  14
   7  -9   2 123.806 459.848  14
   7  -8  -6 858.099 312.688   1
   7  -8  -5-804.059 410.995   8
   7  -8  -4 30.0438 128.052   8
  -7   8   4-90.5948 225.991   2
   7  -8  -3-190.533 342.260   8
  -7   8   3-66.0894 421.498   2
   7  -8  -3 213.867 269.327  14
   7  -8  -2 247.513 338.564   8
  -7   8   2-299.198 439.847   2
   7  -8  -2 853.465 489.982  14
  -7   8   2 874.836 523.925  12
   7  -8  -1 175.789 352.254   8
  -7   8   1-297.678 368.632   2
   7  -8  -1 1025.93 425.206  14
  -7   8   1-178.804 345.759  12
  -7   8   1-266.128 543.410  10
   7  -8   0 1771.74 612.130   8
  -7   8   0 1969.85 590.908   2
   7  -8   0 2435.67 658.241  14
   7  -8   0 2334.34 698.590  13
  -7   8   0 2624.96 655.217  12
  -7   8   0 2935.44 781.517   6
  -7   8   0 2685.58 820.122  10
  -7   8  -1 798.144 559.848   2
   7  -8   1 1506.90 631.256  14
  -7   8  -1 526.812 378.966  12
  -7   8  -1 690.826 351.233   6
  -7   8  -1 4.53706 365.049  10
  -7   8  -2 20.5908 164.651   2
   7  -8   2-236.975 361.621  14
   7  -8   2-550.115 441.095  13
  -7   8  -2-406.469 357.779  10
   7  -8   3 1158.60 486.086  14
   7  -8   4 758.416 612.416  14
   7  -7  -8 1118.22 372.646   1
   7  -7  -7 483.449 237.170   1
   7  -7  -6 324.656 207.597   8
  -7   7   6 558.531 452.324   6
   7  -7  -6-510.506 257.261   1
   7  -7  -5 1238.44 364.160   8
  -7   7   5 945.369 602.782   2
   7  -7  -5 1354.73 597.710  14
  -7   7   5 1826.82 625.834   6
  -7   7   5 871.256 510.728  10
   7  -7  -5 669.742 269.621   1
   7  -7  -4 4032.73 723.465   8
  -7   7   4 2343.04 614.842   2
   7  -7  -4 2914.60 771.171  14
  -7   7   4 3755.38 824.842   6
   7  -7  -4 3228.20 513.867   1
  -7   7   4 3863.05 871.314  10
   7  -7  -3 1336.48 410.327   8
  -7   7   3 273.978 357.451   2
   7  -7  -3 335.527 384.992  14
  -7   7   3-203.737 410.236   6
   7  -7  -3 229.804 193.279   1
  -7   7   3 386.047 547.191  10
   7  -7  -2 56.1724 151.342   8
  -7   7   2 44.4115 269.844   2
   7  -7  -2-81.0919 160.009  14
  -7   7   2 570.586 377.397   6
  -7   7   2 342.037 363.527  10
   7  -7  -1 517.747 309.962   8
  -7   7   1 381.330 364.492   2
   7  -7  -1-31.1136 237.461  14
  -7   7   1 551.260 428.782   6
  -7   7   1 681.009 408.493  10
   7  -7   0 806.872 376.548   8
  -7   7   0 509.055 364.733   2
   7  -7   0 36.6031 381.026  14
  -7   7   0-327.096 315.958   6
  -7   7   0 301.089 414.821  10
   7  -7   1-66.7854 265.837   8
  -7   7  -1 388.361 362.739   2
   7  -7   1-44.7945 302.414  14
   7  -7   1 237.723 440.080  13
  -7   7  -1 931.280 425.537   6
  -7   7  -1 567.224 507.380  10
  -7   7  -2-109.862 125.365   2
   7  -7   2 311.701 282.231  13
  -7   7  -2 480.580 317.962   6
  -7   7  -2 123.149 234.966  10
   7  -7   3-160.792 362.943   8
  -7   7  -3-18.2074 310.431   2
   7  -7   3-455.376 347.152  14
   7  -7   3 497.173 482.643  13
  -7   7  -3 795.179 344.880   6
  -7   7  -3 606.546 438.176  10
   7  -7   4 38.9553 333.980  14
  -7   7  -4 696.962 340.274   2
  -7   7  -4-40.7301 153.261   6
  -7   7  -4-165.742 402.514  10
   7  -7   5 80.4574 380.480  14
  -7   7  -5 443.508 441.937   2
  -7   7  -5 360.775 277.254   6
  -7   7  -5 1105.60 453.540  10
   7  -7   6-88.1206 447.747  14
  -7   7  -6 464.775 356.867   6
  -7   7  -6-204.007 355.067  10
   7  -6  -9 79.8649 229.421   3
  -7   6   8 44.4706 254.482   6
   7  -6  -8 196.517 278.575   3
   7  -6  -8 443.179 292.956   1
  -7   6   7 172.206 312.696   6
   7  -6  -7 61.8304 236.090   3
   7  -6  -7 366.479 299.873   1
   7  -6  -6 1025.09 376.983   8
   7  -6  -6 832.136 437.091  14
  -7   6   6 1494.35 490.680   6
   7  -6  -6 1047.97 319.359   3
   7  -6  -6 988.875 371.970   1
   7  -6  -5 634.885 403.221   8
   7  -6  -5 687.211 359.286  14
  -7   6   5 1395.20 481.107   6
   7  -6  -5 501.246 224.585   3
   7  -6  -5 420.070 280.814   1
  -7   6   5 496.142 381.949   2
   7  -6  -4 784.466 342.684   8
  -7   6   4 467.675 345.428   2
   7  -6  -4 227.932 370.855  14
  -7   6   4 779.606 446.254   6
   7  -6  -4 524.475 223.851   1
   7  -6  -4 537.491 248.795   3
   7  -6  -3 771.941 334.712   8
  -7   6   3-168.536 293.736   2
   7  -6  -3-355.325 443.236  14
  -7   6   3-84.0981 367.175   6
   7  -6  -3 150.559 180.693   1
   7  -6  -3 402.007 250.107   3
   7  -6  -2 3529.44 440.961   1
   7  -6  -2 3801.14 728.955   8
  -7   6   2 4552.14 758.147   2
   7  -6  -2 4742.36 854.979  14
   7  -6  -2 4575.33 633.966   3
  -7   6   2 4681.01 869.889   6
  -7   6   2 4218.39 933.074  10
   7  -6  -1 1498.58 582.631   8
  -7   6   1 1947.82 512.804   2
   7  -6  -1 1653.39 544.548  14
   7  -6  -1 1561.10 451.608   3
  -7   6   1 1544.52 520.313   6
  -7   6   1 2159.00 687.622  10
   7  -6   0-453.230 419.052   8
  -7   6   0 232.267 269.727   2
   7  -6   0-540.263 353.822  14
   7  -6   0-164.134 150.098   3
  -7   6   0-93.8338 271.882   6
  -7   6   0-97.2217 290.308  10
   7  -6   1 482.119 319.035   8
  -7   6  -1 369.627 281.142   2
   7  -6   1 24.0071 372.718  14
  -7   6  -1 602.724 394.428   6
  -7   6  -1 340.978 336.070  10
   7  -6   2-426.021 353.550   8
  -7   6  -2 380.245 304.584   2
   7  -6   2 180.730 317.732  14
  -7   6  -2-423.965 336.401   6
  -7   6  -2 531.288 323.636  11
  -7   6  -2-28.2306 389.122  10
   7  -6   3-397.015 394.922   8
   7  -6   3-838.666 384.514  14
  -7   6  -3 289.993 310.854   2
  -7   6  -3 15.9996 279.430   6
  -7   6  -3 417.204 342.792  11
  -7   6  -3-264.858 326.967  10
   7  -6   4 680.947 428.535   8
  -7   6  -4 580.969 359.135   4
   7  -6   4 182.476 376.872  14
  -7   6  -4 733.368 325.347   2
  -7   6  -4 31.1887 221.142   6
  -7   6  -4 6.65643 299.965  11
  -7   6  -4-118.093 383.872  10
  -7   6  -5-17.0393 264.191   4
   7  -6   5 349.104 298.688  14
  -7   6  -5 432.375 349.797   2
  -7   6  -5-290.949 266.637   6
  -7   6  -5 229.400 369.137  11
  -7   6  -5-694.125 440.493  10
  -7   6  -6-523.438 281.621   4
   7  -6   6-619.219 363.120  14
  -7   6  -6 285.915 332.026   2
  -7   6  -6-119.116 152.525   6
  -7   6  -6-132.024 193.864  10
  -7   5  10-266.536 315.145   6
   7  -5 -10 38.5623 114.669   3
  -7   5   9 1671.12 523.576   6
   7  -5  -9 1520.65 413.254   1
   7  -5  -9 1340.72 469.650   3
   7  -5  -8 1733.39 593.418  14
  -7   5   8 1539.47 520.761   6
   7  -5  -8 1565.27 445.944   1
   7  -5  -8 1116.84 413.523   3
   7  -5  -7 755.585 256.406   8
   7  -5  -7 627.240 456.068  14
  -7   5   7 724.226 366.798   6
   7  -5  -7 499.615 272.017   1
   7  -5  -7-103.901 267.374   3
   7  -5  -6 3618.06 600.946   8
   7  -5  -6 3364.03 745.771  14
  -7   5   6 3708.88 762.782   6
   7  -5  -6 3811.70 635.972   1
   7  -5  -6 4015.01 620.675   3
   7  -5  -5-238.942 198.538   8
   7  -5  -5-50.6509 402.604  14
  -7   5   5-41.7297 350.913   6
   7  -5  -5-190.567 258.858   1
   7  -5  -5 203.840 231.752   3
   7  -5  -4 503.263 179.589   5
   7  -5  -4 759.940 325.668   8
  -7   5   4 1133.31 413.583   2
   7  -5  -4 212.465 464.262  14
  -7   5   4 693.553 380.467   6
   7  -5  -4 465.605 261.189   1
   7  -5  -4 550.051 325.245   3
   7  -5  -3 1862.56 328.347   5
   7  -5  -3 2131.94 518.663   8
  -7   5   3 2134.15 536.836   2
  -7   5   3 2150.03 410.888   1
   7  -5  -3 2544.74 702.348  14
   7  -5  -3 2208.40 414.961   1
  -7   5   3 2339.16 651.949   6
   7  -5  -3 2706.19 553.786   3
   7  -5  -2 200.583 269.637   8
  -7   5   2 107.315 266.934   2
  -7   5   2 345.787 164.920   1
   7  -5  -2 419.335 324.517  14
  -7   5   2 352.119 411.418   6
   7  -5  -2-89.4019 240.612   3
   7  -5  -1-479.144 304.069   8
  -7   5   1-524.495 309.072   2
   7  -5  -1 336.488 396.603  14
   7  -5  -1-131.682 169.601   3
  -7   5   1-90.5952 258.391   6
   7  -5   0-71.3690 233.873   8
  -7   5   0-184.150 244.800   2
   7  -5   0-251.410 330.458  14
   7  -5   0 464.425 283.765   3
  -7   5   0 203.103 218.587   6
   7  -5   0 36.0800 63.2532  12
  -7   5   0 176.017 218.083  11
  -7   5   0-23.5835 368.057  10
   7  -5   1 1337.24 440.694   8
  -7   5  -1 1720.35 463.991   2
   7  -5   1 2375.04 699.815  14
   7  -5   1 1920.16 437.240   3
  -7   5  -1 1234.71 519.264   6
  -7   5  -1 1444.88 469.196  11
  -7   5  -1 1458.90 531.369  10
   7  -5   2 397.267 377.287   8
  -7   5  -2 111.512 237.158   2
   7  -5   2 153.800 309.133  14
   7  -5   2 440.243 265.488   3
  -7   5  -2 278.481 310.244   6
  -7   5  -2 182.060 302.803  11
  -7   5  -2-225.958 347.873  10
   7  -5   3 2121.59 739.971   8
  -7   5  -3 3401.86 644.004   4
   7  -5   3 2707.17 804.299  14
   7  -5   3 2891.58 561.750   3
  -7   5  -3 3517.43 587.726   2
  -7   5  -3 3583.44 692.196   6
  -7   5  -3 3747.21 720.673  11
  -7   5  -3 2809.79 660.749  10
   7  -5   4 479.169 391.422   8
  -7   5  -4-340.223 377.485   4
   7  -5   4 108.174 295.915  14
  -7   5  -4 109.141 234.656   2
  -7   5  -4 175.585 185.913   6
  -7   5  -4 680.506 377.556  11
  -7   5  -4 567.941 379.854  10
   7  -5   5 1689.48 641.184   8
  -7   5  -5 987.118 423.801   4
   7  -5   5 1700.56 628.594  14
  -7   5  -5 1853.75 516.482   2
  -7   5  -5 1286.37 409.306   6
  -7   5  -5 996.190 470.417  11
  -7   5  -5 1035.89 427.021  10
  -7   5  -6-176.918 392.023   4
   7  -5   6 349.595 435.592  14
  -7   5  -6-72.5686 351.425   2
  -7   5  -6 289.043 303.592   6
  -7   5  -6 431.910 459.816  11
  -7   5  -7 664.064 432.731   4
  -7   5  -7 119.956 169.510   2
  -7   5  -8 403.708 533.254   4
  -7   4  11 1190.01 470.073   6
  -7   4  10 1687.07 634.257   9
   7  -4 -10 1538.57 498.213  14
  -7   4  10 1212.02 432.627   6
   7  -4 -10 1487.67 541.100   1
   7  -4 -10 1830.74 460.578   3
   7  -4  -9-353.163 349.656  14
  -7   4   9 771.221 332.209   6
   7  -4  -9 649.420 364.359   1
   7  -4  -9-170.082 322.211   3
   7  -4  -8 421.661 342.696  14
  -7   4   8 664.744 457.897   6
   7  -4  -8 551.840 335.554   1
   7  -4  -8-373.883 363.829   3
   7  -4  -7 236.456 147.357   8
   7  -4  -7-6.57458 336.250  14
  -7   4   7 515.439 343.263   6
   7  -4  -7 284.271 284.520   1
   7  -4  -7-483.406 383.017   3
   7  -4  -6 295.960 190.782   8
   7  -4  -6 441.636 320.492  14
  -7   4   6 226.181 304.834   6
   7  -4  -6-93.6815 215.569   1
   7  -4  -6 645.437 290.695   3
   7  -4  -5 158.765 170.454   8
  -7   4   5-162.441 182.306   8
   7  -4  -5-55.7813 403.685  14
  -7   4   5-10.0856 219.392  13
  -7   4   5-230.621 199.960   6
   7  -4  -5 15.4578 242.108   1
   7  -4  -5 70.6250 248.715   3
   7  -4  -5 122.962 132.906   5
   7  -4  -4 7996.83 747.893   1
   7  -4  -4 7371.11 757.281   2
   7  -4  -4 8428.29 952.000   8
  -7   4   4 7216.82 765.750   1
   7  -4  -4 7838.89 890.175   3
   7  -4  -4 8298.41 1055.77  14
  -7   4   4 8083.51 1051.45   6
  -7   4   4 6451.43 807.841  13
   7  -4  -4 7959.80 665.749   5
  -7   4   4 8582.42 922.344   2
   7  -4  -3 1114.29 424.247   8
  -7   4   3 1328.16 409.132   2
   7  -4  -3 1414.72 569.072  14
   7  -4  -3 888.488 278.959   2
  -7   4   3 135.703 382.405   6
   7  -4  -3 1193.39 450.799   3
  -7   4   3 916.228 304.676   1
   7  -4  -3 1090.79 229.615   5
   7  -4  -2 100.478 264.194   8
  -7   4   2 620.184 293.057   2
   7  -4  -2 1024.11 462.672  14
  -7   4   2 1256.68 465.290   6
   7  -4  -2 876.740 352.067   3
   7  -4  -2 287.576 179.842   2
  -7   4   2 653.167 223.876   1
   7  -4  -2 746.444 167.908   5
   7  -4  -1 2404.85 594.108   8
  -7   4   1 2259.16 460.040   2
   7  -4  -1 2588.28 726.403  14
   7  -4  -1 2212.05 490.616   3
  -7   4   1 2274.56 622.249   6
   7  -4  -1 1755.85 433.795  12
   7  -4  -1 2024.44 403.147   2
  -7   4   1 2725.84 512.717  11
  -7   4   1 2254.10 350.352   1
  -7   4   1 1881.40 317.140   3
   7  -4   0-95.8741 432.364   8
  -7   4   0 300.288 249.281   2
  -7   4   0-290.867 137.170   7
   7  -4   0 85.1312 339.099  14
   7  -4   0 301.492 293.924   3
  -7   4   0 331.727 354.545   6
   7  -4   0 45.5923 120.383  12
  -7   4   0 373.379 332.438  11
   7  -4   0 346.812 187.526   2
  -7   4   0 177.314 158.528   3
  -7   4   0-91.6140 114.421   1
   7  -4   1-179.014 349.314   8
  -7   4  -1-187.580 139.974   7
  -7   4  -1 196.486 248.932   2
   7  -4   1 29.8756 274.552  14
   7  -4   1 545.812 334.366   3
  -7   4  -1-159.211 289.028   6
   7  -4   1-137.366 105.024  12
  -7   4  -1 333.252 325.290  11
  -7   4  -1-134.779 167.157   3
  -7   4  -1 316.517 296.589  10
   7  -4   1 200.996 188.638   2
   7  -4   2 2491.09 700.029   8
  -7   4  -2 1312.72 428.051   4
  -7   4  -2 1084.63 380.689   7
   7  -4   2 989.004 513.364  14
  -7   4  -2 1882.01 446.756   2
   7  -4   2 1491.92 530.280   3
  -7   4  -2 1558.63 495.505   6
  -7   4  -2 1617.49 543.866  11
  -7   4  -2 1463.41 338.298   3
  -7   4  -2 1079.10 441.384  10
   7  -4   3-13.3829 286.425   8
  -7   4  -3 175.095 301.950   4
   7  -4   3-133.361 429.584  14
   7  -4   3 374.062 318.268   3
  -7   4  -3-16.0151 179.748   2
  -7   4  -3 438.074 296.483   6
  -7   4  -3 396.362 377.288  11
  -7   4  -3 571.728 309.092  10
   7  -4   4-231.496 437.265   8
  -7   4  -4 173.938 379.328   4
   7  -4   4 217.883 297.224  14
   7  -4   4-130.050 190.036   3
  -7   4  -4-55.1557 184.262   2
  -7   4  -4 158.122 184.328   6
  -7   4  -4 347.639 394.810  11
  -7   4  -4-26.6784 192.065  10
   7  -4   5 972.902 547.835   8
  -7   4  -5 702.160 432.979   4
   7  -4   5 780.356 540.407  14
  -7   4  -5 458.067 291.736   2
  -7   4  -5 550.990 269.513   6
  -7   4  -5 665.197 476.747  11
  -7   4  -5 712.978 373.852  10
  -7   4  -6 2342.39 720.150   4
   7  -4   6 2899.69 849.232  14
  -7   4  -6 1544.00 470.635   2
  -7   4  -6 1755.18 594.316  11
  -7   4  -7 398.973 480.376   4
  -7   4  -7 682.671 317.890   2
  -7   4  -7 402.449 383.088  11
  -7   4  -8-889.331 530.210   4
  -7   4  -8 236.215 277.898   2
  -7   3  12-167.036 238.922   6
   7  -3 -11 1282.84 501.955  14
  -7   3  11 1399.78 458.355   6
   7  -3 -11 1131.57 511.111   3
  -7   3  10 1645.81 540.018   9
   7  -3 -10 1203.75 405.635  14
  -7   3  10 980.303 397.474   6
   7  -3 -10 1359.39 464.921   1
   7  -3 -10 1145.66 449.160   3
   7  -3  -9 172.153 284.129  14
  -7   3   9 185.788 492.079   6
   7  -3  -9 371.479 282.662   1
   7  -3  -9 523.151 399.169   3
   7  -3  -8 3152.60 658.135  14
  -7   3   8 3247.98 690.547   6
   7  -3  -8 3181.10 582.888   1
   7  -3  -8 2802.11 613.850   3
   7  -3  -7 1588.91 495.527  14
  -7   3   7 1417.39 440.583   6
   7  -3  -7 1742.60 472.388   1
   7  -3  -7 943.220 428.964   3
   7  -3  -6 5824.32 715.523   1
   7  -3  -6 5801.52 648.923   2
   7  -3  -6 6191.03 745.097   8
  -7   3   6 6493.00 586.989   8
   7  -3  -6 6341.12 780.029   3
   7  -3  -6 5615.81 865.702  14
  -7   3   6 6884.54 962.967   6
  -7   3   6 5760.62 702.475  13
   7  -3  -6 6211.79 662.349   5
   7  -3  -5 1789.64 438.198   8
  -7   3   5 2128.33 355.737   8
   7  -3  -5 1447.71 551.165  14
   7  -3  -5 1891.04 350.547   2
  -7   3   5 2060.05 406.080  13
   7  -3  -5 1786.77 437.488   1
  -7   3   5 2217.85 616.113   6
   7  -3  -5 1531.82 440.242   3
   7  -3  -5 1208.14 291.146   5
   7  -3  -4 221.255 247.546   8
  -7   3   4 201.226 129.043   8
  -7   3   4 394.724 215.839   1
   7  -3  -4 396.372 362.572  14
   7  -3  -4 408.393 199.560   2
  -7   3   4 552.843 301.848  13
  -7   3   4 454.882 388.060   6
   7  -3  -4 431.998 289.141   3
   7  -3  -4 400.267 190.854   5
   7  -3  -3 4503.14 550.628   2
  -7   3   3 4456.27 583.485   8
   7  -3  -3 5003.65 742.014   8
  -7   3   3 5387.29 603.254   1
   7  -3  -3 5436.70 760.617   3
   7  -3  -3 5522.30 896.873  14
  -7   3   3 5312.04 844.204   6
  -7   3   3 5116.28 725.978  13
  -7   3   3 5796.92 659.263  11
   7  -3  -3 5482.68 453.589   5
  -7   3   3 5297.16 647.190   2
   7  -3  -2 1403.07 471.163   8
  -7   3   2 1279.06 313.988   2
  -7   3   2 1131.56 271.576   1
   7  -3  -2 1137.82 470.291  14
  -7   3   2 1193.83 402.546   6
   7  -3  -2 1321.34 344.649  12
   7  -3  -2 1380.11 436.362   3
   7  -3  -2 875.671 273.391   2
  -7   3   2 1507.10 380.353  11
  -7   3   2 1447.31 323.193   3
   7  -3  -2 1102.40 170.650   5
   7  -3  -1 276.369 367.721   8
  -7   3   1 495.318 189.784   1
  -7   3   1 307.691 201.538   2
   7  -3  -1 349.670 350.252  14
  -7   3   1 154.869 269.646   6
   7  -3  -1 599.146 348.253   3
   7  -3  -1 16.8856 120.332  12
  -7   3   1 696.513 307.828  11
   7  -3  -1 529.991 185.789   2
  -7   3   1 309.945 203.316   3
   7  -3   0 1101.04 411.293   8
  -7   3   0 504.836 189.267   1
  -7   3   0 630.153 285.826   2
  -7   3   0 555.264 226.023   7
   7  -3   0 29.5475 333.717  14
   7  -3   0 641.555 327.500   3
  -7   3   0 300.398 298.108   6
   7  -3   0 800.216 233.710  12
  -7   3   0 942.609 394.075  11
  -7   3   0 359.240 221.275   3
   7  -3   0 213.340 145.526   2
  -7   3  -1 9796.35 794.016   2
   7  -3   1 9528.14 1210.87   8
  -7   3  -1 8196.03 962.167   4
   7  -3   1 8495.90 793.308   2
  -7   3  -1 7714.31 486.739   1
  -7   3  -1 8537.13 843.541   7
   7  -3   1 7032.00 922.489   3
  -7   3  -1 7911.33 740.892   3
   7  -3   1 9393.94 1293.18  14
  -7   3  -1 9158.29 968.845   6
   7  -3   1 8392.52 724.412  12
  -7   3  -1 9302.80 1043.85  11
  -7   3  -2 4025.35 549.798   2
   7  -3   2 4196.78 825.669   8
  -7   3  -2 3538.10 272.044   1
  -7   3  -2 4529.52 778.337   4
  -7   3  -2 3794.28 646.452   7
   7  -3   2 5136.92 929.874  14
   7  -3   2 3649.89 654.248   3
  -7   3  -2 3808.50 671.219   6
   7  -3   2 3690.06 413.415  12
  -7   3  -2 4164.20 759.708  11
  -7   3  -2 4133.65 565.006   3
  -7   3  -2 3542.87 648.222  10
   7  -3   3 1206.91 559.519   8
  -7   3  -3 1700.48 566.283   4
   7  -3   3 1549.03 637.670  14
   7  -3   3 1464.92 419.775   3
  -7   3  -3 1476.85 350.974   2
  -7   3  -3 1357.16 403.377   6
  -7   3  -3 980.289 505.854  11
  -7   3  -3 1778.25 445.797  10
  -7   3  -4 224.512 367.292   4
   7  -3   4 775.100 475.408  14
   7  -3   4 385.178 286.481   3
  -7   3  -4 453.353 326.561   2
  -7   3  -4 858.034 333.808   6
  -7   3  -4 805.308 416.456  11
  -7   3  -4 361.744 283.435  10
  -7   3  -5 342.463 448.966   4
   7  -3   5 1362.03 654.609  14
  -7   3  -5-16.4779 172.878   6
  -7   3  -5 372.750 253.631   2
  -7   3  -5 1030.71 393.413  11
  -7   3  -5 394.646 224.516  10
  -7   3  -6 3345.88 872.671   4
  -7   3  -6 3988.29 681.873   2
  -7   3  -6 3893.14 728.422  11
  -7   3  -7 3041.55 784.029   4
  -7   3  -7 2908.98 668.526   2
  -7   3  -7 2415.88 690.530  11
  -7   3  -8-95.8700 106.985   2
   7  -2 -12 1209.54 491.843  14
  -7   2  12 1287.62 476.260   6
  -7   2  11 2072.35 585.632   9
   7  -2 -11 1149.92 390.943  14
  -7   2  11 1621.51 581.298   6
   7  -2 -11 1347.40 541.487   1
   7  -2 -11 1310.86 479.676   3
  -7   2  10 586.613 447.768   9
   7  -2 -10 348.163 304.049  14
  -7   2  10 451.127 405.329   6
   7  -2 -10 57.0415 209.708   1
   7  -2 -10-106.203 317.057   3
  -7   2   9 293.755 336.822   9
   7  -2  -9 627.513 383.143  14
  -7   2   9 65.3210 214.665   6
   7  -2  -9 609.873 388.408   1
   7  -2  -9 558.968 413.844   3
   7  -2  -8 611.288 358.112  14
  -7   2   8 387.679 305.290   6
   7  -2  -8 390.660 317.943   1
   7  -2  -8 924.235 414.961   3
  -7   2   7 219.725 110.742   8
   7  -2  -7-15.1299 64.7463   2
   7  -2  -7 62.3925 67.9817   7
   7  -2  -7-37.7420 303.073  14
  -7   2   7 427.141 190.562  13
   7  -2  -7-79.2774 310.756   1
   7  -2  -7 93.1620 343.953   3
   7  -2  -6 5495.19 728.341   1
   7  -2  -6 5252.73 567.296   2
  -7   2   6 4840.50 485.286   8
   7  -2  -6 4768.24 341.981   7
   7  -2  -6 5083.01 808.480  14
  -7   2   6 5773.02 865.371   6
  -7   2   6 5001.63 663.549  13
   7  -2  -6 5849.35 615.311   5
   7  -2  -6 4101.33 692.176   3
  -7   2   5 1499.43 319.545   8
   7  -2  -5 1733.01 215.113   7
   7  -2  -5 1250.25 450.551  14
   7  -2  -5 1371.64 275.791   2
  -7   2   5 1648.08 434.684  13
  -7   2   5 1687.23 521.658   6
   7  -2  -5 2052.87 555.097   3
   7  -2  -5 1922.23 365.490   5
  -7   2   4 1169.07 324.733   8
  -7   2   4 971.989 327.337   1
   7  -2  -4 782.189 189.018   7
   7  -2  -4 1200.21 493.702  14
  -7   2   4 710.064 319.509  13
   7  -2  -4 877.938 237.333   2
  -7   2   4 933.648 436.366   6
   7  -2  -4 1157.72 418.960   3
  -7   2   4 967.709 324.045  11
   7  -2  -4 644.742 228.998   5
   7  -2  -3 9880.11 673.281   2
  -7   2   3 9279.63 858.228   8
  -7   2   3 9332.66 778.506   1
   7  -2  -3 8989.32 647.819   7
   7  -2  -3 9155.80 1017.33   3
   7  -2  -3 9366.51 1131.56  14
  -7   2   3 10222.1 1092.41   6
  -7   2   3 8913.70 1005.85  13
   7  -2  -3 10400.2 998.864  12
  -7   2   3 10344.0 846.858  11
   7  -2  -3 10789.8 626.830   5
  -7   2   3 10261.0 767.121   2
  -7   2   2-61.3140 126.901   1
  -7   2   2-237.256 163.644   2
   7  -2  -2-126.669 127.912   7
   7  -2  -2-149.710 340.741  14
  -7   2   2 255.389 280.013   6
   7  -2  -2-172.421 166.291  12
   7  -2  -2-22.2679 250.465   3
   7  -2  -2-22.9404 70.3689   2
  -7   2   2-318.564 253.935  11
   7  -2  -2-0.51098 69.7826   5
  -7   2   2-22.1924 169.746   3
  -7   2   1 1842.17 307.454   1
   7  -2  -1 1743.66 383.564   7
  -7   2   1 2160.98 332.973   2
   7  -2  -1 1717.89 551.066  14
  -7   2   1 1467.07 492.366   6
   7  -2  -1 1476.31 464.778   3
   7  -2  -1 1551.61 357.226  12
  -7   2   1 2311.61 498.684  11
  -7   2   1 1652.20 351.488   3
   7  -2  -1 2003.55 316.112   2
  -7   2   0 1387.65 454.079   4
   7  -2   0 2240.70 435.679   7
  -7   2   0 1718.31 315.783   2
  -7   2   0 1456.92 352.539   7
   7  -2   0 1698.32 543.632  14
   7  -2   0 1376.56 392.184   3
  -7   2   0 1406.84 442.852   6
   7  -2   0 1275.92 296.035  12
  -7   2   0 1328.97 464.800  11
  -7   2   0 1456.51 364.382   3
   7  -2   0 1314.17 270.311   2
  -7   2   0 1687.89 280.961   1
  -7   2  -1 2742.95 406.200   2
  -7   2  -1 2650.35 587.954   4
   7  -2   1 2351.48 515.862   7
  -7   2  -1 2201.49 443.131   7
   7  -2   1 2677.58 685.515  14
   7  -2   1 1494.16 474.238   3
  -7   2  -1 2422.31 553.195   6
   7  -2   1 2289.22 347.981  12
  -7   2  -1 2412.07 575.831  11
  -7   2  -1 2209.24 303.518   1
  -7   2  -2 6184.88 598.451   2
  -7   2  -2 5103.10 427.346   1
  -7   2  -2 6423.35 901.450   4
   7  -2   2 5644.52 839.433   7
  -7   2  -2 5517.57 755.001   7
   7  -2   2 5129.11 952.039  14
  -7   2  -2 5363.59 717.379   6
   7  -2   2 4294.59 775.074   3
   7  -2   2 4991.88 451.701  12
  -7   2  -2 6163.32 867.661  11
  -7   2  -3 1021.00 246.163   1
  -7   2  -3 416.351 397.954   4
   7  -2   3 939.215 576.736  14
   7  -2   3 1141.73 490.452   3
  -7   2  -3 1395.35 355.712   2
  -7   2  -3 767.129 359.354   6
  -7   2  -3 1156.46 417.309  11
  -7   2  -3 887.032 331.265  10
  -7   2  -4-220.554 367.613   4
   7  -2   4 654.497 349.907  14
   7  -2   4 699.209 442.696   3
  -7   2  -4-112.205 184.049   6
  -7   2  -4 426.216 309.300   2
  -7   2  -4 279.637 257.343  11
  -7   2  -4 27.2012 138.730  10
  -7   2  -5 3959.74 845.918   4
   7  -2   5 3901.46 879.093  14
   7  -2   5 4119.25 870.098   3
  -7   2  -5 3626.18 515.876   6
  -7   2  -5 4038.10 608.039   2
  -7   2  -5 4366.59 813.139  11
  -7   2  -5 3675.79 520.152  10
  -7   2  -6-779.512 428.934   4
  -7   2  -6-1.04789 232.327   2
  -7   2  -6-90.3032 257.868  11
  -7   2  -7-279.947 410.805   4
  -7   2  -7 262.843 221.074   2
  -7   2  -8 983.659 409.237   2
  -7   1  13 1690.62 737.182  15
  -7   1  13 487.914 521.052   6
  -7   1  12 2044.91 708.883   5
  -7   1  12 1367.66 623.658   9
  -7   1  12 1453.32 519.308  15
   7  -1 -12 2379.93 557.483  14
  -7   1  12 2017.00 704.246   6
  -7   1  11 510.967 410.279   5
  -7   1  11-61.6850 363.317   9
   7  -1 -11-204.098 202.317  14
  -7   1  11 10.5073 309.707   6
   7  -1 -11-168.957 289.822   1
   7  -1 -11 91.0583 387.713   3
  -7   1  10 2178.96 636.783   5
  -7   1  10 2271.74 670.868   9
   7  -1 -10 2107.73 544.625  14
  -7   1  10 1684.74 579.274   6
   7  -1 -10 2776.11 595.814   1
   7  -1 -10 2113.26 535.894   3
  -7   1   9 222.877 412.155   5
  -7   1   9-20.9980 200.451   9
   7  -1  -9 423.401 316.735  14
   7  -1  -9 353.365 289.589   1
  -7   1   9 748.947 409.683   6
   7  -1  -9 542.697 403.752   3
   7  -1  -8 5607.05 789.450   1
  -7   1   8 5016.37 765.033   5
   7  -1  -8 5765.82 796.361   3
   7  -1  -8 4958.84 770.914  14
  -7   1   8 6326.02 925.441   6
   7  -1  -8 5832.91 706.105  11
   7  -1  -8 5342.69 625.183   2
  -7   1   7 500.652 310.313   5
  -7   1   7 652.002 155.080   8
   7  -1  -7 948.552 245.581   2
   7  -1  -7 509.078 204.499   7
   7  -1  -7 283.714 339.182  14
  -7   1   7-76.5089 331.065   6
   7  -1  -7 918.636 275.027  11
   7  -1  -7 366.904 389.256   3
  -7   1   6 138.739 222.841   5
  -7   1   6 54.1739 61.8193   8
   7  -1  -6 139.370 139.121   7
   7  -1  -6 213.592 107.648   2
   7  -1  -6 55.3732 329.108  14
  -7   1   6 4.04890 194.360   6
   7  -1  -6 192.211 204.385  11
   7  -1  -6 399.938 316.951   3
   7  -1  -6-21.2214 174.971   5
   7  -1  -5 7758.51 572.219   2
  -7   1   5 8133.60 701.114   8
   7  -1  -5 8321.31 667.564   7
   7  -1  -5 8528.15 960.845   3
   7  -1  -5 7742.09 1004.46  14
  -7   1   5 8682.80 1022.00   6
  -7   1   5 7365.49 895.135  13
   7  -1  -5 8086.50 851.260  11
   7  -1  -5 8422.80 702.900   5
  -7   1   5 7596.30 704.619   5
  -7   1   4 382.223 221.671   5
  -7   1   4 475.029 241.795   1
  -7   1   4 352.808 163.921   8
   7  -1  -4 397.294 212.808   7
   7  -1  -4 313.509 387.499  14
  -7   1   4 591.496 301.913  13
   7  -1  -4 651.579 169.704   2
  -7   1   4 321.229 324.066   6
   7  -1  -4 345.939 368.679   3
   7  -1  -4 533.690 278.357  11
  -7   1   4 533.207 272.646  11
   7  -1  -4 447.980 198.345   5
   7  -1  -3 5067.17 406.863   2
  -7   1   3 4130.51 533.259   1
  -7   1   3 3998.77 587.225   8
   7  -1  -3 5139.07 600.265   7
   7  -1  -3 3994.26 768.518  14
  -7   1   3 3798.58 741.919   6
   7  -1  -3 4654.61 697.597  12
   7  -1  -3 4059.63 751.272   3
  -7   1   3 4965.64 622.006  11
   7  -1  -3 4936.24 460.698   5
  -7   1   3 4426.45 445.756   5
  -7   1   2 5253.73 550.238   1
  -7   1   2 5067.43 699.586   8
   7  -1  -2 4687.88 390.629   2
   7  -1  -2 5199.00 658.866   7
   7  -1  -2 4502.32 885.224  14
  -7   1   2 4390.80 727.595   6
   7  -1  -2 5863.74 683.064  12
   7  -1  -2 4575.36 748.318   3
  -7   1   2 5037.19 683.009  11
  -7   1   2 5353.98 435.675   2
  -7   1   1 4121.40 477.370   1
   7  -1  -1 3650.72 568.813   7
   7  -1  -1 3776.90 838.589  14
  -7   1   1 3118.21 617.807   6
   7  -1  -1 3530.88 710.276   3
   7  -1  -1 3252.72 513.642  12
  -7   1   1 3195.76 591.359  11
  -7   1   1 3689.36 361.791   2
  -7   1   0 2736.52 325.945   2
  -7   1   0 1764.82 488.276   9
  -7   1   0 2892.98 391.282   1
  -7   1   0 2701.37 595.792   4
   7  -1   0 2353.69 513.010   7
  -7   1   0 2577.86 480.718   7
   7  -1   0 2972.68 677.734  14
   7  -1   0 2277.14 580.929   3
  -7   1   0 2106.94 544.964   6
   7  -1   0 2036.10 365.767  12
  -7   1   0 2440.31 533.914  11
  -7   1  -1 1415.70 436.649   9
  -7   1  -1 1293.65 475.986   4
   7  -1   1 1525.73 483.046   7
  -7   1  -1 1154.69 393.596   7
   7  -1   1 1204.57 546.248  14
  -7   1  -1 1334.51 263.495   2
   7  -1   1 1307.56 474.503   3
  -7   1  -1 785.113 366.987   6
  -7   1  -1 1251.38 269.588   1
   7  -1   1 1141.72 267.033  12
   7  -1   1 1121.39 376.465   6
  -7   1  -1 1070.26 435.757  11
  -7   1  -2 205.169 120.397   1
  -7   1  -2-593.720 441.269   4
   7  -1   2 153.004 180.196   7
   7  -1   2-285.862 440.591  14
   7  -1   2 654.238 433.216   3
  -7   1  -2 95.6314 164.607   2
  -7   1  -2-251.404 272.747   6
   7  -1   2 218.972 88.4892  12
   7  -1   2 587.251 251.087   6
  -7   1  -2 36.4142 192.231  11
  -7   1  -3 4275.55 527.510   2
  -7   1  -3 3911.80 782.690   4
   7  -1   3 4616.42 775.448   7
   7  -1   3 4004.80 860.077  14
  -7   1  -3 4258.05 620.816   6
   7  -1   3 4689.82 913.589   3
  -7   1  -3 5051.58 533.910   1
  -7   1  -3 3946.70 723.164  11
  -7   1  -3 4233.23 580.039  10
  -7   1  -4 1222.11 567.145   4
  -7   1  -4 1061.64 292.938   1
   7  -1   4 1071.77 517.248   7
   7  -1   4 1327.34 566.984  14
   7  -1   4 1495.28 576.336   3
  -7   1  -4 1337.73 360.122   6
  -7   1  -4 1485.28 375.421   2
  -7   1  -4 1079.91 515.466  11
  -7   1  -4 1395.86 335.392  10
  -7   1  -5 5199.07 669.572   2
  -7   1  -5 5325.90 1001.15   4
   7  -1   5 5681.77 1034.69   7
  -7   1  -5 4978.21 544.613   1
   7  -1   5 3793.27 850.950   3
  -7   1  -5 4833.84 587.434   6
  -7   1  -5 4764.24 882.713  11
  -7   1  -6 229.663 183.317   2
  -7   1  -6 553.734 353.939  11
  -7   1  -7 528.480 377.086   4
  -7   1  -7 1336.62 402.168   2
  -7   1  -7 2016.95 626.837  11
  -7   1  -8-89.8210 288.087   2
  -7   0  13 889.176 472.507  15
   7   0 -13 490.460 245.337  14
  -7   0  13-13.6903 109.707   6
  -7   0  12 303.652 572.633   5
  -7   0  12-10.9697 228.906   9
  -7   0  12 1067.65 452.216  15
   7   0 -12 253.908 336.884  14
  -7   0  12-63.5058 135.554   6
  -7   0  11 1228.76 492.895   5
  -7   0  11 1467.55 641.588   9
   7   0 -11 1377.31 461.512  14
  -7   0  11 518.056 426.183   6
   7   0 -11 479.456 393.227   3
  -7   0  10-418.257 410.171   5
  -7   0  10-81.3851 421.218   9
   7   0 -10-341.087 268.579  14
  -7   0  10-443.561 502.375   6
   7   0 -10 39.5414 362.298   3
  -7   0   9 1496.37 464.757   5
  -7   0   9 1630.54 571.133   9
   7   0  -9 1936.46 505.816  14
  -7   0   9 1870.74 618.272   6
   7   0  -9 936.959 498.521   3
  -7   0   8 854.258 421.126   5
  -7   0   8 1225.54 487.108   9
   7   0  -8 827.494 246.697   2
   7   0  -8 852.688 427.238  14
  -7   0   8 723.493 451.266   6
   7   0  -8 982.098 402.410   3
  -7   0   7 7191.93 545.862   8
   7   0  -7 7772.06 921.641   3
   7   0  -7 7706.42 918.224  14
  -7   0   7 6696.78 966.158   6
  -7   0   7 7848.86 880.688   5
   7   0  -7 7638.82 625.998   2
  -7   0   6-217.473 240.867   5
  -7   0   6-132.532 114.308   8
   7   0  -6-125.777 96.8525   2
   7   0  -6-25.3694 114.851   7
  -7   0   6-9.47497 174.686   6
   7   0  -6-204.963 298.329   3
   7   0  -6 93.5316 97.5683   5
  -7   0   5 1710.04 407.888   5
  -7   0   5 1510.66 343.268   8
   7   0  -5 1754.94 383.242   7
   7   0  -5 1538.38 467.879  14
   7   0  -5 1459.25 208.665   2
  -7   0   5 1525.73 521.300   6
   7   0  -5 1582.37 520.045   3
  -7   0   5 1192.26 302.862  11
   7   0  -5 1492.72 338.819   5
  -7   0   4 1292.77 325.521   5
   7   0  -4 1113.86 158.083   2
  -7   0   4 1044.47 289.073   8
   7   0  -4 985.570 312.192   7
   7   0  -4 1718.29 618.510  14
  -7   0   4 1437.53 502.106   6
   7   0  -4 812.006 419.651   3
  -7   0   4 1366.00 350.566  11
   7   0  -4 1476.72 337.816   5
  -7   0   3 8272.83 756.190   1
  -7   0   3 7100.41 806.781   8
   7   0  -3 8105.55 835.175   7
   7   0  -3 8422.70 1024.84   3
   7   0  -3 7983.00 1068.49  14
  -7   0   3 9026.26 1033.73   6
  -7   0   3 6875.91 744.774  11
   7   0  -3 8598.38 668.126   5
  -7   0   3 7211.34 567.258   5
  -7   0   2 4206.24 523.656   1
  -7   0   2 3523.27 610.334   8
   7   0  -2 3738.47 633.904   7
   7   0  -2 4755.60 841.129  14
  -7   0   2 3825.27 694.037   6
   7   0  -2 4306.34 755.058   3
  -7   0   2 3638.92 575.140  11
  -7   0   2 3821.48 379.997   5
  -7   0   1 938.610 168.688   5
  -7   0   1 1275.31 445.316   4
   7   0  -1 1230.24 459.910   7
   7   0  -1 1891.08 568.638  14
  -7   0   1 1470.65 535.080   6
   7   0  -1 1267.27 474.913   3
  -7   0   1 1171.55 301.025   1
  -7   0   1 1414.54 447.379  11
  -7   0   0 3691.24 274.453   2
  -7   0   0 2933.61 424.725   1
  -7   0   0 2862.37 551.622   9
  -7   0   0 3517.59 670.134   4
   7   0   0 3200.93 631.638   7
  -7   0   0 4055.25 584.009   7
   7   0   0 3619.61 807.318  14
  -7   0   0 3616.78 594.529   6
   7   0   0 3021.92 683.785   3
   7   0   0 3159.76 553.485   6
  -7   0   0 3299.83 588.550  11
  -7   0  -1 3159.00 612.152   9
  -7   0  -1 3809.36 335.754   2
  -7   0  -1 3926.38 726.058   4
   7   0   1 3469.54 687.711   7
  -7   0  -1 3945.76 638.148   7
   7   0   1 2410.16 718.919  14
   7   0   1 3007.77 715.905   3
  -7   0  -1 3597.81 593.040   6
   7   0   1 3379.53 583.807   6
  -7   0  -1 3275.57 629.684  11
  -7   0  -2 352.303 236.863   9
  -7   0  -2 237.687 331.643   4
   7   0   2 103.984 251.272   7
   7   0   2 472.847 414.353  14
   7   0   2 193.496 401.471   3
  -7   0  -2 24.3447 150.513   6
  -7   0  -2 128.598 135.923   2
   7   0   2 143.725 77.8727  12
   7   0   2 145.620 168.974   6
  -7   0  -2-143.382 253.489  11
  -7   0  -3 4813.30 503.691   2
  -7   0  -3 3639.89 773.138   4
   7   0   3 4696.41 868.766   7
   7   0   3 4552.96 933.665  14
  -7   0  -3 4132.44 578.112   6
   7   0   3 5182.96 964.107   3
   7   0   3 3572.05 551.147   6
  -7   0  -3 3660.53 742.708  11
  -7   0  -3 3183.28 450.914  10
  -7   0  -4 53.3930 284.513   4
   7   0   4 554.828 291.733   7
   7   0   4 518.284 447.411   3
  -7   0  -4 642.220 218.797   6
  -7   0  -4 760.810 259.028   2
  -7   0  -4 610.609 364.175  11
  -7   0  -4 292.452 146.727  10
  -7   0  -4 314.855 169.089   1
  -7   0  -5 607.214 466.155   4
   7   0   5 1179.70 540.247   7
   7   0   5 367.041 371.233   3
  -7   0  -5 638.305 511.071  11
  -7   0  -5 973.533 286.321   2
  -7   0  -5 902.912 258.078   1
  -7   0  -6 2232.64 699.621   4
   7   0   6 1412.88 556.467   7
  -7   0  -6 1193.24 503.486  11
  -7   0  -6 1149.01 338.985   2
  -7   0  -7-22.5480 323.124   4
  -7   0  -7-572.290 482.847  11
  -7   0  -7-212.141 295.452   2
  -7   0  -8-4.95175 267.381   2
   7   1 -13 355.671 345.251  14
  -7  -1  13 171.381 214.172   6
  -7  -1  12 751.055 539.533   5
  -7  -1  12-461.228 355.644   9
  -7  -1  12 534.003 409.604  15
   7   1 -12 897.620 366.714  14
  -7  -1  12 431.858 288.940   6
  -7  -1  11 484.935 369.621   5
  -7  -1  11-83.9908 162.142   9
   7   1 -11 525.261 325.188  14
  -7  -1  11 50.8811 299.180   6
   7   1 -11 374.849 368.959   3
  -7  -1  10 4019.97 807.280   5
  -7  -1  10 4330.86 793.047   9
   7   1 -10 3855.10 702.663  14
  -7  -1  10 4080.61 866.630   6
   7   1 -10 2442.21 620.453   3
  -7  -1   9 539.368 367.432   5
  -7  -1   9 21.4642 211.343   9
   7   1  -9 293.815 286.748  14
  -7  -1   9 174.131 304.172   6
   7   1  -9 970.995 445.269   3
  -7  -1   8 861.311 383.049   5
  -7  -1   8 1723.28 479.103   9
   7   1  -8 1587.00 301.900   2
   7   1  -8 1295.94 450.104  14
  -7  -1   8 1871.69 578.665   6
   7   1  -8 1993.84 544.980   3
  -7  -1   7 3084.16 571.497   5
  -7  -1   7 3476.85 593.358   9
  -7  -1   7 2860.03 408.705   8
   7   1  -7 3291.13 596.514  14
  -7  -1   7 3408.49 707.868   6
   7   1  -7 3583.89 690.077   3
   7   1  -7 2717.59 351.345   2
  -7  -1   6 3546.93 559.669   5
   7   1  -6 4157.38 342.092   2
  -7  -1   6 4172.18 539.044   8
   7   1  -6 4428.89 600.893   7
   7   1  -6 3265.78 612.008  14
  -7  -1   6 4876.63 826.950   6
  -7  -1   6 4669.51 459.546  11
   7   1  -6 4223.53 735.013   3
   7   1  -6 3405.78 542.690   5
  -7  -1   5 868.380 303.789   5
   7   1  -5 779.299 92.5453   2
   7   1  -5 790.562 95.5237   2
  -7  -1   5 1032.45 296.778   8
   7   1  -5 939.486 367.967   7
   7   1  -5 1441.58 489.838  14
  -7  -1   5 746.878 435.021   6
   7   1  -5 1128.12 481.412   3
  -7  -1   5 1024.03 294.935  11
   7   1  -5 1004.82 332.394   5
  -7  -1   4 7081.94 805.594   8
   7   1  -4 6638.62 787.751   7
   7   1  -4 7680.40 988.360   3
   7   1  -4 8164.33 1043.10  14
  -7  -1   4 6711.75 915.572   6
  -7  -1   4 7035.02 700.783  11
   7   1  -4 7188.44 716.716   5
  -7  -1   4 6771.54 650.739   5
  -7  -1   3 6130.28 795.157   8
   7   1  -3 6323.60 806.176   7
   7   1  -3 5377.51 875.097   3
   7   1  -3 6538.23 967.628  14
  -7  -1   3 5596.82 842.740   6
  -7  -1   3 5871.08 659.719  11
  -7  -1   3 5925.68 562.278   5
  -7  -1   2 15687.2 1049.88   1
   7   1  -2 14924.4 1235.67   7
   7   1  -2 17036.4 1512.07   3
   7   1  -2 16222.8 1464.71  14
  -7  -1   2 15683.0 1319.01   6
  -7  -1   2 13909.2 1108.35  11
  -7  -1   2 16115.2 817.133   5
  -7  -1   2 15814.6 1219.71  10
  -7  -1   1 7539.18 906.255   4
   7   1  -1 7744.34 967.469   7
   7   1  -1 6173.97 979.690   3
   7   1  -1 6263.47 962.451  14
  -7  -1   1 7309.95 902.515   6
  -7  -1   1 6705.96 807.220  11
  -7  -1   1 7605.02 514.386   5
  -7  -1   1 7285.56 809.268  10
  -7  -1   1 6785.16 699.116   9
  -7  -1   0-150.442 154.047   9
  -7  -1   0 92.5771 262.388   4
   7   1   0-15.0994 302.259   7
   7   1   0-361.651 348.050  14
  -7  -1   0 304.196 244.852   6
   7   1   0-86.1578 332.087   3
   7   1   0 938.202 308.550   6
  -7  -1   0 366.424 212.952  11
  -7  -1   0 371.398 147.993   5
  -7  -1   0-90.0454 208.481  10
  -7  -1  -1 999.193 359.204   9
  -7  -1  -1 1377.19 163.071   2
  -7  -1  -1 956.310 429.944   4
   7   1   1 1807.47 536.358   7
   7   1   1 1403.10 437.778  14
   7   1   1 536.135 379.212   3
  -7  -1  -1 1530.06 420.980   6
   7   1   1 1153.57 326.477   6
  -7  -1  -1 1229.41 427.626  11
  -7  -1  -1 1331.84 206.392   5
  -7  -1  -1 1471.78 349.959  10
  -7  -1  -2 1995.62 470.365   9
  -7  -1  -2 2428.24 290.226   2
  -7  -1  -2 1906.29 538.408   4
   7   1   2 2847.15 639.168   7
   7   1   2 2310.22 699.355  14
   7   1   2 1853.10 652.488   3
  -7  -1  -2 1919.62 416.519   6
   7   1   2 2230.81 421.839   6
  -7  -1  -2 1807.67 506.659  11
  -7  -1  -2 2326.03 264.069   5
  -7  -1  -2 2120.52 266.706   5
  -7  -1  -2 2421.96 400.032  10
  -7  -1  -3 5021.40 770.199   9
  -7  -1  -3 5913.81 529.063   2
  -7  -1  -3 4655.99 852.366   4
   7   1   3 5130.96 1001.18   7
  -7  -1  -3 5825.17 678.078   6
   7   1   3 5713.05 1007.73   3
   7   1   3 4603.83 580.318   6
  -7  -1  -3 4884.87 398.991   5
  -7  -1  -3 4318.37 843.023  11
  -7  -1  -3 4910.96 522.317  10
  -7  -1  -4 1426.91 515.809   4
   7   1   4 2094.59 652.090   7
  -7  -1  -4 1147.59 393.457   1
   7   1   4 1854.10 723.279   3
  -7  -1  -4 1516.93 366.716   6
  -7  -1  -4 843.965 434.779  11
  -7  -1  -4 1247.56 310.626   2
  -7  -1  -5 7240.56 716.138   2
  -7  -1  -5 6429.71 1104.29   4
   7   1   5 6678.93 1125.32   7
   7   1   5 5774.54 1092.38   3
  -7  -1  -5 6902.41 800.111   1
  -7  -1  -5 6211.30 1013.17  11
  -7  -1  -6 518.511 504.113   4
   7   1   6 640.828 388.558   7
  -7  -1  -6 390.406 254.520   1
  -7  -1  -6 956.138 505.509  11
  -7  -1  -6 396.920 189.479   2
   7   1   7 232.676 357.986   7
  -7  -1  -7 131.061 62.8813   2
  -7  -2  13 825.830 478.766   9
  -7  -2  13-47.8365 133.012   6
  -7  -2  12 432.500 385.194   5
  -7  -2  12 100.837 208.037   9
  -7  -2  12-2.05378 448.525  15
  -7  -2  12 11.9190 270.887   6
   7   2 -12-268.240 182.998   2
  -7  -2  11 1872.13 609.936   5
  -7  -2  11 1571.46 519.335   9
   7   2 -11 1200.10 402.650  14
  -7  -2  11 1770.65 651.207   6
   7   2 -11 1899.43 607.611   3
   7   2 -11 1342.11 354.312   2
  -7  -2  10 692.516 369.975   5
  -7  -2  10 892.233 362.937   9
   7   2 -10 839.382 361.175  14
  -7  -2  10 508.010 499.322   6
   7   2 -10 1080.93 455.044   3
   7   2 -10 480.950 262.263   2
  -7  -2   9 4022.00 741.064   5
  -7  -2   9 4876.80 763.375   9
   7   2  -9 5304.11 583.771   2
   7   2  -9 4112.06 645.930  14
  -7  -2   9 4490.98 858.825   6
   7   2  -9 5067.40 868.838   3
  -7  -2   8 84.8340 326.055   5
  -7  -2   8 422.525 302.451   9
   7   2  -8 491.817 240.767  14
  -7  -2   8 299.641 343.216   6
   7   2  -8 271.252 344.869   3
   7   2  -8 372.704 166.825   2
  -7  -2   7 155.369 316.440   5
  -7  -2   7 198.220 195.564   9
  -7  -2   7-25.9353 177.941   8
   7   2  -7 485.070 149.407   2
   7   2  -7 355.825 209.207  14
  -7  -2   7 521.381 467.000   6
   7   2  -7 547.517 502.569   3
   7   2  -7 398.492 158.734   2
   7   2  -6 1403.82 151.902   2
  -7  -2   6 1680.81 400.994   9
   7   2  -6 1398.08 162.528   2
  -7  -2   6 1278.00 354.390   8
   7   2  -6 2382.07 490.113   7
   7   2  -6 1724.09 508.311  14
  -7  -2   6 1561.22 617.644   6
   7   2  -6 2360.34 651.709   3
  -7  -2   6 1392.40 258.891  11
  -7  -2   6 1090.00 369.857   5
  -7  -2   5 651.716 209.486   9
  -7  -2   5 897.576 285.830   8
   7   2  -5 1110.66 394.426   7
   7   2  -5 1171.90 425.414  14
  -7  -2   5 1332.28 533.774   6
   7   2  -5 906.305 511.235   3
  -7  -2   5 766.172 263.665  11
   7   2  -5 1373.42 355.879   5
  -7  -2   5 881.986 318.619   5
  -7  -2   4-465.028 252.244   8
   7   2  -4 84.9829 250.314   7
   7   2  -4-205.425 288.016  14
  -7  -2   4 386.626 210.353  14
  -7  -2   4 118.581 342.588   6
   7   2  -4 464.039 348.447   3
  -7  -2   4 69.7619 178.652  11
  -7  -2   4-195.566 235.959   5
  -7  -2   3 1555.57 438.487   8
   7   2  -3 1639.23 435.509   7
   7   2  -3 1796.35 494.862  14
  -7  -2   3 1896.75 421.964  14
  -7  -2   3 1646.14 536.531   6
   7   2  -3 1783.13 561.111   3
  -7  -2   3 1747.59 391.492  11
  -7  -2   3 2092.35 371.451   5
   7   2  -2 13118.9 1234.95   7
   7   2  -2 12870.7 1361.27   3
   7   2  -2 11108.5 1223.84  14
  -7  -2   2 12142.5 1146.23   6
  -7  -2   2 11151.2 1015.46  11
  -7  -2   2 12334.4 799.671   5
  -7  -2   2 13716.8 1163.47  10
  -7  -2   2 10206.8 746.521   9
  -7  -2   1 8938.03 714.491   9
  -7  -2   1 10159.8 1052.27   4
   7   2  -1 9642.98 1118.61   7
   7   2  -1 9112.12 1174.36   3
   7   2  -1 9863.22 1157.18  14
  -7  -2   1 10246.8 1061.56   6
  -7  -2   1 9150.44 982.170  11
  -7  -2   1 10414.3 706.209   5
  -7  -2   1 9560.68 926.001  10
  -7  -2   0 1236.35 294.211   9
  -7  -2   0 1411.57 523.119   4
   7   2   0 1425.64 547.573   7
   7   2   0 1869.08 595.544  14
  -7  -2   0 1652.64 479.884   6
   7   2   0 2098.83 602.848   3
   7   2   0 1599.38 400.800   6
  -7  -2   0 1445.41 479.525  11
  -7  -2   0 1306.96 286.453   5
  -7  -2   0 2201.98 442.306  10
  -7  -2  -1 14287.7 389.544   2
  -7  -2  -1 15619.5 1073.90   9
  -7  -2  -1 14944.6 386.130   2
  -7  -2  -1 16253.9 1452.76   4
   7   2   1 16313.7 1589.82   7
   7   2   1 17151.7 1642.72   3
   7   2   1 15207.2 1490.16  14
  -7  -2  -1 15499.1 1195.20   6
   7   2   1 15256.3 1145.46   6
  -7  -2  -1 14271.9 1336.91  11
  -7  -2  -1 16842.7 871.455   5
  -7  -2  -1 17154.2 1112.88  10
  -7  -2  -2 724.557 256.504   9
  -7  -2  -2 410.989 375.954   4
   7   2   2 333.840 275.860   7
   7   2   2 562.716 416.681   3
  -7  -2  -2 585.176 297.553   6
   7   2   2 188.969 255.775   6
  -7  -2  -2 615.533 397.727  11
  -7  -2  -2 625.789 149.510   2
  -7  -2  -2 535.299 210.757   5
  -7  -2  -2 336.435 168.206  10
  -7  -2  -3-173.907 221.260   9
  -7  -2  -3 934.151 385.941   4
   7   2   3 439.160 335.565   7
   7   2   3 518.024 446.973   3
  -7  -2  -3 779.964 297.210   6
  -7  -2  -3-311.147 291.183  11
  -7  -2  -3 527.616 214.726   2
  -7  -2  -3 305.007 212.601   5
  -7  -2  -4 3422.97 826.672   4
   7   2   4 2332.32 812.265   7
   7   2   4 2877.38 823.030   3
  -7  -2  -4 2498.14 559.053   1
  -7  -2  -4 1637.45 554.783  11
  -7  -2  -4 2826.51 408.638   2
  -7  -2  -5 45.6306 259.934   4
  -7  -2  -5 51.1634 166.428   1
   7   2   5 20.3084 78.0653   7
   7   2   5-300.854 643.491   3
  -7  -2  -5 28.1430 402.139  11
  -7  -2  -5-494.720 207.832   2
  -7  -2  -6 28.8457 384.695   4
   7   2   6-168.804 223.127   7
  -7  -2  -6 26.0523 312.664  11
  -7  -2  -6 203.456 217.972   1
  -7  -2  -7 1499.82 433.056   1
  -7  -3  12 622.504 449.086   9
  -7  -3  12-39.1568 278.653   6
  -7  -3  11 410.146 379.049   5
  -7  -3  11 382.998 360.872   9
  -7  -3  11-48.9099 340.867  15
  -7  -3  11 578.062 319.897   6
   7   3 -11-176.802 402.112   3
  -7  -3  10 367.135 391.448   5
  -7  -3  10-62.9626 134.877   9
   7   3 -10-6.44457 224.727  14
  -7  -3  10-90.9077 181.099   6
   7   3 -10-107.556 277.555   3
   7   3 -10 311.516 178.942   2
  -7  -3   9 932.944 430.526   5
  -7  -3   9 1304.62 379.733   9
   7   3  -9 1681.23 431.668  14
  -7  -3   9 1363.36 547.314   6
   7   3  -9 1627.39 603.813   3
   7   3  -9 1116.33 298.891   2
  -7  -3   8 1227.65 296.761   9
   7   3  -8 648.742 310.145  14
  -7  -3   8 685.746 471.254   6
   7   3  -8 976.558 242.689   2
   7   3  -8 100.893 315.520   3
  -7  -3   8 1251.77 439.385   5
  -7  -3   7 2385.26 439.827   9
   7   3  -7 3044.63 314.324   2
  -7  -3   7 2086.69 471.228   8
   7   3  -7 2921.35 581.333  14
  -7  -3   7 2527.26 689.564   6
  -7  -3   7 2757.86 275.671  11
   7   3  -7 2791.57 750.380   3
  -7  -3   7 2896.91 588.952   5
  -7  -3   6 14689.3 919.835   9
  -7  -3   6 11276.1 1017.05   8
   7   3  -6 15005.2 1459.41   3
   7   3  -6 14790.5 1247.03  14
  -7  -3   6 13718.9 1385.85   6
  -7  -3   6 15954.4 845.959  11
  -7  -3   6 13184.6 1073.39   5
  -7  -3   5 1792.25 322.484   9
   7   3  -5 2063.87 529.091   7
   7   3  -5 2519.84 521.306  14
  -7  -3   5 2147.29 683.113   6
   7   3  -5 1915.14 705.413   3
  -7  -3   5 2080.79 365.192  11
  -7  -3   5 2127.05 442.546   5
  -7  -3   4 113.952 131.281   9
   7   3  -4 635.466 269.509   7
   7   3  -4-433.204 361.533  14
  -7  -3   4 325.756 162.613  14
  -7  -3   4-51.5631 377.262   6
   7   3  -4 271.560 301.675   3
  -7  -3   4 32.3320 174.979  11
  -7  -3   4 228.791 241.570   5
  -7  -3   3 950.402 163.676   9
   7   3  -3 1021.11 447.676   7
   7   3  -3 417.930 303.378  14
  -7  -3   3 721.174 283.522  14
  -7  -3   3 854.733 425.929   6
   7   3  -3 709.451 404.058   3
  -7  -3   3 701.472 286.130  11
  -7  -3   3 870.010 299.139   5
  -7  -3   2 26.1168 78.3838   9
   7   3  -2 37.3425 313.154   7
   7   3  -2 17.1766 133.529  14
  -7  -3   2 89.4858 284.106   6
   7   3  -2-46.0877 250.349   3
  -7  -3   2 32.9150 165.674  11
  -7  -3   2 290.107 200.959   5
  -7  -3   1 555.049 158.117   9
  -7  -3   1 508.267 337.367   4
   7   3  -1 717.489 498.769   7
   7   3  -1 1281.63 525.920  14
  -7  -3   1 665.991 415.506   6
   7   3  -1 1256.92 518.284   3
  -7  -3   1 985.361 405.081  11
  -7  -3   1 600.506 246.348   5
  -7  -3   1 1158.47 330.494  10
  -7  -3   0 30.7373 128.846   9
  -7  -3   0-323.216 290.579   4
   7   3   0-220.603 178.841   7
  -7  -3   0-322.438 353.561   6
   7   3   0 216.991 392.465   3
  -7  -3   0 325.741 239.694  11
  -7  -3   0-14.6070 161.375   5
  -7  -3   0 123.184 180.114  10
  -7  -3  -1 439.446 230.262   9
  -7  -3  -1 641.257 326.429   4
   7   3   1 766.213 501.552   7
  -7  -3  -1 927.099 358.627   6
   7   3   1 488.684 486.233   3
   7   3   1 121.040 189.454   6
  -7  -3  -1 464.316 240.232   5
  -7  -3  -1 930.645 268.574  10
  -7  -3  -2 1901.23 242.398   2
  -7  -3  -2 1538.20 544.227   4
   7   3   2 2039.00 710.243   7
   7   3   2 1369.28 520.983   3
   7   3   2 1005.54 309.474   6
  -7  -3  -2 1200.20 328.643   5
  -7  -3  -3 5797.59 545.340   2
  -7  -3  -3 5558.70 1043.73   4
   7   3   3 4977.88 968.561   7
   7   3   3 6234.07 1107.02   3
   7   3   4-283.044 348.962   7
   7   3   4 184.062 211.222   3
  -7  -3  -4 38.2014 178.434   1
  -7  -3  -5-82.7638 172.864   4
  -7  -3  -5 197.387 174.473   1
   7   3   5-353.856 283.165   3
  -7  -3  -6 418.243 427.480   4
  -7  -3  -6 254.882 249.728   1
  -7  -3  -7-651.023 335.039   1
  -7  -4  12 18.6955 419.430  13
  -7  -4  11 3777.00 766.678   5
  -7  -4  11 4058.32 963.890  15
  -7  -4  11 4351.83 796.381  13
   7   4 -11 3862.80 803.223   3
  -7  -4  10 244.044 327.038   5
  -7  -4  10 112.904 187.894  15
   7   4 -10-419.680 385.129   3
  -7  -4   9 1043.05 521.617   6
   7   4  -9 264.612 390.652   3
  -7  -4   9 514.734 385.207   5
  -7  -4   8-166.657 141.592   9
   7   4  -8 85.1622 193.996  14
  -7  -4   8 43.8921 397.673   6
   7   4  -8 487.909 460.399   3
  -7  -4   8 163.803 267.278   5
  -7  -4   7 777.258 247.172   9
   7   4  -7 789.508 294.694  14
  -7  -4   7 472.331 467.439   6
   7   4  -7 397.450 404.945   3
  -7  -4   7 563.081 317.623   5
  -7  -4   6 315.455 103.476   9
   7   4  -6 294.611 148.332  14
  -7  -4   6 805.200 451.487   6
   7   4  -6 489.154 471.554   3
  -7  -4   6 190.698 110.495  11
  -7  -4   6 73.3974 322.643   5
   7   4  -5 870.221 414.466   7
   7   4  -5 139.818 252.769  14
  -7  -4   5-82.4534 390.113   6
   7   4  -5 142.358 262.238   3
  -7  -4   5 248.370 203.357  11
  -7  -4   5 285.778 288.328   5
   7   4  -4 568.359 372.230   7
   7   4  -4 116.235 148.348  14
  -7  -4   4 201.808 165.511  14
  -7  -4   4-150.376 219.643   6
   7   4  -4 632.886 408.489   3
  -7  -4   4 44.8630 97.2434  11
  -7  -4   4 228.251 256.932   5
   7   4  -3 2658.92 638.712   7
   7   4  -3 3512.70 687.314  14
  -7  -4   3 1901.02 401.013  14
  -7  -4   3 2670.83 656.160   6
   7   4  -3 2237.20 669.450   3
  -7  -4   3 2058.22 449.448  11
  -7  -4   3 2391.33 481.631   5
   7   4  -2 15.1970 350.519   7
   7   4  -2-392.375 278.746  14
  -7  -4   2 277.754 331.658   6
   7   4  -2-475.651 415.909   3
  -7  -4   2 216.907 198.629   5
  -7  -4   1 6913.43 913.172   4
   7   4  -1 6641.30 1026.07   7
   7   4  -1 6637.83 1031.72   3
  -7  -4   1 6642.36 738.542   5
  -7  -4   1 7529.15 890.943  10
  -7  -4   0 2358.19 597.413   4
   7   4   0 4103.39 891.938   7
   7   4   0 2533.26 744.872   3
  -7  -4   0 2362.30 485.896   5
  -7  -4   0 2288.06 461.594  10
  -7  -4  -1-35.4107 228.886   4
   7   4   1-404.655 407.675   7
   7   4   1-2.06486 382.075   3
  -7  -4  -1-25.5459 261.730   5
  -7  -4  -2 3016.62 717.001   4
   7   4   2 5250.99 1112.39   7
   7   4   2 3081.42 897.660   3
  -7  -4  -2 4554.63 648.564   5
  -7  -4  -3-95.6991 329.531   1
  -7  -4  -3-128.246 245.657   4
   7   4   3 212.808 293.358   7
   7   4   3-184.688 198.478   3
  -7  -4  -4 2113.91 634.313   4
   7   4   4 1110.46 514.593   7
  -7  -4  -4 357.741 324.060   1
   7   4   4 1429.01 728.345   3
  -7  -4  -5 1761.98 620.095   4
   7   4   5 978.823 628.681   3
   7   4   5 2231.07 710.665   7
  -7  -4  -5 2184.23 675.922   1
  -7  -4  -6 229.118 220.194   1
  -7  -5  12-595.199 379.930  13
  -7  -5  11 393.332 279.803  13
   7   5 -11 482.213 341.944   3
  -7  -5  10 32.0912 348.890  15
   7   5 -10-633.786 356.374   3
  -7  -5  10-33.4464 339.251   5
   7   5  -9-139.048 418.437   3
  -7  -5   9 261.285 332.489   5
   7   5  -8 2391.44 656.991   3
  -7  -5   8 1320.12 492.343   5
   7   5  -7 136.142 395.782   3
  -7  -5   7 42.3963 274.754   5
   7   5  -6-120.052 269.574   7
   7   5  -6 598.695 327.835  14
   7   5  -6 223.769 358.639   3
  -7  -5   6-10.1487 103.827  11
  -7  -5   6 317.075 284.989   5
   7   5  -5 1552.65 389.978  14
   7   5  -5 2032.58 589.980   7
   7   5  -5 1759.86 636.544   3
  -7  -5   5 1166.45 313.938  11
  -7  -5   5 1940.04 489.137   5
   7   5  -4 796.425 443.155   7
  -7  -5   4 991.387 283.900  14
   7   5  -4 990.753 404.037   3
  -7  -5   4 335.739 286.893  11
  -7  -5   4 563.232 336.549   5
   7   5  -3-284.274 349.182   7
   7   5  -3-156.164 327.612   3
  -7  -5   3-268.261 234.484   5
   7   5  -2 2946.57 702.497   7
   7   5  -2 1692.70 601.527   3
  -7  -5   2 2019.48 465.042   5
  -7  -5   1 1453.55 464.217   4
   7   5  -1 1498.94 537.299   7
   7   5  -1 1283.02 524.205   3
  -7  -5   1 688.545 359.967   5
  -7  -5   0 1277.96 456.446   4
   7   5   0-12.9064 570.471   7
   7   5   0 223.234 394.326   3
  -7  -5   0 474.636 325.702   5
  -7  -5  -1 1977.12 582.500   4
   7   5   1 2324.46 772.552   7
   7   5   1 2127.84 737.024   3
  -7  -5  -1 2249.44 508.232   5
  -7  -5  -2 361.393 402.479   4
   7   5   2-459.581 517.472   7
   7   5   2-383.811 389.371   3
  -7  -5  -2 112.125 222.259   5
  -7  -5  -3 212.815 365.265   4
   7   5   3 48.3554 264.954   7
   7   5   3 292.246 464.157   3
   7   5   3 74.9164 227.210  12
  -7  -5  -3 563.827 445.784   1
  -7  -5  -4 76.4227 248.593   1
  -7  -5  -4-198.321 255.258   4
   7   5   4-43.1190 280.948   7
   7   5   4-10.4405 95.4963   3
  -7  -5  -5 269.730 251.917   1
   7   6 -10 1636.67 621.507   3
  -7  -6   9 835.436 588.595  15
   7   6  -9-108.141 263.903   3
  -7  -6   9-37.7957 372.370   5
   7   6  -8 524.980 318.753   3
  -7  -6   8-437.406 360.027   5
   7   6  -7 1041.07 445.734   3
  -7  -6   7 1115.83 457.542   5
   7   6  -6 11.9799 189.375   7
  -7  -6   6-44.9148 266.333   5
   7   6  -5 634.542 426.112   7
   7   6  -5 1175.10 495.224   3
  -7  -6   5 734.337 267.687  11
  -7  -6   5 894.130 436.842   5
   7   6  -4 210.345 254.520   7
   7   6  -4 187.019 311.389   3
  -7  -6   4 193.946 344.385   5
   7   6  -3 4202.62 897.635   7
   7   6  -3 4258.03 922.384   3
  -7  -6   3 3542.77 678.572   5
   7   6  -2-374.256 324.813   7
   7   6  -2 142.610 327.675   3
  -7  -6   2 331.631 312.128   5
  -7  -6   1 342.579 261.046   4
   7   6  -1-113.875 301.547   7
   7   6  -1 10.7800 264.242   3
  -7  -6   1-32.2895 252.318   5
  -7  -6   0 1796.47 504.020   4
   7   6   0 2255.60 782.816   7
   7   6   0 1283.93 495.794   3
  -7  -6   0 1537.90 488.176   5
  -7  -6  -1-153.531 346.764   4
   7   6   1 925.665 452.480   7
   7   6   1-250.066 419.755   3
  -7  -6  -1 167.825 261.155   5
  -7  -6  -2 887.165 404.227   4
   7   6   2 852.332 546.039   7
   7   6   2 1942.46 876.645   3
  -7  -6  -2 261.146 299.096   5
  -7  -6  -3 1405.67 613.410   1
  -7  -6  -3 1112.62 449.393   4
   7   6   3 2097.03 582.147  12
  -7  -6  -4 62.6023 435.976   4
   7   7 -10-103.332 141.057   3
   7   7  -9-527.678 461.130   3
  -7  -7   8 19.9873 370.997  15
   7   7  -8 939.859 516.920   3
  -7  -7   8 694.853 392.352   5
  -7  -7   7-81.4662 328.826  15
   7   7  -7 512.343 438.452   3
  -7  -7   7-330.290 325.769   5
   7   7  -6-27.1241 116.701   7
  -7  -7   6-142.815 164.832   5
   7   7  -5 797.596 482.026   7
   7   7  -5-10.6546 255.514   3
  -7  -7   5 102.342 288.959   5
   7   7  -4 3861.12 884.073   7
   7   7  -4 1637.53 733.561   3
  -7  -7   4 2965.67 704.928   5
   7   7  -3-273.525 358.931   3
  -7  -7   3 94.4025 221.422   5
   7   7  -2 673.292 395.245   7
   7   7  -2 421.881 335.281   3
  -7  -7   2 558.749 365.517   5
   7   7  -1 957.827 568.754   7
   7   7  -1 559.256 394.539   3
  -7  -7   1 197.595 268.865   5
  -7  -7   0 170.657 190.369   4
   7   7   0 70.3063 174.863   7
   7   7   0 420.700 377.161   3
  -7  -7   0-138.627 264.413   5
  -7  -7  -1 22.1574 265.175   4
   7   7   1-232.297 232.197   3
  -7  -7  -2-8.76490 196.302   4
   7   7   2-297.830 247.685  12
  -7  -7  -2 490.749 361.406   5
  -7  -7  -3 42.8871 232.369   4
  -7  -7  -3 572.512 334.881   5
   7   8  -8-526.233 463.226   3
   7   8  -7-113.389 172.454   3
  -7  -8   6-351.698 294.448  15
   7   8  -6 758.278 493.750   3
  -7  -8   5 717.125 388.123  15
   7   8  -5 203.642 219.518   3
  -7  -8   5 1116.80 520.598   5
   7   8  -5 1206.95 524.564  10
   7   8  -4 596.846 465.311   3
  -7  -8   4 119.376 389.992   5
   7   8  -4 735.010 442.221  10
   7   8  -3 9.24720 308.329   3
  -7  -8   3-481.629 399.613   5
   7   8  -3 24.6796 160.746  10
   7   8  -2-241.791 332.380   3
  -7  -8   2-516.895 364.971   5
   7   8  -1 513.584 427.328   3
  -7  -8   1-140.745 390.036   5
  -7  -8   0 830.871 519.931   5
  -7  -9   5 541.017 447.639  15
   7   9  -4 1369.78 687.152   3
   7   9  -3-553.416 611.502   3
   7   9  -3-330.769 313.292  10
   8  -8  -4-116.128 245.090   8
   8  -8  -3-485.536 336.109   8
  -8   8   2-112.748 334.347   2
  -8   8   1 793.853 463.419   2
  -8   8   0 155.926 361.519   2
   8  -7  -7 567.472 316.419   1
   8  -7  -6 135.771 209.338   1
   8  -7  -5 324.275 451.159   8
  -8   7   5 145.806 333.310   2
   8  -7  -4 450.826 273.539   8
  -8   7   4 301.248 419.007   2
   8  -7  -3 232.335 205.057   8
   8  -7  -3 394.706 262.754  14
  -8   7   2-379.945 337.353   2
   8  -7  -2-131.795 306.953  14
  -8   7   2-434.584 576.521  10
   8  -7  -1 490.337 399.934   8
  -8   7   1 1192.14 414.019   2
  -8   7   1 361.994 339.745   6
  -8   7   1 1681.90 778.418  10
   8  -7   0 576.328 349.205   8
  -8   7   0-465.605 350.356   2
   8  -7   0 14.4282 364.010  14
  -8   7   0-273.269 240.306   6
  -8   7   0 580.718 469.326  10
  -8   7  -1 3427.86 680.799   2
   8  -7   1 2573.47 823.470  14
  -8   7  -1 3710.25 780.604   6
  -8   7  -1 3656.05 903.769  10
  -8   7  -2-392.785 239.142   2
   8  -7   2 71.5617 216.331  14
  -8   7  -2 341.007 306.143   6
  -8   7  -2-58.6867 239.459  10
  -8   7  -3 25.9444 298.092   2
   8  -7   3 733.064 446.147  14
  -8   7  -3 1093.79 539.791   6
  -8   7  -3 819.000 513.077  10
  -8   7  -4-581.902 419.698   6
  -8   7  -4-18.5585 487.094  10
   8  -6  -8 101.663 125.895   1
   8  -6  -8 608.978 326.004   3
   8  -6  -7-172.114 250.784   1
   8  -6  -7 26.2603 235.086   3
   8  -6  -6 350.701 295.426   8
   8  -6  -6 257.563 156.007   1
   8  -6  -5 91.4908 259.868   8
   8  -6  -5-144.003 182.651   1
  -8   6   5 76.2609 386.335   6
   8  -6  -5 25.5659 284.911   3
   8  -6  -4 261.057 164.988   1
   8  -6  -4 702.149 326.763   8
  -8   6   4-196.170 230.687   2
   8  -6  -4 624.722 413.376  14
  -8   6   4 403.735 260.131   6
   8  -6  -4 845.126 363.588   3
   8  -6  -3 2417.42 622.871   8
  -8   6   3 1772.22 528.688   2
   8  -6  -3 1309.65 490.283  14
  -8   6   3 2047.57 639.312   6
   8  -6  -3 1716.42 456.344   3
   8  -6  -2 560.975 329.249   8
  -8   6   2-576.807 402.484   2
   8  -6  -2 477.119 319.047  14
  -8   6   2-828.908 432.261   6
  -8   6   2-201.866 431.708  10
   8  -6  -1 2308.91 738.223   8
  -8   6   1 2664.81 629.373   2
   8  -6  -1 723.897 549.619  14
  -8   6   1 2137.89 641.610   6
  -8   6   1 2113.52 668.406  10
   8  -6   0 748.331 365.229   8
  -8   6   0 624.709 375.827   2
   8  -6   0 128.914 377.281  14
  -8   6   0 1097.01 432.511   6
  -8   6   0 1045.77 466.494  10
   8  -6   1 1372.12 647.047   8
  -8   6  -1 1264.84 459.136   2
   8  -6   1 578.040 347.820  14
  -8   6  -1 1465.05 512.759   6
  -8   6  -1 826.134 529.098  10
   8  -6   2 2772.32 799.774   8
  -8   6  -2 2517.33 597.101   2
   8  -6   2 1538.58 660.602  14
  -8   6  -2 3087.01 737.846   6
  -8   6  -2 2317.40 591.163  11
  -8   6  -2 2335.28 661.856  10
  -8   6  -3 236.075 330.798   2
   8  -6   3-676.638 434.594  14
  -8   6  -3 665.100 454.843   6
  -8   6  -3 52.4561 345.902  10
  -8   6  -4 415.963 223.861   4
   8  -6   4-10.4279 149.040  14
  -8   6  -4-340.383 286.185   2
  -8   6  -4-58.5577 247.017   6
  -8   6  -4-628.116 409.416  10
  -8   6  -5 577.594 454.445   4
  -8   6  -5 839.203 426.788   2
  -8   6  -5 126.906 238.668   6
   8  -5  -9 375.374 275.639   1
   8  -5  -9-422.195 274.079   3
  -8   5   8 1248.49 483.832   6
   8  -5  -8 716.044 370.920   1
   8  -5  -8 1115.28 364.672   3
   8  -5  -7-225.608 411.676  14
  -8   5   7-555.621 321.979   6
   8  -5  -7 14.2578 195.860   1
   8  -5  -7 327.229 212.900   3
   8  -5  -6 711.905 352.110   8
   8  -5  -6 206.474 423.436  14
   8  -5  -6 402.276 264.565   1
  -8   5   6-431.552 389.876   6
   8  -5  -6 259.927 347.128   3
   8  -5  -5 38.8772 167.396   8
   8  -5  -5-364.701 276.195  14
   8  -5  -5 29.8966 141.917   1
  -8   5   5 509.953 354.565   6
   8  -5  -5-340.994 297.885   3
   8  -5  -4 690.769 303.433   8
  -8   5   4 1293.70 490.604   2
   8  -5  -4 723.548 524.223  14
  -8   5   4 851.549 418.101   6
   8  -5  -4 888.019 407.478   3
   8  -5  -3 2281.80 568.125   8
  -8   5   3 1648.46 519.339   2
   8  -5  -3 1769.48 564.647  14
  -8   5   3 2260.14 612.052   6
   8  -5  -3 1540.85 435.734   3
   8  -5  -2 875.858 515.049   8
  -8   5   2-237.872 298.910   2
   8  -5  -2 660.550 426.119  14
   8  -5  -2 166.505 268.335   3
  -8   5   2 660.724 437.400   6
   8  -5  -1 6489.47 1048.49   8
   8  -5  -1 6264.01 824.207   3
   8  -5  -1 5949.62 1040.75  14
  -8   5   1 7093.60 1076.29   6
  -8   5   1 7565.20 876.918   2
   8  -5   0 136.307 288.830   8
  -8   5   0 434.423 324.027   2
   8  -5   0 254.077 227.526  14
   8  -5   0 292.009 302.869   3
  -8   5   0 362.995 311.596   6
  -8   5   0 224.571 270.606  11
  -8   5   0 158.085 400.437  10
   8  -5   1 2026.07 665.719   8
  -8   5  -1 1746.67 505.529   2
   8  -5   1 1968.49 618.903  14
   8  -5   1 1154.35 470.276   3
  -8   5  -1 1955.50 527.835   6
  -8   5  -1 1662.78 541.941  11
  -8   5  -1 1187.23 499.452  10
   8  -5   2-19.2966 286.297   8
  -8   5  -2-25.5693 234.095   2
   8  -5   2-230.642 272.023  14
  -8   5  -2 733.328 400.082   6
  -8   5  -2-244.909 403.850  11
  -8   5  -2 316.815 337.335  10
   8  -5   3 1128.91 542.140   8
  -8   5  -3 1332.97 480.815   4
   8  -5   3 779.002 488.951  14
  -8   5  -3 514.301 304.831   2
  -8   5  -3 1443.07 505.324   6
  -8   5  -3 1385.17 510.259  11
  -8   5  -3 259.331 264.477  10
  -8   5  -4 795.955 464.022   4
   8  -5   4 1407.22 580.888  14
  -8   5  -4 2299.55 564.051   2
  -8   5  -4 1166.78 389.657   6
  -8   5  -4 2236.49 646.334  10
  -8   5  -5 3478.62 802.652   4
   8  -5   5 3470.38 1083.31  14
  -8   5  -5 2979.48 630.326   2
  -8   5  -5 3003.05 639.367   6
  -8   5  -6 34.0683 278.167   4
  -8   5  -6 687.575 289.087   2
  -8   4   9 663.711 331.167   6
   8  -4  -9 196.029 164.843   1
   8  -4  -9-103.195 279.140   3
   8  -4  -8 794.450 358.605  14
  -8   4   8 109.734 326.139   6
   8  -4  -8 411.800 423.921   1
   8  -4  -8 613.471 326.052   3
   8  -4  -7-643.334 375.846  14
   8  -4  -7-133.130 198.260   1
  -8   4   7-191.362 208.850   6
   8  -4  -7 291.044 273.088   3
   8  -4  -6 82.8738 196.063   8
   8  -4  -6 257.250 427.594  14
   8  -4  -6 541.243 167.910   1
  -8   4   6 892.863 523.393   6
   8  -4  -6 799.788 322.044   3
   8  -4  -5 5790.03 880.773   8
   8  -4  -5 7429.08 954.438   3
  -8   4   5 7595.73 1135.66   6
   8  -4  -5 6071.59 996.351  14
   8  -4  -4 85.9927 246.347   8
   8  -4  -4-20.6630 128.603  14
  -8   4   4-177.714 439.877   6
   8  -4  -4-12.0205 320.350   3
  -8   4   4 97.7471 304.463   2
   8  -4  -3 4007.16 762.949   8
  -8   4   3 3837.47 680.846   2
   8  -4  -3 3638.22 769.848  14
  -8   4   3 4713.85 806.511   6
   8  -4  -3 5025.44 846.770   3
   8  -4  -2 675.403 427.961   8
  -8   4   2 658.103 393.037   2
   8  -4  -2 1058.24 505.538  14
  -8   4   2 990.711 437.409   6
   8  -4  -2 579.409 394.338   3
  -8   4   2 1220.56 373.051  11
   8  -4  -1 1485.03 640.480   8
  -8   4   1 1177.97 429.637   2
   8  -4  -1 923.195 567.407  14
   8  -4  -1 1880.38 540.833   3
  -8   4   1 1382.15 534.007   6
  -8   4   1 1797.97 483.179  11
  -8   4   0 13729.6 1048.43   2
   8  -4   0 9727.82 1295.32   8
   8  -4   0 12450.6 1215.01   3
   8  -4   0 11536.8 1498.63  14
  -8   4   0 11227.1 1262.43   6
  -8   4   0 12450.0 1128.61  11
   8  -4   1 1678.43 625.183   8
  -8   4  -1 1874.32 428.630   2
   8  -4   1 1148.40 484.810  14
   8  -4   1 2154.76 515.045   3
  -8   4  -1 697.655 423.802   6
  -8   4  -1 2429.32 580.757  11
  -8   4  -1 818.585 504.857  10
   8  -4   2-65.9387 370.358   8
  -8   4  -2 299.593 328.040   4
  -8   4  -2 58.9923 184.076   2
   8  -4   2 542.431 391.929  14
   8  -4   2 131.533 186.488   3
  -8   4  -2-37.4519 283.382   6
  -8   4  -2 322.982 356.661  11
  -8   4  -2-206.541 306.565  10
   8  -4   3 4542.28 942.422   8
  -8   4  -3 2505.89 624.059   4
   8  -4   3 4487.47 1054.77  14
  -8   4  -3 3585.16 559.684   2
   8  -4   3 2502.07 609.098   3
  -8   4  -3 3052.78 630.351   6
  -8   4  -3 2589.40 661.346  11
  -8   4  -3 2350.69 637.320  10
  -8   4  -4-180.214 347.187   4
   8  -4   4 34.9435 364.038  14
   8  -4   4-1.62885 271.802   3
  -8   4  -4-84.9536 201.793   2
  -8   4  -4-261.420 296.788   6
  -8   4  -4 323.264 304.878  11
  -8   4  -4-217.701 241.830  10
  -8   4  -5 201.121 411.866   4
   8  -4   5 204.906 210.150  14
  -8   4  -5 150.744 229.053   2
  -8   4  -6 103.973 214.505   4
  -8   4  -6-120.871 130.623   2
  -8   3  10 526.347 391.603   9
  -8   3  10 434.980 326.544   6
   8  -3 -10 82.6467 407.188   1
   8  -3 -10 509.242 418.583   3
   8  -3  -9 244.363 335.465  14
  -8   3   9 313.996 347.963   6
   8  -3  -9 366.793 245.116   1
   8  -3  -9 137.158 275.865   3
   8  -3  -8 220.819 335.662  14
   8  -3  -8-328.122 318.892   1
  -8   3   8 246.630 224.962   6
   8  -3  -8 589.113 388.486   3
   8  -3  -7 22.9959 262.651   1
   8  -3  -7 550.401 433.109  14
  -8   3   7-509.772 353.322   6
   8  -3  -7 319.322 337.862   3
   8  -3  -6 2520.23 680.763  14
  -8   3   6 2098.19 597.410   6
   8  -3  -6 1587.32 513.986   3
   8  -3  -5 80.0186 360.634  14
  -8   3   5 189.360 330.815   6
   8  -3  -5 86.7932 270.947   3
   8  -3  -4 3270.23 764.095  14
  -8   3   4 3729.98 804.703   6
   8  -3  -4 3063.10 492.547   2
   8  -3  -4 3683.32 728.373   3
   8  -3  -3 6277.59 606.543   2
  -8   3   3 6871.79 701.356   1
   8  -3  -3 7467.79 1002.22   3
   8  -3  -3 6794.66 1087.08  14
  -8   3   3 7151.89 946.453   6
  -8   3   3 7306.95 787.408  11
  -8   3   3 7991.12 803.551   2
  -8   3   2 216.266 272.684   2
  -8   3   2 159.843 193.550   1
   8  -3  -2 115.978 372.834  14
  -8   3   2 322.260 344.122   6
   8  -3  -2 150.275 343.307   3
  -8   3   2 468.844 280.955  11
   8  -3  -2-79.8787 135.617   2
   8  -3  -1 2832.27 724.858  14
   8  -3  -1 3563.45 779.305   3
  -8   3   1 3172.76 695.160   6
   8  -3  -1 3876.66 585.606  12
  -8   3   1 2861.91 610.310  11
   8  -3  -1 2599.67 430.718   2
  -8   3   1 3546.63 525.415   2
  -8   3   0 245.079 194.017   2
   8  -3   0 493.128 308.784  14
   8  -3   0-56.2884 139.873   3
  -8   3   0-154.359 319.375   6
  -8   3   0 64.6450 327.443  11
  -8   3  -1 5016.37 606.714   2
  -8   3  -1 4310.75 759.146   4
   8  -3   1 4252.79 956.347  14
   8  -3   1 3941.09 788.365   3
  -8   3  -1 3485.92 670.400   6
  -8   3  -1 4175.52 753.290  11
  -8   3  -2-146.838 276.900   4
   8  -3   2-18.2753 282.261  14
  -8   3  -2 121.296 176.530   2
   8  -3   2 97.7494 289.650   3
  -8   3  -2-9.08146 251.592   6
  -8   3  -2-506.287 426.510  11
  -8   3  -2 147.759 265.659  10
  -8   3  -3 5123.50 658.521   2
  -8   3  -3 4422.80 848.683   4
   8  -3   3 4346.26 1049.70  14
   8  -3   3 4144.37 808.997   3
  -8   3  -3 4371.05 737.461   6
  -8   3  -3 5096.95 919.843  11
  -8   3  -3 4431.03 726.101  10
  -8   3  -4-5.38518 276.433   4
   8  -3   4 337.041 345.116  14
   8  -3   4-727.447 361.139   3
  -8   3  -4 272.987 242.588   2
  -8   3  -4 280.995 257.896   6
  -8   3  -4 157.495 352.047  11
  -8   3  -4-602.492 267.369  10
  -8   3  -5 968.514 522.426   4
   8  -3   5 1440.25 695.693  14
  -8   3  -5 1310.48 468.146   2
  -8   3  -5 1337.99 563.219  11
  -8   3  -6 414.036 527.518   4
  -8   3  -6-98.4341 219.280   2
  -8   2  11 427.930 360.218   9
   8  -2 -11-561.654 359.318  14
  -8   2  11-237.146 263.859   6
  -8   2  10 581.918 448.044   9
   8  -2 -10-344.687 302.011  14
   8  -2 -10 452.530 346.040   1
  -8   2  10-98.4255 383.781   6
   8  -2 -10-16.9622 425.564   3
   8  -2  -9 174.808 236.060   1
  -8   2   9 16.4879 270.376   9
   8  -2  -9 212.536 431.779  14
  -8   2   9 757.489 468.555   6
   8  -2  -9 1391.53 498.039   3
   8  -2  -8 758.992 420.877  14
  -8   2   8 1180.81 438.939   6
   8  -2  -8 1523.18 531.284   3
   8  -2  -7 2294.98 624.155  14
  -8   2   7 4383.04 871.756   6
   8  -2  -7 3036.92 643.017   3
   8  -2  -6 524.296 454.382  14
  -8   2   6 782.620 457.897   6
   8  -2  -6 955.773 426.284   3
  -8   2   5 10916.8 886.169   8
   8  -2  -5 10376.9 595.255   7
   8  -2  -5 12599.0 1257.52   3
   8  -2  -5 12948.8 1346.78  14
  -8   2   5 11802.8 1277.39   6
   8  -2  -5 11962.6 822.407   5
   8  -2  -4 422.304 162.157   7
   8  -2  -4 1436.18 568.884  14
  -8   2   4 245.919 418.498   6
   8  -2  -4 511.511 185.573   2
   8  -2  -4 133.549 362.086   3
  -8   2   4 1010.07 374.702  11
   8  -2  -4 762.274 238.776   5
   8  -2  -3 9489.44 665.091   2
  -8   2   3 9023.69 814.743   1
   8  -2  -3 9052.75 741.439   7
   8  -2  -3 9627.66 1121.66   3
   8  -2  -3 10430.1 1298.91  14
  -8   2   3 9522.19 1161.47   6
  -8   2   3 9821.62 905.285  11
   8  -2  -3 8927.10 547.953   5
   8  -2  -2 10856.1 726.105   2
  -8   2   2 10483.9 830.259   1
   8  -2  -2 11081.1 884.990   7
   8  -2  -2 11527.6 1257.17   3
   8  -2  -2 13508.0 1563.86  14
  -8   2   2 11516.4 1226.96   6
   8  -2  -2 9186.80 961.528  12
  -8   2   2 10965.5 999.643  11
  -8   2   2 12258.4 815.657   2
  -8   2   1 5387.31 571.748   1
   8  -2  -1 4553.64 498.109   2
   8  -2  -1 4724.32 653.517   7
   8  -2  -1 5373.11 1011.74  14
  -8   2   1 4164.06 766.944   6
   8  -2  -1 5472.93 874.128   3
   8  -2  -1 4794.30 660.574  12
  -8   2   1 5717.09 793.554  11
  -8   2   1 5538.82 556.673   2
  -8   2   0 283.767 122.798   1
  -8   2   0 445.440 382.986   4
   8  -2   0 340.747 224.379   7
  -8   2   0 222.930 197.581   2
  -8   2   0 59.2066 203.016   7
   8  -2   0-274.615 451.949  14
   8  -2   0-763.751 425.432   3
  -8   2   0-403.985 317.859   6
   8  -2   0 252.064 226.705  12
  -8   2   0-18.1099 377.927  11
  -8   2  -1 4648.24 515.525   2
  -8   2  -1 4214.27 760.106   4
   8  -2   1 5369.60 774.002   7
   8  -2   1 4373.24 906.012  14
   8  -2   1 2697.19 647.406   3
  -8   2  -1 4262.60 724.405   6
  -8   2  -1 4130.35 762.160  11
  -8   2  -2 1641.41 563.916   4
   8  -2   2 2119.72 559.005   7
   8  -2   2 1897.67 720.320  14
  -8   2  -2 2213.00 383.299   2
   8  -2   2 824.609 481.167   3
  -8   2  -2 1699.71 444.360   6
  -8   2  -2 1251.03 423.217  11
  -8   2  -3 292.327 410.350   4
   8  -2   3 1171.36 499.459  14
   8  -2   3 268.494 401.460   3
  -8   2  -3 171.321 191.880   2
  -8   2  -3 263.102 344.258   6
  -8   2  -3 287.709 363.827  11
  -8   2  -3 116.105 206.802  10
  -8   2  -4 1977.15 755.428   4
   8  -2   4 985.963 473.666  14
   8  -2   4 1183.76 515.866   3
  -8   2  -4 1370.04 326.945   2
  -8   2  -4 1331.58 413.964   6
  -8   2  -4 999.545 527.479  11
  -8   2  -5 578.022 436.665   4
   8  -2   5-78.6418 250.851   3
  -8   2  -5-117.219 221.875   2
  -8   2  -5 43.7075 135.676  11
  -8   2  -6-248.511 352.441   4
   8  -1 -12 602.754 476.934  14
  -8   1  11 675.059 466.024   5
  -8   1  11 684.928 428.981   9
   8  -1 -11-480.408 272.281  14
  -8   1  11-362.830 370.785   6
  -8   1  10 1092.49 537.423   5
  -8   1  10 1025.47 464.078   9
   8  -1 -10 825.298 453.642  14
  -8   1  10 953.037 489.838   6
   8  -1 -10 1327.69 489.883   3
  -8   1   9 449.325 406.370   5
  -8   1   9 89.5328 288.442   9
   8  -1  -9 160.867 236.831  14
  -8   1   9 280.853 205.803   6
   8  -1  -9 667.240 299.769   3
  -8   1   8 3281.57 672.189   5
   8  -1  -8 3217.90 641.429  14
  -8   1   8 3394.49 777.181   6
   8  -1  -8 3055.64 655.076   3
  -8   1   7 1497.26 461.218   5
   8  -1  -7 1438.27 278.543   7
   8  -1  -7 1517.14 582.246  14
  -8   1   7 968.045 497.967   6
   8  -1  -7 1343.14 464.720   3
  -8   1   6 4137.15 515.663   8
   8  -1  -6 4549.61 534.118   7
   8  -1  -6 4274.69 801.347  14
  -8   1   6 3884.65 743.641   6
   8  -1  -6 4026.87 753.798   3
  -8   1   6 4305.52 604.413   5
   8  -1  -6 4116.28 570.908   5
  -8   1   5 8395.83 822.251   8
   8  -1  -5 8020.97 718.935   7
   8  -1  -5 8614.21 1074.85   3
   8  -1  -5 7601.08 1087.73  14
  -8   1   5 8496.74 1082.74   6
  -8   1   5 9379.87 783.485  11
   8  -1  -5 8115.78 735.987   5
  -8   1   5 8895.84 786.776   5
  -8   1   4 149.323 208.615   5
   8  -1  -4 332.476 174.653   7
   8  -1  -4-280.212 491.024  14
  -8   1   4-479.497 470.735   6
   8  -1  -4 588.013 452.028   3
   8  -1  -4 132.158 92.9481   2
  -8   1   4 124.731 313.716  11
   8  -1  -4-158.571 146.497   5
   8  -1  -3 469.608 252.262   7
   8  -1  -3 578.441 512.657  14
  -8   1   3 500.382 469.737   6
   8  -1  -3 348.726 414.316   3
  -8   1   3 420.045 348.887  11
   8  -1  -3 525.734 139.810   2
  -8   1   2 6710.43 671.333   1
   8  -1  -2 7889.40 846.478   7
   8  -1  -2 8340.42 1083.70   3
   8  -1  -2 8566.21 1266.14  14
  -8   1   2 7488.87 993.140   6
   8  -1  -2 6927.16 837.164  12
  -8   1   2 7361.61 870.918  11
   8  -1  -1 3678.25 667.404   7
   8  -1  -1 2249.74 685.081  14
  -8   1   1 2333.63 624.262   6
   8  -1  -1 2749.40 691.600   3
   8  -1  -1 2678.62 541.078  12
  -8   1   1 2692.82 585.639  11
  -8   1   1 2580.30 395.919   1
  -8   1   1 2545.40 297.953   2
  -8   1   0 2089.48 529.537   4
   8  -1   0 1025.30 470.922   7
  -8   1   0 1804.29 281.416   2
   8  -1   0 2310.68 734.968  14
   8  -1   0 1815.95 556.444   3
  -8   1   0 2112.90 528.334   6
   8  -1   0 1543.67 382.619  12
  -8   1   0 2156.13 499.007  11
  -8   1   0 1807.38 330.806   1
  -8   1  -1 7229.50 548.350   2
  -8   1  -1 6230.60 608.853   1
  -8   1  -1 7485.11 1032.89   4
   8  -1   1 7421.86 974.612   7
   8  -1   1 8601.24 1292.60  14
  -8   1  -1 6388.49 818.835   6
   8  -1   1 6632.57 1064.87   3
  -8   1  -1 6400.96 895.051  11
  -8   1  -2 42.3866 328.628   4
   8  -1   2 556.992 388.904   7
   8  -1   2 448.536 331.531  14
  -8   1  -2 237.644 181.480   2
   8  -1   2 686.611 453.012   3
  -8   1  -2 935.401 371.943   6
  -8   1  -2 739.378 307.452  11
  -8   1  -3 6484.94 618.074   2
  -8   1  -3 6783.42 1088.75   4
   8  -1   3 6817.40 1055.69   7
   8  -1   3 6256.11 1164.63  14
  -8   1  -3 7006.75 844.088   6
   8  -1   3 5796.61 979.071   3
  -8   1  -3 6459.11 659.528   1
  -8   1  -3 6298.32 974.326  11
  -8   1  -3 5506.46 689.559  10
  -8   1  -4 1298.53 519.556   4
   8  -1   4 2342.69 657.035   7
   8  -1   4 903.173 521.295  14
   8  -1   4 1979.17 665.376   3
  -8   1  -4 1577.49 438.193   6
  -8   1  -4 961.584 297.475   2
  -8   1  -4 1617.86 643.937  11
  -8   1  -5-837.858 544.479   4
   8  -1   5-151.064 326.898   3
  -8   1  -5 497.497 447.490  11
  -8   0  12-649.419 484.763   9
   8   0 -12 470.790 270.819  14
  -8   0  11-464.115 439.664   5
  -8   0  11 286.223 217.500   9
   8   0 -11 61.3982 320.314  14
  -8   0  11 404.983 361.200   6
  -8   0  10 134.885 330.113   5
  -8   0  10 1179.04 466.165   9
   8   0 -10 312.875 321.458  14
  -8   0  10-404.125 426.665   6
   8   0 -10 319.577 337.402   3
  -8   0   9-68.1280 233.612   5
  -8   0   9 731.412 313.220   9
   8   0  -9 784.541 432.632  14
  -8   0   9 706.099 409.186   6
   8   0  -9 933.217 451.495   3
  -8   0   8-25.0614 318.254   5
  -8   0   8-429.455 270.692   9
   8   0  -8 214.323 133.631   7
   8   0  -8-328.265 371.376  14
  -8   0   8-341.279 314.440   6
   8   0  -8 51.5423 225.981   3
  -8   0   7 2414.64 550.822   5
   8   0  -7 2989.75 498.538   7
   8   0  -7 2264.41 562.183  14
  -8   0   7 1724.69 585.535   6
   8   0  -7 2630.80 679.234   3
  -8   0   6 107.884 222.154   5
  -8   0   6 24.0161 89.0616   8
   8   0  -6-214.369 197.833   7
   8   0  -6 12.1263 438.971  14
  -8   0   6-32.6590 395.488   6
   8   0  -6-136.530 312.766   3
   8   0  -6 18.6391 174.488   5
  -8   0   5 1916.66 396.659   5
  -8   0   5 1307.00 349.365   8
   8   0  -5 1559.09 404.047   7
   8   0  -5 1851.79 633.539  14
  -8   0   5 2383.39 704.500   6
   8   0  -5 2069.23 615.208   3
  -8   0   5 1939.08 410.985  11
   8   0  -5 2657.02 475.536   5
   8   0  -4 26826.4 1541.25   7
   8   0  -4 31259.5 2100.83   3
   8   0  -4 31748.5 2175.79  14
  -8   0   4 30241.2 1981.84   6
  -8   0   4 31673.0 1508.78  11
   8   0  -4 27013.1 1304.52   5
  -8   0   4 26798.4 1219.63   5
   8   0  -3 18123.0 1331.10   7
   8   0  -3 18408.5 1657.21   3
   8   0  -3 20530.3 1826.93  14
  -8   0   3 18611.4 1559.97   6
  -8   0   3 19989.3 1324.81  11
  -8   0   3 18146.6 887.802   5
  -8   0   2 1041.87 222.530   5
   8   0  -2 1590.56 471.543   7
   8   0  -2 997.554 638.970  14
  -8   0   2 1608.96 557.358   6
   8   0  -2 822.381 586.579   3
  -8   0   2 1551.29 411.415  11
  -8   0   1 18746.2 1139.49   1
  -8   0   1 21202.8 1574.48   4
   8   0  -1 20262.1 1529.49   7
   8   0  -1 18973.5 1703.94   3
   8   0  -1 21135.0 1917.30  14
  -8   0   1 18908.9 1480.72   6
  -8   0   1 19615.1 1464.76  11
  -8   0   1 16577.7 507.119   5
  -8   0   0 1006.21 406.424   9
  -8   0   0 1212.96 433.675   4
   8   0   0 1439.95 496.585   7
   8   0   0 879.226 571.438  14
  -8   0   0 1074.68 425.781   6
   8   0   0 855.574 513.714   3
  -8   0   0 1537.42 361.358   1
   8   0   0 1353.59 324.857  12
  -8   0   0 1509.17 435.605  11
  -8   0   0 1125.46 128.317   2
  -8   0  -1 28.9918 73.9744   1
  -8   0  -1 320.791 353.890   4
   8   0   1 71.5865 364.764   7
  -8   0  -1 22.7395 92.0630   2
   8   0   1 60.6971 424.448  14
   8   0   1 88.9543 183.153   3
  -8   0  -1 220.748 285.568   6
  -8   0  -1-231.287 266.065  11
  -8   0  -1-11.4537 222.931  10
  -8   0  -2 2202.87 664.502   4
   8   0   2 1688.94 570.212   7
   8   0   2 2518.16 760.054  14
  -8   0  -2 2280.61 304.831   2
   8   0   2 1757.70 583.760   3
  -8   0  -2 2131.92 457.369   6
  -8   0  -2 2121.30 562.773  11
  -8   0  -3 307.204 459.884   4
   8   0   3 148.381 166.682   7
   8   0   3-36.7168 452.050  14
   8   0   3 290.228 355.330   3
  -8   0  -3-64.6572 97.9746   6
  -8   0  -3-39.0529 203.630  11
  -8   0  -4 133.623 493.045   4
   8   0   4 1062.44 508.380   7
   8   0   4 1682.17 705.160   3
  -8   0  -4 623.734 284.443   1
  -8   0  -4-33.1844 395.595  11
  -8   0  -5-130.995 302.115   4
   8   0   5-43.3849 261.704   7
   8   0   5 177.431 346.818   3
  -8   0  -5-94.7064 159.144  11
   8   0   6 948.268 648.871   7
  -8  -1  12 125.113 205.911   9
   8   1 -12 604.269 437.544  14
  -8  -1  11-186.368 337.144   5
  -8  -1  11 271.158 444.327   9
   8   1 -11 421.794 224.900  14
  -8  -1  11-445.841 495.338   6
  -8  -1  10 1240.14 558.871   5
  -8  -1  10 2497.42 608.962   9
   8   1 -10 1356.06 488.165  14
  -8  -1  10 1360.10 546.245   6
   8   1 -10 1450.79 490.448   3
  -8  -1   9 22.7225 132.878   5
  -8  -1   9 755.193 322.800   9
   8   1  -9 640.563 307.356  14
  -8  -1   9 420.583 342.663   6
   8   1  -9-226.603 263.544   3
  -8  -1   8 11030.1 1137.69   9
   8   1  -8 11904.5 1016.00   7
   8   1  -8 11722.5 1273.92   3
   8   1  -8 9057.26 1066.66  14
  -8  -1   8 10937.5 1307.44   6
  -8  -1   8 11936.5 1165.77   5
  -8  -1   7 10667.5 1055.89   9
   8   1  -7 9123.61 914.206   7
   8   1  -7 10045.2 1206.95   3
   8   1  -7 8064.13 1030.12  14
  -8  -1   7 9532.51 1208.71   6
  -8  -1   7 8661.92 933.383   5
  -8  -1   6 1883.94 429.224   5
  -8  -1   6 1464.95 372.808   8
   8   1  -6 2305.63 513.613   7
   8   1  -6 2491.00 657.636  14
  -8  -1   6 3128.38 732.002   6
   8   1  -6 1805.23 604.578   3
  -8  -1   6 2385.25 392.535  11
  -8  -1   5 744.533 339.303   5
  -8  -1   5 1232.31 392.824   8
   8   1  -5 932.988 362.355   7
   8   1  -5 824.983 481.530  14
  -8  -1   5 690.563 470.991   6
   8   1  -5 671.950 444.419   3
  -8  -1   5 1186.23 329.726  11
   8   1  -5 899.675 296.985   5
   8   1  -4 6435.72 854.658   7
   8   1  -4 7394.82 1119.02   3
   8   1  -4 7303.94 1091.15  14
  -8  -1   4 5354.26 933.129   6
  -8  -1   4 6116.19 739.106  11
  -8  -1   4 5776.31 620.868   5
  -8  -1   3 1607.07 313.102   5
   8   1  -3 1250.78 451.367   7
   8   1  -3 2730.62 719.778  14
  -8  -1   3 2011.99 654.798   6
   8   1  -3 1039.06 484.305   3
  -8  -1   3 1951.95 413.128  11
  -8  -1   2 174.192 158.115   9
   8   1  -2 315.891 349.398   7
   8   1  -2 204.085 338.201  14
  -8  -1   2-266.201 391.973   6
   8   1  -2 980.250 529.029   3
  -8  -1   2 445.848 327.011  11
  -8  -1   2 530.384 190.154   5
  -8  -1   1 439.947 227.446   9
  -8  -1   1 1360.10 431.991   4
   8   1  -1 1060.64 517.642   7
   8   1  -1 591.799 473.326  14
  -8  -1   1 459.708 383.524   6
   8   1  -1-262.856 337.990   3
  -8  -1   1 673.200 362.033  11
  -8  -1   1 1033.98 207.443   5
  -8  -1   0 2859.03 552.322   9
  -8  -1   0 2639.14 656.624   4
   8   1   0 2833.78 650.181   7
   8   1   0 2463.34 709.784  14
  -8  -1   0 3411.73 673.472   6
   8   1   0 3338.36 840.799   3
  -8  -1   0 2406.43 566.165  11
  -8  -1   0 2385.29 249.351   5
  -8  -1   0 2857.83 539.745  10
  -8  -1  -1 3722.56 655.236   9
  -8  -1  -1 5216.12 870.366   4
   8   1   1 5264.24 894.149   7
   8   1   1 4712.87 932.047  14
   8   1   1 4562.93 921.282   3
  -8  -1  -1 4205.51 682.285   6
  -8  -1  -1 3770.53 750.270  11
  -8  -1  -1 4384.87 629.972  10
  -8  -1  -2 1773.94 591.187   4
   8   1   2 1461.46 561.902   7
   8   1   2 1666.48 627.922  14
   8   1   2 2096.95 658.491   3
  -8  -1  -2 1845.24 467.848   6
  -8  -1  -2 1513.20 453.331  11
   8   1   3 28.6225 222.152   7
   8   1   3 127.652 237.922   3
  -8  -1  -3 361.326 246.657   6
  -8  -1  -3 448.390 283.798  11
  -8  -1  -4 585.786 278.679   1
  -8  -1  -4 297.801 311.355   4
   8   1   4 754.561 441.590   7
   8   1   4 749.970 519.878   3
  -8  -1  -4 904.320 399.233  11
  -8  -1  -5-292.454 190.044   1
  -8  -1  -5-110.563 233.162   4
   8   1   5-536.425 354.625   3
  -8  -1  -5-196.886 244.109  11
  -8  -2  12 995.370 586.649   9
  -8  -2  11 40.0332 246.646   5
  -8  -2  11 42.1887 378.835   9
   8   2 -11-9.65075 68.9801  14
  -8  -2  11 573.650 377.235   6
  -8  -2  10 1322.46 554.059   5
  -8  -2  10 649.759 318.686   9
   8   2 -10 577.421 278.162  14
  -8  -2  10 430.264 300.217   6
   8   2 -10 803.358 437.542   3
  -8  -2   9 1505.55 469.989   5
  -8  -2   9 1887.34 487.051   9
   8   2  -9 1132.21 393.077  14
  -8  -2   9 1815.54 577.323   6
   8   2  -9 1690.87 564.234   3
  -8  -2   8-395.897 370.485   5
  -8  -2   8 286.397 202.945   9
   8   2  -8 197.001 272.755  14
  -8  -2   8 274.056 317.923   6
   8   2  -8-3.29563 352.787   3
  -8  -2   7 841.955 415.669   5
  -8  -2   7 1300.15 374.188   9
   8   2  -7 1218.92 401.388   7
   8   2  -7 1192.48 454.193  14
  -8  -2   7 1259.05 611.517   6
   8   2  -7 1224.57 621.524   3
  -8  -2   6 8050.86 780.888   9
   8   2  -6 7226.97 894.260   7
   8   2  -6 6615.02 948.856  14
  -8  -2   6 6735.89 1038.40   6
   8   2  -6 6777.75 1122.90   3
  -8  -2   6 7180.65 619.799  11
  -8  -2   6 6151.31 759.644   5
   8   2  -5 4207.49 743.732   7
   8   2  -5 3904.35 795.035  14
  -8  -2   5 5005.52 883.303   6
   8   2  -5 4988.10 908.029   3
  -8  -2   5 5173.30 624.734  11
  -8  -2   5 3908.42 589.097   5
   8   2  -4 837.128 340.305   7
   8   2  -4 1611.70 507.944  14
  -8  -2   4 1139.10 418.869   6
   8   2  -4 1141.98 457.434   3
  -8  -2   4 1205.47 306.700  11
  -8  -2   4 766.289 297.901   5
   8   2  -3 14203.6 1326.45   7
   8   2  -3 14476.5 1554.47   3
   8   2  -3 14132.6 1455.62  14
  -8  -2   3 12900.2 1303.60   6
  -8  -2   3 13215.2 1114.95  11
  -8  -2   3 13250.7 888.137   5
  -8  -2   3 9467.19 785.164   9
  -8  -2   2 3538.51 496.435   9
   8   2  -2 4574.69 821.464   7
   8   2  -2 4045.45 820.086  14
  -8  -2   2 5079.65 863.431   6
   8   2  -2 4734.78 903.424   3
  -8  -2   2 4504.88 722.555  11
  -8  -2   2 4923.00 518.667   5
  -8  -2   1 1405.83 435.441   4
   8   2  -1 1170.49 485.539   7
   8   2  -1 1663.96 641.962  14
  -8  -2   1 949.655 498.248   6
   8   2  -1 1632.29 595.101   3
  -8  -2   1 1485.10 423.049  11
  -8  -2   1 1346.62 282.049   5
  -8  -2   0 3438.93 695.455   4
   8   2   0 3458.70 785.756   7
   8   2   0 4451.47 934.270  14
  -8  -2   0 2741.55 609.688   6
   8   2   0 2763.46 796.426   3
  -8  -2   0 3907.82 736.147  11
  -8  -2   0 3907.88 413.276   5
  -8  -2  -1 1115.88 463.882   4
   8   2   1 1975.43 574.716   7
   8   2   1 1406.91 704.342  14
  -8  -2  -1 1151.12 416.965   6
   8   2   1 866.652 535.371   3
  -8  -2  -1 393.416 382.233  11
  -8  -2  -1 925.842 233.421   5
  -8  -2  -2 3484.52 764.825   4
   8   2   2 3013.08 768.336   7
   8   2   2 3183.21 828.911   3
  -8  -2  -2 2431.96 525.115   6
  -8  -2  -2 2106.36 623.174  11
  -8  -2  -3 1713.32 536.115   4
   8   2   3 2205.04 697.693   7
   8   2   3 2276.38 725.203   3
  -8  -2  -3 1639.45 412.833   6
  -8  -2  -3 1484.06 500.394  11
  -8  -2  -4 1853.08 624.965   4
  -8  -2  -4 1088.51 332.999   1
   8   2   4 1668.44 718.542   7
   8   2   4 1972.46 730.338   3
  -8  -2  -4 2271.70 632.695  11
  -8  -2  -5 199.639 182.393   1
   8   2   5 617.957 381.307   7
  -8  -3  11 955.949 472.882   5
  -8  -3  10 1933.42 560.342   5
  -8  -3  10 1485.70 570.930   6
   8   3 -10 1705.55 588.564   3
  -8  -3   9 1775.62 533.796   5
   8   3  -9 3291.96 637.118  14
  -8  -3   9 3208.07 809.754   6
   8   3  -9 1332.76 564.231   3
  -8  -3   8 2584.40 614.736   5
   8   3  -8 3181.36 685.274  14
  -8  -3   8 2049.83 684.275   6
   8   3  -8 3220.42 780.714   3
  -8  -3   7 775.900 258.479   9
   8   3  -7 870.644 343.035   7
   8   3  -7 150.717 275.539  14
  -8  -3   7 521.984 500.218   6
   8   3  -7 377.852 438.059   3
  -8  -3   7 384.293 288.631   5
  -8  -3   6 11765.8 817.890   9
   8   3  -6 10739.3 1140.45   7
   8   3  -6 12476.5 1477.32   3
   8   3  -6 11672.4 1192.94  14
  -8  -3   6 10548.5 1300.81   6
  -8  -3   6 12279.3 843.210  11
  -8  -3   6 9841.49 977.645   5
  -8  -3   5 672.976 228.090   9
   8   3  -5 466.558 325.006   7
   8   3  -5 680.894 419.317  14
  -8  -3   5 520.171 373.888   6
   8   3  -5 1247.28 627.352   3
  -8  -3   5 956.033 287.485  11
  -8  -3   5 843.475 358.163   5
  -8  -3   4 4906.78 426.399   9
   8   3  -4 4219.85 827.300   7
   8   3  -4 4592.16 776.774  14
  -8  -3   4 5517.25 954.098   6
   8   3  -4 7313.84 1160.59   3
  -8  -3   4 5376.84 696.416  11
  -8  -3   4 5532.82 653.788   5
   8   3  -3 2650.00 672.756   7
   8   3  -3 2971.40 731.967  14
  -8  -3   3 2988.41 708.749   6
   8   3  -3 2705.01 822.080   3
  -8  -3   3 2932.90 607.565  11
  -8  -3   3 4046.22 546.133   5
   8   3  -2 2547.02 706.014   7
   8   3  -2 1913.95 581.890  14
  -8  -3   2 2618.23 699.985   6
   8   3  -2 2634.52 792.174   3
  -8  -3   2 2026.83 517.366  11
  -8  -3   2 2690.15 450.049   5
  -8  -3   1 1653.94 481.531   4
   8   3  -1 1580.29 493.349   7
   8   3  -1 2144.66 707.329  14
  -8  -3   1 1751.80 526.443   6
   8   3  -1 2043.52 752.958   3
  -8  -3   1 1299.91 447.455  11
  -8  -3   1 1553.12 357.465   5
  -8  -3   0 618.074 405.017   4
   8   3   0 1417.32 598.980   7
  -8  -3   0 982.583 383.545   6
   8   3   0 975.991 604.046   3
  -8  -3   0 617.127 398.345  11
  -8  -3   0 541.240 239.398   5
  -8  -3  -1 255.067 331.168   4
   8   3   1 445.308 458.736   7
  -8  -3  -1 153.543 256.720   6
   8   3   1-417.850 391.501   3
  -8  -3  -1 125.266 250.281  11
  -8  -3  -1-160.683 190.161   5
  -8  -3  -2 326.261 241.971   4
   8   3   2 163.053 404.613   7
   8   3   2-708.616 413.272   3
  -8  -3  -2 9.48277 164.804  11
  -8  -3  -3 179.070 245.554   4
   8   3   3-373.382 464.638   7
   8   3   3-374.310 367.653   3
  -8  -3  -3 84.2001 284.307  11
  -8  -3  -3 365.488 353.084   1
  -8  -3  -4-57.8505 124.702   4
  -8  -3  -4-242.752 250.758   1
   8   3   4-580.557 540.358   7
   8   3   4-533.629 380.229   3
  -8  -3  -4 461.189 440.986  11
  -8  -3  -5 2172.21 536.637   1
  -8  -4  10 682.380 387.862   5
  -8  -4   9 121.032 238.106   6
   8   4  -9 840.334 555.102   3
  -8  -4   9 182.092 320.256   5
  -8  -4   8 3170.10 774.144   6
   8   4  -8 2816.49 737.733   3
  -8  -4   8 2948.57 655.797   5
   8   4  -7 1492.00 486.810   7
   8   4  -7 906.978 315.395  14
  -8  -4   7 1466.29 531.631   6
   8   4  -7 1210.74 606.517   3
  -8  -4   7 1066.47 414.775   5
   8   4  -6 638.008 368.924   7
   8   4  -6-57.2526 233.611  14
  -8  -4   6 513.183 472.444   6
   8   4  -6-400.885 389.755   3
  -8  -4   6 432.152 200.154  11
  -8  -4   6 346.965 306.939   5
   8   4  -5 7758.94 1063.83   7
   8   4  -5 9513.15 1345.76   3
   8   4  -5 7566.05 1026.37  14
  -8  -4   5 7594.62 1162.15   6
  -8  -4   5 8013.88 796.843  11
  -8  -4   5 7660.10 857.065   5
   8   4  -4 459.069 370.865   7
   8   4  -4 208.334 245.564  14
  -8  -4   4 547.318 448.578   6
   8   4  -4 302.523 407.206   3
  -8  -4   4 397.971 261.114  11
  -8  -4   4 758.960 341.770   5
   8   4  -3 660.665 474.346   7
   8   4  -3 405.307 335.454  14
  -8  -4   3 611.686 542.735   6
   8   4  -3 526.464 468.724   3
  -8  -4   3 681.555 307.588  11
  -8  -4   3 359.925 292.139   5
   8   4  -2 3338.51 777.854   7
  -8  -4   2 2900.35 651.934   6
   8   4  -2 1356.42 560.523   3
  -8  -4   2 1850.67 562.817  11
  -8  -4   2 2118.82 454.065   5
  -8  -4   1 1947.66 513.424   4
   8   4  -1 1792.65 586.857   7
   8   4  -1 1327.80 610.911   3
  -8  -4   1 839.897 334.488  11
  -8  -4   1 916.694 322.340   5
  -8  -4   0 2426.44 567.685   4
   8   4   0 3505.42 932.983   7
   8   4   0 2717.73 771.521   3
  -8  -4   0 1982.59 632.972  11
  -8  -4   0 2742.69 487.781   5
  -8  -4  -1 1514.71 480.131   4
   8   4   1 1470.23 653.547   7
   8   4   1 1855.99 686.886   3
  -8  -4  -1 1478.20 390.627   5
  -8  -4  -2 356.329 297.788   4
   8   4   2-118.471 220.428   7
   8   4   2 743.496 589.911   3
  -8  -4  -3 359.474 253.701   4
   8   4   3-57.6754 294.815   7
   8   4   3 609.561 601.205   3
  -8  -4  -3-60.6178 309.813   1
  -8  -4  -4 290.738 244.261   1
  -8  -4  -5-367.316 334.296   1
   8   5  -9 1612.95 631.846   3
  -8  -5   9 1159.23 456.650   5
   8   5  -8 3421.36 882.674   3
  -8  -5   8 1596.14 526.609   5
   8   5  -7-474.900 353.849   7
   8   5  -7-46.4411 383.783   3
  -8  -5   7-318.374 330.385   5
   8   5  -6 5979.58 996.432   7
   8   5  -6 6279.98 1178.70   3
  -8  -5   6 6711.64 872.466   5
   8   5  -5 2339.45 533.902  14
   8   5  -5 2284.73 719.199   7
   8   5  -5 2716.99 814.498   3
  -8  -5   5 2439.45 469.271  11
  -8  -5   5 2146.18 538.697   5
   8   5  -4 3042.51 800.386   7
   8   5  -4 3752.20 913.624   3
  -8  -5   4 2983.35 607.314  11
  -8  -5   4 2648.82 568.477   5
   8   5  -3 983.721 537.380   7
   8   5  -3 170.074 203.098   3
  -8  -5   3 804.660 304.008  11
  -8  -5   3 674.319 367.478   5
   8   5  -2-97.6179 374.963   7
   8   5  -2-159.445 196.289   3
  -8  -5   2-248.351 205.720  11
  -8  -5   2 80.9346 137.966   5
  -8  -5   1 650.867 308.166   4
   8   5  -1-236.696 348.895   7
   8   5  -1 1110.12 504.410   3
  -8  -5   1 68.1211 151.694   5
  -8  -5   0 105.568 193.806   4
   8   5   0-49.1037 313.861   7
   8   5   0 46.7741 379.752   3
  -8  -5   0 34.2685 181.589   5
  -8  -5  -1-214.605 202.518   4
   8   5   1 1069.79 484.826   7
   8   5   1 523.421 393.449   3
  -8  -5  -1 294.717 250.351   5
  -8  -5  -2 40.8421 296.388   4
   8   5   2 351.391 512.374   7
  -8  -5  -3 2129.45 638.709   4
  -8  -5  -3 2520.58 750.898   1
   8   6  -8 1194.10 452.551   7
   8   6  -8 1480.77 643.671   3
  -8  -6   8 408.774 386.095   5
   8   6  -7 2442.90 769.216   7
   8   6  -7 3789.84 943.969   3
  -8  -6   7 2207.78 650.160   5
   8   6  -6-335.963 307.165   7
   8   6  -6 367.115 310.660   3
  -8  -6   6 417.829 302.541   5
   8   6  -5 102.059 389.667   7
   8   6  -5-262.088 303.575   3
  -8  -6   5 231.789 222.141   5
   8   6  -4 19.5704 259.541   7
  -8  -6   4 574.309 308.457  11
  -8  -6   4 209.179 343.030   5
   8   6  -3 804.044 416.429   7
   8   6  -3 838.163 512.017   3
  -8  -6   3-156.928 143.723  11
  -8  -6   3-448.843 298.375   5
   8   6  -2 1643.66 686.005   7
   8   6  -2 2671.89 752.389   3
  -8  -6   2 1964.25 491.358   5
   8   6  -1 2804.80 780.969   7
   8   6  -1 1346.02 756.507   3
  -8  -6   1 1813.54 515.747   5
  -8  -6   0 631.228 356.496   4
   8   6   0 733.484 427.377   3
  -8  -6   0 88.9910 217.521   5
  -8  -6  -1 1120.58 434.500   4
  -8  -6  -1 157.144 171.931   5
  -8  -6  -2-636.131 475.998   4
   8   7  -6 2687.39 786.901   3
  -8  -7   6 2735.23 667.906   5
   8   7  -5 632.583 461.436   3
  -8  -7   5 283.451 423.320   5
   8   7  -4 144.208 457.486   3
  -8  -7   4 546.454 416.541   5
   8   7  -3 130.781 420.401   3
  -8  -7   3-369.338 271.230   5
  -8  -7   2 223.505 239.430   5
  -8  -7   1 228.418 207.103   5
  -8  -7   0 443.465 398.933   4
  -8  -7   0 197.807 256.780   5
  -8  -7  -1-844.319 484.361   4
  -8  -7  -1-40.4941 323.398   5
   9  -7  -4 172.862 433.505   8
   9  -7  -3 1092.89 502.741   8
  -9   7   3 786.567 374.513   2
  -9   7   2 983.100 517.520   2
  -9   7   1 132.701 369.968   2
  -9   7   0 446.287 332.679   2
   9  -6  -5 664.801 571.338   8
   9  -6  -4 718.595 584.974   8
  -9   6   4 41.5181 124.635   2
   9  -6  -3-261.420 266.350   8
  -9   6   3-138.879 217.905   2
   9  -6  -2 442.405 280.688   8
  -9   6   2 415.253 316.395   2
   9  -6  -1 1305.03 602.672   8
  -9   6   1 1025.85 421.567   2
  -9   6   1 208.911 370.163  10
  -9   6   0 293.262 184.231   2
  -9   6   0-963.810 476.710  10
  -9   6  -1 28.6228 188.767   2
  -9   6  -1-152.209 358.172  10
  -9   6  -2 823.448 422.545   2
  -9   6  -2 932.867 425.678  10
   9  -5  -8-353.363 227.091   1
   9  -5  -8 211.936 309.781   3
   9  -5  -7-381.747 332.335   3
   9  -5  -6 186.849 224.228   3
   9  -5  -5 1448.16 519.500   8
   9  -5  -5 708.097 475.618   3
   9  -5  -4-67.6720 188.469   8
  -9   5   4 492.212 431.288   6
   9  -5  -4-282.353 336.748   3
  -9   5   4-14.1759 107.790   2
   9  -5  -3 796.172 485.557   8
  -9   5   3-622.487 316.697   2
   9  -5  -3 35.8190 271.683  14
  -9   5   3-157.639 291.552   6
   9  -5  -3-307.307 392.315   3
   9  -5  -2 430.414 312.812   8
  -9   5   2 635.743 351.881   2
   9  -5  -2 72.9870 274.241  14
   9  -5  -2 445.896 267.955   3
  -9   5   2 288.468 455.971   6
   9  -5  -1 786.676 393.441   8
  -9   5   1 117.932 114.998   2
   9  -5  -1-178.707 340.832  14
   9  -5  -1 297.811 359.910   3
  -9   5   1 429.178 280.547   6
   9  -5   0 820.202 483.552   8
  -9   5   0 629.724 303.607   2
   9  -5   0 1307.28 585.273  14
  -9   5   0 688.029 426.059   6
  -9   5   0 437.368 299.837  11
  -9   5   0 111.188 317.788  10
   9  -5   1-1047.45 468.732   8
  -9   5  -1-474.834 265.651   2
   9  -5   1-32.4109 437.636  14
  -9   5  -1-259.689 232.977   6
  -9   5  -1-342.474 323.128  10
  -9   5  -2 1773.29 511.010   6
  -9   5  -2 1040.41 510.398  10
  -9   5  -3-576.500 295.335   6
  -9   5  -3-588.456 364.885  10
  -9   5  -4 8.84554 331.662   4
   9  -4  -8 517.647 373.796   3
   9  -4  -7 3469.76 784.913   3
   9  -4  -6 67.7628 347.819  14
  -9   4   6 418.778 299.156   6
   9  -4  -6 380.555 396.920   3
   9  -4  -5 549.389 413.717  14
  -9   4   5 630.556 352.181   6
   9  -4  -5-162.061 296.056   3
  -9   4   4-40.6507 102.697   6
   9  -4  -4-21.7061 180.799   3
  -9   4   3 3003.85 586.798   2
   9  -4  -3 3470.90 960.050  14
  -9   4   3 3317.07 780.707   6
   9  -4  -3 2714.69 651.402   3
  -9   4   2 52.6435 242.776   2
   9  -4  -2-25.4247 314.761  14
   9  -4  -2-581.532 353.491   3
  -9   4   2-446.870 446.289   6
  -9   4   2-99.6616 127.477  11
  -9   4   1 432.003 263.675   2
   9  -4  -1-126.848 437.086  14
   9  -4  -1 474.933 362.702   3
  -9   4   1 431.699 330.270  11
  -9   4   0 116.757 194.151   2
   9  -4   0 147.290 264.122  14
   9  -4   0 134.708 235.180   3
  -9   4   0 523.565 296.066   6
  -9   4   0 523.950 359.363  11
   9  -4   1-855.696 533.304  14
   9  -4   1 426.911 290.636   3
  -9   4  -1-392.264 241.861   6
  -9   4  -1-96.0049 180.117  11
  -9   4  -1-7.32873 262.028  10
   9  -4   2 43.7277 327.504  14
   9  -4   2 704.398 418.382   3
  -9   4  -2-102.374 297.364   6
  -9   4  -2 283.713 481.966  10
  -9   4  -3-786.919 315.945   6
  -9   4  -3-461.452 256.888  10
  -9   4  -4 1019.56 597.780   4
   9  -3  -9 1023.69 512.981   3
   9  -3  -8 527.351 380.301  14
  -9   3   8 677.566 446.880   6
   9  -3  -8 56.5305 145.415   3
   9  -3  -7 1944.16 666.517  14
  -9   3   7 972.246 434.613   6
   9  -3  -7 2118.94 731.913   3
   9  -3  -6 456.066 404.346  14
  -9   3   6 270.296 413.051   6
   9  -3  -6 278.633 333.717   3
   9  -3  -5 1171.10 407.899  14
  -9   3   5 415.333 498.605   6
   9  -3  -5 557.673 345.229   3
   9  -3  -4 939.663 400.270  14
  -9   3   4 170.318 268.380   6
   9  -3  -4 925.081 384.216   3
   9  -3  -3 1012.85 431.875  14
  -9   3   3 690.247 314.643   6
   9  -3  -3 318.913 226.270   3
  -9   3   3 980.495 324.331  11
  -9   3   2 181.111 372.973   6
   9  -3  -2 386.058 260.439   3
  -9   3   2 292.533 273.910  11
   9  -3  -1 12.0712 294.986  14
   9  -3  -1 818.474 384.964   3
  -9   3   1 499.294 408.599   6
  -9   3   1-19.9716 238.446  11
   9  -3   0 2025.22 646.688  14
   9  -3   0 2256.70 675.485   3
  -9   3   0 1843.13 586.342   6
  -9   3   0 1179.95 377.967  11
   9  -3   1 950.223 607.372  14
   9  -3   1 1747.78 544.323   3
  -9   3  -1 757.434 392.074   6
  -9   3  -1 1426.78 515.947  11
  -9   3  -2 4548.23 904.811   4
   9  -3   2 3528.58 982.224  14
   9  -3   2 3031.48 787.050   3
  -9   3  -2 2581.35 558.672   6
  -9   3  -2 3136.29 718.386  11
  -9   3  -2 3313.85 731.033  10
  -9   3  -3 231.257 326.209   4
   9  -3   3 941.960 637.675  14
   9  -3   3 1076.21 433.679   3
  -9   3  -3 113.186 241.198   6
  -9   3  -4 47.7684 320.634   4
   9  -3   4 335.544 404.990   3
  -9   2  10 101.411 310.340   9
   9  -2  -9 1452.33 608.939  14
   9  -2  -9 555.905 438.738   3
   9  -2  -8-404.906 429.620  14
  -9   2   8-48.6988 416.839   6
   9  -2  -8 429.839 272.813   3
   9  -2  -7 872.985 388.605  14
  -9   2   7 962.512 411.417   6
   9  -2  -6 1078.60 437.707  14
  -9   2   6 614.314 517.049   6
   9  -2  -6 1300.78 563.290   3
   9  -2  -5 12801.6 1385.01   3
   9  -2  -5 14793.4 1540.57  14
  -9   2   5 14570.1 1518.04   6
   9  -2  -4 508.782 494.079  14
  -9   2   4-176.905 357.151   6
   9  -2  -4 309.691 226.158   3
  -9   2   4 925.396 306.105  11
   9  -2  -3 2590.92 691.758  14
  -9   2   3 1223.62 554.119   6
   9  -2  -3 889.688 409.532   3
  -9   2   3 1997.18 485.887  11
   9  -2  -2 2631.01 521.515   7
   9  -2  -2 2351.14 720.572  14
  -9   2   2 1639.45 541.583   6
   9  -2  -2 2799.40 673.536   3
  -9   2   2 2776.60 585.714  11
   9  -2  -1 319.260 230.174   7
   9  -2  -1 628.096 479.212  14
   9  -2  -1-17.1629 211.635   3
  -9   2   1-171.646 280.677   6
  -9   2   1-296.705 358.266  11
   9  -2   0 709.626 289.178   7
   9  -2   0 649.125 400.530  14
   9  -2   0 47.0879 328.147   3
  -9   2   0-228.821 253.068   6
  -9   2   0-115.261 316.557  11
   9  -2   1-103.926 235.763   7
  -9   2  -1 693.412 494.029   4
   9  -2   1 1109.71 482.512  14
   9  -2   1 83.5214 301.618   3
  -9   2  -1 109.840 182.629   6
  -9   2  -1-354.723 316.139  11
  -9   2  -2 285.486 252.519   4
   9  -2   2 903.849 486.103  14
   9  -2   2-130.927 297.708   3
  -9   2  -2 268.806 323.111   6
  -9   2  -2-374.026 332.932  11
  -9   2  -2 161.133 269.613  10
  -9   2  -3 822.739 537.583   4
   9  -2   3-30.3892 446.157  14
   9  -2   3 17.6197 165.080   3
  -9   2  -3-163.109 365.216   6
  -9   2  -3 83.9629 190.626  11
   9  -2   4 562.982 484.305   3
   9  -2   5 661.564 585.116   3
  -9   1  11 1155.33 505.001   9
  -9   1  10 863.373 434.576   9
   9  -1 -10 176.927 361.746  14
  -9   1   9 4050.05 725.297   5
  -9   1   9 3692.90 836.840   9
   9  -1  -9 4136.49 823.600  14
  -9   1   9 4297.96 848.689   6
   9  -1  -9 3348.51 775.729   3
  -9   1   8 64.7206 262.453   5
   9  -1  -8 583.478 323.337  14
  -9   1   8 823.820 369.775   6
   9  -1  -8 362.891 370.580   3
  -9   1   7 8.57889 202.526   5
   9  -1  -7 434.374 321.734  14
  -9   1   7-292.334 222.853   6
   9  -1  -7 11.6393 215.769   3
  -9   1   6-136.227 176.657   5
   9  -1  -6 265.709 315.846  14
  -9   1   6 598.515 351.280   6
   9  -1  -6 534.322 420.746   3
   9  -1  -5 1256.74 526.694  14
  -9   1   5 1292.45 546.200   6
   9  -1  -5 566.323 498.434   3
  -9   1   5 1155.81 301.958  11
   9  -1  -4 136.790 256.182   7
   9  -1  -4-109.655 364.772  14
   9  -1  -4 88.2479 235.893   3
  -9   1   4 412.665 278.138  11
   9  -1  -3 1028.36 366.809   7
   9  -1  -3 202.421 531.930  14
  -9   1   3 834.618 429.437   6
   9  -1  -3 345.887 364.908   3
  -9   1   3 824.400 330.367  11
   9  -1  -2 585.981 342.457   7
   9  -1  -2-193.580 475.815  14
  -9   1   2 876.810 461.400   6
   9  -1  -2 400.296 480.398   3
  -9   1   2 124.984 287.600  11
   9  -1  -1 1267.30 383.851   7
   9  -1  -1 1459.23 663.945  14
  -9   1   1 1544.54 458.851   6
   9  -1  -1 842.309 469.978   3
  -9   1   1 906.830 397.341  11
  -9   1   0 5003.71 852.811   4
   9  -1   0 4158.49 779.234   7
   9  -1   0 3648.98 952.190  14
   9  -1   0 3821.12 812.812   3
  -9   1   0 3787.05 703.777   6
  -9   1   0 3175.25 694.479  11
  -9   1  -1 736.490 343.402   4
   9  -1   1 765.322 351.854   7
   9  -1   1 133.136 288.702  14
   9  -1   1 669.179 385.297   3
  -9   1  -1 442.901 241.136   6
  -9   1  -1 751.295 328.312  11
  -9   1  -2 684.042 477.442   4
   9  -1   2 1509.00 490.797   7
   9  -1   2 1114.73 663.662  14
   9  -1   2 930.434 481.294   3
  -9   1  -2 364.661 260.157   6
  -9   1  -3 912.655 629.837   4
   9  -1   3 728.559 434.740   7
   9  -1   3 1017.63 525.739  14
   9  -1   3 712.636 549.551   3
  -9   1  -3 1111.45 386.961   6
  -9   1  -3 610.502 349.458  11
   9  -1   4 452.709 451.981   7
   9  -1   4 183.338 275.152   3
   9  -1   5 1240.15 664.598   3
  -9   0  11 654.403 354.353   9
   9   0 -11 144.390 365.992  14
  -9   0  10-302.708 262.443   5
   9   0 -10-413.035 412.871  14
  -9   0   9 154.225 344.622   5
  -9   0   9 297.910 351.528   9
   9   0  -9-90.2048 234.884  14
  -9   0   9 300.788 451.582   6
   9   0  -9 138.454 372.998   3
  -9   0   8 328.407 292.098   5
  -9   0   8-259.145 194.785   9
   9   0  -8-246.905 387.067  14
  -9   0   8 700.704 434.104   6
   9   0  -8-148.024 219.316   3
  -9   0   7 3537.65 621.611   5
   9   0  -7 4531.51 855.815  14
  -9   0   7 3834.08 810.812   6
   9   0  -7 3882.67 809.663   3
  -9   0   6-191.981 160.845   5
   9   0  -6 426.346 219.990   7
   9   0  -6 403.539 339.651  14
  -9   0   6-301.700 453.820   6
   9   0  -6-556.954 387.804   3
  -9   0   6 99.6828 110.191  11
  -9   0   5 989.375 313.209   5
   9   0  -5 769.084 266.608   7
   9   0  -5 391.727 425.074  14
  -9   0   5 440.903 407.559   6
   9   0  -5 1775.43 668.539   3
  -9   0   5 1188.65 301.921  11
  -9   0   4 492.739 217.814   5
   9   0  -4 378.655 399.896   7
   9   0  -4 85.5982 216.995  14
  -9   0   4 763.516 469.216   6
   9   0  -4 1088.02 437.086   3
  -9   0   4 898.803 394.756  11
   9   0  -3 2437.58 572.900   7
   9   0  -3 2338.28 832.170  14
  -9   0   3 1622.18 594.976   6
   9   0  -3 1572.87 535.439   3
  -9   0   3 1897.75 465.477  11
   9   0  -2-15.3273 117.064   7
   9   0  -2 85.9876 350.366  14
  -9   0   2-91.2769 381.755   6
   9   0  -2 162.361 227.991   3
  -9   0   2-442.189 342.067  11
   9   0  -1 659.321 412.858   7
   9   0  -1 390.562 409.767  14
  -9   0   1-150.039 306.441   6
   9   0  -1 819.969 396.399   3
  -9   0   1 16.7034 97.7810  11
  -9   0   0 105.766 377.260   4
   9   0   0-348.518 248.337   7
   9   0   0-923.228 617.787  14
   9   0   0 451.702 424.125   3
  -9   0   0-254.025 212.761   6
  -9   0   0-926.719 365.199  11
  -9   0  -1 3862.91 881.952   4
   9   0   1 2907.86 693.269   7
   9   0   1 3986.29 933.798  14
   9   0   1 3068.99 836.067   3
  -9   0  -1 2952.87 638.993   6
  -9   0  -1 3079.69 725.414  11
  -9   0  -2 1612.67 578.542   4
   9   0   2 1329.22 530.521   7
   9   0   2 2012.30 672.043  14
   9   0   2 1726.65 657.227   3
  -9   0  -2 1405.26 410.615   6
  -9   0  -2 1547.72 546.130  11
  -9   0  -3 337.072 335.652   4
   9   0   3 697.345 460.835   7
   9   0   3 1517.14 716.349  14
   9   0   3 1086.28 616.462   3
  -9   0  -3 161.752 187.960  11
   9   0   4 1629.93 638.517   7
   9   0   4 1177.49 512.435   3
  -9  -1  11 805.305 410.145   5
   9   1 -11 2204.18 626.292  14
  -9  -1  10-250.438 238.763   5
   9   1 -10-569.481 346.604  14
  -9  -1   9 302.127 305.019   5
  -9  -1   9 1205.19 419.886   9
   9   1  -9 791.370 391.459  14
  -9  -1   9 552.264 457.091   6
   9   1  -9-43.3624 183.624   3
  -9  -1   8 644.643 375.728   5
  -9  -1   8 273.517 371.325   9
   9   1  -8 956.210 314.063   7
   9   1  -8 609.578 329.835  14
  -9  -1   8 911.206 477.777   6
   9   1  -8 1262.64 562.600   3
  -9  -1   7 1897.20 503.618   5
  -9  -1   7 2835.74 555.689   9
   9   1  -7 1737.54 493.447   7
   9   1  -7 1697.32 561.583  14
  -9  -1   7 2040.35 692.654   6
   9   1  -7 1680.08 608.912   3
  -9  -1   6-186.401 212.262   5
   9   1  -6 749.758 331.013   7
   9   1  -6 188.730 363.483  14
  -9  -1   6 995.357 501.284   6
   9   1  -6 252.415 370.583   3
  -9  -1   6 543.362 182.709  11
  -9  -1   5-310.519 217.648   5
   9   1  -5 31.0873 99.6453   7
   9   1  -5-243.933 426.364  14
   9   1  -5 173.891 200.881   3
  -9  -1   5-0.88580 123.898  11
  -9  -1   4 265.527 157.059   5
   9   1  -4 824.742 331.822   7
   9   1  -4 34.6281 419.782  14
  -9  -1   4 973.967 467.975   6
   9   1  -4 402.776 435.826   3
  -9  -1   4 403.361 244.383  11
   9   1  -3-30.9306 236.147   7
   9   1  -3 708.625 511.527  14
  -9  -1   3 1390.08 511.955   6
   9   1  -3 976.644 489.565   3
  -9  -1   3 922.187 300.877  11
   9   1  -2 3469.86 750.983   7
   9   1  -2 3026.34 799.268  14
  -9  -1   2 3316.37 718.593   6
   9   1  -2 4533.87 915.479   3
  -9  -1   2 2446.25 552.377  11
   9   1  -1 413.572 313.128   7
   9   1  -1 895.757 488.594  14
  -9  -1   1 321.441 348.391   6
   9   1  -1-326.717 337.155   3
  -9  -1   1 590.038 412.107  11
  -9  -1   0 2014.89 583.718   4
   9   1   0 1988.68 554.059   7
   9   1   0 2997.90 885.912  14
  -9  -1   0 2240.90 564.921   6
   9   1   0 1545.13 541.214   3
  -9  -1   0 1924.69 480.800  11
  -9  -1  -1 481.715 460.018   4
   9   1   1-242.321 306.294   7
   9   1   1 100.452 217.243  14
   9   1   1 294.448 361.755   3
  -9  -1  -1-409.333 323.279   6
  -9  -1  -1-645.895 352.793  11
  -9  -1  -2 471.131 408.167   4
   9   1   2-623.618 441.824   7
   9   1   2-562.941 366.533  14
   9   1   2 503.678 431.833   3
  -9  -1  -2-134.585 205.659   6
  -9  -1  -2 293.700 233.416  11
  -9  -1  -3 391.075 296.983   4
  -9  -1  -3 874.956 362.377   1
   9   1   3 657.928 418.050   7
   9   1   3 1012.25 529.318   3
  -9  -1  -3 76.2555 142.509  11
   9   1   4 1011.99 510.238   7
  -9  -2  11-492.986 352.127   5
  -9  -2  10 1143.64 457.088   5
   9   2 -10 498.997 267.053  14
  -9  -2   9 632.301 486.563   5
   9   2  -9 1448.10 483.352   7
   9   2  -9 1366.88 466.119  14
  -9  -2   9 710.458 511.118   6
  -9  -2   8-73.2076 161.427   5
   9   2  -8-228.143 199.896   7
   9   2  -8 783.213 424.751  14
  -9  -2   8 148.062 252.263   6
   9   2  -8 536.733 457.625   3
  -9  -2   7 198.184 301.651   5
   9   2  -7 1020.64 380.400   7
   9   2  -7 766.144 472.838  14
  -9  -2   7 742.771 408.394   6
   9   2  -7 1268.22 584.224   3
  -9  -2   6 2382.93 501.992   5
   9   2  -6 1721.49 465.536   7
   9   2  -6 1229.81 515.697  14
  -9  -2   6 1809.08 617.769   6
   9   2  -6 2581.94 697.619   3
  -9  -2   6 1866.24 362.492  11
  -9  -2   5 420.636 239.588   5
   9   2  -5 108.901 187.052   7
   9   2  -5 52.9231 310.130  14
  -9  -2   5 335.318 348.573   6
   9   2  -5 371.071 270.546   3
  -9  -2   5 532.728 214.552  11
   9   2  -4 407.839 270.752   7
   9   2  -4-217.580 247.129  14
  -9  -2   4-130.933 380.841   6
   9   2  -4-692.156 442.351   3
  -9  -2   4 87.2859 135.565  11
  -9  -2   4-90.3738 181.874   5
   9   2  -3 836.758 398.693   7
   9   2  -3 272.215 397.200  14
  -9  -2   3 553.243 463.732   6
   9   2  -3 863.974 420.543   3
  -9  -2   3 671.756 285.148  11
  -9  -2   3 444.226 230.541   5
   9   2  -2 334.556 299.014   7
   9   2  -2 243.561 460.090  14
  -9  -2   2-781.243 465.225   6
   9   2  -2-544.610 413.715   3
  -9  -2   2 140.743 200.141  11
   9   2  -1 4150.99 813.658   7
   9   2  -1 4980.75 1031.53  14
  -9  -2   1 4906.53 831.344   6
   9   2  -1 3791.09 882.852   3
  -9  -2   1 3676.53 696.241  11
  -9  -2   0 1334.81 456.404   4
   9   2   0 699.582 380.048   7
   9   2   0 264.443 309.437  14
  -9  -2   0 386.703 294.142   6
   9   2   0 465.287 371.265   3
  -9  -2   0 245.972 200.385  11
  -9  -2  -1 70.5244 170.535   4
   9   2   1-332.801 386.626   7
  -9  -2  -1 49.9594 216.195   6
   9   2   1 169.525 371.489   3
  -9  -2  -1 417.740 315.337  11
  -9  -2  -2-203.791 288.228   4
   9   2   2-2.32451 169.546   7
   9   2   2 1371.21 578.545   3
  -9  -2  -2 1061.47 391.825   6
  -9  -2  -2 717.743 362.445  11
   9   2   3-399.495 372.733   7
  -9  -2  -3-494.866 246.609   1
  -9  -3  10 150.264 273.775   5
  -9  -3   9 229.497 353.509   5
   9   3  -9 1571.03 505.219   7
  -9  -3   8 1171.74 444.728   5
   9   3  -8 1548.23 482.357   7
   9   3  -8 691.113 307.909  14
  -9  -3   8 1361.84 528.565   6
   9   3  -8 383.528 555.441   3
  -9  -3   7 568.461 272.006   5
   9   3  -7 452.946 248.542   7
   9   3  -7 457.559 394.175  14
   9   3  -7 349.446 463.390   3
   9   3  -6-628.757 375.934   7
   9   3  -6 568.668 333.917  14
  -9  -3   6 153.592 216.898   6
   9   3  -6 36.4554 95.8687   3
  -9  -3   6-283.100 270.284   5
   9   3  -5 493.130 291.707   7
   9   3  -5 272.612 391.733  14
  -9  -3   5 575.283 404.928   6
   9   3  -5 981.727 465.524   3
  -9  -3   5 630.190 246.128  11
  -9  -3   5 575.182 288.926   5
   9   3  -4 172.420 235.176   7
   9   3  -4 331.846 322.486  14
  -9  -3   4 376.287 386.424   6
   9   3  -4 940.135 522.868   3
  -9  -3   4 780.628 333.759  11
  -9  -3   4 192.892 273.693   5
   9   3  -3 523.971 302.654   7
   9   3  -3 386.213 312.401  14
  -9  -3   3 329.753 484.597   6
   9   3  -3 440.764 388.900   3
  -9  -3   3-133.318 139.792  11
  -9  -3   3 151.705 209.191   5
   9   3  -2 544.733 419.127   7
   9   3  -2 156.112 346.109  14
  -9  -3   2-11.8199 313.143   6
   9   3  -2 847.640 448.554   3
  -9  -3   2 1380.05 451.452  11
  -9  -3   1 212.725 245.922   4
   9   3  -1-171.180 195.598   7
   9   3  -1 909.261 490.302  14
  -9  -3   1-48.4047 199.731   6
   9   3  -1 202.177 249.138   3
  -9  -3   1 637.194 309.937  11
  -9  -3   0 45.7146 271.874   4
   9   3   0 451.513 386.938   7
  -9  -3   0 120.640 190.546   6
   9   3   0-204.841 326.860   3
  -9  -3   0-182.280 296.692  11
  -9  -3  -1 553.681 298.287   4
   9   3   1 1392.67 527.736   7
  -9  -3  -1 1400.10 437.093   6
   9   3   1 1313.21 605.681   3
  -9  -3  -1 1655.00 541.265  11
  -9  -3  -2 2935.42 708.520   4
  -9  -3  -2 3859.66 913.541  11
  -9  -3  -3 497.842 505.372   1
  -9  -3  -4 663.145 353.186   1
  -9  -4   9 585.828 358.169   5
   9   4  -9 746.127 329.639   7
   9   4  -8 882.995 355.187   7
  -9  -4   8 1368.84 524.704   5
   9   4  -7 60.3870 190.595   7
  -9  -4   7 395.362 443.914   6
   9   4  -7-859.379 517.809   3
  -9  -4   7-199.555 315.915   5
   9   4  -6 802.180 403.824   7
   9   4  -6 55.6690 217.217  14
  -9  -4   6 173.888 276.497   6
   9   4  -6 88.5294 200.167   3
  -9  -4   6-599.781 311.899   5
   9   4  -5 555.234 427.906   7
   9   4  -5 487.338 408.841  14
  -9  -4   5-19.8250 181.210   6
   9   4  -5-492.647 579.160   3
  -9  -4   5-121.976 134.476   5
   9   4  -4-13.9804 101.744   7
   9   4  -4 113.710 199.298  14
  -9  -4   4 280.351 328.343   6
   9   4  -4-498.337 346.897   3
  -9  -4   4 112.128 164.577  11
  -9  -4   4-188.845 240.001   5
   9   4  -3 5293.40 968.573   7
   9   4  -3 5074.72 933.661  14
  -9  -4   3 6161.58 1027.20   6
   9   4  -3 6722.24 1268.75   3
  -9  -4   3 4927.36 788.241  11
  -9  -4   3 4825.51 643.587   5
   9   4  -2 667.623 364.180   7
  -9  -4   2 1565.82 612.763   6
   9   4  -2 947.727 487.750   3
  -9  -4   2 805.589 363.892  11
  -9  -4   2 676.265 311.123   5
   9   4  -1 297.902 390.920   7
   9   4  -1 701.962 500.158   3
  -9  -4   1 285.810 277.096  11
  -9  -4   0 783.077 383.102   4
   9   4   0 19.9494 370.437   7
   9   4   0 840.977 679.091   3
  -9  -4   0 445.324 267.083  11
  -9  -4  -1-882.979 407.187   4
   9   4   1-241.339 370.461   7
  -9  -4  -3 509.496 421.558   1
   9   5  -9-308.957 288.629   7
   9   5  -8 317.487 228.998   7
  -9  -5   8-123.124 370.995   5
   9   5  -7 1595.03 562.630   7
  -9  -5   7 1307.57 438.436   5
   9   5  -6-596.705 406.351   7
  -9  -5   6 31.5737 148.364   5
   9   5  -5 459.552 307.678   7
   9   5  -5 86.0667 459.438   3
  -9  -5   5 385.277 330.256   5
   9   5  -4 495.943 505.259   7
   9   5  -4 458.462 436.875   3
  -9  -5   4-34.2814 127.634   5
   9   5  -3-232.609 258.275   7
   9   5  -3-357.432 346.989   3
  -9  -5   3 54.7827 171.878   5
   9   5  -2-451.756 465.426   7
  -9  -5   2-679.704 342.983  11
  -9  -5   2 174.695 186.278   5
   9   5  -1-123.038 378.016   7
  -9  -5   1 368.711 352.783  11
  -9  -5   0 180.844 326.325   4
  -9  -5   0 254.689 297.352  11
  -9  -6   7 179.457 189.006   5
  -9  -6   6 693.856 425.765   5
  -9  -6   5 1433.04 467.211   5
  -9  -6   4 409.652 338.047   5
  -9  -6   3-19.9322 170.129   5
  -9  -6   2-26.2487 177.456  11
  -9  -6   2-352.954 218.523   5
  -9  -6   1-41.3215 486.288  11
  10  -4  -7 4682.05 860.062   3
  10  -4  -6 2408.12 700.741   3
  10  -4  -5 1211.11 595.708   3
  10  -4  -4 765.545 380.718   3
  10  -4  -3 491.036 313.799   3
  10  -4  -2-111.053 232.551   3
  10  -4  -1-333.440 411.475   3
 -10   4   1 43.4937 152.342   6
  10  -4   0-217.720 278.601   3
 -10   4   0-153.814 294.512   6
 -10   4   0-420.019 473.264  10
 -10   4  -1-547.627 431.892   6
 -10   4  -1-462.271 404.609  10
 -10   4  -2-363.070 525.980   6
  10  -3  -7-451.171 356.172   3
  10  -3  -6 786.302 461.215   3
  10  -3  -5 133.573 414.651   3
 -10   3   4 251.208 333.146   6
  10  -3  -4-35.2718 322.653   3
 -10   3   3-29.5047 276.080   6
 -10   3   3 257.478 213.328  11
 -10   3   2 2596.65 682.118   6
  10  -3  -2 3555.07 913.074   3
 -10   3   2 2803.63 583.304  11
 -10   3   1 72.9308 290.039   6
 -10   3   1-233.000 232.154  11
  10  -3   0 1192.15 636.338   3
 -10   3   0 1135.03 470.331   6
  10  -3   1-111.606 266.243   3
 -10   3  -1-582.234 397.485   6
  10  -3   2 1065.16 504.637   3
 -10   3  -2-141.943 318.286   6
  10  -2  -7 652.508 457.471   3
  10  -2  -6 1314.38 486.252  14
  10  -2  -6-152.287 238.805   3
  10  -2  -5 1211.35 579.925  14
 -10   2   5 1060.14 705.715   6
  10  -2  -5 1586.42 615.091   3
  10  -2  -4 1729.26 654.407  14
 -10   2   4 337.408 540.014   6
  10  -2  -4 794.885 577.152   3
 -10   2   4 810.575 299.371  11
  10  -2  -3-138.312 474.938  14
 -10   2   3-345.239 363.353   6
  10  -2  -3 666.077 457.440   3
 -10   2   3 549.048 345.366  11
  10  -2  -2 375.194 422.754  14
 -10   2   2 860.962 356.276   6
  10  -2  -2 419.287 350.420   3
 -10   2   2 620.298 368.090  11
  10  -2  -1 1572.53 767.162  14
  10  -2  -1 2045.86 687.044   3
 -10   2   1 440.434 368.294   6
 -10   2   1 1229.89 449.788  11
  10  -2   0 1722.98 593.838   3
 -10   2   0 1828.76 579.074   6
 -10   2   0 1167.23 447.933  11
  10  -2   1 523.465 495.867   3
 -10   2  -1 1171.97 410.634   6
  10  -2   2 1018.29 568.751   3
 -10   2  -2 373.977 421.438   6
  10  -2   3 3067.27 773.378   3
 -10   1   9 2338.38 634.688   9
  10  -1  -8 1029.81 422.238  14
  10  -1  -7 764.006 455.443  14
  10  -1  -7 1279.10 584.841   3
  10  -1  -6-59.8536 271.373  14
  10  -1  -6-525.129 430.928   3
  10  -1  -5 539.800 375.043  14
 -10   1   5 842.643 408.242   6
 -10   1   5 107.184 190.947  11
  10  -1  -4 1415.09 609.397  14
 -10   1   4 2616.37 723.756   6
  10  -1  -4 2714.81 725.340   3
 -10   1   4 2452.16 548.263  11
  10  -1  -3-380.947 454.056  14
 -10   1   3 5.58448 358.086   6
  10  -1  -3 214.686 339.571   3
 -10   1   3 158.015 257.315  11
  10  -1  -2 2538.18 753.240  14
 -10   1   2 2318.68 719.454   6
  10  -1  -2 2019.61 651.335   3
 -10   1   2 2274.35 566.501  11
  10  -1  -1 366.317 366.803   7
  10  -1  -1-513.887 402.626  14
 -10   1   1 97.0105 329.601   6
  10  -1  -1 302.811 357.225   3
 -10   1   1-164.547 149.936  11
  10  -1   0 67.0928 321.449   7
  10  -1   0 196.255 375.404  14
  10  -1   0-317.518 344.374   3
 -10   1   0 1092.93 449.120   6
 -10   1   0-195.478 347.008  11
  10  -1   1-309.647 294.701   7
  10  -1   1-63.2075 260.239   3
 -10   1  -1 39.3393 261.400   6
  10  -1   2 1191.86 516.945   7
  10  -1   2 583.586 418.901   3
 -10   1  -2 1547.75 498.946   6
  10  -1   3 779.342 483.053   7
  10   0  -9 1804.20 655.298  14
 -10   0   8 357.229 239.821   9
  10   0  -8 953.711 463.219  14
  10   0  -7 674.828 418.535  14
  10   0  -7-719.251 624.797   3
  10   0  -6 755.853 408.350  14
 -10   0   6 592.958 413.469   6
  10   0  -6 1016.07 580.003   3
 -10   0   6 704.356 236.590  11
  10   0  -5 577.439 371.113  14
 -10   0   5 29.4035 378.730   6
  10   0  -5 1132.30 457.070   3
 -10   0   5 793.239 279.926  11
  10   0  -4 994.119 540.817  14
 -10   0   4 989.913 525.061   6
  10   0  -4 470.457 429.850   3
 -10   0   4 296.589 307.022  11
  10   0  -3 1890.59 513.299   7
  10   0  -3 2867.23 878.767  14
 -10   0   3 2776.17 696.187   6
  10   0  -3 2702.17 850.992   3
 -10   0   3 2939.60 635.266  11
  10   0  -2 1579.75 557.335   7
  10   0  -2 1819.63 756.888  14
 -10   0   2 2012.20 676.539   6
  10   0  -2 2432.09 762.888   3
 -10   0   2 1859.12 526.603  11
  10   0  -1 17.3528 320.374   7
  10   0  -1-876.027 684.973  14
 -10   0   1 541.864 380.983   6
  10   0  -1 535.010 455.213   3
 -10   0   1 252.033 239.180  11
  10   0   0 696.147 516.760   7
  10   0   0 1073.84 656.323  14
  10   0   0-373.927 454.155   3
 -10   0   0 706.270 421.489   6
 -10   0   0 1025.97 404.739  11
  10   0   1 887.359 473.464   7
  10   0   1 411.842 536.315   3
 -10   0  -1 1290.28 413.847   6
  10   0   2-318.205 265.752   7
  10   0   3-713.541 456.452   7
  10   1  -9 3276.22 827.385  14
  10   1  -8 862.859 404.031  14
  10   1  -7 1017.12 455.739  14
  10   1  -6 450.555 477.681  14
 -10  -1   6 643.879 571.904   6
  10   1  -6-380.471 518.711   3
 -10  -1   6 628.544 215.632  11
  10   1  -5 64.5267 242.996   7
  10   1  -5 896.743 417.280  14
 -10  -1   5 245.469 475.769   6
  10   1  -5-600.932 412.937   3
 -10  -1   5-444.282 303.889  11
  10   1  -4 1347.63 410.003   7
  10   1  -4 1875.82 763.825  14
 -10  -1   4 1556.75 669.438   6
  10   1  -4 1701.66 600.539   3
 -10  -1   4 1938.19 529.171  11
  10   1  -3 92.4793 182.389   7
  10   1  -3 1156.70 559.579  14
 -10  -1   3-179.155 372.860   6
  10   1  -3 1027.23 588.842   3
 -10  -1   3-571.397 357.675  11
  10   1  -2 687.597 336.529   7
  10   1  -2-561.694 466.316  14
 -10  -1   2 58.5536 405.174   6
  10   1  -2 691.110 590.461   3
 -10  -1   2 252.286 252.555  11
  10   1  -1 265.572 221.406   7
  10   1  -1 327.383 476.762  14
 -10  -1   1 446.645 314.202   6
  10   1  -1-272.025 438.407   3
 -10  -1   1-318.089 267.096  11
  10   1   0 4130.57 908.652   7
  10   1   0 5340.45 1195.99  14
 -10  -1   0 4088.89 844.968   6
  10   1   0 3902.22 952.731   3
 -10  -1   0 4990.01 869.996  11
  10   1   1 3080.88 761.420   7
 -10  -1  -1 1127.33 388.823   6
  10   1   2 1065.67 601.427   7
 -10  -2   9-138.833 352.564   5
  10   2  -9-366.949 479.880  14
  10   2  -8 114.915 197.626  14
  10   2  -7 149.157 261.177   7
  10   2  -7-801.131 456.054  14
  10   2  -6 1228.65 472.336   7
  10   2  -6 884.609 512.433  14
 -10  -2   6 440.349 186.518   6
  10   2  -5 3036.26 677.320   7
  10   2  -5 3535.00 861.197  14
 -10  -2   5 3151.63 838.301   6
  10   2  -5 3165.42 875.860   3
 -10  -2   5 3645.77 616.057  11
  10   2  -4 3331.57 796.385   7
  10   2  -4 3474.25 907.690  14
 -10  -2   4 4582.90 928.897   6
  10   2  -4 4393.43 994.586   3
 -10  -2   4 2277.47 562.813  11
  10   2  -3-353.131 254.040   7
  10   2  -3-245.674 383.894  14
 -10  -2   3 15.1137 385.091   6
  10   2  -3 348.251 329.749   3
 -10  -2   3 271.762 212.736  11
  10   2  -2 1986.45 644.093   7
  10   2  -2 839.459 433.597  14
 -10  -2   2 1938.59 559.618   6
  10   2  -2 1670.91 685.582   3
 -10  -2   2 1538.24 418.188  11
  10   2  -1 1267.42 528.068   7
  10   2  -1 2797.14 781.527  14
 -10  -2   1 1610.18 519.263   6
 -10  -2   1 1825.94 558.896  11
  10   2   0-24.9374 364.177   7
  10   2   0 791.584 436.757  14
 -10  -2   0 217.800 237.363   6
 -10  -2   0 236.799 205.537  11
  10   2   1-981.695 506.231   7
 -10  -3   9 876.748 418.462   5
 -10  -3   8-695.439 302.012   5
  10   3  -8-48.4520 157.733   7
  10   3  -7 361.010 375.583   7
  10   3  -7-204.950 396.778  14
  10   3  -6 1033.72 442.362   7
  10   3  -6 2098.18 722.080  14
  10   3  -5 952.873 433.161   7
  10   3  -5-224.215 463.731  14
 -10  -3   5 626.833 460.205   6
  10   3  -4 812.875 413.665   7
  10   3  -4 506.844 482.673  14
 -10  -3   4 104.370 393.082   6
 -10  -3   4 434.458 286.199  11
  10   3  -3 129.676 515.413   7
  10   3  -3-134.132 423.125  14
 -10  -3   3-209.337 399.591   6
 -10  -3   3 162.561 151.425  11
  10   3  -2 1757.21 723.855   7
  10   3  -2 1658.34 668.127  14
 -10  -3   2 1652.70 531.070   6
 -10  -3   2 908.743 450.747  11
  10   3  -1 905.553 495.985   7
 -10  -3   1 88.4848 206.057   6
 -10  -3   1 544.241 411.655  11
  10   3   0 3406.03 856.085   7
 -10  -3   0 3508.33 749.877   6
 -10  -3   0 3109.63 762.782  11
  10   4  -8 1438.55 485.089   7
  10   4  -7 1438.65 518.102   7
  10   4  -6 1703.37 580.497   7
  10   4  -5-222.952 216.472   7
  10   4  -5-175.912 454.650  14
  10   4  -4 658.405 457.770   7
  10   4  -4 676.433 496.576  14
  10   4  -3-92.7288 174.736   7
  10   4  -3 264.302 522.640  14
 -10  -4   3 189.652 301.013   6
 -10  -4   3 170.656 334.381  11
  10   4  -2 387.587 322.669   7
 -10  -4   2 1076.97 400.367  11
 -10  -4   1 500.024 309.335  11
  11  -3  -3 2064.37 731.967   3
  11  -3  -2 542.323 438.154   3
 -11   2   4 2385.93 537.727  11
 -11   1   5 2113.31 497.938  11
 -11   1   4 2272.09 531.322  11
 -11   1   3 603.006 339.245  11
 -11   1   0 2040.95 676.780   6
 -11   0   5 654.373 264.985  11
 -11   0   4 2070.50 487.504  11
 -11   0   3 1301.18 479.320  11
 -11   0   1 585.227 488.801   6
 -11  -1   4-384.143 298.959  11
 -11  -1   3 1801.36 489.654  11
  11   1  -1-593.963 636.469   7
 -11  -1   1-988.413 413.896   6
  11   2  -6-159.325 492.187  14
  11   2  -3 196.012 376.865   7
 -11  -2   3-638.471 296.169  11
  11   2  -2 1844.29 786.121   7
   0   0   0    0.00    0.00   0
TITL PR109_grande2_05072018 in P-1
REM P-1 (#2 in standard setting)
CELL 0.71073   8.195831   8.418430  10.596465  97.0063 104.5434  91.1380
ZERR    3.00   0.000475   0.000496   0.000619   0.0048   0.0050   0.0047
LATT  1
SFAC C H N Cl
UNIT 33.00 39.00 6.00 3.00
TREF
HKLF 4
END
;
_shelx_hkl_checksum              39846
_shelx_res_file
;
TITL PR109_grande2_05072018 in P-1 #2
    pr109_grande2_05072018.res
    created by SHELXL-2018/3 at 12:44:28 on 31-Jan-2020
REM reset to P-1 #2
CELL 0.71073 8.19583 8.41843 10.59647 97.0063 104.5434 91.138
ZERR 2 0.00048 0.0005 0.00062 0.0048 0.005 0.0047
LATT 1
SFAC C H Cl N
UNIT 22 18 6 12
DFIX 0.86 0.01 N1 H1 N2 H2 N3 H3
L.S. 4
PLAN  5
SIZE 0.13 0.15 0.17
TEMP 19.85
MPLA 9 N1 C1 N2 C2 C3 C4 C5 C6 C7
MPLA 7 C9 N4 C10 N5 C11 N6
LIST 8
BOND
CONF
BOND $H
more -3
fmap 2
acta
OMIT -3 50
REM <olex2.extras>
REM <HklSrc "%.\\PR109_grande2_05072018.hkl">
REM </olex2.extras>
WGHT    0.034700    0.289400
FVAR       6.46862
CL1   3    0.926262    0.863342    0.605168    11.00000    0.05050    0.07431 =
         0.06500    0.00428    0.00028   -0.00586
CL2   3    0.504328    1.017547    0.193541    11.00000    0.07268    0.08225 =
         0.07299    0.03741    0.02406    0.01201
N1    4    0.258460    0.464946    0.212251    11.00000    0.02486    0.05579 =
         0.05007    0.00977    0.01210    0.00388
H1    2    0.364554    0.489361    0.242358    11.00000   -1.20000
N2    4   -0.006915    0.453524    0.205629    11.00000    0.02517    0.05376 =
         0.05993    0.01338    0.01670    0.00348
H2    2   -0.098527    0.473411    0.227216    11.00000   -1.20000
N3    4    0.342280    0.654962    0.471810    11.00000    0.04901    0.05437 =
         0.04687    0.01001    0.01623   -0.00083
H3    2    0.361875    0.607219    0.540578    11.00000   -1.20000
N4    4    0.614525    0.759465    0.535968    11.00000    0.04767    0.04344 =
         0.04095    0.00138    0.01042    0.00200
N5    4    0.703789    0.931899    0.401169    11.00000    0.04688    0.04780 =
         0.05608    0.00696    0.01654   -0.00249
N6    4    0.419132    0.829282    0.343492    11.00000    0.04066    0.04687 =
         0.04742    0.00887    0.01500    0.00538
C1    1    0.142744    0.519399    0.272338    11.00000    0.03240    0.04815 =
         0.04932    0.01365    0.01627    0.00456
C2    1    0.181152    0.358362    0.101957    11.00000    0.03018    0.04592 =
         0.04584    0.01420    0.01008    0.00633
C3    1    0.242312    0.271377    0.006040    11.00000    0.03882    0.06730 =
         0.05665    0.01710    0.01764    0.01584
AFIX  43
H3A   2    0.356052    0.277898    0.007056    11.00000   -1.20000
AFIX   0
C4    1    0.127348    0.175082   -0.090612    11.00000    0.06174    0.06741 =
         0.04690    0.00581    0.01352    0.01310
AFIX  43
H4    2    0.164334    0.114890   -0.156678    11.00000   -1.20000
AFIX   0
C5    1   -0.043427    0.164528   -0.092993    11.00000    0.05158    0.06378 =
         0.05301    0.00584    0.00294    0.00130
AFIX  43
H5    2   -0.116985    0.096430   -0.159677    11.00000   -1.20000
AFIX   0
C6    1   -0.105268    0.252243    0.000716    11.00000    0.03431    0.06311 =
         0.06104    0.01616    0.00502    0.00178
AFIX  43
H6    2   -0.219287    0.246255   -0.001128    11.00000   -1.20000
AFIX   0
C7    1    0.010540    0.350375    0.098430    11.00000    0.03467    0.04653 =
         0.04801    0.01406    0.01260    0.00703
C8    1    0.170123    0.639146    0.392477    11.00000    0.04081    0.05727 =
         0.06342    0.00557    0.02501    0.00074
AFIX  23
H8A   2    0.137268    0.742690    0.366177    11.00000   -1.20000
H8B   2    0.097204    0.608363    0.445683    11.00000   -1.20000
AFIX   0
C9    1    0.460116    0.750517    0.449424    11.00000    0.04382    0.03820 =
         0.04392    0.00139    0.01741    0.00255
C10   1    0.724277    0.848964    0.503135    11.00000    0.04522    0.04226 =
         0.04783   -0.00329    0.01130   -0.00022
C11   1    0.546242    0.913844    0.327751    11.00000    0.04972    0.04256 =
         0.04693    0.00608    0.01631    0.00741
CL3   3    0.652372    0.503050    0.269319    11.00000    0.03375    0.06916 =
         0.05936    0.01042    0.02305    0.00479
HKLF 4
REM  PR109_grande2_05072018 in P-1 #2
REM wR2 = 0.0872, GooF = S = 1.060, Restrained GooF = 1.059 for all data
REM R1 = 0.0346 for 1929 Fo > 4sig(Fo) and 0.0504 for all 2455 data
REM 190 parameters refined using 3 restraints
END
WGHT      0.0346      0.2893
REM Highest difference peak  0.181,  deepest hole -0.294,  1-sigma level  0.045
Q1    1   0.6204  1.0987  0.1860  11.00000  0.05    0.18
Q2    1   0.0876  0.3795  0.0727  11.00000  0.05    0.16
Q3    1   0.7063  0.9227  0.4648  11.00000  0.05    0.16
Q4    1   0.2119  0.4464  0.1182  11.00000  0.05    0.16
Q5    1   0.4664  0.7857  0.3778  11.00000  0.05    0.16
;
_shelx_res_checksum              29359
loop_
_space_group_symop_operation_xyz
'x, y, z'
'-x, -y, -z'
loop_
_atom_site_type_symbol
_atom_site_label
_atom_site_fract_x
_atom_site_fract_y
_atom_site_fract_z
_atom_site_U_iso_or_equiv
_atom_site_adp_type
_atom_site_calc_flag
_atom_site_occupancy
_atom_site_disorder_assembly
_atom_site_disorder_group
Cl Cl1 0.92626(8) 0.86334(9) 0.60517(7) 0.0664(2) Uani d 1 . .
Cl Cl2 0.50433(10) 1.01755(10) 0.19354(8) 0.0726(2) Uani d 1 . .
N N1 0.2585(2) 0.4649(2) 0.21225(19) 0.0429(5) Uani d 1 . .
H H1 0.3646(14) 0.489(3) 0.242(2) 0.051 Uiso d 1 . .
N N2 -0.0069(2) 0.4535(2) 0.2056(2) 0.0447(5) Uani d 1 . .
H H2 -0.099(2) 0.473(3) 0.227(2) 0.054 Uiso d 1 . .
N N3 0.3423(3) 0.6550(3) 0.4718(2) 0.0491(5) Uani d 1 . .
H H3 0.362(3) 0.607(3) 0.5406(17) 0.059 Uiso d 1 . .
N N4 0.6145(2) 0.7595(2) 0.53597(18) 0.0445(5) Uani d 1 . .
N N5 0.7038(2) 0.9319(2) 0.4012(2) 0.0497(5) Uani d 1 . .
N N6 0.4191(2) 0.8293(2) 0.34349(18) 0.0440(5) Uani d 1 . .
C C1 0.1427(3) 0.5194(3) 0.2723(2) 0.0416(5) Uani d 1 . .
C C2 0.1812(3) 0.3584(3) 0.1020(2) 0.0398(5) Uani d 1 . .
C C3 0.2423(3) 0.2714(3) 0.0060(3) 0.0523(6) Uani d 1 . .
H H3A 0.356052 0.277898 0.007056 0.063 Uiso calc 1 . .
C C4 0.1273(3) 0.1751(3) -0.0906(3) 0.0588(7) Uani d 1 . .
H H4 0.164334 0.114890 -0.156678 0.071 Uiso calc 1 . .
C C5 -0.0434(3) 0.1645(3) -0.0930(3) 0.0582(7) Uani d 1 . .
H H5 -0.116985 0.096430 -0.159677 0.070 Uiso calc 1 . .
C C6 -0.1053(3) 0.2522(3) 0.0007(3) 0.0534(6) Uani d 1 . .
H H6 -0.219287 0.246255 -0.001128 0.064 Uiso calc 1 . .
C C7 0.0105(3) 0.3504(3) 0.0984(2) 0.0420(5) Uani d 1 . .
C C8 0.1701(3) 0.6391(3) 0.3925(3) 0.0519(6) Uani d 1 . .
H H8A 0.137268 0.742690 0.366177 0.062 Uiso calc 1 . .
H H8B 0.097204 0.608363 0.445683 0.062 Uiso calc 1 . .
C C9 0.4601(3) 0.7505(3) 0.4494(2) 0.0412(5) Uani d 1 . .
C C10 0.7243(3) 0.8490(3) 0.5031(2) 0.0460(6) Uani d 1 . .
C C11 0.5462(3) 0.9138(3) 0.3278(2) 0.0456(6) Uani d 1 . .
Cl Cl3 0.65237(7) 0.50305(8) 0.26932(6) 0.05188(19) Uani d 1 . .
loop_
_atom_site_aniso_label
_atom_site_aniso_U_11
_atom_site_aniso_U_22
_atom_site_aniso_U_33
_atom_site_aniso_U_12
_atom_site_aniso_U_13
_atom_site_aniso_U_23
Cl1 0.0505(4) 0.0743(5) 0.0650(5) -0.0059(3) 0.0003(3) 0.0043(4)
Cl2 0.0727(5) 0.0822(5) 0.0730(5) 0.0120(4) 0.0241(4) 0.0374(4)
N1 0.0249(9) 0.0558(12) 0.0501(12) 0.0039(9) 0.0121(9) 0.0098(10)
N2 0.0252(10) 0.0538(12) 0.0599(13) 0.0035(9) 0.0167(9) 0.0134(10)
N3 0.0490(12) 0.0544(13) 0.0469(12) -0.0008(10) 0.0162(10) 0.0100(10)
N4 0.0477(12) 0.0434(11) 0.0410(11) 0.0020(9) 0.0104(9) 0.0014(9)
N5 0.0469(12) 0.0478(12) 0.0561(13) -0.0025(9) 0.0165(10) 0.0070(10)
N6 0.0407(11) 0.0469(11) 0.0474(12) 0.0054(9) 0.0150(9) 0.0089(9)
C1 0.0324(12) 0.0481(14) 0.0493(14) 0.0046(10) 0.0163(11) 0.0137(11)
C2 0.0302(11) 0.0459(13) 0.0458(13) 0.0063(10) 0.0101(10) 0.0142(11)
C3 0.0388(13) 0.0673(17) 0.0567(16) 0.0158(12) 0.0176(12) 0.0171(13)
C4 0.0617(17) 0.0674(18) 0.0469(15) 0.0131(14) 0.0135(13) 0.0058(13)
C5 0.0516(16) 0.0638(17) 0.0530(16) 0.0013(13) 0.0029(13) 0.0058(13)
C6 0.0343(13) 0.0631(17) 0.0610(16) 0.0018(12) 0.0050(12) 0.0162(14)
C7 0.0347(12) 0.0465(13) 0.0480(14) 0.0070(10) 0.0126(11) 0.0141(11)
C8 0.0408(13) 0.0573(16) 0.0634(16) 0.0007(11) 0.0250(12) 0.0056(13)
C9 0.0438(13) 0.0382(13) 0.0439(13) 0.0026(10) 0.0174(11) 0.0014(10)
C10 0.0452(14) 0.0423(14) 0.0478(14) -0.0002(11) 0.0113(11) -0.0033(11)
C11 0.0497(15) 0.0426(13) 0.0469(14) 0.0074(11) 0.0163(12) 0.0061(11)
Cl3 0.0337(3) 0.0692(4) 0.0594(4) 0.0048(3) 0.0231(3) 0.0104(3)
loop_
_atom_type_symbol
_atom_type_description
_atom_type_scat_dispersion_real
_atom_type_scat_dispersion_imag
_atom_type_scat_source
C C 0.0033 0.0016 'International Tables Vol C Tables 4.2.6.8 and 6.1.1.4'
H H 0.0000 0.0000 'International Tables Vol C Tables 4.2.6.8 and 6.1.1.4'
Cl Cl 0.1484 0.1585 'International Tables Vol C Tables 4.2.6.8 and 6.1.1.4'
N N 0.0061 0.0033 'International Tables Vol C Tables 4.2.6.8 and 6.1.1.4'
loop_
_geom_angle_atom_site_label_1
_geom_angle_atom_site_label_2
_geom_angle_atom_site_label_3
_geom_angle_site_symmetry_1
_geom_angle_site_symmetry_3
_geom_angle
_geom_angle_publ_flag
C1 N1 H1 . . 123.4(16) ?
C1 N1 C2 . . 109.27(18) ?
C2 N1 H1 . . 127.2(16) ?
C1 N2 H2 . . 123.9(17) ?
C1 N2 C7 . . 109.57(18) ?
C7 N2 H2 . . 126.5(17) ?
C8 N3 H3 . . 115.6(19) ?
C9 N3 H3 . . 121.0(19) ?
C9 N3 C8 . . 123.1(2) ?
C10 N4 C9 . . 112.6(2) ?
C11 N5 C10 . . 110.9(2) ?
C11 N6 C9 . . 113.1(2) ?
N1 C1 C8 . . 127.1(2) ?
N2 C1 N1 . . 108.9(2) ?
N2 C1 C8 . . 123.94(19) ?
N1 C2 C7 . . 106.1(2) ?
C3 C2 N1 . . 132.6(2) ?
C3 C2 C7 . . 121.3(2) ?
C2 C3 H3A . . 121.6 ?
C4 C3 C2 . . 116.8(2) ?
C4 C3 H3A . . 121.6 ?
C3 C4 H4 . . 119.0 ?
C3 C4 C5 . . 122.0(2) ?
C5 C4 H4 . . 119.0 ?
C4 C5 H5 . . 119.3 ?
C6 C5 C4 . . 121.5(3) ?
C6 C5 H5 . . 119.3 ?
C5 C6 H6 . . 121.7 ?
C5 C6 C7 . . 116.7(2) ?
C7 C6 H6 . . 121.7 ?
N2 C7 C2 . . 106.1(2) ?
N2 C7 C6 . . 132.1(2) ?
C6 C7 C2 . . 121.7(2) ?
N3 C8 C1 . . 113.84(19) ?
N3 C8 H8A . . 108.8 ?
N3 C8 H8B . . 108.8 ?
C1 C8 H8A . . 108.8 ?
C1 C8 H8B . . 108.8 ?
H8A C8 H8B . . 107.7 ?
N3 C9 N4 . . 116.6(2) ?
N3 C9 N6 . . 118.3(2) ?
N6 C9 N4 . . 125.1(2) ?
N4 C10 Cl1 . . 115.95(19) ?
N4 C10 N5 . . 129.3(2) ?
N5 C10 Cl1 . . 114.76(18) ?
N5 C11 Cl2 . . 115.05(18) ?
N6 C11 Cl2 . . 115.98(18) ?
N6 C11 N5 . . 129.0(2) ?
loop_
_geom_bond_atom_site_label_1
_geom_bond_atom_site_label_2
_geom_bond_site_symmetry_2
_geom_bond_distance
_geom_bond_publ_flag
Cl1 C10 . 1.728(2) ?
Cl2 C11 . 1.724(2) ?
N1 H1 . 0.859(10) ?
N1 C1 . 1.328(3) ?
N1 C2 . 1.386(3) ?
N2 H2 . 0.852(10) ?
N2 C1 . 1.324(3) ?
N2 C7 . 1.382(3) ?
N3 H3 . 0.856(10) ?
N3 C8 . 1.444(3) ?
N3 C9 . 1.329(3) ?
N4 C9 . 1.358(3) ?
N4 C10 . 1.301(3) ?
N5 C10 . 1.334(3) ?
N5 C11 . 1.325(3) ?
N6 C9 . 1.347(3) ?
N6 C11 . 1.306(3) ?
C1 C8 . 1.491(3) ?
C2 C3 . 1.382(3) ?
C2 C7 . 1.389(3) ?
C3 H3A . 0.9300 ?
C3 C4 . 1.370(4) ?
C4 H4 . 0.9300 ?
C4 C5 . 1.394(4) ?
C5 H5 . 0.9300 ?
C5 C6 . 1.370(4) ?
C6 H6 . 0.9300 ?
C6 C7 . 1.386(3) ?
C8 H8A . 0.9700 ?
C8 H8B . 0.9700 ?
loop_
_geom_hbond_atom_site_label_D
_geom_hbond_atom_site_label_H
_geom_hbond_atom_site_label_A
_geom_hbond_site_symmetry_A
_geom_hbond_distance_DH
_geom_hbond_distance_HA
_geom_hbond_distance_DA
_geom_hbond_angle_DHA
_geom_hbond_publ_flag
N1 H1 Cl3 . 0.858(15) 2.302(13) 3.1338(18) 163(2) yes
N2 H2 Cl3 1_455 0.854(18) 2.207(17) 3.0582(18) 175(2) yes
N3 H3 Cl3 2_666 0.86(2) 2.35(2) 3.183(2) 165(2) yes
loop_
_geom_torsion_atom_site_label_1
_geom_torsion_atom_site_label_2
_geom_torsion_atom_site_label_3
_geom_torsion_atom_site_label_4
_geom_torsion_site_symmetry_1
_geom_torsion_site_symmetry_2
_geom_torsion_site_symmetry_3
_geom_torsion_site_symmetry_4
_geom_torsion
_geom_torsion_publ_flag
N1 C1 C8 N3 . . . . -21.4(3) ?
N1 C2 C3 C4 . . . . 179.7(2) ?
N1 C2 C7 N2 . . . . 0.6(2) ?
N1 C2 C7 C6 . . . . -179.2(2) ?
N2 C1 C8 N3 . . . . 160.9(2) ?
C1 N1 C2 C3 . . . . 178.9(2) ?
C1 N1 C2 C7 . . . . -0.2(2) ?
C1 N2 C7 C2 . . . . -0.8(2) ?
C1 N2 C7 C6 . . . . 178.9(2) ?
C2 N1 C1 N2 . . . . -0.3(3) ?
C2 N1 C1 C8 . . . . -178.3(2) ?
C2 C3 C4 C5 . . . . 0.0(4) ?
C3 C2 C7 N2 . . . . -178.6(2) ?
C3 C2 C7 C6 . . . . 1.6(3) ?
C3 C4 C5 C6 . . . . 1.0(4) ?
C4 C5 C6 C7 . . . . -0.7(4) ?
C5 C6 C7 N2 . . . . 179.7(2) ?
C5 C6 C7 C2 . . . . -0.6(4) ?
C7 N2 C1 N1 . . . . 0.7(3) ?
C7 N2 C1 C8 . . . . 178.8(2) ?
C7 C2 C3 C4 . . . . -1.2(3) ?
C8 N3 C9 N4 . . . . 176.8(2) ?
C8 N3 C9 N6 . . . . -3.8(3) ?
C9 N3 C8 C1 . . . . 85.3(3) ?
C9 N4 C10 Cl1 . . . . -178.34(15) ?
C9 N4 C10 N5 . . . . 1.5(4) ?
C9 N6 C11 Cl2 . . . . 179.65(16) ?
C9 N6 C11 N5 . . . . -0.7(4) ?
C10 N4 C9 N3 . . . . 176.7(2) ?
C10 N4 C9 N6 . . . . -2.6(3) ?
C10 N5 C11 Cl2 . . . . 179.39(16) ?
C10 N5 C11 N6 . . . . -0.3(4) ?
C11 N5 C10 Cl1 . . . . 179.67(16) ?
C11 N5 C10 N4 . . . . -0.2(4) ?
C11 N6 C9 N3 . . . . -177.1(2) ?
C11 N6 C9 N4 . . . . 2.3(3) ?

_cod_database_fobs_code 2021994
