#------------------------------------------------------------------------------
#$Date: 2018-06-05 18:42:32 +0300 (Tue, 05 Jun 2018) $
#$Revision: 208128 $
#$URL: file:///home/coder/svn-repositories/cod/cif/2/02/11/2021152.cif $
#------------------------------------------------------------------------------
#
# This file is available in the Crystallography Open Database (COD),
# http://www.crystallography.net/. The original data for this entry
# were provided by IUCr Journals, http://journals.iucr.org/.
#
# The file may be used within the scientific community so long as
# proper attribution is given to the journal article from which the
# data were obtained.
#
data_2021152
loop_
_publ_author_name
'Karthikeyan, Ammasai'
'Zeller, Matthias'
'Thomas Muthiah, Packianathan'
_publ_section_title
;
 Supramolecular architectures in metal(II) (Cd/Zn) halide/nitrate
 complexes of cytosine/5-fluorocytosine
;
_journal_coeditor_code           QS3072
_journal_issue                   7
_journal_name_full               'Acta Crystallographica Section C'
_journal_page_first
;
;
_journal_paper_doi               10.1107/S2053229618007672
_journal_volume                  74
_journal_year                    2018
_chemical_formula_iupac
'[Zn Br2 (C4 H5 F N3 O) (H2 O)], C4 H5 F N3 O'
_chemical_formula_moiety         'C4 H6 Br2 F N3 O2 Zn, C4 H4 F N3 O'
_chemical_formula_sum            'C8 H10 Br2 F2 N6 O3 Zn'
_chemical_formula_weight         501.41
_chemical_name_common
;
(6-Amino-5-fluorocytosine)aquadibromidozinc(II)--4-amino-5-fluorocytosine (1/1)
;
_chemical_name_systematic
'(6-Amino-5-fluoro-1,2-dihydropyrimidin-2-one-\k<i>N</i>^3^)aquadibromidozinc(II)--4-amino-5-fluorocytosine (1/1)'
_space_group_crystal_system      triclinic
_space_group_IT_number           2
_space_group_name_Hall           '-P 1'
_space_group_name_H-M_alt        'P -1'
_symmetry_space_group_name_Hall  '-P 1'
_symmetry_space_group_name_H-M   'P -1'
_atom_sites_solution_hydrogens   mixed
_atom_sites_solution_primary     direct
_atom_sites_solution_secondary   difmap
_audit_creation_method           SHELXL-2018/1
_cell_angle_alpha                89.6438(13)
_cell_angle_beta                 68.0189(12)
_cell_angle_gamma                67.7878(12)
_cell_formula_units_Z            2
_cell_length_a                   8.0586(4)
_cell_length_b                   10.1383(4)
_cell_length_c                   10.1842(4)
_cell_measurement_reflns_used    9809
_cell_measurement_temperature    100(2)
_cell_measurement_theta_max      66.4020
_cell_measurement_theta_min      4.7417
_cell_volume                     705.39(5)
_computing_cell_refinement
;
SAINT (Bruker, 2014)
;
_computing_data_collection
;
APEX2 (Bruker, 2014)
;
_computing_data_reduction
;
SAINT (Bruker, 2014)
;
_computing_molecular_graphics
;
<i>ORTEP-3</i> (Farrugia, 2012),
PLATON (Spek, 2009) and Mercury (Macrae <i>et al.</i>, 2008)
;
_computing_publication_material
;
PLATON (Spek, 2009) and publCIF (Westrip, 2010)
;
_computing_structure_refinement
;
SHELXL2018 (Sheldrick, 2015) and
shelXle (H\"ubschle <i>et al.</i>,  2011)
;
_computing_structure_solution
;
SHELXS97 (Sheldrick, 2008)
;
_diffrn_ambient_temperature      100(2)
_diffrn_measured_fraction_theta_full 0.968
_diffrn_measured_fraction_theta_max 0.968
_diffrn_measurement_device_type  'Bruker Prospector CCD'
_diffrn_measurement_method       'omega and phi scans'
_diffrn_radiation_monochromator  'laterally graded multilayer (Goebel) mirror'
_diffrn_radiation_type           CuK\a
_diffrn_radiation_wavelength     1.54178
_diffrn_reflns_av_R_equivalents  0.0321
_diffrn_reflns_limit_h_max       9
_diffrn_reflns_limit_h_min       -9
_diffrn_reflns_limit_k_max       11
_diffrn_reflns_limit_k_min       -11
_diffrn_reflns_limit_l_max       11
_diffrn_reflns_limit_l_min       -12
_diffrn_reflns_number            18184
_diffrn_reflns_theta_full        67.130
_diffrn_reflns_theta_max         67.130
_diffrn_reflns_theta_min         4.742
_exptl_absorpt_coefficient_mu    9.516
_exptl_absorpt_correction_T_max  0.7529
_exptl_absorpt_correction_T_min  0.5422
_exptl_absorpt_correction_type   multi-scan
_exptl_absorpt_process_details
;
(APEX2; Bruker, 2014)
;
_exptl_crystal_colour            colourless
_exptl_crystal_density_diffrn    2.361
_exptl_crystal_description       block
_exptl_crystal_F_000             484
_exptl_crystal_size_max          0.180
_exptl_crystal_size_mid          0.160
_exptl_crystal_size_min          0.130
_refine_diff_density_max         0.659
_refine_diff_density_min         -0.444
_refine_ls_extinction_method     none
_refine_ls_goodness_of_fit_ref   1.187
_refine_ls_hydrogen_treatment    mixed
_refine_ls_matrix_type           full
_refine_ls_number_parameters     205
_refine_ls_number_reflns         2450
_refine_ls_number_restraints     2
_refine_ls_restrained_S_all      1.187
_refine_ls_R_factor_all          0.0199
_refine_ls_R_factor_gt           0.0198
_refine_ls_shift/su_max          0.001
_refine_ls_shift/su_mean         0.000
_refine_ls_structure_factor_coef Fsqd
_refine_ls_weighting_details
'w=1/[\s^2^(Fo^2^)+(0.0096P)^2^+1.6570P] where P=(Fo^2^+2Fc^2^)/3'
_refine_ls_weighting_scheme      calc
_refine_ls_wR_factor_gt          0.0491
_refine_ls_wR_factor_ref         0.0492
_reflns_number_gt                2443
_reflns_number_total             2450
_reflns_threshold_expression     'I > 2\s(I)'
_cod_data_source_file            qs3072sup1.cif
_cod_data_source_block           III
_cod_database_code               2021152
_shelx_space_group_comment
;
The symmetry employed for this shelxl refinement is uniquely defined
by the following loop, which should always be used as a source of
symmetry information in preference to the above space-group names.
They are only intended as comments.
;
_shelx_estimated_absorpt_t_min   0.279
_shelx_estimated_absorpt_t_max   0.371
_shelx_hkl_file
;
  -1   0   0 554.028 30.4946  37
  -1   0   0 553.076 25.4771  29
  -1   0   0 615.506 28.2834  35
  -1   0   0 620.926 42.1902  25
  -1   0   0 649.654 32.7327  25
  -1   0   0 627.513 28.4888  24
  -1   0   0 630.797 28.5415  24
  -1   0   0 604.124 25.7287   4
   1   0   0 597.733 28.4587  24
   1   0   0 599.146 32.5918  25
   1   0   0 643.699 28.5076  24
   1   0   0 626.159 28.3070  35
   1   0   0 595.017 34.8739  36
   1   0   0 660.823 34.4655   9
  -2   0   0 1976.56 118.098  25
  -2   0   0 1992.03 99.5116  25
  -2   0   0 1972.69 86.7168  24
  -2   0   0 1843.50 86.3974  24
  -2   0   0 1659.45 86.0650  36
  -2   0   0 1866.95 75.2548  37
  -2   0   0 1909.98 75.5480   5
  -2   0   0 1927.71 77.9770  29
  -2   0   0 1886.49 78.4200   4
  -2   0   0 1719.12 79.1088  28
   2   0   0 1895.18 86.2195  35
   2   0   0 1816.46 74.9454  37
   2   0   0 1980.00 86.6150  24
   2   0   0 1851.01 99.0999  25
   2   0   0 1945.27 85.9086  36
  -3   0   0 13.8171 0.81648   5
  -3   0   0 14.4634 0.77519  29
  -3   0   0 11.6166 0.74844   4
  -3   0   0 11.7993 0.90642  24
  -3   0   0 12.3810 1.02141  25
  -3   0   0 10.1924 0.91872  36
  -3   0   0 11.3466 0.76772  37
  -3   0   0 12.8792 0.74742  28
  -3   0   0 12.7259 0.72446  22
   3   0   0 12.1278 0.86376  24
   3   0   0 11.8024 0.84687  36
  -4   0   0 1.91466 0.55176   5
  -4   0   0 2.17347 0.36493  30
  -4   0   0 2.48851 0.46944  29
  -4   0   0 1.88893 0.45733  28
  -5   0   0 4.53341 0.66550  28
  -5   0   0 4.41761 0.51736  30
  -5   0   0 5.52623 0.74326  37
  -5   0   0 4.60872 0.63405  29
  -5   0   0 4.46395 0.56305  13
  -5   0   0 3.78497 0.75891   3
   5   0   0 5.61798 1.12326  34
   5   0   0 5.91387 0.82269   8
   5   0   0 3.81893 0.68156  12
   5   0   0 5.65276 0.83412  19
   5   0   0 4.32561 1.08192  20
   5   0   0 5.20009 0.93491  10
   5   0   0 4.68482 0.78061  31
   5   0   0 5.61344 0.81440   1
   5   0   0 4.74422 0.86448   2
  -6   0   0 3.79501 0.77313  28
  -6   0   0 4.15796 0.68773  22
   6   0   0 3.37979 0.89254  10
   6   0   0 3.00535 0.82294  12
   6   0   0 5.48194 0.90967   8
   6   0   0 3.98846 0.83102   1
   6   0   0 3.60476 1.00165  20
   6   0   0 2.86538 1.05398  34
   6   0   0 2.65445 0.64244  19
  -7   0   0 0.40029 0.21858  13
  -7   0   0 0.72454 0.44438   3
  -7   0   0 0.69495 0.29845  30
   7   0   0 1.00193 0.52756  31
   7   0   0 1.68464 0.59131  19
   7   0   0 0.30532 0.60472  12
   7   0   0 0.20195 0.80234  34
  -8   0   0 461.366 18.4647  18
   8   0   0 423.565 15.9615  12
   8   0   0 408.440 19.0048  34
   7  -1   0 19.3870 1.63689  10
   7  -1   0 21.5195 1.73179  12
   7  -1   0 20.5585 1.88832  34
   7  -1   0 23.1543 1.48449  31
   7  -1   0 19.2343 1.87973  20
  -7   1   0 21.6745 1.19454  30
  -7   1   0 23.1200 1.13779  13
  -7   1   0 22.3230 1.55348  18
   6  -1   0 324.964 13.8252  38
   6  -1   0 332.018 16.1631  34
   6  -1   0 365.125 13.8475  31
   6  -1   0 371.145 11.8495   1
   6  -1   0 347.587 12.9295  19
   6  -1   0 328.071 16.1872  20
   6  -1   0 355.471 15.9731  10
   6  -1   0 355.029 13.5957  12
  -6   1   0 371.220 14.1111  30
  -6   1   0 365.672 13.4532  13
  -6   1   0 369.211 15.3979  22
  -6   1   0 323.836 13.7735   3
   5  -1   0 142.299 6.91278  10
   5  -1   0 143.006 7.07271  34
   5  -1   0 127.122 5.98487  38
   5  -1   0 145.251 5.63569  19
   5  -1   0 142.842 5.95745  31
   5  -1   0 127.993 7.00664  20
   5  -1   0 143.036 5.14354   1
   5  -1   0 146.346 5.92931  12
   5  -1   0 142.738 6.76828   2
  -5   1   0 125.091 6.03772  37
  -5   1   0 146.172 5.83300  30
  -5   1   0 137.196 5.56166  13
  -5   1   0 148.121 6.41538  28
  -5   1   0 138.802 6.32124  29
  -5   1   0 148.366 6.40452  22
  -4   1   0 224.837 9.90938  37
  -4   1   0 282.955 10.1814   5
  -4   1   0 220.478 9.62980  30
  -4   1   0 232.485 10.2750  29
  -4   1   0 246.289 10.5160  22
  -3   1   0 132.361 5.95189  28
  -3   1   0 138.130 6.59548  24
  -3   1   0 133.718 7.53095  25
  -3   1   0 143.654 5.71033  37
  -3   1   0 135.626 5.99521  22
  -3   1   0 137.835 5.82122   5
  -3   1   0 137.213 5.88384  29
   2  -1   0 258.664 11.7648  24
   2  -1   0 239.619 13.4790  25
   2  -1   0 259.971 11.6413  36
  -2   1   0 240.192 10.7600  28
  -2   1   0 243.690 11.7445  24
  -2   1   0 275.427 11.8078  24
  -2   1   0 244.080 10.6401   4
  -2   1   0 267.058 10.6088  29
  -2   1   0 261.854 10.3332   5
  -2   1   0 268.319 13.5050  25
  -2   1   0 216.709 11.7215  36
  -2   1   0 259.386 10.2292  37
  -2   1   0 276.185 13.5289  25
   1  -1   0 869.409 39.9612  36
   1  -1   0 886.870 40.4198  24
   1  -1   0 869.880 46.3171  25
   1  -1   0 880.661 40.3359  24
  -1   1   0 814.169 36.3227  29
  -1   1   0 818.678 35.0604  37
  -1   1   0 892.036 40.6486   4
  -1   1   0 962.436 57.1675  25
  -1   1   0 872.470 35.5018   5
  -1   1   0 868.896 42.6811  24
  -1   1   0 912.555 40.4306  24
  -1   1   0 905.423 46.3355  25
   0  -1   0 897.408 53.5053   6
   0  -1   0 774.476 44.3480  25
   0  -1   0 713.623 45.3440  25
   0  -1   0 671.700 30.7718   5
   0  -1   0 790.109 39.7614  24
   0  -1   0 777.761 40.0957  24
   0   1   0 791.566 52.5194   6
   0   1   0 794.948 39.9696  24
   0   1   0 763.583 34.5088  23
   0   1   0 722.291 35.2141   5
   0   1   0 773.151 44.7748  25
   0   1   0 803.272 39.7870  24
   0   1   0 774.028 45.9431  25
  -1  -1   0 434.523 22.9432  25
  -1  -1   0 410.297 19.7604  36
  -1  -1   0 423.183 18.0987   4
  -1  -1   0 456.192 20.1556  24
  -1  -1   0 399.388 17.2797  37
  -1  -1   0 433.081 19.7823  24
  -1  -1   0 416.425 22.9102  25
   1   1   0 474.984 20.1164  24
   1   1   0 462.238 19.8089  35
   1   1   0 447.798 22.8869  25
   1   1   0 388.369 22.8245  25
   1   1   0 417.895 19.7606  36
   1   1   0 434.716 19.4595  23
   1   1   0 453.267 18.1420   9
   1   1   0 396.176 19.6140  24
   1   1   0 417.526 17.1086  37
  -2  -1   0 15.7054 0.91507   4
  -2  -1   0 15.9583 1.07130  36
  -2  -1   0 14.8017 1.18437  25
  -2  -1   0 14.7216 0.88201  37
  -2  -1   0 15.4387 1.05307  24
  -2  -1   0 14.3675 0.86825  28
  -2  -1   0 17.6260 0.89034  29
   2   1   0 15.8148 1.02917  24
   2   1   0 15.0330 0.89627  37
   2   1   0 16.3720 0.94083   9
   2   1   0 15.3476 1.02749  36
   2   1   0 18.3659 0.93174  35
   2   1   0 18.4390 1.20814  25
  -3  -1   0 3.69033 0.58120  24
  -3  -1   0 2.77392 0.64290  36
  -3  -1   0 3.17378 0.43643  28
  -3  -1   0 2.65776 0.41746  22
  -3  -1   0 3.84629 0.63033  25
  -3  -1   0 4.36209 0.52449   4
  -3  -1   0 2.50045 0.47976  37
  -3  -1   0 3.41373 0.44570   5
  -3  -1   0 2.99388 0.44314  29
   3   1   0 4.35102 0.45888  35
   3   1   0 3.74551 0.54978  24
   3   1   0 3.45209 0.66335  36
   3   1   0 2.27928 0.53182   9
  -4  -1   0 1351.67 56.3786  28
  -4  -1   0 1232.29 60.3732  36
  -4  -1   0 1390.94 53.4478   5
  -4  -1   0 1384.92 74.4722  37
  -4  -1   0 1374.02 55.3817  29
  -4  -1   0 1245.90 55.1158   4
  -4  -1   0 1284.58 69.5499  25
  -4  -1   0 1305.27 52.1463  30
  -4  -1   0 1328.76 56.4973  22
   4   1   0 1384.91 60.3221  36
  -5  -1   0 120.685 4.86363  30
  -5  -1   0 111.152 4.62602  13
  -5  -1   0 119.781 5.33270  22
  -5  -1   0 120.052 5.32706  28
  -5  -1   0 119.281 5.19682  37
  -5  -1   0 116.869 5.27099  29
   5   1   0 117.532 5.68026   2
   5   1   0 114.553 4.69311  19
   5   1   0 116.208 5.14180   8
   5   1   0 106.681 4.87680  12
   5   1   0 115.648 4.94176  31
  -6  -1   0 162.942 8.05175  37
  -6  -1   0 184.337 7.26788  13
  -6  -1   0 180.128 7.62626   3
  -6  -1   0 184.332 8.35418  22
  -6  -1   0 199.779 7.65792  30
   6   1   0 185.363 9.16997  34
   6   1   0 183.748 7.19832  19
   6   1   0 184.739 7.64087  12
   6   1   0 202.298 7.95743   8
   6   1   0 178.538 8.98700  20
   6   1   0 194.351 7.66103  31
  -7  -1   0 68.1450 3.35646   3
  -7  -1   0 67.3662 3.14227  30
  -7  -1   0 70.1057 2.98331  13
   7   1   0 71.7233 3.24381  19
   7   1   0 71.9964 3.56106  12
   7   1   0 72.9347 4.27349  34
   7   1   0 75.7140 3.36514  31
  -8  -1   0 100.174 4.50470  18
  -8  -1   0 98.9046 4.04988   3
   8   1   0 94.5717 4.08792  12
   8   1   0 86.1175 4.80309  34
   7  -2   0 1.37005 0.51219   1
   7  -2   0 0.80887 0.61488  10
   7  -2   0 0.86203 0.67005  20
  -7   2   0 0.79018 0.38124  18
   6  -2   0 310.078 13.9655  10
   6  -2   0 283.979 14.1340  20
   6  -2   0 318.358 12.0762  31
   6  -2   0 290.970 14.0877  34
   6  -2   0 305.490 10.3266   1
   6  -2   0 291.986 12.1121  38
   6  -2   0 298.708 11.2599  19
   6  -2   0 303.170 11.8378  12
  -6   2   0 317.427 11.6995  13
  -6   2   0 316.071 12.2635  30
  -6   2   0 304.562 13.3789  22
   5  -2   0 206.490 8.07063  12
   5  -2   0 197.401 9.52864  10
   5  -2   0 204.419 7.07640   1
   5  -2   0 199.526 8.18041  31
   5  -2   0 179.896 9.60432  20
   5  -2   0 203.437 9.64617  34
   5  -2   0 190.800 8.28546  38
   5  -2   0 204.741 7.70258  19
  -5   2   0 207.734 8.92783  22
  -5   2   0 204.203 8.15137  30
  -5   2   0 190.337 7.76283  13
  -5   2   0 200.899 8.88311  28
   4  -2   0 411.616 19.3482  20
   4  -2   0 428.128 19.2377  10
   4  -2   0 450.408 19.2061  34
   4  -2   0 427.399 15.4163  19
   4  -2   0 387.939 16.6699  38
   4  -2   0 446.592 14.1918   1
   4  -2   0 407.739 16.5651  31
   4  -2   0 447.414 16.0903  12
  -4   2   0 417.061 17.2634  37
  -4   2   0 450.207 18.4709  22
  -4   2   0 429.273 16.9681  30
  -4   2   0 434.007 18.2770  28
  -4   2   0 431.293 17.9959  29
  -3   2   0 62.0970 2.92978   5
  -3   2   0 61.3665 2.85708  28
  -3   2   0 65.4208 2.85058  29
  -3   2   0 63.1395 2.84979  22
  -3   2   0 57.3400 3.13846  24
  -3   2   0 64.7838 2.73566  37
  -2   2   0 721.486 33.0968  24
  -2   2   0 711.574 38.2913  25
  -2   2   0 672.407 30.7594  28
  -2   2   0 725.767 29.1119  37
  -2   2   0 715.364 31.8610   5
  -2   2   0 758.100 38.1907  29
  -2   2   0 777.550 38.6457  25
   1  -2   0 433.755 24.6815  25
   1  -2   0 452.237 21.3834  24
   1  -2   0 450.203 24.9941  24
  -1   2   0 476.208 18.8465  37
  -1   2   0 475.717 24.8955  25
  -1   2   0 477.372 24.7312   5
  -1   2   0 425.731 19.7039  28
  -1   2   0 509.508 24.9975  25
  -1   2   0 512.472 23.9483  24
  -1   2   0 463.437 19.5658   4
  -1   2   0 450.379 22.4007  29
  -1   2   0 464.184 21.4754  24
   0  -2   0 617.460 30.3843  36
   0  -2   0 596.036 35.2154  25
   0  -2   0 650.980 30.7123  24
   0  -2   0 751.604 40.9252   6
   0  -2   0 665.116 35.1693  25
   0  -2   0 672.801 30.7235  24
   0   2   0 686.966 40.0443  23
   0   2   0 651.513 26.7073  37
   0   2   0 688.130 35.3526  25
   0   2   0 702.201 35.2481  25
   0   2   0 680.719 30.7150  24
   0   2   0 664.251 26.8678   5
   0   2   0 686.299 30.7942  24
   0   2   0 639.495 31.2418  29
  -1  -2   0 380.003 15.9939   5
  -1  -2   0 422.972 21.5296  25
  -1  -2   0 387.720 18.6308  24
  -1  -2   0 363.911 21.2987  25
  -1  -2   0 362.978 15.9564  37
  -1  -2   0 405.399 23.3300   4
  -1  -2   0 440.842 18.7280  24
  -1  -2   0 395.461 18.2422  36
   1   2   0 384.175 21.1925  25
   1   2   0 422.222 17.0546   9
   1   2   0 415.727 18.6326  24
   1   2   0 435.894 21.4597  25
   1   2   0 380.145 18.4006  24
   1   2   0 386.284 18.2892  36
   1   2   0 415.853 17.8774  23
   1   2   0 406.181 16.8003  29
   1   2   0 380.072 16.0135  37
  -2  -2   0 123.296 7.24128  25
  -2  -2   0 134.941 6.32726  36
  -2  -2   0 127.327 5.64334  29
  -2  -2   0 133.150 7.23456  25
  -2  -2   0 137.835 5.72893   4
  -2  -2   0 132.938 5.47668  37
  -2  -2   0 144.638 6.36711  24
   2   2   0 146.064 6.35187  24
   2   2   0 131.983 6.31169  36
   2   2   0 140.142 5.76131   9
   2   2   0 131.557 6.15349  23
   2   2   0 136.535 7.26663  25
   2   2   0 131.275 5.66636  29
   2   2   0 141.625 6.23391  35
   2   2   0 114.562 7.21845  25
   2   2   0 132.279 5.49515  37
  -3  -2   0 233.419 10.9160  24
  -3  -2   0 214.693 10.8541  36
  -3  -2   0 231.137 9.85111   4
  -3  -2   0 218.940 9.88667  28
  -3  -2   0 235.417 9.75494  29
  -3  -2   0 236.571 9.45020  37
  -3  -2   0 229.219 12.4580  25
   3   2   0 236.819 10.7049  35
   3   2   0 232.288 10.8760  24
   3   2   0 243.340 10.8514  36
   3   2   0 228.629 12.4814  25
   3   2   0 238.793 9.46867  37
   3   2   0 230.448 9.90191   9
  -4  -2   0 975.686 46.1562  36
  -4  -2   0 996.647 42.4780  28
  -4  -2   0 961.137 46.3545  24
  -4  -2   0 997.537 43.0187  22
  -4  -2   0 1037.71 54.5456  37
  -4  -2   0 1013.40 40.2122   5
  -4  -2   0 1016.09 42.0640   4
  -4  -2   0 1021.28 41.9046  29
   4   2   0 1069.59 40.3214  37
   4   2   0 933.775 46.2811  24
   4   2   0 1118.93 46.2443  36
   4   2   0 997.364 42.2003   9
  -5  -2   0 203.187 8.25239  37
  -5  -2   0 185.944 9.54866  36
  -5  -2   0 196.053 7.86884  30
  -5  -2   0 210.443 8.62503  22
  -5  -2   0 168.489 8.46113   4
   5   2   0 198.675 9.01202   2
   5   2   0 204.430 9.51330  36
   5   2   0 183.022 7.65725  12
  -6  -2   0 1089.74 42.7485  30
  -6  -2   0 1071.40 40.8297  13
  -6  -2   0 1075.41 43.5746  37
  -6  -2   0 1078.16 41.1538   3
   6   2   0 1087.83 38.2388  19
   6   2   0 1065.68 41.0430  31
   6   2   0 1157.59 42.9837   8
   6   2   0 1068.72 39.8650  12
  -7  -2   0 284.424 11.7564   3
  -7  -2   0 290.883 11.3684  13
   7   2   0 301.944 10.9975  19
   7   2   0 298.475 13.8998  34
   7   2   0 307.859 12.2296   8
   7   2   0 299.266 11.6346  12
   7   2   0 294.114 11.6810  31
  -8  -2   0 0.70172 0.38550  18
   8   2   0 1.32470 0.73130  34
   8   2   0 0.62998 0.52578  12
   6  -3   0 38.4841 2.34242  38
   6  -3   0 42.2417 2.78936  34
   6  -3   0 40.7635 2.00875   1
   6  -3   0 35.7958 2.74902  20
   6  -3   0 47.0960 2.76290  10
   6  -3   0 39.8480 2.13473  19
   6  -3   0 44.7588 2.27409  31
  -6   3   0 40.2422 1.96786  30
  -6   3   0 40.0252 1.86321  13
  -6   3   0 38.0006 2.34290  18
   5  -3   0 110.028 5.82230  10
   5  -3   0 107.938 4.88943  31
   5  -3   0 113.525 5.90352  34
   5  -3   0 103.368 5.88189  20
   5  -3   0 111.386 4.67084  19
   5  -3   0 114.885 4.35925   1
   5  -3   0 115.294 4.93171  12
   5  -3   0 109.337 5.10768  38
  -5   3   0 114.438 5.22465  22
  -5   3   0 107.275 4.54169  13
  -5   3   0 113.277 4.73349  30
   4  -3   0 717.244 32.4805  20
   4  -3   0 737.542 25.8973  19
   4  -3   0 697.216 32.2543  10
   4  -3   0 702.494 27.0059  16
   4  -3   0 752.904 23.7985   1
   4  -3   0 687.442 28.0397  38
   4  -3   0 767.560 32.1641  34
   4  -3   0 781.027 26.9809  12
   4  -3   0 713.335 27.8532  31
  -4   3   0 747.958 30.8893  28
  -4   3   0 742.198 31.2466  22
  -4   3   0 716.052 28.7522  30
  -4   3   0 725.990 30.3561  29
  -3   3   0 83.3041 3.68600  28
  -3   3   0 80.7016 4.14533  23
  -3   3   0 84.7835 3.64120  29
  -3   3   0 79.8799 3.77003   5
  -3   3   0 78.5530 3.45842  37
  -3   3   0 80.0615 3.67806  22
  -2   3   0 4711.42 197.195  23
  -2   3   0 4311.62 176.124   5
  -2   3   0 4538.44 174.690  37
  -2   3   0 4599.42 230.730  25
  -2   3   0 4492.04 201.259  29
  -2   3   0 4268.52 199.172  28
  -2   3   0 3902.42 186.626  22
  -1   3   0 922.639 40.4244  28
  -1   3   0 947.456 38.6298   5
  -1   3   0 942.522 39.8064  29
  -1   3   0 917.391 39.9020   4
  -1   3   0 1023.96 56.9963  25
  -1   3   0 950.549 47.4110  37
  -1   3   0 998.025 43.5846  23
  -1   3   0 993.902 53.1742  24
  -1   3   0 943.330 58.4044  25
   0  -3   0 458.079 21.6846  24
   0  -3   0 526.581 29.2552   6
   0  -3   0 435.498 24.7720  25
   0   3   0 463.614 19.0401   5
   0   3   0 481.430 25.0788  25
   0   3   0 480.023 21.2121  23
   0   3   0 437.480 19.8585  28
   0   3   0 487.467 25.1290  25
   0   3   0 469.299 18.8642  37
   0   3   0 489.878 21.7571  24
   0   3   0 457.451 19.6072  29
   0   3   0 471.443 21.7721  24
  -1  -3   0 334.819 15.4221  36
  -1  -3   0 350.515 15.5085  24
  -1  -3   0 337.094 17.8283  25
  -1  -3   0 342.174 14.0923   4
  -1  -3   0 296.621 13.4446  37
  -1  -3   0 356.883 20.5627   6
   1   3   0 349.014 15.2552  23
   1   3   0 329.440 17.7705  25
   1   3   0 307.074 15.5032  24
   1   3   0 339.120 15.5037  24
   1   3   0 315.701 14.1865  28
   1   3   0 310.560 15.4122  36
   1   3   0 320.681 13.4628  37
   1   3   0 333.561 13.9601  29
   1   3   0 343.115 14.1302   9
   1   3   0 334.735 13.4283   5
   1   3   0 352.756 17.8194  25
  -2  -3   0 176.986 9.64186  25
  -2  -3   0 174.478 7.29721  37
  -2  -3   0 182.993 8.45635  24
  -2  -3   0 186.888 8.42673  36
   2   3   0 193.180 8.46641  24
   2   3   0 178.458 8.17941  23
   2   3   0 186.985 9.71242  25
   2   3   0 180.339 7.56794  29
   2   3   0 176.800 8.41356  36
   2   3   0 153.426 9.62464  25
   2   3   0 165.229 7.67281  28
   2   3   0 184.690 7.67209   9
   2   3   0 176.794 7.32042  37
   2   3   0 179.728 8.35870  35
  -3  -3   0 11.3865 0.82859   4
  -3  -3   0 10.3083 0.95226  25
  -3  -3   0 10.4344 0.73534  37
  -3  -3   0 9.38712 0.93277  36
   3   3   0 10.8405 0.92664  36
   3   3   0 11.1674 0.81569   9
   3   3   0 11.4421 0.90024  24
   3   3   0 10.8912 0.78860  37
   3   3   0 11.6098 0.74326  35
   3   3   0 9.17225 0.84151  23
   3   3   0 10.6369 1.01956  25
  -4  -3   0 1681.87 71.9556   4
  -4  -3   0 1686.64 79.9152  36
  -4  -3   0 1805.69 69.8715  37
  -4  -3   0 1653.46 79.2075  24
   4   3   0 1765.25 72.6533   9
   4   3   0 1768.22 69.0820  37
  -5  -3   0 43.6510 2.46405   4
  -5  -3   0 49.7565 2.42677  37
  -5  -3   0 46.5906 2.90315  36
   5   3   0 47.5820 2.91464  36
   5   3   0 45.2684 2.57328   9
  -6  -3   0 1018.32 37.5384   3
  -6  -3   0 1019.05 39.7529  37
  -6  -3   0 889.685 45.5449  36
  -6  -3   0 986.103 37.1679  13
  -6  -3   0 940.672 33.5226  15
   6   3   0 1000.60 36.3404  12
   6   3   0 1053.46 39.2287   8
   6   3   0 991.193 34.8292  19
   6   3   0 1005.57 45.5030  36
  -7  -3   0 548.047 21.2785   3
   7   3   0 567.509 20.7593  12
   7   3   0 523.385 24.6865  34
   7   3   0 558.228 19.7802  19
   7   3   0 562.856 22.2020   8
  -8  -3   0 22.6215 1.50654  18
  -8  -3   0 24.1901 1.47554   3
   8   3   0 19.5251 1.54741  12
   8   3   0 21.8284 1.41591   8
   8   3   0 21.6001 1.86026  34
   6  -4   0 20.7019 1.72697  20
   6  -4   0 17.9747 1.66288  34
   6  -4   0 20.7252 1.47602  38
   6  -4   0 22.2506 1.29899   1
   6  -4   0 23.9693 1.75508  10
  -6   4   0 21.4999 1.09080  13
   5  -4   0 6.72527 1.47218  10
   5  -4   0 8.62929 1.10517   1
   5  -4   0 8.03857 1.14239  19
   5  -4   0 8.33387 1.40208  34
   5  -4   0 7.52362 1.06645  31
   5  -4   0 6.91505 1.43469  20
   5  -4   0 6.80652 1.36167  38
  -5   4   0 7.48782 0.71225  13
  -5   4   0 8.16013 0.72766  30
  -5   4   0 8.21809 0.83422  22
   4  -4   0 241.564 8.27530   1
   4  -4   0 235.443 11.1926  10
   4  -4   0 235.952 11.2543  20
   4  -4   0 235.906 9.34021  16
   4  -4   0 227.244 9.72069  38
   4  -4   0 224.380 9.50737  31
   4  -4   0 247.009 8.97269  19
   4  -4   0 248.495 11.1391  34
  -4   4   0 240.423 10.3099  28
  -4   4   0 234.890 10.4095  22
  -4   4   0 225.471 9.52972  30
   3  -4   0 79.8392 3.45650  12
   3  -4   0 69.8778 3.46938  31
   3  -4   0 75.2919 3.46921  16
   3  -4   0 79.2178 3.67345  38
   3  -4   0 77.8712 3.30217  19
   3  -4   0 84.2822 4.23268  20
   3  -4   0 79.8265 4.13421  34
   3  -4   0 78.1796 3.10771   1
   3  -4   0 69.5555 3.29566  32
   3  -4   0 70.1103 4.15596  10
  -3   4   0 80.7642 3.55455  28
  -3   4   0 79.2189 3.56431  22
  -3   4   0 78.3267 3.49504  29
  -2   4   0 1571.42 69.3898  22
  -2   4   0 1671.22 67.7229  29
  -2   4   0 1654.32 73.1800  23
  -2   4   0 1604.60 64.6990   5
  -2   4   0 1640.83 68.7654  28
  -1   4   0 57.0819 2.56905   5
  -1   4   0 59.2728 2.50218  29
  -1   4   0 59.2915 2.43028  37
  -1   4   0 58.1849 2.89635  23
  -1   4   0 52.3438 2.49441  22
  -1   4   0 57.2250 3.20234  25
  -1   4   0 57.5917 2.52348  28
   0  -4   0 26.0742 2.08047   6
   0   4   0 28.2999 1.38491  29
   0   4   0 29.5418 1.58571   9
   0   4   0 31.8463 1.65571  23
   0   4   0 30.1131 1.39034  37
   0   4   0 29.3266 1.39602  28
   0   4   0 27.8655 1.39686   5
   0   4   0 29.2417 1.82018  25
   0   4   0 26.6079 1.81472  25
  -1  -4   0 319.894 17.7872   6
  -1  -4   0 281.608 13.3976  24
  -1  -4   0 297.504 13.3132  36
   1   4   0 283.848 11.5570   5
   1   4   0 309.664 13.0809  23
   1   4   0 274.349 15.3734  25
   1   4   0 297.079 12.2609   9
   1   4   0 270.210 12.3830  22
   1   4   0 274.187 13.3543  36
   1   4   0 289.268 13.4072  24
   1   4   0 283.047 11.6540  37
   1   4   0 281.527 12.2544  28
   1   4   0 307.413 15.4383  25
   1   4   0 296.213 12.0693  29
  -2  -4   0 1436.59 61.5771  36
  -2  -4   0 1347.16 62.1774  24
  -2  -4   0 1341.11 53.8237  37
  -2  -4   0 1364.03 56.5650   4
   2   4   0 1323.99 55.9571  29
   2   4   0 1364.14 61.3695  24
   2   4   0 1336.59 62.1884  35
   2   4   0 1386.33 56.6874   9
   2   4   0 1259.50 56.9828  22
   2   4   0 1343.47 60.5224  23
   2   4   0 1307.68 53.6603  37
   2   4   0 1267.20 56.6477  28
   2   4   0 1412.22 70.9253  25
   2   4   0 1264.18 60.7076  36
  -3  -4   0 208.867 8.76431   4
  -3  -4   0 204.086 9.63805  36
  -3  -4   0 201.977 9.67616  24
  -3  -4   0 205.394 8.35462  37
   3   4   0 213.375 8.77782   9
   3   4   0 211.666 9.68920  24
   3   4   0 203.960 11.1156  25
   3   4   0 202.243 9.50043  35
   3   4   0 196.076 8.84974  22
   3   4   0 201.309 9.36254  23
   3   4   0 204.289 9.63183  36
   3   4   0 197.979 8.36668  37
   3   4   0 200.199 8.62777  29
   3   4   0 189.624 8.74426  28
  -4  -4   0 38.0385 2.00743  37
  -4  -4   0 38.5081 2.39157  24
  -4  -4   0 35.3203 2.09561   4
  -4  -4   0 37.9192 2.40310  36
   4   4   0 41.3146 2.41195  36
   4   4   0 38.5800 2.14015   9
   4   4   0 37.3680 2.03466  37
  -5  -4   0 32.2073 1.84087  37
  -5  -4   0 33.5368 1.70269  15
  -5  -4   0 31.5694 2.26226  36
   5   4   0 31.0835 1.81791  12
   5   4   0 31.4123 1.86336  37
   5   4   0 33.2673 2.33123  36
  -6  -4   0 271.583 10.2689   3
  -6  -4   0 253.493 10.8273  37
  -6  -4   0 238.426 12.5243  36
  -6  -4   0 261.654 9.16742  15
   6   4   0 259.483 9.52029  19
   6   4   0 244.550 12.4812  36
   6   4   0 265.119 10.7693   8
   6   4   0 254.949 9.99265  12
  -7  -4   0 478.510 20.9239  18
  -7  -4   0 499.943 18.8510   3
  -7  -4   0 467.294 16.7899  15
   7   4   0 498.313 18.3528  12
   7   4   0 492.520 19.6760   8
   7   4   0 481.474 17.4720  19
  -8  -4   0 44.9266 2.21117   3
   8   4   0 41.1477 2.22071   8
   8   4   0 38.9389 2.69409  34
   8   4   0 41.2337 2.30757  12
   5  -5   0 1.31439 0.91703  38
   5  -5   0 0.36589 0.73904  10
   5  -5   0 0.57493 0.62434   1
   5  -5   0 0.29829 0.68755  34
   5  -5   0 0.83372 0.71581  20
  -5   5   0 0.34600 0.26791  30
  -5   5   0 0.45770 0.23559  13
   4  -5   0 48.1667 2.48464  19
   4  -5   0 51.1888 3.21621  20
   4  -5   0 46.6919 2.61443  16
   4  -5   0 48.4566 2.80825  38
   4  -5   0 47.8816 3.10464  34
   4  -5   0 52.2158 2.43094   1
   4  -5   0 50.9995 3.20050  10
  -4   5   0 47.2373 2.48929  22
  -4   5   0 45.8833 2.24884  30
   3  -5   0 34.1402 2.01384  32
   3  -5   0 35.9806 1.96284  19
   3  -5   0 36.2823 2.45222  34
   3  -5   0 40.0638 1.94657   1
   3  -5   0 35.6454 2.12153  16
   3  -5   0 35.2826 2.48401  10
  -3   5   0 31.2770 1.68530  30
  -3   5   0 42.4362 1.92018  28
  -3   5   0 34.2295 1.82228  29
  -3   5   0 38.0175 1.89226  22
   2  -5   0 503.172 19.3845  16
   2  -5   0 525.444 17.0041   1
   2  -5   0 561.932 22.9991  34
   2  -5   0 532.589 23.2182  20
   2  -5   0 467.723 24.9340   7
   2  -5   0 473.398 18.7283  32
   2  -5   0 531.842 18.5376  19
   2  -5   0 487.079 22.9984  10
   2  -5   0 521.175 20.0392  38
  -2   5   0 544.152 21.5322  29
  -2   5   0 525.784 22.1445  22
  -2   5   0 550.109 21.8953  28
  -1   5   0 332.699 13.6026  29
  -1   5   0 326.095 14.0057   9
  -1   5   0 330.954 14.9155  23
  -1   5   0 309.149 13.2480   5
  -1   5   0 327.271 13.9598  22
  -1   5   0 335.873 13.8221  28
   0   5   0 62.9414 2.99254   9
   0   5   0 62.7152 3.12574  23
   0   5   0 63.1824 3.53285  25
   0   5   0 61.9598 2.74293  29
   0   5   0 60.6347 2.76330  22
   0   5   0 63.0122 2.77181  28
   0   5   0 58.9640 2.68412  37
   1   5   0 317.176 13.9479  23
   1   5   0 314.292 12.8546  29
   1   5   0 316.619 13.0580  28
   1   5   0 295.969 13.1787  22
   1   5   0 300.317 16.4121  25
   1   5   0 287.868 14.2399  24
   1   5   0 311.329 12.4281  37
   1   5   0 319.560 13.1024   9
  -2  -5   0 1581.98 69.3621  36
  -2  -5   0 1523.62 91.2751   6
   2   5   0 1433.48 68.3453  36
   2   5   0 1500.19 62.4742  29
   2   5   0 1525.85 68.7255  24
   2   5   0 1612.35 78.9499  25
   2   5   0 1440.92 67.4053  23
   2   5   0 1475.67 63.6133  28
   2   5   0 1502.23 60.2431  37
   2   5   0 1449.77 64.3859  22
   2   5   0 1523.10 63.4362   9
  -3  -5   0 330.660 13.9606  37
  -3  -5   0 348.168 14.6198   4
  -3  -5   0 335.187 16.1163  24
  -3  -5   0 378.087 16.0603  36
   3   5   0 342.454 16.1237  24
   3   5   0 333.367 16.0241  36
   3   5   0 343.000 14.4388  29
   3   5   0 358.745 13.9936  37
   3   5   0 329.900 14.8231  22
   3   5   0 328.456 15.9523  35
   3   5   0 324.277 15.5886  23
   3   5   0 353.633 14.6847  28
   3   5   0 347.392 18.5391  25
   3   5   0 352.405 14.6344   9
  -4  -5   0 899.351 39.2191  36
  -4  -5   0 882.639 34.1793  37
   4   5   0 855.403 34.1992  37
   4   5   0 774.108 38.2347  23
   4   5   0 841.079 39.1417  36
   4   5   0 873.677 35.7776   9
  -5  -5   0 5.61421 1.00286  36
  -5  -5   0 4.38198 0.76255   3
  -5  -5   0 4.14640 0.74184   8
   5   5   0 3.86958 0.72512  19
   5   5   0 3.50959 0.74325  37
   5   5   0 4.14630 0.88445   8
   5   5   0 4.55512 0.78063  12
   5   5   0 2.99199 0.60618   3
  -6  -5   0 4.21634 0.73782   3
   6   5   0 5.74937 0.92062   3
  -7  -5   0 316.422 12.3911   3
  -7  -5   0 309.055 11.0838  15
   7   5   0 315.263 12.9855   8
   7   5   0 315.924 12.0898  12
   7   5   0 310.140 11.4823  19
  -8  -5   0 2.60623 0.55461   3
   8   5   0 2.34442 0.69440  12
   5  -6   0 133.829 6.44100  20
   5  -6   0 141.916 5.59363  38
   5  -6   0 149.727 6.39477  10
   5  -6   0 127.170 6.35155  34
   5  -6   0 128.671 4.71516   1
  -5   6   0 119.851 5.19223  13
   4  -6   0 144.918 5.78256  16
   4  -6   0 140.594 5.96695  38
   4  -6   0 143.729 6.80725  10
   4  -6   0 128.963 6.80382  20
   4  -6   0 141.377 5.11592   1
   4  -6   0 131.390 6.74218  34
  -4   6   0 126.423 5.64376  30
   3  -6   0 36.9182 2.24245  16
   3  -6   0 37.0704 2.55970  34
   3  -6   0 37.6294 2.17601  32
   3  -6   0 37.5571 2.31416  38
   3  -6   0 37.9917 2.58427  10
   3  -6   0 37.8004 2.64440  20
   3  -6   0 37.5189 1.98618   1
  -3   6   0 38.7974 1.96399  22
  -3   6   0 35.6735 1.75937  30
   2  -6   0 6.72381 0.91539  32
   2  -6   0 7.45150 1.28604   7
   2  -6   0 6.82912 1.11575  20
   2  -6   0 7.19050 1.14716  10
   2  -6   0 5.51192 1.13176  34
   2  -6   0 7.48121 1.02086  38
   2  -6   0 6.83753 0.87195   1
  -2   6   0 6.91359 0.58657  22
  -2   6   0 7.19948 0.59573  29
  -2   6   0 6.36338 0.59717  28
   1  -6   0 76.1130 3.59087  14
   1  -6   0 74.8595 4.55503  21
   1  -6   0 84.0509 4.32417  20
   1  -6   0 85.5167 3.24130   1
   1  -6   0 80.7218 3.56822  32
   1  -6   0 89.0096 4.34080  34
   1  -6   0 84.5640 3.73397  16
   1  -6   0 84.0294 3.70540  38
   1  -6   0 74.7356 4.73188   7
  -1   6   0 86.7933 3.73289  28
  -1   6   0 87.3227 3.69320  29
  -1   6   0 88.4358 3.74281  22
   0   6   0 4.91278 0.61766  23
   0   6   0 5.06489 0.46179  29
   0   6   0 5.32971 0.46380  28
   0   6   0 3.73385 0.62762   9
   0   6   0 5.24800 0.41602  22
   1   6   0 20.3074 1.33304  23
   1   6   0 21.7695 1.19352  37
   1   6   0 22.1793 1.17474  29
   1   6   0 21.1661 1.34666   9
   1   6   0 18.7797 0.97761  30
   1   6   0 22.1220 1.16888  28
   1   6   0 21.3110 1.11921  22
   2   6   0 3449.77 140.160  29
   2   6   0 3336.77 134.246  37
   2   6   0 3559.97 142.666  28
   2   6   0 3297.11 184.414  23
   2   6   0 3355.67 143.955  22
   2   6   0 3244.01 132.669  30
   2   6   0 3366.00 141.344   9
  -3  -6   0 484.815 20.5050  36
   3   6   0 452.685 18.8435  28
   3   6   0 435.655 18.5276  29
   3   6   0 431.792 20.5356  35
   3   6   0 455.273 19.0522  22
   3   6   0 446.490 18.7758   9
   3   6   0 457.848 17.9410  37
   3   6   0 397.166 19.9762  23
   3   6   0 426.449 20.5547  36
   3   6   0 431.179 17.5212  30
  -4  -6   0 821.381 35.2004  36
   4   6   0 723.809 34.3344  23
   4   6   0 778.430 30.7208  37
   4   6   0 748.187 35.1625  36
   4   6   0 785.652 30.1723  30
   4   6   0 719.797 28.0260  12
   4   6   0 772.178 32.2913   9
  -5  -6   0 115.998 4.37731  15
  -5  -6   0 116.191 5.95717  36
  -5  -6   0 105.897 5.02251   8
  -5  -6   0 105.483 4.73474   3
  -5  -6   0 107.649 4.52575  17
   5   6   0 114.620 4.44417  19
   5   6   0 113.665 5.88711  36
   5   6   0 116.169 4.82292   3
   5   6   0 113.881 5.13218  37
   5   6   0 111.775 4.66874  12
  -6  -6   0 153.024 5.77654  15
  -6  -6   0 154.354 6.36300   3
  -6  -6   0 148.556 6.72249   8
   6   6   0 150.274 5.91304  19
   6   6   0 149.993 6.76593   8
   6   6   0 157.795 6.23989  12
   6   6   0 154.656 6.35489   3
  -7  -6   0 24.3530 1.52657  15
  -7  -6   0 23.3755 1.57819   3
  -7  -6   0 21.4784 1.68808   8
   7   6   0 22.5061 1.73836   8
   7   6   0 22.2596 1.67420  12
   7   6   0 21.1436 1.53851  19
  -8  -6   0 364.403 12.8119  15
  -8  -6   0 379.371 14.3087   3
   8   6   0 374.385 13.9223  12
   8   6   0 360.998 14.9621   8
   4  -7   0 535.098 19.7423  16
   4  -7   0 514.947 23.3791  34
   4  -7   0 521.760 23.6428  20
   4  -7   0 560.553 20.4422  38
   4  -7   0 577.645 23.4512  10
   4  -7   0 531.100 17.3758   1
  -4   7   0 479.579 20.0542  13
   3  -7   0 55.9627 3.20804  10
   3  -7   0 52.7033 2.70396  38
   3  -7   0 48.0275 2.31352   1
   3  -7   0 47.2839 3.02691  34
   3  -7   0 49.4467 2.67337  16
   3  -7   0 51.5945 3.15956  20
  -3   7   0 48.5764 2.23962  30
  -3   7   0 45.7643 2.47316  22
   2  -7   0 340.879 15.3844  20
   2  -7   0 327.301 12.9391  16
   2  -7   0 336.610 13.2320  38
   2  -7   0 342.637 11.3464   1
   2  -7   0 351.121 15.2916  34
   2  -7   0 326.669 16.6541   7
  -2   7   0 327.235 14.4632  22
  -2   7   0 324.736 13.3106  30
   1  -7   0 328.160 17.6755   7
   1  -7   0 355.962 11.9987   1
   1  -7   0 360.918 13.7622  16
   1  -7   0 373.080 16.2083  34
   1  -7   0 358.145 14.0155  38
   1  -7   0 374.848 16.3459  20
   1  -7   0 340.022 17.3685  21
   1  -7   0 349.136 13.4714  14
  -1   7   0 351.460 15.0220  29
  -1   7   0 365.306 15.4324  22
  -1   7   0 367.844 15.2819  28
  -1   7   0 371.996 14.2439  30
   0  -7   0 476.937 18.3887  14
   0  -7   0 465.739 21.3497  26
   0  -7   0 519.444 22.2925  20
   0  -7   0 459.262 23.8571  21
   0  -7   0 514.245 18.7522  16
   0  -7   0 516.658 22.0918  34
   0  -7   0 457.495 24.1220   7
   0  -7   0 494.242 16.3235   1
   0   7   0 516.397 20.8022  29
   0   7   0 490.190 19.6478  30
   0   7   0 529.918 21.3621  22
   0   7   0 542.293 21.1478  28
  -1  -7   0 176.554 8.21970  26
  -1  -7   0 183.383 8.40668  20
  -1  -7   0 163.251 9.19147   7
  -1  -7   0 174.823 7.04722  14
  -1  -7   0 183.324 8.39781  34
  -1  -7   0 173.837 6.69371  11
  -1  -7   0 163.377 9.09151  21
  -1  -7   0 180.539 7.15537  16
   1   7   0 170.211 7.48016  37
   1   7   0 200.791 7.88564  28
   1   7   0 181.751 7.23348  30
   1   7   0 192.027 7.90414  22
   1   7   0 190.536 7.77062  29
  -2  -7   0 16.8783 1.30907  34
  -2  -7   0 13.0179 1.40763  21
  -2  -7   0 14.4775 1.13088  11
  -2  -7   0 14.4319 1.32141  26
  -2  -7   0 13.1550 1.17072  14
  -2  -7   0 14.5461 1.13417  17
   2   7   0 11.2906 1.04299  23
   2   7   0 15.0134 0.99256  22
   2   7   0 12.6605 1.00005  29
   2   7   0 13.8893 1.01815  28
   2   7   0 12.3952 1.03281  37
   2   7   0 16.0566 0.87629  30
  -3  -7   0 5.74900 0.86675  17
  -3  -7   0 4.41511 0.69502   8
  -3  -7   0 6.52445 0.94241  26
  -3  -7   0 6.56679 1.05074  34
  -3  -7   0 5.66058 0.96729  21
   3   7   0 5.95614 0.74355  28
   3   7   0 5.60159 0.70105  22
   3   7   0 4.86160 0.75123  37
   3   7   0 6.14331 0.84988   3
   3   7   0 5.83005 0.70155  29
  -4  -7   0 240.781 11.2100  26
  -4  -7   0 254.897 10.5207   8
  -4  -7   0 256.495 9.08618  15
  -4  -7   0 257.306 9.56586  17
   4   7   0 239.141 12.2610  36
   4   7   0 263.108 10.7122  37
   4   7   0 265.270 10.3196  30
   4   7   0 258.099 10.0765   3
   4   7   0 250.751 9.81140  13
   4   7   0 258.928 9.72490  12
  -5  -7   0 223.896 11.1375  36
  -5  -7   0 227.682 9.59550   8
  -5  -7   0 234.922 8.26932  15
  -5  -7   0 228.344 8.66567  17
   5   7   0 231.315 8.45613  19
   5   7   0 234.572 9.17150   3
   5   7   0 211.476 9.68074  37
   5   7   0 231.401 8.84944  12
  -6  -7   0 258.525 8.84610  15
  -6  -7   0 242.805 10.2551   8
  -6  -7   0 236.148 9.14016  17
   6   7   0 241.524 9.44179  12
   6   7   0 242.946 9.02909  19
   6   7   0 244.250 9.73832   3
   6   7   0 235.661 10.2917   8
  -7  -7   0 15.6290 1.27688  15
  -7  -7   0 15.5034 1.29489   3
  -7  -7   0 15.3474 1.35237   8
   7   7   0 15.3499 1.41947   8
   7   7   0 16.9776 1.46901  12
   7   7   0 17.6415 1.30050   3
   7   7   0 17.3746 1.32605  19
  -8  -7   0 209.471 8.39218   3
  -8  -7   0 206.646 7.51664  15
  -8  -7   0 208.122 8.83348   8
   8   7   0 217.723 8.19038  12
   8   7   0 213.820 8.80067   8
   3  -8   0 11.0672 1.27345  20
   3  -8   0 10.0079 1.24068  34
   3  -8   0 10.8414 1.11863  16
   3  -8   0 10.0408 1.04443  38
   3  -8   0 10.4335 0.94625   1
   2  -8   0 144.687 7.85773   7
   2  -8   0 141.040 6.12697  16
   2  -8   0 149.319 5.35931   1
   2  -8   0 149.040 7.21058  20
   2  -8   0 147.535 7.17356  34
   2  -8   0 151.425 6.18054  38
  -2   8   0 147.507 6.03529  30
   1  -8   0 116.787 4.54874   1
   1  -8   0 119.948 5.20257  38
   1  -8   0 122.924 5.31659  16
   1  -8   0 117.235 6.52305  21
   1  -8   0 127.425 6.19491  20
   1  -8   0 121.378 5.17976  14
   1  -8   0 126.204 6.19040  34
   1  -8   0 118.609 6.83198   7
  -1   8   0 124.404 5.54096  22
  -1   8   0 128.649 5.08356  30
   0  -8   0 1408.15 50.3466  16
   0  -8   0 1271.31 64.9097   7
   0  -8   0 1399.01 57.6266  26
   0  -8   0 1331.14 64.3199  21
   0  -8   0 1323.33 43.9662   1
   0  -8   0 1334.73 49.4732  14
   0  -8   0 1439.19 59.5361  34
   0  -8   0 1403.25 60.1344  20
   0   8   0 1381.73 53.8302  30
   0   8   0 1410.46 57.6797  28
   0   8   0 1404.60 58.3998  22
  -1  -8   0 214.025 9.81745  20
  -1  -8   0 211.611 9.81524  34
  -1  -8   0 205.096 10.6954  21
  -1  -8   0 214.967 9.62009  26
  -1  -8   0 197.663 10.7687   7
  -1  -8   0 206.258 7.81396  11
  -1  -8   0 202.599 8.23766  14
  -1  -8   0 217.139 8.38651  16
   1   8   0 213.222 8.49369  30
   1   8   0 202.790 9.07420  29
   1   8   0 215.735 9.21817  28
   1   8   0 219.248 9.27543  22
  -2  -8   0 39.1621 2.14175  17
  -2  -8   0 40.6776 2.20605  16
  -2  -8   0 41.3502 2.59588  26
  -2  -8   0 45.2789 2.64579  34
  -2  -8   0 44.6682 2.29051  14
  -2  -8   0 38.7141 2.81742   7
  -2  -8   0 41.8921 2.21150  11
  -2  -8   0 42.7138 2.47840  20
  -2  -8   0 40.2767 2.84353  21
   2   8   0 40.3165 2.17998  37
   2   8   0 41.7686 2.24513  29
   2   8   0 42.9579 2.00207  30
   2   8   0 43.7284 2.27934  28
   2   8   0 38.6227 1.86551  13
   2   8   0 45.5841 2.24577  22
  -3  -8   0 68.3955 3.05112  17
  -3  -8   0 67.1136 3.61495  26
  -3  -8   0 62.0958 3.91166  21
  -3  -8   0 65.2776 3.09481   8
  -3  -8   0 67.5505 3.68013  34
  -3  -8   0 64.4810 3.01247  11
   3   8   0 63.6279 2.79371  13
   3   8   0 69.3061 2.97676  30
   3   8   0 64.3326 3.24671  29
   3   8   0 66.1287 3.30482  28
   3   8   0 62.9440 3.19021  37
   3   8   0 68.2728 3.27825  22
   3   8   0 62.4527 3.04219   3
  -4  -8   0 7.05922 0.88890   8
  -4  -8   0 6.58929 1.02721  26
  -4  -8   0 6.72857 1.04500  17
   4   8   0 7.97930 1.02660   3
   4   8   0 6.62695 0.73637  30
   4   8   0 6.87131 0.68708  13
   4   8   0 6.35568 0.94763  37
   4   8   0 6.16669 1.03311  12
  -5  -8   0 114.556 4.56245  15
  -5  -8   0 118.172 5.26272   8
  -5  -8   0 115.527 4.82712  17
   5   8   0 114.343 5.00787   3
   5   8   0 118.233 4.87921  12
   5   8   0 115.379 4.61924  19
  -6  -8   0 23.8875 1.64113   8
  -6  -8   0 20.1486 1.49341  17
  -6  -8   0 20.1488 1.38625  11
  -6  -8   0 21.6063 1.48756  15
   6   8   0 19.8657 1.42373  19
   6   8   0 18.8850 1.50841   3
  -7  -8   0 0.63977 0.39131  15
  -7  -8   0 1.61780 0.53756   8
   7   8   0 1.43864 0.65301   8
   7   8   0 2.03787 0.52710   3
   7   8   0 1.64120 0.57658  19
  -8  -8   0 861.504 28.8476  15
  -8  -8   0 858.087 33.6302   8
   8   8   0 852.343 31.0332  12
   8   8   0 836.640 33.5898   8
   2  -9   0 15.3336 1.22236  16
   2  -9   0 13.2323 0.99616   1
   2  -9   0 12.1391 1.01548  38
   2  -9   0 13.4341 1.31311  20
   2  -9   0 13.7914 1.31243  34
   2  -9   0 12.9051 1.47209   7
   1  -9   0 194.777 7.03423   1
   1  -9   0 216.062 9.60160  34
   1  -9   0 191.250 10.4563   7
   1  -9   0 209.835 9.59305  20
   1  -9   0 209.988 8.18104  16
  -1   9   0 202.105 8.25771  30
   0  -9   0 1068.71 44.0179  26
   0  -9   0 1000.58 49.6459   7
   0  -9   0 1082.96 49.2244  21
   0  -9   0 1039.30 45.9007  20
   0  -9   0 1071.05 38.5070  16
   0  -9   0 1026.27 45.4735  34
   0   9   0 1056.53 41.0672  30
   0   9   0 1012.13 44.5445  22
  -1  -9   0 129.118 5.01948  11
  -1  -9   0 124.300 5.40238  16
  -1  -9   0 128.018 6.31655  34
  -1  -9   0 124.208 6.23123  20
  -1  -9   0 128.891 6.97753  21
  -1  -9   0 121.700 6.96900   7
  -1  -9   0 130.969 6.19603  26
   1   9   0 125.519 5.30509  30
   1   9   0 127.595 5.81139  22
  -2  -9   0 399.157 13.7420  11
  -2  -9   0 392.295 16.6876  26
  -2  -9   0 383.337 17.1135  34
  -2  -9   0 366.433 14.4149  16
  -2  -9   0 372.664 18.6832   7
  -2  -9   0 387.435 13.9918  17
  -2  -9   0 373.725 18.5520  21
  -2  -9   0 377.317 17.1156  20
   2   9   0 386.040 15.2188  30
   2   9   0 375.444 16.5374  22
   2   9   0 380.256 16.4042  28
   2   9   0 363.579 14.5001  13
  -3  -9   0 0.01073 0.53495  17
  -3  -9   0 1.11408 0.39438   8
  -3  -9   0 0.23045 0.61114  11
  -3  -9   0 2.25527 0.83767  34
  -3  -9   0 0.60157 0.57963  26
  -3  -9   0 0.46531 0.69754  21
   3   9   0 1.02005 0.42494  22
   3   9   0 1.28306 0.55262   3
   3   9   0 0.91925 0.38918  30
   3   9   0 1.22170 0.32409  13
   3   9   0 1.69912 0.51439  28
  -4  -9   0 333.082 13.1782   8
  -4  -9   0 324.295 12.0713  17
  -4  -9   0 316.432 14.2310  26
  -4  -9   0 333.836 11.8107  11
  -4  -9   0 301.889 15.7475  21
   4   9   0 313.495 13.0240  30
   4   9   0 345.802 12.7518   3
   4   9   0 322.932 12.2554  12
   4   9   0 317.947 12.4175  13
  -5  -9   0 22.0053 1.77279  26
  -5  -9   0 20.5170 1.63091  17
  -5  -9   0 24.8369 1.63149  11
  -5  -9   0 20.9150 1.46221  15
  -5  -9   0 23.2938 1.59590   8
   5   9   0 23.8178 1.63201  12
   5   9   0 27.9580 1.52741  19
   5   9   0 26.8542 1.68696   3
   5   9   0 22.1069 1.24179  13
  -6  -9   0 34.4561 1.92009  11
  -6  -9   0 37.8274 2.05153  17
  -6  -9   0 36.5734 1.91073  15
   6   9   0 36.1424 2.01854  12
   6   9   0 36.8278 2.05931   3
   6   9   0 35.2673 1.90883  19
  -7  -9   0 70.4731 2.88704  15
  -7  -9   0 66.2807 2.94877  17
  -7  -9   0 73.5571 3.33942   8
   7   9   0 68.1837 2.89379  19
   7   9   0 66.6400 3.07068   3
   7   9   0 67.9081 3.07965  12
  -8  -9   0 219.936 9.12881   8
  -8  -9   0 228.119 7.85634  15
   1 -10   0 13.6551 1.40136   7
   1 -10   0 11.3912 1.09180  34
   1 -10   0 12.4801 1.13936  20
  -1  10   0 11.6575 0.72010  13
   0 -10   0 421.957 19.3812  21
   0 -10   0 407.731 15.1917  16
   0 -10   0 403.617 17.9011  34
   0 -10   0 386.431 19.5522   7
   0 -10   0 393.875 17.9690  20
   0  10   0 396.900 15.2595  13
   0  10   0 400.524 15.9867  30
  -1 -10   0 108.358 5.36916  26
  -1 -10   0 105.199 4.67377  16
  -1 -10   0 111.051 6.02788  21
  -1 -10   0 113.307 5.53110  34
  -1 -10   0 105.814 6.07992   7
  -1 -10   0 106.556 5.38358  20
   1  10   0 112.790 4.65563  30
   1  10   0 108.663 4.41300  13
  -2 -10   0 271.847 12.2501  34
  -2 -10   0 274.618 9.79670  11
  -2 -10   0 263.765 13.3505   7
  -2 -10   0 259.567 10.2966  16
  -2 -10   0 267.691 13.2857  21
  -2 -10   0 280.552 11.9499  26
   2  10   0 251.715 11.7321  22
   2  10   0 258.391 10.2780  13
   2  10   0 267.578 10.7990  30
  -3 -10   0 5.62980 1.12535  34
  -3 -10   0 5.89742 1.12496  26
  -3 -10   0 3.26837 0.92768  21
  -3 -10   0 4.10024 0.74160  11
  -3 -10   0 5.63322 1.27346   7
  -3 -10   0 5.03154 0.81237  17
   3  10   0 4.86329 0.92931   3
   3  10   0 5.08633 0.67325  30
   3  10   0 4.21813 0.72280  22
   3  10   0 5.81475 0.85088  12
   3  10   0 5.95194 0.69175  13
  -4 -10   0 612.823 20.6672  11
  -4 -10   0 616.536 21.1703  17
  -4 -10   0 604.160 25.0384  26
  -4 -10   0 599.934 23.2530   8
  -4 -10   0 560.482 27.7799  21
   4  10   0 578.137 22.3819   3
   4  10   0 576.670 21.5697  12
   4  10   0 590.993 22.1500  13
   4  10   0 524.794 23.1715  30
  -5 -10   0 28.6644 1.98323  26
  -5 -10   0 30.7260 1.68494  33
  -5 -10   0 32.9262 1.85761  17
  -5 -10   0 29.5590 1.74189   8
  -5 -10   0 32.3735 1.80964  11
   5  10   0 32.2294 1.79657  12
   5  10   0 29.5407 1.82064   3
   5  10   0 29.9083 1.72260  19
  -6 -10   0 200.120 7.26085  15
  -6 -10   0 215.373 8.44423   8
  -6 -10   0 199.060 7.31954  33
  -6 -10   0 198.381 7.44110  11
  -6 -10   0 210.361 7.67978  17
   6  10   0 189.665 7.78985  12
   6  10   0 202.282 8.08988   3
   6  10   0 204.689 7.48359  19
  -7 -10   0 62.5045 2.59863  17
  -7 -10   0 63.4687 2.55212  33
  -7 -10   0 66.4956 2.54013  15
  -7 -10   0 57.2674 2.84303   8
   7  10   0 60.5514 2.72423   3
   7  10   0 60.9682 2.56374  19
   7  10   0 62.9343 2.70015  12
  -1 -11   0 38.8662 2.48550  21
  -1 -11   0 35.0145 2.50169   7
  -1 -11   0 35.5161 1.86918  16
  -1 -11   0 38.0139 2.27347  34
   1  11   0 38.8704 1.70295  13
  -2 -11   0 4.18387 0.96403  34
  -2 -11   0 4.28464 1.03799  21
  -2 -11   0 3.22447 0.54736  11
  -2 -11   0 3.34976 0.88533   7
  -2 -11   0 5.30630 0.81891  16
   2  11   0 4.26955 0.62012  13
   2  11   0 4.34572 0.58318  30
  -3 -11   0 5.14633 1.12437  26
  -3 -11   0 5.54675 0.80104  17
  -3 -11   0 3.65061 0.61346  11
  -3 -11   0 4.24794 0.93845  21
   3  11   0 4.13456 0.56489  13
   3  11   0 4.99711 0.61538  30
   3  11   0 3.82538 0.64455  12
  -4 -11   0 286.305 9.98130  11
  -4 -11   0 286.762 12.0975  26
  -4 -11   0 269.401 13.3669  21
   4  11   0 269.625 10.7113   3
   4  11   0 275.711 10.5266  13
   4  11   0 262.024 10.3476  12
  -5 -11   0 70.3927 3.03012  11
  -5 -11   0 75.0429 3.11474  17
   5  11   0 72.4744 2.96481  19
   5  11   0 70.1897 3.10754  12
   5  11   0 73.5219 3.20140   3
  -6 -11   0 643.382 24.0512  11
  -6 -11   0 714.479 24.7275  17
  -6 -11   0 712.253 27.3506   8
   6  11   0 670.223 24.3307  19
   6  11   0 733.870 26.3293   3
   6  11   0 699.617 25.3273  12
   6  11  -1 165.471 6.12254   3
  -6 -11   1 140.887 5.79539  17
   5  11  -1 8.15006 0.90965  12
   5  11  -1 9.16038 0.85692   3
   5  11  -1 8.39479 0.89425  19
  -5 -11   1 10.0905 1.01010  17
  -5 -11   1 7.90466 0.79964  33
  -5 -11   1 9.57119 0.94192  11
   4  11  -1 73.4719 3.03563  13
   4  11  -1 74.8389 3.07313  19
   4  11  -1 69.2542 3.21790   3
   4  11  -1 73.4835 3.15975  12
  -4 -11   1 73.7675 4.09696  21
  -4 -11   1 75.7890 3.11969  11
  -4 -11   1 74.5939 3.17481  17
   3  11  -1 72.7726 2.92348  13
   3  11  -1 68.6355 3.01261  12
  -3 -11   1 66.3158 3.92977  21
  -3 -11   1 69.3458 2.96073  11
  -3 -11   1 67.5806 2.98651  17
   2  11  -1 18.1248 1.06239  13
   2  11  -1 16.5779 1.28076  12
   2  11  -1 17.1008 1.07113  30
  -2 -11   1 19.0998 1.31354  16
  -2 -11   1 18.8214 1.70982  21
  -2 -11   1 19.3637 1.53988  34
  -2 -11   1 17.5269 1.65193   7
   1  11  -1 1.19276 0.26459  13
  -1 -11   1 1.62073 0.80317   7
  -1 -11   1 0.93881 0.67370  21
  -1 -11   1 1.95202 0.58175  34
  -1 -11   1 0.75078 0.43479  16
   0 -11   1 301.633 14.4148   7
   0 -11   1 300.174 11.1730  16
   0 -11   1 288.634 13.1910  34
   7  10  -1 312.596 12.7982   3
  -7 -10   1 345.351 13.3996   8
  -7 -10   1 349.635 11.5627  15
  -7 -10   1 332.262 11.6173  33
   6  10  -1 436.395 15.4355  19
   6  10  -1 441.919 16.6564   3
  -6 -10   1 448.545 14.9647  15
  -6 -10   1 433.577 15.6504  17
  -6 -10   1 439.205 15.0476  33
  -6 -10   1 419.884 15.2003  11
  -6 -10   1 415.695 17.3032   8
   5  10  -1 1.70203 0.61440  19
   5  10  -1 1.29531 0.50388   3
   5  10  -1 1.67413 0.56720  12
  -5 -10   1 1.55809 0.45068   8
  -5 -10   1 1.69837 0.38661  15
   4  10  -1 26.1084 1.62354  12
   4  10  -1 24.8237 1.63907   3
   4  10  -1 24.1457 1.42819  30
   4  10  -1 26.7746 1.36856  13
  -4 -10   1 28.5043 1.99237  26
  -4 -10   1 25.2193 2.15263  21
  -4 -10   1 24.8012 1.60244  11
  -4 -10   1 27.9916 1.56465  33
  -4 -10   1 25.5952 1.71675  17
   3  10  -1 148.200 5.80363  13
   3  10  -1 134.924 6.63679  22
   3  10  -1 145.756 6.09412  30
   3  10  -1 145.028 5.85119  12
  -3 -10   1 147.492 5.80569  17
  -3 -10   1 143.889 7.60745  21
  -3 -10   1 149.778 6.91759  26
  -3 -10   1 138.255 5.85720  16
  -3 -10   1 153.708 5.73540  11
   2  10  -1 59.8176 2.77258  30
   2  10  -1 59.5803 2.62512  13
   2  10  -1 56.7976 3.03106  22
  -2 -10   1 63.2425 2.80825  17
  -2 -10   1 61.3748 3.41682  26
  -2 -10   1 57.4094 2.87605  16
  -2 -10   1 61.9161 2.82707  11
  -2 -10   1 61.3459 3.80667   7
  -2 -10   1 58.2707 3.40938  34
  -2 -10   1 60.8823 3.77734  21
   1  10  -1 23.5083 1.41110  30
   1  10  -1 24.1468 1.33569  13
  -1 -10   1 28.4842 2.00929  34
  -1 -10   1 28.7354 2.28435  21
  -1 -10   1 25.4568 2.23531   7
  -1 -10   1 27.1992 1.58315  11
  -1 -10   1 27.0471 1.76414  16
   0  10  -1 150.160 6.43991  30
   0 -10   1 156.701 7.39026  20
   0 -10   1 157.490 6.40875  16
   0 -10   1 156.899 8.25305   7
   0 -10   1 161.171 8.11665  21
   0 -10   1 159.718 7.48981  34
   1 -10   1 11.9236 1.07541  20
   1 -10   1 12.5467 1.17942  34
   1 -10   1 14.1760 1.19894  16
   1 -10   1 11.1871 0.89827   1
   1 -10   1 15.0759 1.51933   7
   7   9  -1 49.8154 2.39981  12
   7   9  -1 51.3674 2.41676   3
   7   9  -1 52.3706 2.32550  19
  -7  -9   1 53.8932 2.61676   8
  -7  -9   1 54.3014 2.27897  15
   6   9  -1 526.768 18.6723  19
   6   9  -1 510.227 20.1217   3
   6   9  -1 527.667 19.4160  12
  -6  -9   1 523.465 21.0345   8
  -6  -9   1 530.307 18.1236  15
  -6  -9   1 529.773 18.9108  17
   5   9  -1 23.1381 1.59208   3
   5   9  -1 23.4540 1.54672  19
   5   9  -1 23.2226 1.56487  12
  -5  -9   1 23.9608 1.52550  15
  -5  -9   1 25.5442 1.62321   8
  -5  -9   1 20.1099 1.55859  17
  -5  -9   1 21.8480 1.49894  11
   4   9  -1 68.5094 3.21085   3
   4   9  -1 65.5960 3.05670  30
   4   9  -1 68.6664 3.13505  12
   4   9  -1 68.5958 2.90831  13
  -4  -9   1 63.3165 2.91169  15
  -4  -9   1 68.2942 3.08399  11
  -4  -9   1 68.0076 3.17421  17
  -4  -9   1 69.0600 3.23688   8
  -4  -9   1 66.8863 3.01274  33
  -4  -9   1 65.3002 3.63043  26
   3   9  -1 481.650 18.0803  12
   3   9  -1 480.987 21.0956  22
   3   9  -1 476.599 18.7302   3
   3   9  -1 462.444 20.8539  28
   3   9  -1 478.180 18.5155  13
   3   9  -1 487.061 19.4028  30
  -3  -9   1 512.136 17.3796  11
  -3  -9   1 468.397 18.2005  16
  -3  -9   1 506.801 21.0562  26
  -3  -9   1 467.759 23.3561  21
  -3  -9   1 496.525 17.0123  33
  -3  -9   1 509.207 21.6916  34
  -3  -9   1 497.870 17.7679  17
   2   9  -1 791.950 30.5777  30
   2   9  -1 785.344 33.1967  22
   2   9  -1 761.557 32.7996  28
   2   9  -1 735.964 29.1754  13
  -2  -9   1 789.241 27.7405  17
  -2  -9   1 743.695 36.9331   7
  -2  -9   1 802.497 27.1184  11
  -2  -9   1 754.385 36.6647  21
  -2  -9   1 788.359 33.9095  34
  -2  -9   1 747.152 28.6086  16
  -2  -9   1 808.682 32.9424  26
   1   9  -1 0.43202 0.33328  22
   1   9  -1 0.88044 0.33913  30
  -1  -9   1 1.09483 0.82304  21
  -1  -9   1 0.97215 0.85340   7
  -1  -9   1 0.75826 0.49253  11
  -1  -9   1 0.24213 0.55100  16
  -1  -9   1 0.57544 0.63929  26
  -1  -9   1 1.09424 0.72514  34
  -1  -9   1 0.59502 0.55648  20
   0   9  -1 7.85236 0.64097  30
   0  -9   1 6.63830 1.16027  34
   0  -9   1 5.96341 1.10059  16
   0  -9   1 5.32954 1.39170  21
   0  -9   1 5.48124 1.47171   7
   0  -9   1 5.14523 1.19263  26
   0  -9   1 6.10214 1.09170  20
  -1   9  -1 77.9449 3.38835  30
   1  -9   1 79.2660 4.18819  20
   1  -9   1 76.5291 3.16891   1
   1  -9   1 82.0731 4.30161  34
   1  -9   1 81.6986 4.56305  21
   1  -9   1 80.8980 4.77221   7
   1  -9   1 80.2170 3.72846  16
   2  -9   1 158.994 5.80277   1
   2  -9   1 175.064 8.56121   7
   2  -9   1 172.501 7.85389  34
   2  -9   1 160.687 7.79679  20
   2  -9   1 163.117 6.66564  16
  -8  -8   1 11.7019 0.95278   8
  -8  -8   1 13.9033 0.94516  15
   7   8  -1 0.41568 0.40625   3
   7   8  -1 1.18573 0.54116  12
   7   8  -1 1.26206 0.57725  19
  -7  -8   1 0.21142 0.45202   8
  -7  -8   1 1.14331 0.42563  15
   6   8  -1 266.701 9.63347  19
   6   8  -1 255.552 10.0117  12
   6   8  -1 240.980 10.3089   3
  -6  -8   1 268.634 10.9050   8
  -6  -8   1 258.691 9.71494  17
  -6  -8   1 270.756 9.37775  15
   5   8  -1 17.9984 1.43037  19
   5   8  -1 15.9649 1.44255  12
   5   8  -1 18.7150 1.47895   3
  -5  -8   1 17.7766 1.38866  17
  -5  -8   1 18.2529 1.44855   8
  -5  -8   1 22.0284 1.42169  11
  -5  -8   1 17.7530 1.37693  15
   4   8  -1 334.122 12.8800   3
   4   8  -1 322.817 12.3860  12
   4   8  -1 326.385 12.5871  13
   4   8  -1 321.230 13.2013  30
  -4  -8   1 342.997 13.4093   8
  -4  -8   1 331.247 11.6085  15
  -4  -8   1 335.925 11.9012  11
  -4  -8   1 316.940 14.3205  26
  -4  -8   1 317.900 12.1644  17
   3   8  -1 666.305 24.6677  12
   3   8  -1 672.587 25.6000   3
   3   8  -1 687.812 26.5928  30
   3   8  -1 686.205 28.8878  22
   3   8  -1 644.018 25.3739  13
   3   8  -1 658.865 28.0798  29
   3   8  -1 672.395 28.5440  28
  -3  -8   1 642.353 24.8239  16
  -3  -8   1 681.144 28.6164  26
  -3  -8   1 703.059 29.5504  34
  -3  -8   1 693.998 26.6221   8
  -3  -8   1 645.831 31.8119  21
  -3  -8   1 685.102 23.5995  11
  -3  -8   1 666.655 24.1608  17
  -3  -8   1 665.437 23.0095  15
   2   8  -1 993.720 39.5182  13
   2   8  -1 1143.50 44.3926  28
   2   8  -1 952.307 41.9157  37
   2   8  -1 1064.12 43.6145  29
   2   8  -1 1098.67 41.3771  30
   2   8  -1 1109.88 44.9052  22
  -2  -8   1 1094.03 35.8727  33
  -2  -8   1 1040.86 44.3230  26
  -2  -8   1 1034.73 37.3910  17
  -2  -8   1 1057.62 38.6062  16
  -2  -8   1 1049.14 45.6929  34
  -2  -8   1 1066.62 36.5125  11
  -2  -8   1 1023.13 49.4149  21
  -2  -8   1 994.442 49.7851   7
   1   8  -1 13.1888 0.98822  28
   1   8  -1 11.7745 0.78069  30
   1   8  -1 12.5528 0.95843  29
  -1  -8   1 12.1830 1.20853  20
  -1  -8   1 11.6338 1.47696   7
  -1  -8   1 11.1358 1.14628  16
  -1  -8   1 13.5377 1.42461  26
  -1  -8   1 11.4150 0.95872   1
  -1  -8   1 14.6298 1.16022  17
  -1  -8   1 11.1832 1.23394  34
  -1  -8   1 11.8456 1.17138  11
  -1  -8   1 11.0373 1.54913  21
   0   8  -1 590.620 24.6092  28
   0   8  -1 597.680 24.8834  22
   0   8  -1 565.918 22.8897  30
   0  -8   1 590.179 21.8005  16
   0  -8   1 606.350 25.6913  34
   0  -8   1 560.941 27.7804  21
   0  -8   1 588.525 25.8438  20
   0  -8   1 584.472 20.3821  11
   0  -8   1 550.264 28.0680   7
   0  -8   1 570.508 24.8504  26
   0  -8   1 583.340 19.0066   1
  -1   8  -1 111.206 4.95942  22
   1  -8   1 108.074 4.82463  16
   1  -8   1 111.730 5.60434  34
   1  -8   1 113.132 5.58217  20
   1  -8   1 112.788 4.22143   1
   1  -8   1 105.231 6.18947   7
   1  -8   1 106.588 6.00563  21
  -2   8  -1 102.953 4.86697  22
   2  -8   1 113.796 5.56620  20
   2  -8   1 108.612 4.77371  16
   2  -8   1 111.467 4.17426   1
   2  -8   1 111.310 5.56947  34
   2  -8   1 105.475 4.67894  38
   2  -8   1 106.640 6.08119   7
  -3   8  -1 186.011 7.82215  30
   3  -8   1 187.914 6.75582   1
   3  -8   1 196.626 9.13977  20
   3  -8   1 193.389 9.06086  34
   3  -8   1 200.496 7.74680  16
   3  -8   1 203.805 7.84875  38
   8   7  -1 83.1735 3.41928  19
   8   7  -1 85.7093 3.63134  12
   8   7  -1 89.7414 3.89464   8
  -8  -7   1 86.4931 3.27454  15
  -8  -7   1 85.5861 3.90740   8
   7   7  -1 81.2126 3.39225  19
   7   7  -1 80.5440 3.57061  12
   7   7  -1 77.7601 3.48841   3
   7   7  -1 76.6692 3.79528   8
  -7  -7   1 77.2977 3.80651   8
  -7  -7   1 77.7142 3.26864  15
   6   7  -1 1.25000 0.55111   3
   6   7  -1 0.76327 0.59836  19
   6   7  -1 3.08356 0.64043  12
  -6  -7   1 2.10805 0.44852  15
   5   7  -1 219.216 7.92670  19
   5   7  -1 214.439 8.23422  12
   5   7  -1 208.955 8.49762   3
  -5  -7   1 205.748 10.3318  36
  -5  -7   1 198.133 7.77928  11
  -5  -7   1 206.896 8.01455  17
  -5  -7   1 217.582 7.71649  15
  -5  -7   1 209.406 8.91645   8
   4   7  -1 503.794 19.3114   3
   4   7  -1 520.704 19.9868  30
   4   7  -1 460.213 23.4139  36
   4   7  -1 501.158 18.5907  12
   4   7  -1 503.790 19.0550  13
   4   7  -1 515.176 20.4966  37
  -4  -7   1 503.426 17.3649  15
  -4  -7   1 507.824 20.1572   8
  -4  -7   1 481.427 17.7077  11
  -4  -7   1 508.084 18.2074  17
  -4  -7   1 516.788 23.3551  36
   3   7  -1 56.1123 2.43775  30
   3   7  -1 56.3966 2.68527  37
   3   7  -1 51.8089 2.65152  29
   3   7  -1 51.1129 2.47156  12
   3   7  -1 50.6922 2.28764  13
   3   7  -1 54.1570 2.69548  28
   3   7  -1 54.9015 2.69051  22
   3   7  -1 49.5719 2.50265   3
  -3  -7   1 55.5571 3.05593  34
  -3  -7   1 52.0414 2.48090  16
  -3  -7   1 50.5197 2.33045  15
  -3  -7   1 46.2854 3.09218  21
  -3  -7   1 53.0853 2.48200  17
  -3  -7   1 49.4074 2.44428  11
  -3  -7   1 58.0883 2.62386   8
  -3  -7   1 51.0626 2.87967  26
   2   7  -1 705.239 27.1412  30
   2   7  -1 749.752 29.1579  28
   2   7  -1 705.771 27.6274  37
   2   7  -1 737.052 29.4815  22
   2   7  -1 718.454 28.6695  29
  -2  -7   1 663.078 24.0274  11
  -2  -7   1 622.090 32.7477   7
  -2  -7   1 669.853 25.4100  16
  -2  -7   1 686.069 30.0856  34
  -2  -7   1 642.776 32.5020  21
  -2  -7   1 693.260 24.6486  17
  -2  -7   1 664.911 29.1830  26
   1   7  -1 24.3365 1.27709  22
   1   7  -1 22.1060 1.32080  37
   1   7  -1 22.3556 1.10720  30
   1   7  -1 25.4127 1.34471  28
   1   7  -1 23.6667 1.32765  29
  -1  -7   1 23.0770 1.46785  16
  -1  -7   1 22.0937 1.61925  34
  -1  -7   1 22.8934 1.23577   1
  -1  -7   1 21.1223 1.85737   7
  -1  -7   1 20.9675 1.37165  17
  -1  -7   1 21.7110 1.85197  21
  -1  -7   1 23.6413 1.41217  11
  -1  -7   1 22.0699 1.66970  26
  -1  -7   1 22.6284 1.44957  14
   0   7  -1 977.741 38.6549  29
   0   7  -1 1000.49 39.3061  28
   0   7  -1 977.088 39.8176  22
   0  -7   1 929.227 41.0499  20
   0  -7   1 965.959 34.4635  16
   0  -7   1 907.493 32.3491  11
   0  -7   1 900.944 39.3889  26
   0  -7   1 865.954 33.8101  14
   0  -7   1 879.481 44.4128   7
   0  -7   1 970.120 40.6864  34
   0  -7   1 898.597 43.9934  21
   0  -7   1 946.401 30.1165   1
  -1   7  -1 27.2500 1.42811  28
  -1   7  -1 27.7377 1.39188  22
  -1   7  -1 27.0283 1.41824  29
   1  -7   1 27.2651 1.75213  16
   1  -7   1 28.9465 2.03611  34
   1  -7   1 25.7697 1.68101  14
   1  -7   1 24.0638 2.11628  21
   1  -7   1 28.9642 1.56160   1
   1  -7   1 24.7532 2.23347   7
   1  -7   1 30.8175 1.98666  20
  -2   7  -1 144.049 6.63506  28
  -2   7  -1 152.534 6.71069  22
   2  -7   1 157.170 5.61290   1
   2  -7   1 150.842 6.41048  38
   2  -7   1 162.115 7.53695  20
   2  -7   1 162.101 7.52205  34
   2  -7   1 144.017 8.14331   7
   2  -7   1 148.662 6.37770  16
  -3   7  -1 2.60967 0.41146  22
   3  -7   1 1.03725 0.60830  16
   3  -7   1 2.04674 0.78435  20
   3  -7   1 1.57451 0.67394  38
   3  -7   1 1.99039 0.68757   1
   4  -7   1 213.339 8.32029  38
   4  -7   1 199.984 9.58834  20
   4  -7   1 208.499 9.46280  10
   4  -7   1 199.250 8.00076  16
   4  -7   1 209.826 7.12960   1
   4  -7   1 196.040 9.48293  34
   8   6  -1 180.002 6.99259  12
   8   6  -1 173.684 6.65259  19
   8   6  -1 177.026 7.48421   8
  -8  -6   1 185.298 7.12536   3
   7   6  -1 29.4354 1.87610  12
   7   6  -1 27.4656 1.88955   8
   7   6  -1 28.0992 1.72373  19
  -7  -6   1 26.5789 1.65164  15
  -7  -6   1 26.3625 1.65386   3
  -7  -6   1 24.9394 1.82674   8
   6   6  -1 226.759 8.32959  19
   6   6  -1 220.123 8.86831   3
   6   6  -1 214.942 8.64192  12
   6   6  -1 213.591 9.38999   8
  -6  -6   1 222.500 8.87407   3
  -6  -6   1 218.924 9.38991   8
  -6  -6   1 224.282 8.04845  15
   5   6  -1 714.594 30.3091  37
   5   6  -1 768.403 27.6092  12
   5   6  -1 770.795 28.6194   3
   5   6  -1 727.752 34.8820  36
   5   6  -1 785.189 26.5552  19
  -5  -6   1 774.327 25.7005  15
  -5  -6   1 721.937 29.8826   8
  -5  -6   1 778.233 34.8024  36
  -5  -6   1 718.668 26.8695  17
   4   6  -1 854.310 32.0575  12
   4   6  -1 907.222 35.3143  37
   4   6  -1 873.785 40.3978  36
   4   6  -1 866.487 33.2932   3
   4   6  -1 874.324 30.8526  19
   4   6  -1 873.951 33.0862  13
  -4  -6   1 865.604 34.7652   8
  -4  -6   1 875.351 29.8849  15
  -4  -6   1 974.798 40.4438  36
  -4  -6   1 829.503 31.2502  17
   3   6  -1 55.3370 2.69972  28
   3   6  -1 53.2104 2.65848  29
   3   6  -1 54.3255 2.69005  22
   3   6  -1 56.0985 2.67555  37
   3   6  -1 52.4768 3.09310  36
   3   6  -1 55.1245 2.82409   9
   3   6  -1 50.1331 2.95160  35
   3   6  -1 54.0155 2.43971  30
  -3  -6   1 63.0497 3.06035  36
  -3  -6   1 49.7405 3.98912   6
   2   6  -1 40.6250 2.07424  28
   2   6  -1 41.0536 2.04889  22
   2   6  -1 43.6077 2.07114  37
   2   6  -1 40.4386 2.20138   9
   2   6  -1 40.3549 2.05090  29
   2   6  -1 39.8334 1.84888  30
   2   6  -1 39.9764 2.39829  35
   1   6  -1 19.7971 1.09178  29
   1   6  -1 16.1256 0.88135  30
   1   6  -1 19.4638 1.29526   9
   1   6  -1 18.6917 1.22278  23
   1   6  -1 17.5228 1.07571  37
   1   6  -1 19.1518 1.02855  22
   1   6  -1 20.5146 1.49095  35
   1   6  -1 20.9968 1.09195  28
   0   6  -1 392.873 18.0007  23
   0   6  -1 413.473 16.5548  29
   0   6  -1 401.229 16.8015  28
   0   6  -1 390.390 16.9487   9
   0   6  -1 391.424 16.9607  22
  -1   6  -1 2.29480 0.26152  22
   1  -6   1 3.10190 0.83722   7
   1  -6   1 1.99599 0.49997  16
   1  -6   1 2.08825 0.52880  14
   1  -6   1 3.23504 0.66992  20
   1  -6   1 2.17478 0.71071  21
   1  -6   1 2.36002 0.61804  34
  -2   6  -1 553.892 23.9966  22
  -2   6  -1 547.753 23.3070  29
  -2   6  -1 609.553 23.7328  28
   2  -6   1 587.391 25.2170  20
   2  -6   1 520.003 21.6632  38
   2  -6   1 578.630 18.5201   1
   2  -6   1 514.733 27.1269   7
   2  -6   1 569.498 21.1166  16
   2  -6   1 588.752 24.9677  34
  -3   6  -1 63.5748 2.98524  22
  -3   6  -1 59.4742 2.93323  28
   3  -6   1 65.3957 3.26542  38
   3  -6   1 66.8408 2.85497   1
   3  -6   1 68.6709 3.81108  20
   3  -6   1 59.8578 3.14110  16
   3  -6   1 63.5939 3.70127  10
   3  -6   1 65.0427 3.70328  34
  -4   6  -1 1025.27 43.4851  30
  -4   6  -1 1049.83 47.1532  22
   4  -6   1 1185.44 42.2286  38
   4  -6   1 1111.51 48.4990  10
   4  -6   1 1157.87 48.8782  20
   4  -6   1 1125.76 40.7396  16
   4  -6   1 1147.87 35.7991   1
   4  -6   1 1065.81 48.2329  34
   5  -6   1 227.831 9.34591  38
   5  -6   1 220.124 10.8393  20
   5  -6   1 239.990 10.7959  34
   5  -6   1 237.896 7.99857   1
   5  -6   1 246.291 10.7891  10
   8   5  -1 158.336 6.63040   8
   8   5  -1 150.364 7.40711  34
   8   5  -1 150.597 5.89380  19
   8   5  -1 161.191 6.27229  12
  -8  -5   1 162.639 6.35608   3
   7   5  -1 120.686 5.11512  12
   7   5  -1 116.600 5.38689   8
   7   5  -1 120.785 4.83693  19
  -7  -5   1 116.595 5.08030   3
  -7  -5   1 115.933 4.53545  15
   6   5  -1 456.954 18.4573   8
   6   5  -1 455.615 16.3644  19
   6   5  -1 451.711 17.5178   3
   6   5  -1 457.722 17.0727  12
  -6  -5   1 470.755 17.5987   3
  -6  -5   1 420.078 18.4118   8
  -6  -5   1 461.687 15.7746  15
   5   5  -1 1140.52 39.3400  19
   5   5  -1 1099.78 40.8855  12
   5   5  -1 1072.54 51.5419  36
   5   5  -1 1090.32 44.3257   8
   5   5  -1 1177.55 42.4339   3
   5   5  -1 1127.37 44.9565  37
  -5  -5   1 1077.00 44.2963   8
  -5  -5   1 1135.68 38.0278  15
  -5  -5   1 1163.77 51.5467  36
  -5  -5   1 1126.57 44.9135  37
  -5  -5   1 1138.00 42.4003   3
   4   5  -1 2416.22 100.214   9
   4   5  -1 2363.17 96.6916  37
  -4  -5   1 2391.75 115.992  37
  -4  -5   1 2487.51 111.059  36
   3   5  -1 40.4569 2.08434  29
   3   5  -1 41.9814 2.82832  25
   3   5  -1 40.2043 2.44137  36
   3   5  -1 37.6662 2.24600  23
   3   5  -1 41.0532 2.11670  28
   3   5  -1 38.9994 2.30673  35
   3   5  -1 44.4042 2.12662  37
   3   5  -1 41.3057 2.22676   9
   3   5  -1 47.9119 2.15115  22
   3   5  -1 39.9518 1.90858  30
  -3  -5   1 46.7520 2.48476  36
   2   5  -1 18.2442 1.19805  23
   2   5  -1 21.3404 1.12995  22
   2   5  -1 19.3176 1.12319  29
   2   5  -1 20.7969 1.60176  25
   2   5  -1 20.6127 1.36441  24
   2   5  -1 18.7692 1.12886  28
   2   5  -1 18.8031 1.23128   9
   2   5  -1 17.2297 1.31554  36
   2   5  -1 23.2091 1.40116  35
  -2  -5   1 20.9597 1.30976  36
  -2  -5   1 19.6735 1.73656   6
   1   5  -1 5.89359 0.72064  35
   1   5  -1 6.20377 0.65559   9
   1   5  -1 7.82307 0.58614  37
   1   5  -1 5.86612 0.50717  29
   1   5  -1 6.02090 0.60093  24
   1   5  -1 5.99529 0.75829  25
   1   5  -1 7.36320 0.47651  22
   1   5  -1 6.36437 0.59253  23
  -1  -5   1 5.75446 0.84593   6
   0   5  -1 18.7286 0.96605  29
   0   5  -1 16.1423 0.88609  22
   0   5  -1 17.7078 1.18842   9
   0   5  -1 17.2337 0.97399  37
   0   5  -1 17.4894 0.94501  28
   0   5  -1 15.3357 1.20447  25
   0   5  -1 19.7485 1.19679  23
  -1   5  -1 7.77822 0.76782  23
  -1   5  -1 9.22656 0.82528   9
  -1   5  -1 8.90754 0.49885  28
  -1   5  -1 9.46173 0.51770  29
  -2   5  -1 43.7098 1.86326  29
  -2   5  -1 40.8221 1.87105  28
   2  -5   1 35.4056 2.06320  16
   2  -5   1 40.9841 1.89254   1
   2  -5   1 40.7462 2.26869  38
   2  -5   1 41.4749 2.51570  20
   2  -5   1 41.2100 2.48485  34
  -3   5  -1 66.8169 3.08118  28
  -3   5  -1 68.6402 3.03390  29
  -3   5  -1 64.5670 3.09387  22
   3  -5   1 67.7762 2.83828   1
   3  -5   1 69.8229 3.83561  20
   3  -5   1 66.2647 3.21276  16
   3  -5   1 71.9546 3.85797  34
   3  -5   1 66.0116 2.99220  19
   3  -5   1 63.9536 3.83465  10
   3  -5   1 70.3786 3.37632  38
  -4   5  -1 1235.71 55.7205  22
   4  -5   1 1369.41 57.0085  34
   4  -5   1 1294.44 49.4764  31
   4  -5   1 1291.26 48.0214  16
   4  -5   1 1291.18 57.2942  10
   4  -5   1 1350.93 42.2093   1
   4  -5   1 1299.29 49.7945  38
   4  -5   1 1353.59 57.6944  20
  -5   5  -1 135.516 6.00259  30
   5  -5   1 153.218 6.13633  31
   5  -5   1 149.720 7.27334  10
   5  -5   1 148.262 7.21201  34
   5  -5   1 144.939 5.36433   1
   5  -5   1 149.783 6.37344  38
   5  -5   1 139.738 7.26719  20
  -6   5  -1 116.517 4.68702  13
   6  -5   1 122.353 5.04146  38
   6  -5   1 115.183 5.79184  20
   6  -5   1 112.193 5.74053  34
   6  -5   1 132.974 5.82091  10
   8   4  -1 8.56279 1.19404  34
   8   4  -1 7.51196 0.86864  19
   8   4  -1 7.75630 0.86416   8
   8   4  -1 5.81999 0.95288  12
  -8  -4   1 7.50807 0.90932   3
   7   4  -1 12.5027 1.31852   8
   7   4  -1 15.3960 1.38409  19
  -7  -4   1 11.7488 1.23170   3
  -7  -4   1 10.5936 1.23551  18
   6   4  -1 78.1645 3.83019   8
   6   4  -1 76.2850 3.64497  12
   6   4  -1 76.7523 3.44017  19
  -6  -4   1 73.0393 3.16905  15
  -6  -4   1 78.0349 3.57271   3
  -6  -4   1 76.1724 3.82519  18
   5   4  -1 790.252 31.7638  37
   5   4  -1 827.876 29.9737   3
   5   4  -1 791.924 28.9602  12
   5   4  -1 809.593 36.5054  36
   5   4  -1 804.889 27.8397  19
   5   4  -1 780.531 31.3398   8
  -5  -4   1 796.038 29.9641   3
  -5  -4   1 779.933 26.8317  15
  -5  -4   1 791.537 36.4498  36
  -5  -4   1 711.100 31.2852   8
   4   4  -1 1051.64 41.0511  37
   4   4  -1 1014.04 42.9445   9
  -4  -4   1 1054.18 41.0081  37
  -4  -4   1 1042.01 47.0131  36
  -4  -4   1 974.679 42.8343   4
   3   4  -1 12.6278 1.27641  25
   3   4  -1 13.3138 1.09292  24
   3   4  -1 15.6904 0.94057  29
   3   4  -1 13.8485 1.17081  36
   3   4  -1 14.4405 0.99617  37
   3   4  -1 15.5936 1.09506   9
   3   4  -1 14.2581 1.02892  23
   3   4  -1 13.9663 1.01714  35
   3   4  -1 14.9490 0.95394  28
  -3  -4   1 13.2003 1.08413  24
  -3  -4   1 12.4503 0.99242   4
  -3  -4   1 15.3324 1.17570  36
   2   4  -1 1479.37 60.5761   9
   2   4  -1 1310.87 64.2638  23
   2   4  -1 1378.47 65.6506  36
   2   4  -1 1460.93 76.0332  28
   2   4  -1 1361.99 61.3038  22
   2   4  -1 1510.82 75.7480  25
   2   4  -1 1450.49 57.8962  37
   2   4  -1 1447.07 65.4282  24
   2   4  -1 1413.12 66.3903  35
   2   4  -1 1414.92 59.3719  29
  -2  -4   1 1432.77 57.5681  37
  -2  -4   1 1543.32 65.6464  36
  -2  -4   1 1446.32 66.8460  24
   1   4  -1 546.984 27.0270  25
   1   4  -1 531.075 21.4502   9
   1   4  -1 511.816 21.1840  29
   1   4  -1 462.651 23.3829  36
   1   4  -1 510.341 23.5013  24
   1   4  -1 528.482 23.6046  35
   1   4  -1 525.344 22.8581  23
   1   4  -1 478.210 21.7793  22
   1   4  -1 476.454 21.5213  28
   1   4  -1 496.872 20.4325  37
  -1  -4   1 540.210 23.5138  24
  -1  -4   1 523.680 23.2908  36
  -1  -4   1 520.031 31.2647   6
   0   4  -1 2835.89 124.048  29
   0   4  -1 2513.14 155.702  25
   0   4  -1 2544.61 108.787   5
   0   4  -1 2517.31 120.985  37
   0   4  -1 2932.44 114.893   9
   0   4  -1 2683.69 121.070  28
   0   4  -1 2675.78 124.764  24
   0   4  -1 2815.38 160.584  25
   0   4  -1 2895.26 122.417  23
   0  -4   1 2959.51 167.370   6
  -1   4  -1 32.7709 1.47267  28
  -1   4  -1 31.9273 1.60252   5
  -1   4  -1 33.9734 1.48613  29
  -1   4  -1 35.4639 1.85697  25
  -1   4  -1 36.3155 1.86924  25
  -1   4  -1 34.6666 1.78413   9
  -1   4  -1 34.2916 1.83370  23
  -2   4  -1 347.609 13.9971  29
  -2   4  -1 326.521 13.7563   5
  -2   4  -1 341.819 15.3912  23
  -2   4  -1 335.602 14.2184  28
  -3   4  -1 196.920 7.63632  29
  -3   4  -1 167.715 7.78459  22
  -3   4  -1 179.142 7.74325  28
   3  -4   1 174.713 7.43998  38
   3  -4   1 185.650 7.09633  12
   3  -4   1 186.575 8.50766  34
   3  -4   1 170.091 7.13828  16
   3  -4   1 201.937 8.66284  20
   3  -4   1 180.600 6.30955   1
   3  -4   1 178.694 6.80056  19
   3  -4   1 158.607 8.51312  10
  -4   4  -1 666.701 29.6496  29
  -4   4  -1 713.113 30.5875  22
  -4   4  -1 700.120 30.1937  28
   4  -4   1 735.127 26.4372  12
   4  -4   1 714.628 31.7600  10
   4  -4   1 690.814 26.5282  16
   4  -4   1 749.000 23.3898   1
   4  -4   1 679.020 27.3521  31
   4  -4   1 708.845 25.3806  19
   4  -4   1 735.980 31.9526  20
   4  -4   1 771.716 31.6102  34
   4  -4   1 723.375 27.6332  38
  -5   4  -1 138.612 5.73343  30
  -5   4  -1 131.945 6.25813  22
   5  -4   1 139.092 5.16021   1
   5  -4   1 138.312 5.51080  19
   5  -4   1 136.846 6.13812  38
   5  -4   1 145.000 7.07358  10
   5  -4   1 139.007 6.97149  34
   5  -4   1 133.136 7.01590  20
   5  -4   1 137.485 5.90548  31
  -6   4  -1 157.902 6.55586  30
  -6   4  -1 158.862 6.25409  13
   6  -4   1 168.830 6.58280  31
   6  -4   1 167.989 7.73137  10
   6  -4   1 161.940 6.74153  38
   6  -4   1 155.132 7.78582  20
   6  -4   1 157.706 5.65597   1
   6  -4   1 147.840 7.67972  34
   8   3  -1 164.696 6.36416  19
   8   3  -1 162.181 7.96302  34
   8   3  -1 172.675 6.74048  12
  -8  -3   1 181.858 6.88924   3
   7   3  -1 167.132 8.29189  34
   7   3  -1 166.071 6.55641  19
   7   3  -1 159.645 6.90297  12
   7   3  -1 169.771 7.25620   8
  -7  -3   1 175.878 6.98449   3
  -7  -3   1 164.934 7.63823  18
   6   3  -1 227.011 9.30203  12
   6   3  -1 228.629 8.87680  19
   6   3  -1 238.367 9.94205   8
  -6  -3   1 241.144 10.4670  18
  -6  -3   1 236.034 9.46093   3
   5   3  -1 31.5114 1.92431   8
   5   3  -1 29.7915 1.86388  12
   5   3  -1 30.4858 1.76150  19
   5   3  -1 31.7291 1.68487  31
   5   3  -1 33.0372 2.34088  36
  -5  -3   1 31.0005 1.43503  13
  -5  -3   1 32.3015 1.84905  37
  -5  -3   1 30.8852 2.23252  36
  -5  -3   1 30.1714 1.77123   3
  -5  -3   1 29.3913 1.55178  15
   4   3  -1 367.205 16.9686  36
   4   3  -1 354.723 15.4296   9
   4   3  -1 373.339 14.7214  37
  -4  -3   1 351.382 16.8968  36
  -4  -3   1 364.722 14.6780  37
  -4  -3   1 345.600 15.2840   4
   3   3  -1 26.5403 1.51777   9
   3   3  -1 22.1107 1.81044  25
   3   3  -1 26.3632 1.44557  37
   3   3  -1 27.6197 1.53656  35
   3   3  -1 26.3722 1.63696  24
  -3  -3   1 25.4337 1.46351   4
  -3  -3   1 25.7693 1.39203  37
  -3  -3   1 29.6927 1.73958  36
  -3  -3   1 24.2063 1.62668  24
   2   3  -1 505.356 30.6313  25
   2   3  -1 610.601 26.7385  24
   2   3  -1 599.494 24.3366   9
   2   3  -1 569.910 25.9590  23
   2   3  -1 581.054 24.0890  29
   2   3  -1 595.488 30.6756  25
   2   3  -1 620.682 26.7033  35
   2   3  -1 601.128 23.2393  37
   2   3  -1 573.700 26.5884  36
   2   3  -1 553.475 24.4924  28
  -2  -3   1 584.082 24.5680   4
  -2  -3   1 582.095 23.3191  37
  -2  -3   1 606.963 26.9517  24
  -2  -3   1 575.078 26.5877  36
  -2  -3   1 564.257 30.6204  25
   1   3  -1 426.510 17.2569  37
   1   3  -1 460.706 19.5896  23
   1   3  -1 400.143 19.8487  24
   1   3  -1 391.305 22.7596  25
   1   3  -1 451.669 19.9036  35
   1   3  -1 436.271 18.0867   9
   1   3  -1 389.221 19.7404  36
   1   3  -1 404.121 18.2658  28
   1   3  -1 425.008 17.9968  29
   1   3  -1 449.912 19.8648  24
   1   3  -1 482.740 22.8240  25
  -1  -3   1 441.654 20.0994  24
  -1  -3   1 401.136 17.2115  37
  -1  -3   1 436.105 23.1041  36
  -1  -3   1 456.171 26.6753   6
  -1  -3   1 416.966 22.7376  25
   0   3  -1 3588.66 162.903  37
   0   3  -1 3991.03 164.796  29
   0   3  -1 3630.75 162.036   5
   0   3  -1 4068.86 183.007   9
   0   3  -1 4064.08 215.345  25
   0   3  -1 4004.26 186.547  24
   0   3  -1 3376.64 163.495  29
   0   3  -1 3700.06 216.073  25
   0   3  -1 3632.55 181.091  24
   0   3  -1 3849.16 163.070  28
   0   3  -1 4304.06 190.258  23
   0  -3   1 3758.88 206.894  25
  -1   3  -1 18.9075 1.13364  23
  -1   3  -1 16.6998 0.86677  37
  -1   3  -1 20.3983 1.12869  25
  -1   3  -1 19.0866 1.12717  25
  -1   3  -1 17.6902 1.01935   5
   1  -3   1 20.9875 1.58805   6
  -2   3  -1 1086.27 55.6956  25
  -2   3  -1 1071.10 42.3888   5
  -2   3  -1 1072.32 60.8787  25
  -2   3  -1 1005.95 44.6428  28
  -2   3  -1 1091.89 44.1811  29
  -3   3  -1 414.222 16.7590   5
  -3   3  -1 388.150 17.4831  22
  -3   3  -1 433.012 17.0758  29
  -3   3  -1 408.783 17.3392  28
  -4   3  -1 47.3990 2.33788  29
  -4   3  -1 46.0379 2.36092  28
  -4   3  -1 50.3261 2.35556  22
   4  -3   1 46.3750 2.14071   1
   4  -3   1 48.6432 2.91825  34
   4  -3   1 49.7903 2.30272  19
   4  -3   1 51.8562 3.03745  20
   4  -3   1 45.9594 2.59476  38
   4  -3   1 44.9927 2.95517  10
   4  -3   1 44.4828 2.47143  31
   4  -3   1 53.9632 2.46344  12
  -5   3  -1 135.006 6.43842  28
  -5   3  -1 145.840 5.92295  30
  -5   3  -1 151.432 6.51449  22
   5  -3   1 141.349 7.22465  10
   5  -3   1 141.058 6.34205  38
   5  -3   1 146.035 7.23373  34
   5  -3   1 135.044 7.23371  20
   5  -3   1 143.964 6.14533  31
   5  -3   1 142.549 5.68206  19
   5  -3   1 139.920 5.95611  12
   5  -3   1 148.068 5.31425   1
  -6   3  -1 4.39919 0.68774  22
  -6   3  -1 4.59490 0.59103  13
  -6   3  -1 5.08656 0.59748  30
   6  -3   1 4.33009 1.06469  38
   6  -3   1 5.05757 1.19357  20
   6  -3   1 6.14223 0.93737   1
   6  -3   1 5.36905 1.03698  31
   6  -3   1 5.46776 1.09364  10
  -7   3  -1 83.7950 3.27170  13
   7  -3   1 78.9299 3.54023  38
   7  -3   1 83.4235 4.10143  10
   7  -3   1 75.0950 4.13262  20
   7  -3   1 83.3113 4.27451  34
   8   2  -1 203.589 8.08257  19
   8   2  -1 216.154 8.44314  12
   8   2  -1 200.039 9.97439  34
  -8  -2   1 234.950 8.66203   3
  -8  -2   1 241.033 9.65288  18
   7   2  -1 398.227 15.4049  12
   7   2  -1 427.537 16.3981   8
   7   2  -1 380.666 18.3010  34
   7   2  -1 400.778 14.7038  19
  -7  -2   1 400.212 15.7575   3
  -7  -2   1 418.370 17.5731  18
   6   2  -1 1076.45 39.4566  31
   6   2  -1 1109.34 41.2906   8
   6   2  -1 1010.70 38.2973  12
   6   2  -1 1029.44 36.7804  19
   6   2  -1 1003.69 45.6666  34
  -6  -2   1 1039.18 39.5365   3
  -6  -2   1 1027.52 39.1644  13
   5   2  -1 36.2200 2.40141  36
   5   2  -1 32.2405 1.88713  19
   5   2  -1 30.6030 1.94619  12
   5   2  -1 33.2835 1.83998  31
   5   2  -1 34.4775 2.02739   8
  -5  -2   1 37.1718 2.01069  37
  -5  -2   1 35.0687 1.66601  30
  -5  -2   1 33.2985 1.56116  13
  -5  -2   1 33.7638 2.41087  36
  -5  -2   1 34.4000 1.90363   3
   4   2  -1 749.675 33.8215   9
   4   2  -1 859.732 32.3255  37
   4   2  -1 863.965 37.0811  36
  -4  -2   1 761.547 31.6732  30
  -4  -2   1 778.046 33.6357   4
  -4  -2   1 766.822 37.0063  36
  -4  -2   1 864.305 32.3086  37
   3   2  -1 106.873 4.42827  37
   3   2  -1 105.354 5.16482  36
   3   2  -1 109.089 4.68919   9
   3   2  -1 107.300 4.96578  35
   3   2  -1 96.3082 5.03522  24
  -3  -2   1 101.728 4.55117  28
  -3  -2   1 93.2019 5.75239  25
  -3  -2   1 99.0365 5.08666  24
  -3  -2   1 105.033 4.27367   5
  -3  -2   1 101.043 4.55020   4
  -3  -2   1 103.004 4.39599  37
  -3  -2   1 98.5245 5.10421  36
   2   2  -1 3266.81 199.822  25
   2   2  -1 4022.57 158.934   9
   2   2  -1 4000.61 151.619  37
   2   2  -1 3968.46 157.391  29
   2   2  -1 3741.78 159.936  28
   2   2  -1 3878.69 173.421  36
   2   2  -1 3847.80 199.923  25
   2   2  -1 4012.85 174.427  24
   2   2  -1 4206.30 174.275  35
  -2  -2   1 3842.28 162.623   5
  -2  -2   1 3710.84 172.685  37
  -2  -2   1 3713.87 158.270   4
  -2  -2   1 3773.37 173.718  36
  -2  -2   1 3504.31 174.914  29
  -2  -2   1 3564.57 203.398  25
  -2  -2   1 3790.82 200.122  25
  -2  -2   1 3824.05 207.096  24
   1   2  -1 283.028 12.1872  35
   1   2  -1 258.311 12.1134  36
   1   2  -1 270.169 11.0933   9
   1   2  -1 258.501 12.1743  24
   1   2  -1 250.486 11.1413  28
   1   2  -1 284.722 12.1819  24
   1   2  -1 237.998 13.9448  25
   1   2  -1 262.579 10.5768  37
   1   2  -1 280.223 13.9723  25
   1   2  -1 271.132 10.9654  29
   1   2  -1 258.525 11.8515  23
  -1  -2   1 258.716 13.9507  25
  -1  -2   1 265.743 12.1035  36
  -1  -2   1 257.611 13.9409  25
  -1  -2   1 261.519 10.5534  37
  -1  -2   1 262.052 12.1729  24
   0   2  -1 950.199 45.6849  29
   0   2  -1 1080.46 48.6271  24
   0   2  -1 1063.87 44.3628   9
   0   2  -1 1118.91 47.4218  23
   0   2  -1 1100.41 55.8664  25
   0   2  -1 1059.69 47.0666  29
   0   2  -1 969.105 42.2207  37
   0   2  -1 979.726 65.4115  25
   0   2  -1 1065.00 48.6072  24
   0  -2   1 1123.23 48.6857  24
   0  -2   1 1191.43 65.1826   6
   0  -2   1 1014.31 58.5418  25
   0  -2   1 1065.76 58.9650  25
   0  -2   1 1060.08 48.5604  24
  -1   2  -1 6.45563 0.42998  37
   1  -2   1 7.46520 0.89819   6
  -2   2  -1 3171.99 180.424  27
  -2   2  -1 3151.75 166.840  25
  -2   2  -1 3070.03 120.305  37
  -2   2  -1 2949.77 142.149  24
  -2   2  -1 2884.94 140.728  24
  -2   2  -1 2943.49 121.516   5
  -2   2  -1 3120.09 126.145   4
  -2   2  -1 2984.65 129.812  29
  -2   2  -1 3114.51 171.978  25
  -2   2  -1 2963.95 130.732  29
  -3   2  -1 470.086 20.0872  28
  -3   2  -1 499.166 25.1276  25
  -3   2  -1 446.701 20.2783  22
  -3   2  -1 479.182 19.3077   5
  -3   2  -1 477.938 19.0274  37
  -3   2  -1 489.806 19.7849  29
  -4   2  -1 481.661 20.5605  22
  -4   2  -1 479.171 20.0352  29
  -4   2  -1 492.022 20.3571  28
   4  -2   1 468.076 21.5863  10
  -5   2  -1 28.2357 1.58974  22
  -5   2  -1 27.7407 1.40426  30
  -5   2  -1 27.8460 1.62528  29
  -5   2  -1 29.1448 1.66413  28
   5  -2   1 27.4928 1.89292   2
   5  -2   1 28.5541 1.80979  12
   5  -2   1 26.8985 1.65538  19
   5  -2   1 25.4659 2.24345  20
   5  -2   1 26.2681 1.53587   1
   5  -2   1 25.4978 1.97999  38
   5  -2   1 26.3206 1.80199  31
   5  -2   1 26.8511 2.12675  10
   5  -2   1 26.9832 2.15360  34
  -6   2  -1 170.645 6.91742  13
  -6   2  -1 182.972 7.27472  30
  -6   2  -1 180.150 7.96479  22
   6  -2   1 177.528 7.50676  38
   6  -2   1 172.247 8.52055  10
   6  -2   1 176.805 6.29149   1
   6  -2   1 164.961 8.71488  20
   6  -2   1 184.257 7.37788  31
   6  -2   1 175.983 8.32032   2
   6  -2   1 169.300 8.66080  34
   6  -2   1 180.580 7.27263  12
  -7   2  -1 38.4689 1.76526  30
  -7   2  -1 37.6205 1.66130  13
   7  -2   1 33.9510 2.06213  12
   7  -2   1 32.8995 2.42292  34
   7  -2   1 37.8380 2.35634  10
   7  -2   1 32.5954 2.38863  20
   7  -2   1 38.4885 1.98775  31
   7  -2   1 34.5141 2.02973  38
   8   1  -1 110.359 4.72873  12
  -8  -1   1 128.783 5.35050  18
  -8  -1   1 112.062 4.77490   3
   7   1  -1 350.831 12.8785  19
   7   1  -1 338.335 16.0472  34
   7   1  -1 348.488 13.5032  12
  -7  -1   1 358.256 13.7972   3
  -7  -1   1 346.473 13.3836  13
  -7  -1   1 369.166 15.3848  18
   6   1  -1 751.942 28.0913   8
   6   1  -1 698.701 25.1506  19
   6   1  -1 738.584 26.9248  31
   6   1  -1 648.029 31.1834  34
   6   1  -1 682.519 26.2078  12
   6   1  -1 711.242 22.9099   1
  -6  -1   1 700.122 26.5722  13
  -6  -1   1 689.844 27.8256  30
  -6  -1   1 712.325 26.9658   3
   5   1  -1 9.07790 1.06275   8
   5   1  -1 9.68685 0.95177   1
   5   1  -1 8.26734 1.14627  19
   5   1  -1 8.63454 1.30889  34
   5   1  -1 9.70729 1.21266  12
   5   1  -1 9.58817 0.95073  31
  -5  -1   1 8.94616 0.81953  22
  -5  -1   1 9.58344 0.68781  13
  -5  -1   1 8.77273 0.94944  37
  -5  -1   1 10.4678 0.74073  30
  -5  -1   1 9.79523 0.94909   3
  -5  -1   1 7.29968 1.18465  36
   4   1  -1 265.801 12.2671  36
  -4  -1   1 261.498 10.6174   5
  -4  -1   1 255.025 11.2495  22
  -4  -1   1 254.348 10.3321  30
  -4  -1   1 262.373 10.6928  37
  -4  -1   1 265.238 11.0210  29
  -4  -1   1 238.678 12.3181  36
  -4  -1   1 262.349 11.1672  28
   3   1  -1 289.274 11.5746  37
   3   1  -1 286.812 13.2209  35
   3   1  -1 267.718 13.2694  24
   3   1  -1 294.422 12.1786   9
   3   1  -1 303.748 13.3298  36
  -3  -1   1 273.789 13.3292  24
  -3  -1   1 272.000 15.2416  25
  -3  -1   1 278.406 13.3282  36
  -3  -1   1 285.996 12.0175   4
  -3  -1   1 285.643 11.9599  29
  -3  -1   1 284.448 12.1421  28
  -3  -1   1 287.885 12.2751  22
  -3  -1   1 285.042 11.5709  37
  -3  -1   1 287.550 11.5160   5
   2   1  -1 9999.99 448.554  35
   2   1  -1 9237.30 457.678  36
   2   1  -1 9099.73 517.557  25
   2   1  -1 9809.10 418.221   9
   2   1  -1 9172.47 393.771  37
   2   1  -1 9440.20 453.072  24
  -2  -1   1 9250.42 519.974  25
  -2  -1   1 8487.80 450.415  36
  -2  -1   1 9301.22 386.304   5
  -2  -1   1 8805.12 402.238  29
  -2  -1   1 9427.91 405.458   4
  -2  -1   1 8620.43 405.890  28
  -2  -1   1 8990.79 509.979  25
  -2  -1   1 9471.67 456.044  24
  -2  -1   1 9302.36 393.319  37
   1   1  -1 65.5645 2.93845  35
   1   1  -1 62.4541 2.68946   9
   1   1  -1 59.8618 2.62157  29
   1   1  -1 60.1335 2.94416  24
   1   1  -1 58.6608 2.55290  37
   1   1  -1 56.3898 3.36345  25
   1   1  -1 65.0238 2.94968  24
   1   1  -1 62.2181 3.37116  25
  -1  -1   1 64.2010 2.95195  24
  -1  -1   1 59.8180 2.94628  24
  -1  -1   1 61.2085 3.37314  25
  -1  -1   1 61.9300 3.36945  25
  -1  -1   1 60.7987 2.48755   5
  -1  -1   1 60.0840 2.54371  37
  -1  -1   1 62.2390 2.65807   4
  -1  -1   1 55.5938 2.93544  36
   0   1  -1 108.485 5.05306  29
   0   1  -1 110.265 4.87802  37
   0   1  -1 120.357 6.76519  23
   0   1  -1 114.828 5.12322   9
   0   1  -1 115.887 6.43800  25
   0   1  -1 112.519 5.65954  35
   0   1  -1 119.134 4.86988   5
   0   1  -1 117.716 5.60549  24
   0   1  -1 119.264 6.43572  25
   0   1  -1 116.796 5.61135  24
   0  -1   1 127.422 7.51339   6
   0  -1   1 110.652 6.47110  25
   0  -1   1 110.654 6.47024  25
   0  -1   1 117.100 5.64067  24
   0  -1   1 112.461 5.63366  24
  -1   1  -1 25.8560 1.33094  25
  -1   1  -1 24.8602 1.14680  24
  -1   1  -1 23.3141 1.14321  24
  -1   1  -1 24.3692 1.34138  25
   1  -1   1 26.7835 1.70599   6
   1  -1   1 24.5783 1.14952  24
   1  -1   1 23.8850 1.14682  24
  -2   1  -1 4026.62 215.689  25
  -2   1  -1 3538.92 161.031  37
  -2   1  -1 4002.27 188.985  24
  -2   1  -1 3699.41 163.984  28
  -2   1  -1 4057.36 215.476  25
  -2   1  -1 3972.47 238.710  27
  -2   1  -1 3531.87 162.504  29
  -2   1  -1 3730.51 162.043  29
  -2   1  -1 4089.53 175.211   4
  -2   1  -1 3802.39 185.835  24
   2  -1   1 3789.21 186.811  24
   2  -1   1 3448.98 207.697  25
  -3   1  -1 687.152 34.1528  24
  -3   1  -1 728.539 29.7246  37
  -3   1  -1 787.599 31.1811  29
  -3   1  -1 742.941 31.6753  28
  -3   1  -1 715.170 31.8537  22
  -3   1  -1 742.097 31.2727   4
  -3   1  -1 770.119 29.9233   5
  -3   1  -1 814.384 39.2596  25
  -4   1  -1 133.805 5.70601   5
  -4   1  -1 125.061 5.48956  37
  -4   1  -1 118.249 5.25289  30
  -4   1  -1 137.163 5.68931  29
  -4   1  -1 133.231 5.76155  22
  -4   1  -1 135.630 5.74485  28
  -5   1  -1 5.29355 0.52756  30
  -5   1  -1 6.39619 0.69307  29
  -5   1  -1 5.07249 0.67243  28
  -5   1  -1 4.52473 0.58723  22
  -5   1  -1 4.12565 0.60947  37
   5  -1   1 5.84041 0.94044   2
   5  -1   1 4.69851 0.90510  38
   5  -1   1 7.26049 0.96126  12
   5  -1   1 5.60355 0.74392   1
   5  -1   1 4.82864 0.89656  31
   5  -1   1 4.18746 1.01108  34
   5  -1   1 4.15358 0.99964  10
  -6   1  -1 1092.18 44.8728  22
  -6   1  -1 1036.46 39.4782  13
  -6   1  -1 1057.30 44.3494  28
  -6   1  -1 1075.50 41.3166  30
   6  -1   1 1063.26 38.5820  12
   6  -1   1 1062.49 46.0282  34
   6  -1   1 991.605 39.9517  38
   6  -1   1 1080.56 39.8188  31
   6  -1   1 1075.30 33.8374   1
   6  -1   1 1003.91 45.9343  10
   6  -1   1 965.623 46.4130  20
   6  -1   1 1089.56 45.9796   2
  -7   1  -1 137.921 5.38379  13
  -7   1  -1 137.535 5.66359  30
   7  -1   1 135.760 5.75531  12
   7  -1   1 133.521 6.89252  34
   7  -1   1 126.585 5.72457  38
   7  -1   1 137.838 6.63098  10
   7  -1   1 129.950 6.84196  20
   7  -1   1 143.766 5.75746  31
  -8   1  -1 4.23985 0.39880  13
  -8   1  -1 4.01015 0.74039  18
   8  -1   1 4.11378 0.90799  34
   7   0  -1 40.2285 1.98208   1
   7   0  -1 40.8514 2.36152  12
   7   0  -1 41.6143 2.81449  34
   7   0  -1 44.3731 2.23025  19
  -7   0   1 42.0275 2.21173   3
  -7   0   1 42.3115 1.85313  13
  -7   0   1 43.6020 2.42547  18
   6   0  -1 352.042 13.1551  31
   6   0  -1 332.140 11.2281   1
   6   0  -1 317.022 15.3827  34
   6   0  -1 325.741 12.9406  12
   6   0  -1 332.716 12.3714  19
   6   0  -1 324.733 15.0560  10
  -6   0   1 337.275 13.3818  30
  -6   0   1 331.584 13.1529   3
  -6   0   1 339.110 12.7605  13
   5   0  -1 35.0279 1.85931   1
   5   0  -1 37.7445 2.04297  31
   5   0  -1 38.0931 2.09134   8
   5   0  -1 36.3977 2.10875  19
   5   0  -1 32.1284 2.50547  34
   5   0  -1 33.5527 2.35317  10
   5   0  -1 33.6744 2.12440  12
  -5   0   1 35.6345 2.01970   3
  -5   0   1 35.2719 2.05528  37
  -5   0   1 35.9029 1.68026  13
  -5   0   1 36.6649 2.00585  22
  -5   0   1 35.0015 2.05173  29
  -5   0   1 35.9208 2.07263  28
  -5   0   1 36.9894 1.77584  30
   4   0  -1 576.185 25.4556  36
  -4   0   1 549.346 22.3357  37
  -4   0   1 565.539 23.1439  29
  -4   0   1 550.596 21.8621  30
  -4   0   1 556.992 22.3525   5
  -4   0   1 574.586 23.7634  22
  -4   0   1 579.809 23.5121  28
  -4   0   1 474.253 25.7708  36
   3   0  -1 880.938 38.1645  36
   3   0  -1 800.146 38.3377  35
  -3   0   1 869.230 35.0045  29
  -3   0   1 759.834 38.2289  36
  -3   0   1 854.031 33.8929  37
  -3   0   1 860.892 44.0623  25
  -3   0   1 825.942 35.3068  28
  -3   0   1 844.296 35.8766  22
  -3   0   1 845.354 33.4129   5
  -3   0   1 832.841 38.4141  24
   2   0  -1 1927.68 107.932  25
   2   0  -1 2070.74 82.1748  37
   2   0  -1 2209.99 94.3804  36
   2   0  -1 2079.98 94.3842  35
   2   0  -1 2091.71 94.5837  24
  -2   0   1 1997.14 108.407  25
  -2   0   1 2160.18 95.2341  24
  -2   0   1 1939.94 98.7034  28
  -2   0   1 1979.25 94.3016  24
  -2   0   1 1987.06 85.4758   4
  -2   0   1 2162.01 108.762  25
  -2   0   1 1948.10 94.0794  36
  -2   0   1 2081.62 85.3409  29
  -2   0   1 2108.47 101.330   5
  -2   0   1 2037.74 82.1521  37
   1   0  -1 41.6185 1.99487  24
   1   0  -1 40.2191 2.00631  36
   1   0  -1 37.4878 1.97266  24
   1   0  -1 40.7126 1.99894  35
   1   0  -1 37.0381 2.26832  25
   1   0  -1 38.8693 1.72830  37
   1   0  -1 42.3053 1.83947   9
   1   0  -1 42.1971 2.46427  27
   1   0  -1 40.9386 2.28568  25
  -1   0   1 40.8226 1.99948  24
  -1   0   1 37.1728 2.00131  36
  -1   0   1 42.7275 1.73150   5
  -1   0   1 42.5868 1.99755  24
  -1   0   1 41.7230 1.73018  37
  -1   0   1 41.7299 1.76497   4
  -1   0   1 38.3786 1.77168  29
  -1   0   1 42.9542 2.28967  25
  -1   0   1 39.2235 2.27467  25
   0   0  -1 58.9829 3.55822  27
   0   0  -1 52.1907 2.74657  35
   0   0  -1 53.9110 2.73311  24
   0   0  -1 48.3106 2.37023   5
   0   0  -1 58.5764 2.48000   9
   0   0  -1 56.0928 3.13571  25
   0   0  -1 54.4302 2.73610  24
   0   0   1 56.2575 2.47826   9
   0   0   1 51.8612 2.73332  24
   0   0   1 54.3939 2.73215  24
   0   0   1 51.6182 3.12860  25
   0   0   1 59.1403 2.37909   5
   0   0   1 55.7343 3.62667   6
   0   0   1 53.5350 2.62619  23
   0   0   1 55.2247 3.55180  27
   0   0   1 53.4259 3.14119  25
  -1   0  -1 11.4146 0.54009  37
  -1   0  -1 11.6211 0.62603  24
  -1   0  -1 11.8244 0.70807  25
  -1   0  -1 11.9726 0.55050   9
  -1   0  -1 11.7666 0.58529  35
  -1   0  -1 12.0708 0.82136  27
  -1   0  -1 12.2447 0.63290  24
  -1   0  -1 11.9401 0.58239   4
  -1   0  -1 12.3623 0.72661  25
   1   0   1 11.1172 0.71042  25
   1   0   1 11.0601 0.62569  24
   1   0   1 11.2977 0.62226  24
   1   0   1 11.2364 0.71446  25
  -2   0  -1 239.799 10.5580  24
  -2   0  -1 237.916 12.0996  25
  -2   0  -1 221.712 9.56315  29
  -2   0  -1 243.002 9.58206   4
  -2   0  -1 224.896 10.5571  24
  -2   0  -1 240.851 13.7161  27
  -2   0  -1 214.288 9.15530  37
  -2   0  -1 232.736 12.1201  25
  -2   0  -1 226.779 10.7321  35
  -2   0  -1 194.514 10.4818  36
  -2   0  -1 221.121 9.61933  28
   2   0   1 231.462 10.5371  24
   2   0   1 217.924 12.0747  25
  -3   0  -1 327.085 17.1842  36
  -3   0  -1 381.289 17.2676  24
  -3   0  -1 365.319 15.7574  28
  -3   0  -1 416.586 19.8207  25
  -3   0  -1 372.782 15.5164  29
  -3   0  -1 389.277 15.6539   4
  -3   0  -1 369.248 14.9980  37
  -3   0  -1 367.244 15.9423  22
   3   0   1 367.869 17.2242  24
   3   0   1 379.129 17.0838  36
  -4   0  -1 199.510 8.40701  28
  -4   0  -1 189.397 7.83021  30
  -4   0  -1 207.369 8.17363   5
  -4   0  -1 176.469 9.23059  24
  -4   0  -1 196.905 8.06321  37
  -4   0  -1 200.821 8.48174  22
  -4   0  -1 185.557 8.35358   4
  -4   0  -1 202.617 8.30443  29
  -5   0  -1 3.04352 0.60891  37
  -5   0  -1 3.78061 0.54542  29
  -5   0  -1 2.89311 0.42733  30
   5   0   1 2.68131 0.55507  12
   5   0   1 2.59318 0.76060  10
   5   0   1 2.64628 0.73570  20
   5   0   1 2.44131 0.54017  31
   5   0   1 3.91326 0.75344   2
   5   0   1 4.06095 0.91803  34
   5   0   1 4.96298 0.87635  38
  -6   0  -1 1057.62 38.6861  13
  -6   0  -1 1113.69 40.4961  30
  -6   0  -1 1083.52 43.9614  22
  -6   0  -1 1063.41 43.4468  28
  -6   0  -1 983.885 38.9326   3
  -6   0  -1 990.220 42.7327  29
  -6   0  -1 886.061 41.0863  37
   6   0   1 1115.86 45.1049   2
   6   0   1 1050.68 37.8094  12
   6   0   1 1028.20 45.0862  34
   6   0   1 976.183 45.4815  20
   6   0   1 971.483 39.0770  38
   6   0   1 1062.72 38.9908  31
   6   0   1 1008.70 44.9666  10
  -7   0  -1 494.667 18.8860  30
  -7   0  -1 458.792 18.2932   3
  -7   0  -1 486.066 18.0157  13
  -7   0  -1 467.944 20.5494  22
   7   0   1 482.986 21.4493  34
   7   0   1 461.997 21.0892  10
   7   0   1 446.356 21.4705  20
   7   0   1 487.650 18.3345  31
   7   0   1 477.841 17.9463  12
  -8   0  -1 169.730 7.32144  18
  -8   0  -1 166.396 6.28841  13
   8   0   1 161.506 6.44523  12
   8   0   1 151.212 7.68565  34
   7  -1  -1 5.49997 0.69945   1
   7  -1  -1 4.46569 0.95089  34
   7  -1  -1 4.72949 0.86916  19
   7  -1  -1 4.42857 0.95401  10
   7  -1  -1 3.75817 0.76490  12
  -7   1   1 4.94463 0.73317   3
  -7   1   1 5.25438 0.48259  13
  -7   1   1 4.66326 0.84018  18
   6  -1  -1 131.655 5.85385  12
   6  -1  -1 128.251 6.93955  34
   6  -1  -1 135.772 5.57626  19
   6  -1  -1 135.037 6.66493  10
   6  -1  -1 141.639 5.80808  31
   6  -1  -1 139.797 5.04163   1
  -6   1   1 126.316 5.74539   3
  -6   1   1 142.572 5.72785  30
  -6   1   1 129.406 6.27056  22
  -6   1   1 138.368 5.42841  13
  -6   1   1 144.006 6.46300  18
   5  -1  -1 68.6293 3.86810  10
   5  -1  -1 72.5838 3.35303  31
   5  -1  -1 66.8813 4.07064  34
   5  -1  -1 69.0120 3.42453  12
   5  -1  -1 70.9778 3.00365   1
   5  -1  -1 68.9650 3.28244  19
   5  -1  -1 61.7879 3.91394  20
  -5   1   1 67.1456 3.47654  29
  -5   1   1 59.1562 3.30032  37
  -5   1   1 78.5959 3.15416  30
  -5   1   1 72.4767 3.53355  28
  -5   1   1 77.6092 3.50807  22
  -5   1   1 72.4536 2.96223  13
  -5   1   1 65.9202 3.27506   3
   4  -1  -1 226.525 8.62902  19
   4  -1  -1 234.402 10.7618  34
   4  -1  -1 218.472 10.6688  10
   4  -1  -1 226.640 7.94666   1
   4  -1  -1 231.395 8.99604  12
   4  -1  -1 225.048 9.21613  31
  -4   1   1 252.149 9.66565  37
  -4   1   1 230.719 9.31694  30
  -4   1   1 232.530 10.0997  28
  -4   1   1 233.501 9.96882  29
   3  -1  -1 254.616 11.7101  36
  -3   1   1 242.768 11.8984  24
  -3   1   1 250.491 10.4065   5
  -3   1   1 260.063 10.3210  37
  -3   1   1 247.230 13.6342  25
  -3   1   1 244.097 10.0554  30
  -3   1   1 264.158 10.7032  29
  -3   1   1 254.780 10.8496  28
  -3   1   1 256.220 10.9541  22
   2  -1  -1 2378.79 105.696  36
   2  -1  -1 2304.73 106.414  24
  -2   1   1 2168.46 98.7368  22
  -2   1   1 2380.80 92.7767  37
  -2   1   1 2105.32 106.033  36
  -2   1   1 2518.34 122.634  25
  -2   1   1 2079.28 95.9751   4
  -2   1   1 2290.06 97.7563  28
  -2   1   1 2442.60 106.910  24
  -2   1   1 2431.66 101.302   5
  -2   1   1 2378.66 96.1428  29
   1  -1  -1 1.89211 0.43522  36
   1  -1  -1 2.55819 0.26610   4
   1  -1  -1 2.17985 0.37029  37
   1  -1  -1 2.99764 0.52696  35
  -1   1   1 2.99181 0.50743  25
  -1   1   1 2.67220 0.36343  37
  -1   1   1 2.43854 0.42214  24
  -1   1   1 2.30101 0.35832  29
  -1   1   1 2.05743 0.46868  36
  -1   1   1 2.38201 0.42291  24
  -1   1   1 2.02893 0.46955  25
  -1   1   1 3.14541 0.41672   5
   0  -1  -1 171.307 7.41530   4
   0  -1  -1 177.395 8.14616  36
   0  -1  -1 167.026 10.6410  27
   0  -1  -1 179.061 8.30952  24
   0  -1  -1 175.569 9.37974  25
   0  -1  -1 189.296 11.9660  25
   0  -1  -1 184.350 8.22557  35
   0  -1  -1 180.834 8.17164  24
   0   1   1 172.291 8.21019  24
   0   1   1 165.394 7.09352  37
   0   1   1 184.496 8.14780  36
   0   1   1 178.128 8.03797  23
   0   1   1 170.269 7.36503  29
   0   1   1 181.970 9.55154  25
   0   1   1 174.062 9.44365  25
   0   1   1 175.473 7.16605   5
  -1  -1  -1 22.9351 1.13495  37
  -1  -1  -1 24.4892 1.17373   4
  -1  -1  -1 23.9717 1.15811   9
  -1  -1  -1 24.8188 1.48806  25
  -1  -1  -1 23.6775 1.50917  25
  -1  -1  -1 23.2513 1.32276  36
  -1  -1  -1 24.7395 1.72338  27
  -1  -1  -1 24.0603 1.31360  24
  -1  -1  -1 27.5443 1.32839  24
   1   1   1 24.2872 1.51643  25
   1   1   1 26.4013 1.16488   9
   1   1   1 25.5649 1.28244  35
   1   1   1 24.6585 1.48945  25
   1   1   1 22.9513 1.13131  37
   1   1   1 25.4332 1.29489  23
   1   1   1 23.0826 1.30961  24
   1   1   1 25.8389 1.32415  36
   1   1   1 24.8855 1.31832  24
   1   1   1 26.5975 1.14413   5
  -2  -1  -1 24.0606 1.39411  25
  -2  -1  -1 21.4186 1.35046  25
  -2  -1  -1 18.7723 1.17953  24
  -2  -1  -1 24.1157 1.08320   4
  -2  -1  -1 21.6239 1.20680  36
  -2  -1  -1 22.0961 1.21383  24
  -2  -1  -1 21.6389 1.47418  27
  -2  -1  -1 20.3274 1.01452  37
  -2  -1  -1 20.8125 1.00815  29
  -2  -1  -1 20.5972 1.02285  28
   2   1   1 24.5294 1.21340  24
   2   1   1 21.2964 1.21853  23
   2   1   1 22.5592 1.04766  37
   2   1   1 20.7041 1.37184  25
   2   1   1 20.2206 1.20720  36
  -3  -1  -1 194.965 11.4106  25
  -3  -1  -1 180.787 12.6876  27
  -3  -1  -1 196.026 9.91584  36
  -3  -1  -1 210.726 9.03202  28
  -3  -1  -1 215.762 8.90130  29
  -3  -1  -1 212.759 9.96189  24
  -3  -1  -1 194.293 9.94672  24
  -3  -1  -1 212.193 8.62523  37
  -3  -1  -1 229.865 11.4156  25
  -3  -1  -1 204.463 9.12887  22
  -3  -1  -1 226.206 9.00905   4
   3   1   1 226.488 9.88444  36
   3   1   1 219.376 8.64054  37
   3   1   1 227.649 9.04464   9
   3   1   1 221.257 9.94257  24
  -4  -1  -1 478.051 20.7104   4
  -4  -1  -1 513.579 26.2207  25
  -4  -1  -1 441.968 22.7731  36
  -4  -1  -1 509.982 20.5688  29
  -4  -1  -1 502.000 21.1426  22
  -4  -1  -1 474.918 22.8641  24
  -4  -1  -1 505.870 19.8698  37
  -4  -1  -1 498.096 20.8884  28
   4   1   1 521.477 22.7358  36
  -5  -1  -1 36.4779 1.91085  28
  -5  -1  -1 35.7837 1.69895  30
  -5  -1  -1 35.9326 1.91797   5
  -5  -1  -1 37.0179 1.91079  29
  -5  -1  -1 37.0044 1.94320  37
  -5  -1  -1 30.5724 1.96907   4
  -5  -1  -1 38.2091 1.90045  22
  -6  -1  -1 505.304 21.1669  22
  -6  -1  -1 473.628 19.9467  37
  -6  -1  -1 476.908 18.8751   3
  -6  -1  -1 487.814 20.9417  28
  -6  -1  -1 499.942 18.5859  13
  -6  -1  -1 472.712 20.6201  29
  -6  -1  -1 506.859 19.4553  30
   6   1   1 519.633 21.8738   2
   6   1   1 455.201 22.1121  20
   6   1   1 474.136 18.4206  12
   6   1   1 487.166 18.8780  31
   6   1   1 535.555 19.6950   8
   6   1   1 461.215 21.9862  34
  -7  -1  -1 167.991 6.86562  30
  -7  -1  -1 164.201 6.88393   3
  -7  -1  -1 153.531 7.50996  22
  -7  -1  -1 168.609 6.53263  13
   7   1   1 170.679 6.87043  31
   7   1   1 154.550 8.15702  20
   7   1   1 159.980 8.27173  34
   7   1   1 178.195 7.00810   8
   7   1   1 171.986 6.96032  12
  -8  -1  -1 178.474 7.14041   3
  -8  -1  -1 175.578 6.84093  13
  -8  -1  -1 180.976 7.95960  18
   8   1   1 173.988 7.07527  12
   8   1   1 174.793 8.46889  34
  -7   2   1 55.8420 2.29796  13
   6  -2  -1 27.2863 2.32449  34
   6  -2  -1 32.3618 1.74147   1
   6  -2  -1 33.6361 2.09909  12
   6  -2  -1 31.2185 2.22600  10
   6  -2  -1 30.4621 1.98073  19
  -6   2   1 32.1156 2.06293  18
  -6   2   1 31.4776 1.62672  30
  -6   2   1 33.0543 1.54387  13
   5  -2  -1 179.259 6.36421   1
   5  -2  -1 157.772 8.51014  20
   5  -2  -1 172.700 6.91502  19
   5  -2  -1 164.266 7.32267  38
   5  -2  -1 179.913 7.26505  12
   5  -2  -1 169.895 8.60657  34
   5  -2  -1 181.234 7.28962  31
   5  -2  -1 175.558 8.47559  10
  -5   2   1 171.961 7.91832  28
  -5   2   1 183.629 7.24315  30
  -5   2   1 181.630 7.94888  22
  -5   2   1 177.101 6.88883  13
   4  -2  -1 618.762 23.0173  16
   4  -2  -1 559.926 27.5311  20
   4  -2  -1 644.068 27.3738  34
   4  -2  -1 643.504 20.2777   1
   4  -2  -1 631.012 22.9505  12
   4  -2  -1 613.088 27.4166  10
   4  -2  -1 592.537 23.8075  38
   4  -2  -1 628.309 22.0741  19
   4  -2  -1 633.411 23.7019  31
  -4   2   1 658.210 26.5956  22
  -4   2   1 561.843 23.3355  13
  -4   2   1 637.770 24.4514  30
  -4   2   1 634.605 26.2921  28
  -4   2   1 589.594 24.8376  37
  -4   2   1 629.047 25.8684  29
  -3   2   1 438.570 18.7890  22
  -3   2   1 454.406 18.5997  28
  -3   2   1 459.121 18.3041  29
  -3   2   1 433.332 17.5977  37
  -3   2   1 400.413 17.2691  30
  -3   2   1 439.793 17.7985   5
   2  -2  -1 159.978 7.78924  36
  -2   2   1 175.298 6.89799  37
  -2   2   1 178.097 9.14804  25
  -2   2   1 170.107 7.02434   5
  -2   2   1 169.337 7.14167  29
  -2   2   1 170.197 7.96405  24
  -2   2   1 164.602 7.24679  28
  -2   2   1 160.554 7.31183  22
   1  -2  -1 42.0140 2.55229  25
   1  -2  -1 43.7308 2.24003  24
   1  -2  -1 45.0292 2.22273  36
  -1   2   1 45.1822 2.02606  28
  -1   2   1 43.5309 2.27818  36
  -1   2   1 43.6952 2.55335  25
  -1   2   1 47.4581 1.95495  37
  -1   2   1 41.6163 2.23460  24
  -1   2   1 49.6137 2.26513  24
  -1   2   1 46.4430 2.00365  29
  -1   2   1 46.0789 2.02708   5
  -1   2   1 49.2859 2.61036  25
  -1   2   1 47.1654 2.24716  23
   0  -2  -1 2804.62 157.707  25
   0  -2  -1 2595.02 190.910  27
   0  -2  -1 2876.42 143.282  24
   0  -2  -1 2918.65 144.747  36
   0   2   1 2859.21 123.615  37
   0   2   1 2798.96 172.435   6
   0   2   1 2945.67 142.381  23
   0   2   1 2795.75 141.240  24
   0   2   1 2695.23 125.776   5
   0   2   1 2781.71 160.935  25
   0   2   1 3082.74 166.736  25
   0   2   1 2890.40 126.245  29
   0   2   1 2636.35 126.598  28
   0   2   1 2515.66 118.034   4
   0   2   1 2761.45 126.908  36
  -1  -2  -1 255.241 13.3331  25
  -1  -2  -1 241.536 10.3764   4
  -1  -2  -1 235.604 9.88903  37
  -1  -2  -1 226.369 14.8469  27
  -1  -2  -1 254.148 11.4771  24
  -1  -2  -1 240.552 11.3859  24
  -1  -2  -1 224.306 13.0611  25
  -1  -2  -1 234.475 11.3350  36
   1   2   1 243.339 9.88750  37
   1   2   1 244.369 11.3846  24
   1   2   1 253.815 11.1584  23
   1   2   1 246.493 10.0422   5
   1   2   1 241.384 11.3288  36
   1   2   1 239.148 10.2544  29
   1   2   1 246.167 11.3914  24
   1   2   1 252.416 13.0822  25
   1   2   1 250.832 10.4505   9
   1   2   1 245.292 13.0400  25
  -2  -2  -1 2538.14 102.520  29
  -2  -2  -1 2408.95 147.922  27
  -2  -2  -1 2678.63 114.013  24
  -2  -2  -1 2319.10 113.226  36
  -2  -2  -1 2230.87 130.460  25
  -2  -2  -1 2408.54 98.8228  37
  -2  -2  -1 2655.49 155.719  25
  -2  -2  -1 2590.44 103.350   4
   2   2   1 2653.52 113.859  24
   2   2   1 2630.67 103.512   9
   2   2   1 2422.01 102.624  29
   2   2   1 2499.45 99.0012  37
   2   2   1 2503.86 154.597  25
   2   2   1 2373.67 110.949  23
   2   2   1 2275.14 130.212  25
   2   2   1 2505.15 113.303  36
  -3  -2  -1 138.805 5.73950  37
  -3  -2  -1 134.673 5.90099  29
  -3  -2  -1 145.092 6.67549  24
  -3  -2  -1 134.838 6.63910  36
  -3  -2  -1 135.583 7.57529  25
  -3  -2  -1 139.777 5.99276   4
  -3  -2  -1 132.240 5.98252  28
   3   2   1 143.505 6.64472  24
   3   2   1 139.777 5.76468  37
   3   2   1 141.833 6.00266   9
   3   2   1 140.843 6.37956  35
   3   2   1 132.338 7.59996  25
   3   2   1 140.807 6.62284  36
   3   2   1 140.365 6.52060  23
  -4  -2  -1 1849.54 77.7094  22
  -4  -2  -1 1775.79 76.2671   4
  -4  -2  -1 1896.77 96.2821  25
  -4  -2  -1 1807.58 76.9929  28
  -4  -2  -1 1868.69 73.6763  37
  -4  -2  -1 1795.65 83.8789  24
  -4  -2  -1 1828.73 75.7711  29
  -4  -2  -1 1658.04 83.1866  36
   4   2   1 1914.60 72.3753  37
   4   2   1 1844.19 76.4323   9
   4   2   1 1739.90 82.7398  24
  -5  -2  -1 203.240 8.71275   5
  -5  -2  -1 221.691 8.48299  30
  -5  -2  -1 220.864 8.81062  37
  -5  -2  -1 193.979 9.12380   4
  -5  -2  -1 217.697 9.23965  22
  -5  -2  -1 208.616 9.14749  28
  -5  -2  -1 204.547 9.02046  29
  -5  -2  -1 196.354 10.1651  36
   5   2   1 219.017 10.1226  36
  -6  -2  -1 39.5218 1.93819  30
  -6  -2  -1 38.6836 1.84799  13
  -6  -2  -1 41.7082 2.18818   3
  -6  -2  -1 42.6303 2.20197  22
  -6  -2  -1 39.5913 2.24663  37
   6   2   1 40.7538 2.72258  20
   6   2   1 39.1902 2.27107   8
   6   2   1 43.8885 2.53349   2
   6   2   1 38.5784 2.14553  31
   6   2   1 37.4379 2.31202  12
  -7  -2  -1 63.9393 2.77434  13
  -7  -2  -1 67.0100 3.19614   3
  -7  -2  -1 63.2612 2.92920  30
   7   2   1 70.4318 3.29603   8
   7   2   1 59.6790 3.79170  20
   7   2   1 63.2670 3.08768  31
   7   2   1 68.5804 3.35091  12
   7   2   1 63.8785 3.98373  34
  -8  -2  -1 107.452 4.57985   3
  -8  -2  -1 103.872 4.21219  13
   8   2   1 106.538 5.54133  34
   8   2   1 107.846 4.64743  12
   6  -3  -1 138.782 4.91976   1
   6  -3  -1 126.689 6.61582  34
   6  -3  -1 132.091 5.34308  19
   6  -3  -1 140.385 6.57290  10
   6  -3  -1 127.503 5.60639  38
  -6   3   1 144.904 5.36995  13
  -6   3   1 135.047 5.63388  30
  -6   3   1 137.061 6.22437  18
   5  -3  -1 387.236 19.5750  20
   5  -3  -1 417.564 19.4811  34
   5  -3  -1 432.060 16.3837  12
   5  -3  -1 445.974 19.5142  10
   5  -3  -1 459.806 16.8331  31
   5  -3  -1 438.298 14.4793   1
   5  -3  -1 424.514 16.9224  38
   5  -3  -1 428.488 15.7336  19
  -5   3   1 433.302 18.7941  22
  -5   3   1 455.864 17.2697  30
  -5   3   1 410.230 18.7069  18
  -5   3   1 442.074 16.4699  13
   4  -3  -1 1019.24 36.5861  12
   4  -3  -1 982.152 36.7328  16
   4  -3  -1 998.713 37.8136  31
   4  -3  -1 955.587 38.0147  38
   4  -3  -1 994.166 43.7770  10
   4  -3  -1 1026.70 43.6029  34
   4  -3  -1 988.094 35.1805  19
   4  -3  -1 942.757 44.0247  20
   4  -3  -1 1027.75 32.2926   1
  -4   3   1 1018.67 39.2612  30
  -4   3   1 963.673 41.3940  29
  -4   3   1 1021.66 42.1224  28
  -4   3   1 1025.15 42.6368  22
   3  -3  -1 2.95207 0.77278  34
   3  -3  -1 3.70568 0.79556  38
   3  -3  -1 2.16129 0.46154  12
   3  -3  -1 3.68231 0.67412   1
   3  -3  -1 3.33053 0.78066  10
   3  -3  -1 1.70912 0.50980  16
   3  -3  -1 2.88891 0.74106  20
   3  -3  -1 1.93362 0.46183  19
  -3   3   1 2.29975 0.42744  29
  -3   3   1 1.99352 0.34222  30
  -3   3   1 2.56641 0.43552  37
  -3   3   1 1.38315 0.31782  28
  -3   3   1 1.70475 0.41201  22
  -2   3   1 18.9534 1.06279  29
  -2   3   1 20.4527 1.05717  37
  -2   3   1 19.0129 1.20972   5
  -2   3   1 19.6827 1.07580  28
  -2   3   1 18.4511 1.05314  22
  -2   3   1 19.4712 1.29201  23
  -1   3   1 59.3705 2.66286   5
  -1   3   1 61.9124 3.41824  25
  -1   3   1 60.0601 2.94949  24
  -1   3   1 59.8346 2.56033  37
  -1   3   1 56.4288 2.67096  22
  -1   3   1 60.7202 2.63824  29
  -1   3   1 59.3883 2.66611  28
  -1   3   1 59.7381 2.96053  23
   0  -3  -1 163.677 8.14161  36
   0  -3  -1 173.659 9.38593  25
   0  -3  -1 170.601 8.19747  24
   0   3   1 162.723 8.20521  24
   0   3   1 175.069 9.39385  25
   0   3   1 183.249 7.13170  37
   0   3   1 179.646 7.38135  29
   0   3   1 186.247 8.05177  23
   0   3   1 169.187 8.18964  36
   0   3   1 177.868 7.17087   5
   0   3   1 190.490 9.45234  25
   0   3   1 163.697 7.48900  28
  -1  -3  -1 89.0704 4.02852   4
  -1  -3  -1 89.9824 4.46245  36
  -1  -3  -1 105.760 5.78611   6
  -1  -3  -1 100.482 4.49115  24
  -1  -3  -1 89.4472 3.87176  37
   1   3   1 99.6709 4.37316  23
   1   3   1 88.7316 4.05127  28
   1   3   1 90.9962 4.46399  36
   1   3   1 92.1082 4.07095   9
   1   3   1 95.7768 3.84538   5
   1   3   1 97.4348 5.16688  25
   1   3   1 92.1107 5.10817  25
   1   3   1 94.0435 3.99793  29
   1   3   1 93.8480 4.47846  24
   1   3   1 92.2297 4.49092  24
   1   3   1 95.9359 3.88237  37
  -2  -3  -1 674.340 34.0770  25
  -2  -3  -1 614.320 29.0199  36
  -2  -3  -1 612.695 25.6392  37
  -2  -3  -1 673.270 38.8753  24
  -2  -3  -1 648.307 26.8255   4
   2   3   1 657.379 33.3654  25
   2   3   1 621.846 26.2545  29
   2   3   1 590.010 26.6313  28
   2   3   1 624.558 25.4036  37
   2   3   1 599.103 33.2893  25
   2   3   1 669.275 29.4112  24
   2   3   1 642.310 28.8126  23
   2   3   1 636.271 32.6037   9
   2   3   1 628.148 28.8897  36
  -3  -3  -1 383.267 15.8101   4
  -3  -3  -1 369.172 15.1134  37
  -3  -3  -1 359.061 19.9394  25
  -3  -3  -1 367.751 17.3664  36
  -3  -3  -1 357.613 15.6442  29
  -3  -3  -1 390.201 17.4636  24
   3   3   1 388.580 17.4491  24
   3   3   1 385.615 17.2337  35
   3   3   1 368.795 16.9764  23
   3   3   1 378.530 20.0254  25
   3   3   1 364.294 17.3439  36
   3   3   1 372.786 15.1371  37
   3   3   1 390.083 15.8131   9
  -4  -3  -1 2376.65 104.887  29
  -4  -3  -1 2620.76 105.833   4
  -4  -3  -1 2483.99 101.272  37
  -4  -3  -1 2508.37 116.281  24
  -4  -3  -1 2460.47 115.973  36
  -4  -3  -1 2437.89 131.863  25
   4   3   1 2568.50 115.809  36
   4   3   1 2626.85 105.759   9
   4   3   1 2604.96 100.966  37
   4   3   1 2460.97 115.427  24
  -5  -3  -1 441.448 19.8768   4
  -5  -3  -1 477.553 18.6055  30
  -5  -3  -1 457.677 21.9261  36
  -5  -3  -1 497.831 19.0786  37
   5   3   1 473.964 19.9544   9
  -6  -3  -1 133.705 5.11685  13
  -6  -3  -1 121.764 4.83998  15
  -6  -3  -1 121.545 6.72242  36
  -6  -3  -1 129.020 5.44684   3
  -6  -3  -1 128.741 5.73653  37
  -6  -3  -1 128.048 5.36360  30
   6   3   1 131.567 6.27915   2
   6   3   1 138.480 5.47316  12
   6   3   1 131.753 5.72744   8
   6   3   1 116.882 6.36021  20
   6   3   1 130.011 6.61318  36
  -7  -3  -1 2.47206 0.67102   3
  -7  -3  -1 3.66714 0.54232  13
   7   3   1 2.45463 0.68661   8
   7   3   1 1.45410 0.70452  20
  -8  -3  -1 156.608 6.29475   3
  -8  -3  -1 147.817 6.86789  18
   8   3   1 146.296 6.39188   8
   8   3   1 150.874 6.24329  12
   8   3   1 153.231 7.47076  34
  -9  -3  -1 42.2012 2.07989   3
   6  -4  -1 14.2428 1.36126  34
   6  -4  -1 18.2224 1.42636  10
   6  -4  -1 16.9790 1.09043   1
  -6   4   1 19.4710 0.92225  13
   5  -4  -1 367.848 17.6359  20
   5  -4  -1 369.611 17.4835  34
   5  -4  -1 388.840 15.2418  38
   5  -4  -1 390.339 14.1622  19
   5  -4  -1 398.362 13.0368   1
   5  -4  -1 367.312 14.6822  16
   5  -4  -1 413.426 17.5842  10
  -5   4   1 398.008 14.8079  13
  -5   4   1 391.391 15.5117  30
   4  -4  -1 1158.80 49.1820  10
   4  -4  -1 1117.50 36.2333   1
   4  -4  -1 1159.86 39.5302  19
   4  -4  -1 1111.47 42.7088  38
   4  -4  -1 1131.36 42.4242  31
   4  -4  -1 1081.61 49.4517  20
   4  -4  -1 1152.77 41.3004  16
   4  -4  -1 1165.88 48.9401  34
  -4   4   1 1126.43 44.1242  30
  -4   4   1 1005.82 42.1466  13
  -4   4   1 1091.49 47.2822  28
  -4   4   1 1153.79 47.9099  22
   3  -4  -1 12.2782 1.31480  34
   3  -4  -1 10.4828 1.44321  20
   3  -4  -1 11.1575 1.05764  31
   3  -4  -1 10.9795 1.17675  16
   3  -4  -1 11.4115 1.19979  38
   3  -4  -1 11.0931 1.13082  32
   3  -4  -1 13.3751 1.09019  19
   3  -4  -1 13.6970 1.13306  12
   3  -4  -1 12.7558 1.39466  10
   3  -4  -1 13.8158 1.10825   1
  -3   4   1 11.8174 0.78302  30
  -3   4   1 12.2338 0.90148  29
  -3   4   1 11.8530 0.92661  28
  -3   4   1 12.1829 0.90462  22
  -2   4   1 52.0149 2.26132  37
  -2   4   1 48.8658 2.72181  23
  -2   4   1 51.0401 2.47750   5
  -2   4   1 52.6883 2.35108  29
  -2   4   1 43.1779 2.11173  30
  -2   4   1 49.2873 2.35625  22
  -2   4   1 50.4375 2.36448  28
  -1   4   1 854.097 34.2248  29
  -1   4   1 815.646 36.1703  23
  -1   4   1 832.826 32.4673  37
  -1   4   1 773.352 36.9453  24
  -1   4   1 782.799 34.8558  22
  -1   4   1 802.532 32.3117   5
  -1   4   1 810.385 43.9187  28
   0   4   1 2.89844 0.34045  29
   0   4   1 2.90045 0.40061  24
   0   4   1 2.85350 0.34191  28
   0   4   1 3.68418 0.38443  37
   0   4   1 3.15510 0.40205   5
  -1  -4  -1 97.8454 4.76599  36
  -1  -4  -1 98.6841 4.79245  24
   1   4   1 99.2529 5.53027  25
   1   4   1 99.7635 4.16016  37
   1   4   1 101.803 4.27818  29
   1   4   1 108.387 4.71434  23
   1   4   1 96.1904 4.33100  28
   1   4   1 99.4306 4.11022   5
   1   4   1 100.751 4.39673   9
   1   4   1 94.2642 4.36117  22
   1   4   1 96.2379 4.79069  36
   1   4   1 100.506 4.79891  24
  -2  -4  -1 279.033 11.7970   4
  -2  -4  -1 298.823 13.0394  24
  -2  -4  -1 282.596 12.9600  36
  -2  -4  -1 279.507 11.2781  37
   2   4   1 280.907 14.9660  25
   2   4   1 282.888 11.6910  29
   2   4   1 275.992 12.9521  36
   2   4   1 280.988 11.2942  37
   2   4   1 283.591 11.8112   9
   2   4   1 254.980 11.9900  22
   2   4   1 275.441 11.1764   5
   2   4   1 271.197 11.8670  28
   2   4   1 274.401 13.0138  24
   2   4   1 275.719 12.6423  23
  -3  -4  -1 165.929 6.94937   4
  -3  -4  -1 161.820 7.69301  24
  -3  -4  -1 161.047 6.62627  37
  -3  -4  -1 166.576 7.68929  36
   3   4   1 159.101 6.64587  37
   3   4   1 153.268 6.82947  29
   3   4   1 142.202 6.91232  28
   3   4   1 156.000 7.43532  23
   3   4   1 163.160 8.85098  25
   3   4   1 156.000 7.64580  36
   3   4   1 159.299 6.91420   9
   3   4   1 167.842 7.70972  24
   3   4   1 157.673 7.49068  35
  -4  -4  -1 2095.20 84.4954   4
  -4  -4  -1 2060.90 80.9700  37
  -4  -4  -1 1907.14 91.4928  24
  -4  -4  -1 2039.06 92.6069  36
   4   4   1 1954.00 91.4868  24
   4   4   1 1996.21 80.5220  37
   4   4   1 2034.27 89.9150  23
   4   4   1 1917.28 91.7809  36
   4   4   1 2055.60 83.5794   9
  -5  -4  -1 914.608 39.5751   4
  -5  -4  -1 974.622 37.8840  37
  -5  -4  -1 928.480 43.4463  36
   5   4   1 952.350 37.8794  37
   5   4   1 924.812 39.5870   9
   5   4   1 984.250 43.3577  36
  -6  -4  -1 575.377 28.1933  36
  -6  -4  -1 622.142 20.7724  15
  -6  -4  -1 630.871 24.5424  37
  -6  -4  -1 599.223 23.1539   3
   6   4   1 602.188 24.2174   8
   6   4   1 595.235 28.1398  36
   6   4   1 605.236 22.4122  12
  -7  -4  -1 13.5929 1.37553   3
  -7  -4  -1 16.9143 1.25561  15
   7   4   1 14.8882 1.43462   8
   7   4   1 15.4200 1.56114  12
  -8  -4  -1 318.123 12.2053   3
   8   4   1 307.884 12.6503   8
   8   4   1 302.114 14.2053  34
   8   4   1 311.213 11.9120  12
  -9  -4  -1 68.9137 2.85902   3
   9   4   1 62.6778 3.36738  34
   9   4   1 63.3319 2.82483  12
   5  -5  -1 32.0872 2.10876  10
   5  -5  -1 27.7057 1.99251  34
   5  -5  -1 27.0611 1.57084   1
   5  -5  -1 28.6718 1.74675  38
   5  -5  -1 25.7134 1.99331  20
  -5   5   1 27.6060 1.48538  30
  -5   5   1 29.5221 1.38323  13
   4  -5  -1 525.704 17.1994   1
   4  -5  -1 533.721 19.5855  16
   4  -5  -1 536.254 18.7279  19
   4  -5  -1 511.943 23.3886  20
   4  -5  -1 514.778 20.2077  38
   4  -5  -1 541.151 23.2652  10
   4  -5  -1 523.501 23.1409  34
  -4   5   1 481.348 19.6622  13
  -4   5   1 504.270 22.3859  22
  -4   5   1 511.641 20.6072  30
   3  -5  -1 14.0011 1.38376  16
   3  -5  -1 15.5804 1.64185  20
   3  -5  -1 14.0887 1.22601  19
   3  -5  -1 13.5987 1.38842  38
   3  -5  -1 13.6317 1.55350  34
   3  -5  -1 12.9599 1.52304  10
   3  -5  -1 14.2591 1.13514   1
   3  -5  -1 12.2487 1.22958  32
  -3   5   1 15.1148 1.05113  28
  -3   5   1 14.1850 0.91477  30
  -3   5   1 13.4481 1.01483  22
   2  -5  -1 418.293 19.1114  10
   2  -5  -1 417.037 16.1162  16
   2  -5  -1 427.255 14.1136   1
   2  -5  -1 405.464 15.5897  32
   2  -5  -1 436.859 19.2707  20
   2  -5  -1 451.370 19.0791  34
   2  -5  -1 382.988 20.7070   7
   2  -5  -1 434.409 15.4045  19
   2  -5  -1 430.509 16.6534  38
  -2   5   1 443.356 18.1360  28
  -2   5   1 435.355 17.8361  29
  -2   5   1 448.880 18.3517  22
  -2   5   1 410.672 16.8660  30
  -1   5   1 13.4913 0.93909   5
  -1   5   1 13.7580 1.10926  23
  -1   5   1 14.0630 0.83001  37
  -1   5   1 14.5075 0.84252  28
  -1   5   1 11.8817 0.69652  30
  -1   5   1 13.9499 0.81251  22
  -1   5   1 14.0590 0.83315  29
   0   5   1 3320.98 134.481   9
   0   5   1 3182.47 127.486  37
   0   5   1 3265.68 134.837  28
   0   5   1 3010.49 127.883   5
   0   5   1 3337.02 132.700  29
   0   5   1 3337.93 143.758  23
   0   5   1 2920.32 146.163  24
   0   5   1 3230.80 136.381  22
  -1  -5  -1 15.1541 1.05705  36
   1   5   1 16.8397 1.02417   9
   1   5   1 17.0090 0.90179  29
   1   5   1 14.9901 0.91374  37
   1   5   1 14.1456 1.01053  24
   1   5   1 15.3706 0.88474  28
   1   5   1 16.6575 1.25652  25
   1   5   1 15.1198 0.85851  22
   1   5   1 17.3880 0.89162   5
  -2  -5  -1 1067.93 45.8838  36
   2   5   1 995.851 42.3110  28
   2   5   1 1027.01 52.9912  25
   2   5   1 962.835 45.8742  36
   2   5   1 1020.76 40.0948  37
   2   5   1 1007.68 46.1287  24
   2   5   1 1007.27 45.1972  23
   2   5   1 1015.94 41.9318  29
   2   5   1 978.818 43.0465  22
   2   5   1 1002.22 41.9580   9
  -3  -5  -1 80.9058 3.66384  37
  -3  -5  -1 88.5221 3.88956   4
  -3  -5  -1 83.0129 4.31307  24
  -3  -5  -1 87.5979 4.31314  36
   3   5   1 80.9684 3.84750   9
   3   5   1 81.2768 4.29888  36
   3   5   1 82.1604 4.14156  23
   3   5   1 86.3478 5.02382  25
   3   5   1 79.4953 3.82665  22
   3   5   1 86.3010 3.79416  29
   3   5   1 83.7070 4.32908  24
   3   5   1 85.2452 3.72654  37
   3   5   1 78.6859 3.80913  28
   3   5   1 82.5275 4.15076  35
  -4  -5  -1 213.634 9.05429  37
  -4  -5  -1 231.710 9.53428   4
  -4  -5  -1 216.090 10.4804  36
   4   5   1 209.912 10.1718  23
   4   5   1 220.814 9.46262   9
   4   5   1 216.180 9.09179  37
   4   5   1 215.756 10.4590  36
  -5  -5  -1 80.6037 4.47334  36
  -5  -5  -1 78.4985 3.22532  15
  -5  -5  -1 82.5616 3.78084  37
   5   5   1 79.8170 3.78320  37
   5   5   1 83.2886 4.37898  36
   5   5   1 78.7240 3.47230  12
   5   5   1 80.5095 3.90127   9
  -6  -5  -1 24.1222 1.61948   8
  -6  -5  -1 26.5930 1.62756  37
  -6  -5  -1 21.6271 1.51249   3
  -6  -5  -1 20.4556 1.89024  36
   6   5   1 23.1686 1.52767  12
   6   5   1 21.1200 1.45101   3
   6   5   1 21.8811 1.63070   8
  -7  -5  -1 -0.1533 0.53466   3
  -7  -5  -1 0.68705 0.36850  15
   7   5   1 1.52227 0.67221   8
   7   5   1 1.25279 0.64269  12
  -8  -5  -1 555.775 20.5077   3
  -8  -5  -1 513.053 18.2974  15
   8   5   1 530.695 19.8509  12
  -9  -5  -1 114.804 4.50514   3
   9   5   1 99.4445 4.55856   8
   9   5   1 112.681 4.43162  12
   9   5   1 111.901 5.28702  34
   4  -6  -1 10.5228 1.11303   1
   4  -6  -1 10.5163 1.33931  34
   4  -6  -1 10.5322 1.19289  16
   4  -6  -1 12.1901 1.46319  20
   4  -6  -1 9.01846 1.21402  38
   4  -6  -1 12.2362 1.46503  10
  -4   6   1 11.0704 0.78906  30
  -4   6   1 10.8558 0.75034  13
   3  -6  -1 80.5766 4.51608  34
   3  -6  -1 84.2273 4.60872  20
   3  -6  -1 87.4442 4.05073  38
   3  -6  -1 81.0889 3.77390  32
   3  -6  -1 81.6245 3.91213  16
   3  -6  -1 86.9983 4.55272  10
   3  -6  -1 83.7220 3.43441   1
  -3   6   1 83.1802 3.62241  30
  -3   6   1 82.6435 3.96515  22
   2  -6  -1 100.732 6.03181   7
   2  -6  -1 115.725 5.54442  34
   2  -6  -1 101.709 4.07571   1
   2  -6  -1 103.085 4.55245  32
   2  -6  -1 106.428 5.53445  20
   2  -6  -1 108.369 4.80588  38
   2  -6  -1 110.309 5.47156  10
   2  -6  -1 106.692 4.71681  16
  -2   6   1 108.326 4.90300  22
  -2   6   1 110.027 4.87556  28
  -2   6   1 106.061 4.47557  30
   1  -6  -1 122.076 7.19651   7
   1  -6  -1 132.856 4.84845   1
   1  -6  -1 138.152 6.54501  34
   1  -6  -1 131.189 5.57758  16
   1  -6  -1 130.435 5.40390  32
   1  -6  -1 121.647 5.43123  14
   1  -6  -1 137.317 6.59104  20
   1  -6  -1 132.824 5.66870  38
  -1   6   1 139.374 5.85913  29
  -1   6   1 155.573 6.01150  22
  -1   6   1 138.146 5.93399  28
  -1   6   1 128.253 5.45253  30
   0  -6  -1 724.047 24.9851  32
   0  -6  -1 585.689 33.3122   7
   0   6   1 642.669 31.2984  23
   0   6   1 705.044 27.7570  37
   0   6   1 742.475 28.8206  29
   0   6   1 733.710 29.6482  22
   0   6   1 677.896 27.3035  30
   0   6   1 750.989 29.3068  28
   1   6   1 255.823 10.2357  37
   1   6   1 248.720 10.8092  22
   1   6   1 259.118 10.5650  29
   1   6   1 236.495 9.93284  30
   1   6   1 256.299 10.7178  28
   1   6   1 243.750 10.7917   9
  -2  -6  -1 2060.68 92.4926  36
   2   6   1 2043.42 86.8026  22
   2   6   1 1881.28 79.6641  30
   2   6   1 2041.08 90.9874  23
   2   6   1 1965.34 84.3421   9
   2   6   1 2034.21 84.4556  29
   2   6   1 2070.06 85.8578  28
   2   6   1 2097.84 81.3217  37
  -3  -6  -1 468.462 19.6780  36
   3   6   1 378.707 19.1556  23
   3   6   1 394.991 19.6392  35
   3   6   1 425.019 18.2296  22
   3   6   1 428.956 17.9613   9
   3   6   1 433.639 17.7607  29
   3   6   1 414.687 19.7031  36
   3   6   1 425.172 18.0336  28
   3   6   1 427.836 16.7899  30
   3   6   1 432.752 17.1790  37
  -4  -6  -1 95.4953 4.16678   4
  -4  -6  -1 91.1993 4.60086  36
   4   6   1 84.9697 3.94599  37
   4   6   1 75.1925 4.32061  23
   4   6   1 82.2968 4.56114  36
   4   6   1 82.6106 4.05515   9
  -5  -6  -1 48.3036 2.39287   3
  -5  -6  -1 47.4846 2.54043   8
  -5  -6  -1 50.6479 2.23495  15
  -5  -6  -1 45.1750 2.29160  17
  -5  -6  -1 45.2601 2.51285  37
  -5  -6  -1 52.1494 3.07815  36
   5   6   1 53.2602 3.04559  36
   5   6   1 47.0278 2.54420  37
   5   6   1 50.3293 2.19287  19
   5   6   1 47.1013 2.63822   8
   5   6   1 47.5985 2.40675   3
   5   6   1 46.7042 2.31508  12
  -6  -6  -1 16.2295 1.29499  17
  -6  -6  -1 16.1766 1.27298   3
  -6  -6  -1 14.0256 1.64867  36
  -6  -6  -1 17.9956 1.30553  15
  -6  -6  -1 15.4479 1.35488   8
   6   6   1 15.0080 1.26012   3
   6   6   1 18.2809 1.49611   8
   6   6   1 14.1083 1.30389  37
   6   6   1 18.0411 1.40078  12
  -7  -6  -1 2.07567 0.54958   3
  -7  -6  -1 3.18778 0.67374   8
  -7  -6  -1 2.62497 0.50545  15
   7   6   1 1.80652 0.62818  12
  -8  -6  -1 253.440 9.05500  15
  -8  -6  -1 248.648 10.0781   3
   8   6   1 263.357 9.87806  12
   8   6   1 254.358 10.5691   8
  -9  -6  -1 103.568 4.33842   3
   9   6   1 109.474 4.26628  12
   9   6   1 105.993 5.07884  34
   9   6   1 101.461 4.44827   8
   4  -7  -1 20.4363 1.60641  20
   4  -7  -1 24.0906 1.44073  38
   4  -7  -1 21.0733 1.58129  34
   4  -7  -1 20.6614 1.47433  16
   4  -7  -1 23.5294 1.22709   1
  -4   7   1 21.6375 1.06575  13
   3  -7  -1 44.0798 2.84368  34
   3  -7  -1 48.6436 2.54708  38
   3  -7  -1 50.0056 2.84445  10
   3  -7  -1 44.9799 2.17837   1
   3  -7  -1 45.6259 2.51122  16
   3  -7  -1 49.5080 2.96676  20
  -3   7   1 47.2115 2.17762  30
  -3   7   1 46.2880 2.06565  13
   2  -7  -1 86.6087 5.27944   7
   2  -7  -1 92.7710 4.80089  34
   2  -7  -1 84.0410 4.09423  16
   2  -7  -1 89.2695 4.02376  32
   2  -7  -1 93.8796 4.17585  38
   2  -7  -1 90.8166 3.58932   1
   2  -7  -1 93.3172 4.85734  20
  -2   7   1 92.0659 3.85295  30
  -2   7   1 86.9250 4.18980  22
   1  -7  -1 75.2946 4.04467  20
   1  -7  -1 70.1459 3.41244  14
   1  -7  -1 74.0000 3.41253  32
   1  -7  -1 75.2295 4.01691  34
   1  -7  -1 69.9197 3.41541  38
   1  -7  -1 71.6213 3.49574  16
   1  -7  -1 76.9969 3.02447   1
   1  -7  -1 68.5517 4.51420   7
  -1   7   1 74.6992 3.47879  28
  -1   7   1 73.8746 3.46317  22
  -1   7   1 74.0750 3.15629  30
   0  -7  -1 266.531 9.22631   1
   0  -7  -1 281.688 10.5291  16
   0  -7  -1 274.709 12.4316  20
   0  -7  -1 270.454 10.1945  32
   0  -7  -1 266.009 11.9511  26
   0  -7  -1 247.751 13.3104  21
   0  -7  -1 256.724 13.5467   7
   0  -7  -1 274.894 12.3249  34
   0  -7  -1 255.354 10.2968  14
   0  -7  -1 272.961 10.6646  38
   0   7   1 282.789 11.7333  22
   0   7   1 277.220 11.4577  29
   0   7   1 273.451 10.7726  30
   0   7   1 271.038 11.6168  28
  -1  -7  -1 29.7248 1.60407  11
  -1  -7  -1 26.0833 2.12401  21
  -1  -7  -1 27.7521 2.19712   7
  -1  -7  -1 25.5409 1.90244  26
  -1  -7  -1 29.6742 1.92577  20
  -1  -7  -1 28.9153 1.91153  34
  -1  -7  -1 28.7834 1.67289  16
  -1  -7  -1 27.2151 1.67595  14
   1   7   1 28.8016 1.37279  30
   1   7   1 27.8434 1.55971  37
   1   7   1 29.9021 1.54324  22
   1   7   1 29.2020 1.58808  28
   1   7   1 28.9793 1.57631  29
  -2  -7  -1 1546.44 62.7030   8
  -2  -7  -1 1639.92 69.8215  20
  -2  -7  -1 1593.40 57.3781  14
  -2  -7  -1 1458.03 56.5724  17
  -2  -7  -1 1483.93 74.6166  21
  -2  -7  -1 1516.86 75.2401   7
  -2  -7  -1 1688.21 69.0940  34
  -2  -7  -1 1556.50 66.9268  26
   2   7   1 1696.41 68.5499  22
   2   7   1 1717.24 66.0596  29
   2   7   1 1678.70 63.6301  37
   2   7   1 1636.37 62.7122  30
  -3  -7  -1 373.477 19.7549  21
  -3  -7  -1 400.231 17.7990  26
  -3  -7  -1 420.180 18.3752  34
  -3  -7  -1 404.418 15.0081  17
  -3  -7  -1 409.810 15.2207  14
  -3  -7  -1 419.559 16.5586   8
   3   7   1 423.506 17.6633  28
   3   7   1 440.385 16.8719  37
   3   7   1 394.576 15.6542  13
   3   7   1 432.247 17.8507  22
   3   7   1 429.852 16.4284  30
   3   7   1 397.496 15.8540   3
  -4  -7  -1 279.856 10.0623  15
  -4  -7  -1 281.329 10.6237  17
  -4  -7  -1 318.149 13.6596  36
  -4  -7  -1 268.587 12.5218  26
  -4  -7  -1 280.023 11.7124   8
   4   7   1 275.670 10.9530  13
   4   7   1 286.588 13.7198  36
   4   7   1 292.453 11.5071  30
   4   7   1 294.334 11.9278  37
   4   7   1 283.438 11.2095   3
   4   7   1 280.074 10.8083  12
  -5  -7  -1 1.47541 0.49883  17
  -5  -7  -1 2.79290 0.87148  36
  -5  -7  -1 3.32129 0.72693   8
  -5  -7  -1 3.85463 0.53645  15
   5   7   1 2.59369 0.59000  19
   5   7   1 1.40826 0.55075  37
   5   7   1 2.71821 0.54946  12
   5   7   1 1.43443 0.66574  36
   5   7   1 2.26433 0.62913   3
  -6  -7  -1 890.246 35.2442   8
  -6  -7  -1 848.635 31.6275  17
  -6  -7  -1 937.922 30.2923  15
   6   7   1 874.231 31.1480  19
   6   7   1 891.641 33.6762   3
   6   7   1 850.107 35.2601   8
   6   7   1 916.841 32.5166  12
  -7  -7  -1 95.2566 4.24221   3
  -7  -7  -1 99.3227 3.92469  15
  -7  -7  -1 95.8808 4.54347   8
   7   7   1 90.2796 4.17681   3
   7   7   1 98.0541 4.58465   8
   7   7   1 99.3364 4.22750  12
  -8  -7  -1 5.24472 0.93321   8
  -8  -7  -1 6.32443 0.89574  15
  -8  -7  -1 5.18323 0.83865   3
   8   7   1 5.47795 1.01246   8
   9   7   1 2.26445 0.50509   8
   3  -8  -1 237.067 11.2150  34
   3  -8  -1 251.258 11.3909  20
   3  -8  -1 243.762 8.35528   1
   3  -8  -1 261.418 9.81518  38
   3  -8  -1 258.070 9.59953  16
  -3   8   1 244.272 9.52689  13
   2  -8  -1 491.858 21.8747  34
   2  -8  -1 495.244 18.6020  16
   2  -8  -1 496.824 19.0307  38
   2  -8  -1 519.505 23.9830   7
   2  -8  -1 499.758 22.1215  20
   2  -8  -1 473.009 16.1862   1
  -2   8   1 493.427 19.5605  30
  -2   8   1 477.504 18.6707  13
   1  -8  -1 13.1452 1.21431  38
   1  -8  -1 13.6359 1.41051  14
   1  -8  -1 13.5867 1.81985   7
   1  -8  -1 14.2324 1.52146  34
   1  -8  -1 13.6795 1.41170  16
   1  -8  -1 13.2992 1.10271   1
   1  -8  -1 12.9596 1.49361  20
  -1   8   1 13.3215 0.99579  22
  -1   8   1 15.2362 0.92166  30
   0  -8  -1 32.6771 2.21464  20
   0  -8  -1 33.5943 2.04627  14
   0  -8  -1 30.1083 1.94238  16
   0  -8  -1 29.7043 2.64970   7
   0  -8  -1 31.6047 1.84036  38
   0  -8  -1 34.2007 2.30472  34
   0   8   1 32.5053 1.58757  30
   0   8   1 30.2415 1.79055  28
   0   8   1 32.5064 1.76974  22
  -1  -8  -1 18.5489 1.98415  21
  -1  -8  -1 23.4290 1.53133  16
  -1  -8  -1 22.6772 1.72230  20
  -1  -8  -1 19.3878 1.93281   7
  -1  -8  -1 20.6424 1.71109  34
  -1  -8  -1 21.6860 1.53674  14
  -1  -8  -1 21.0655 1.73347  26
   1   8   1 21.3194 1.16368  30
   1   8   1 20.0854 1.33454  29
   1   8   1 21.1685 1.30755  22
   1   8   1 19.9250 1.35067  28
  -2  -8  -1 423.180 15.0974  11
  -2  -8  -1 409.689 16.8517   8
  -2  -8  -1 407.665 18.9578  20
  -2  -8  -1 441.238 18.9067  34
  -2  -8  -1 398.324 20.4333  21
  -2  -8  -1 432.162 15.4428  17
  -2  -8  -1 419.903 18.3819  26
  -2  -8  -1 391.920 20.5620   7
  -2  -8  -1 467.312 15.8265  14
  -2  -8  -1 413.139 15.8933  16
   2   8   1 405.250 17.8247  29
   2   8   1 450.901 18.3101  22
   2   8   1 442.790 16.8374  30
   2   8   1 424.366 17.2393  37
   2   8   1 407.005 16.0523  13
   2   8   1 414.185 16.2967   3
   2   8   1 433.020 18.1194  28
  -3  -8  -1 107.255 4.74982   8
  -3  -8  -1 117.142 5.53361  34
  -3  -8  -1 116.405 4.54275  17
  -3  -8  -1 104.667 5.32449  26
  -3  -8  -1 108.251 4.55508  14
  -3  -8  -1 100.530 5.87465  21
   3   8   1 102.629 4.59113   3
   3   8   1 105.454 4.97006  29
   3   8   1 109.589 5.03639  22
   3   8   1 102.895 4.34874  13
   3   8   1 106.107 4.89446  37
   3   8   1 105.584 5.02700  28
   3   8   1 112.604 4.61372  30
  -4  -8  -1 109.957 5.04208   8
  -4  -8  -1 112.606 4.70459  17
  -4  -8  -1 110.264 6.09417  21
  -4  -8  -1 125.340 5.61562  26
   4   8   1 114.538 4.73567  12
   4   8   1 114.433 4.82627  30
   4   8   1 109.334 4.84587   3
   4   8   1 111.178 4.57427  13
   4   8   1 110.097 5.15382  37
  -5  -8  -1 53.4038 2.77063  17
  -5  -8  -1 53.6895 3.16156  26
  -5  -8  -1 53.3361 2.55417  15
  -5  -8  -1 60.6660 2.98409   8
   5   8   1 59.7840 2.85488   3
   5   8   1 59.5036 2.79130  12
  -6  -8  -1 1010.05 40.6061   8
  -6  -8  -1 1032.11 36.5454  17
  -6  -8  -1 1044.52 34.8995  15
   6   8   1 985.916 35.9266  19
   6   8   1 1035.84 37.4709  12
   6   8   1 1049.49 38.8674   3
  -7  -8  -1 363.396 12.1364  15
  -7  -8  -1 346.013 14.1030   8
  -7  -8  -1 338.966 12.5930  17
   7   8   1 339.574 12.9940  12
   7   8   1 340.484 13.3801   3
   7   8   1 334.577 14.1034   8
  -8  -8  -1 210.696 9.54159   8
  -8  -8  -1 240.459 8.22659  15
   8   8   1 249.316 8.90382  12
   8   8   1 225.193 9.55577   8
   2  -9  -1 712.058 31.1132  20
   2  -9  -1 649.263 30.7253  34
   2  -9  -1 745.338 26.0950  16
   2  -9  -1 744.420 33.6161   7
   2  -9  -1 697.538 26.7507  38
  -2   9   1 693.006 26.5743  13
   1  -9  -1 7.39713 1.38239   7
   1  -9  -1 5.07599 0.87465  38
   1  -9  -1 5.92740 1.08939  34
   1  -9  -1 6.32767 1.16360  20
  -1   9   1 6.48766 0.57603  13
  -1   9   1 6.14823 0.59794  30
   0  -9  -1 440.833 18.9784  20
   0  -9  -1 406.135 20.3017  21
   0  -9  -1 421.107 15.9555  16
   0  -9  -1 416.768 18.7905  34
   0  -9  -1 440.770 15.7548  14
   0  -9  -1 405.197 20.5974   7
   0   9   1 415.434 15.9649  13
   0   9   1 399.340 18.1580  22
   0   9   1 431.849 16.7322  30
  -1  -9  -1 40.7135 2.56097  20
  -1  -9  -1 39.2004 2.57954  34
  -1  -9  -1 38.9603 2.29312  14
  -1  -9  -1 39.6729 2.99795   7
  -1  -9  -1 40.9952 2.25503  16
  -1  -9  -1 38.8538 2.95090  21
  -1  -9  -1 40.5028 2.62820  26
   1   9   1 38.6142 1.92640  30
   1   9   1 40.0567 2.15566  22
   1   9   1 38.3993 1.82763  13
  -2  -9  -1 5.38243 1.24720  26
  -2  -9  -1 5.12199 0.91816  20
  -2  -9  -1 5.73282 1.22492   7
  -2  -9  -1 4.11872 0.85924  16
  -2  -9  -1 3.24461 1.05852  21
   2   9   1 2.93550 0.59130  30
   2   9   1 3.83648 0.78707  28
   2   9   1 3.82272 0.68743  22
  -3  -9  -1 102.814 5.10639  26
  -3  -9  -1 100.557 4.25040  17
  -3  -9  -1 95.2584 5.61812  21
  -3  -9  -1 92.1941 5.54852   7
  -3  -9  -1 105.143 4.27071  11
  -3  -9  -1 102.888 5.20188  34
  -3  -9  -1 107.334 4.42448   8
   3   9   1 93.6755 4.73470  28
   3   9   1 95.8198 4.08221  13
   3   9   1 100.214 4.32042  30
   3   9   1 100.678 4.37081   3
   3   9   1 98.4295 4.73548  22
  -4  -9  -1 37.8144 2.13907   8
  -4  -9  -1 41.8165 2.20316  17
  -4  -9  -1 39.9178 2.57723  26
  -4  -9  -1 36.0473 2.73381  21
  -4  -9  -1 39.2475 2.18527  11
   4   9   1 38.3327 2.16205   3
   4   9   1 38.2282 2.10276  12
   4   9   1 37.7900 1.95571  30
   4   9   1 39.7229 1.85806  13
  -5  -9  -1 1.42261 0.63869  26
  -5  -9  -1 1.47119 0.55923  17
  -5  -9  -1 1.52538 0.44667  15
  -5  -9  -1 2.55095 0.63105   8
   5   9   1 3.15360 0.74241  12
  -6  -9  -1 1065.40 37.4409  11
  -6  -9  -1 1070.96 42.6536   8
  -6  -9  -1 1082.72 38.4246  17
  -6  -9  -1 1094.38 36.6549  15
   6   9   1 1055.04 37.7841  19
   6   9   1 1090.69 40.8649   3
   6   9   1 1107.56 39.3902  12
  -7  -9  -1 396.608 16.7365   8
  -7  -9  -1 393.554 14.6181  11
  -7  -9  -1 422.888 15.0669  17
  -7  -9  -1 426.926 14.4132  15
   7   9   1 433.508 15.4939  12
   7   9   1 417.796 15.9873   3
  -8  -9  -1 149.124 5.13706  15
  -8  -9  -1 124.377 5.91290   8
   8   9   1 149.430 5.54072  12
   1 -10  -1 8.20539 0.88971  34
   1 -10  -1 10.2441 0.96348  20
   1 -10  -1 9.83818 1.22073   7
   1 -10  -1 7.18246 0.84014  16
  -1  10   1 9.87622 0.62619  13
   0 -10  -1 407.832 20.3971   7
   0 -10  -1 411.089 15.7827  16
   0 -10  -1 419.403 18.6457  34
   0 -10  -1 432.708 18.8220  20
   0  10   1 421.388 16.7288  30
   0  10   1 430.768 15.9761  13
  -1 -10  -1 6.66663 1.44733  21
  -1 -10  -1 7.49086 1.15609  34
  -1 -10  -1 6.38007 1.09280  20
  -1 -10  -1 5.60030 1.30582   7
  -1 -10  -1 7.05044 1.01129  16
  -1 -10  -1 6.64940 1.13284  26
   1  10   1 6.64946 0.65627  13
   1  10   1 5.47239 0.65606  30
  -2 -10  -1 154.080 6.63653  26
  -2 -10  -1 133.901 7.26598  21
  -2 -10  -1 131.268 7.29170   7
  -2 -10  -1 131.430 5.56349  16
  -2 -10  -1 135.833 6.64470  34
  -2 -10  -1 136.673 5.29552  11
   2  10   1 134.145 5.70650  30
   2  10   1 133.030 5.41813  13
   2  10   1 130.169 6.22290  22
  -3 -10  -1 2.72288 0.66277  11
  -3 -10  -1 3.61029 1.05665  21
  -3 -10  -1 2.40901 0.60013  17
  -3 -10  -1 3.11519 0.91280   7
  -3 -10  -1 3.61642 0.89289  26
   3  10   1 3.42463 0.67581  22
   3  10   1 3.56135 0.61128  30
   3  10   1 5.34339 0.92697   3
   3  10   1 3.28424 0.60975  13
  -4 -10  -1 316.662 11.6077  17
  -4 -10  -1 310.312 15.2855  21
  -4 -10  -1 313.605 11.3580  11
  -4 -10  -1 314.068 13.7589  26
  -4 -10  -1 330.945 12.5960   8
   4  10   1 315.222 12.2282   3
   4  10   1 306.166 11.9468  13
   4  10   1 287.053 12.5791  30
   4  10   1 309.066 11.7955  12
  -5 -10  -1 80.4761 3.42751  11
  -5 -10  -1 78.0434 4.03372  26
  -5 -10  -1 78.8811 3.62869   8
  -5 -10  -1 80.2339 3.49814  17
   5  10   1 77.5853 3.46498  12
   5  10   1 76.5814 3.56341   3
  -6 -10  -1 139.093 4.86522  15
  -6 -10  -1 125.534 5.58885   8
  -6 -10  -1 123.599 5.00815  11
  -6 -10  -1 134.605 5.18032  17
   6  10   1 129.461 5.23366  12
   6  10   1 126.249 5.38738   3
   6  10   1 126.995 4.93522  19
  -7 -10  -1 212.732 7.71893  17
  -7 -10  -1 202.100 7.48059  11
  -7 -10  -1 212.802 7.36210  15
  -7 -10  -1 205.565 8.52544   8
   7  10   1 205.503 7.89941  12
   7  10   1 202.824 8.13795   3
  -1 -11  -1 45.0476 2.92960   7
  -1 -11  -1 46.9491 2.22338  16
  -1 -11  -1 52.7244 2.96230  21
  -1 -11  -1 48.8802 2.67814  34
   1  11   1 47.4664 2.07539  13
  -2 -11  -1 210.953 10.0472  34
  -2 -11  -1 232.847 9.84262  26
  -2 -11  -1 205.983 10.9772   7
  -2 -11  -1 226.421 10.9933  21
   2  11   1 229.216 8.55386  13
  -3 -11  -1 9.73429 1.29322  21
  -3 -11  -1 10.5504 1.00499  11
  -3 -11  -1 11.5593 1.26817  26
   3  11   1 9.33357 0.75299  30
   3  11   1 9.31865 0.76573  13
   3  11   1 8.06969 1.12116  12
  -4 -11  -1 714.254 34.6257  21
  -4 -11  -1 746.225 26.2320  17
  -4 -11  -1 739.194 25.6088  11
  -4 -11  -1 762.393 31.1196  26
   4  11   1 733.227 27.6849  13
   4  11   1 733.706 26.8752  12
   4  11   1 719.885 27.8594   3
  -5 -11  -1 164.012 7.78259  26
  -5 -11  -1 181.795 6.65476  17
  -5 -11  -1 172.208 6.48664  11
   5  11   1 170.159 6.73766  12
   5  11   1 178.518 6.98822   3
   5  11   1 177.230 6.43935  19
  -6 -11  -1 27.9533 1.39092   8
  -6 -11  -1 27.0001 1.44069  17
  -6 -11  -1 24.4235 1.36220  11
   6  11   1 22.6813 1.39592  12
   6  11   1 26.5892 1.45423   3
   6  11   1 21.6665 1.28619  19
   5  11  -2 22.7848 1.28304   3
   5  11  -2 21.9452 1.25983  19
  -5 -11   2 18.5771 1.11026  11
  -5 -11   2 20.3701 1.19071  33
  -5 -11   2 23.3199 1.30815  17
   4  11  -2 218.797 8.12612  19
   4  11  -2 208.551 8.65830   3
   4  11  -2 222.523 8.52256  13
  -4 -11   2 238.354 8.30641  17
  -4 -11   2 209.104 7.87071  33
  -4 -11   2 233.487 8.09670  11
   3  11  -2 31.3177 1.42938  13
   3  11  -2 28.6355 1.50812  30
  -3 -11   2 27.5801 1.56664  16
  -3 -11   2 28.0602 1.56592  11
  -3 -11   2 26.8972 1.98607  21
  -3 -11   2 28.1907 1.60827  17
   2  11  -2 169.700 6.45452  13
   2  11  -2 164.159 6.76807  30
  -2 -11   2 162.439 6.15220  11
  -2 -11   2 164.940 8.31632  21
  -2 -11   2 169.080 8.37702   7
  -2 -11   2 156.823 6.46056  16
   1  11  -2 161.077 6.16696  13
  -1 -11   2 150.672 7.31263  34
  -1 -11   2 160.489 5.83544  11
  -1 -11   2 163.344 6.26957  16
  -1 -11   2 151.752 7.95276  21
  -1 -11   2 159.195 8.03807   7
   0 -11   2 491.622 22.9066  34
   0 -11   2 558.419 24.9796   7
   0 -11   2 543.275 19.3494  16
   0 -11   2 499.422 24.7561  21
   6  10  -2 10.3007 0.96750  19
   6  10  -2 10.7386 1.03692   3
  -6 -10   2 11.1875 0.89423  17
  -6 -10   2 13.4283 0.98783  33
  -6 -10   2 10.7681 0.89388   8
  -6 -10   2 13.2616 0.97805  15
   5  10  -2 47.3714 2.16932  19
   5  10  -2 44.7445 2.26876   3
  -5 -10   2 43.4745 2.17992  17
  -5 -10   2 42.1774 2.13797   8
  -5 -10   2 42.1339 2.08531  11
  -5 -10   2 44.7586 2.10621  33
  -5 -10   2 45.0774 2.09391  15
   4  10  -2 1.57000 0.57158  12
   4  10  -2 0.86932 0.49335   3
   4  10  -2 2.21811 0.66618  19
  -4 -10   2 2.07069 0.59721  33
  -4 -10   2 2.19866 0.45077  15
  -4 -10   2 1.01016 0.50522  17
  -4 -10   2 0.97542 0.50979  11
   3  10  -2 5.13497 0.69002  13
   3  10  -2 5.25334 0.70432  30
   3  10  -2 5.35285 0.79512  22
   3  10  -2 6.51354 1.03661  12
  -3 -10   2 5.52267 0.95348  16
  -3 -10   2 5.14446 1.14897  21
  -3 -10   2 4.81161 0.75097  11
  -3 -10   2 5.47696 1.05378  17
  -3 -10   2 3.67356 0.65743  33
   2  10  -2 182.773 7.45567  30
   2  10  -2 180.500 7.23196  12
   2  10  -2 166.815 8.09137  22
   2  10  -2 178.807 7.09884  13
  -2 -10   2 184.790 6.87996  11
  -2 -10   2 182.219 9.32126   7
  -2 -10   2 178.739 7.21883  16
  -2 -10   2 186.254 6.99170  17
  -2 -10   2 186.995 9.28361  21
  -2 -10   2 176.400 8.50100  34
   1  10  -2 718.773 28.1501  30
   1  10  -2 689.135 26.8976  13
  -1 -10   2 678.609 26.3757  16
  -1 -10   2 695.168 31.1712  34
  -1 -10   2 726.987 33.7806  21
  -1 -10   2 761.016 24.9203  11
  -1 -10   2 716.409 34.0779   7
   0  10  -2 1150.44 46.2160  30
   0 -10   2 1218.84 55.1435  21
   0 -10   2 1168.63 55.6530   7
   0 -10   2 1202.54 51.0119  34
   0 -10   2 1146.40 43.1054  16
   1 -10   2 10.5250 1.32866   7
   1 -10   2 9.87556 1.21697  21
   1 -10   2 7.91605 0.97953  16
   1 -10   2 8.15652 1.01591  34
   7   9  -2 126.363 4.88222  19
   7   9  -2 122.609 5.16671   3
  -7  -9   2 130.269 4.74906  33
  -7  -9   2 134.965 4.73994  15
  -7  -9   2 130.122 5.46788   8
   6   9  -2 310.811 11.2632  19
   6   9  -2 320.062 12.1057   3
   6   9  -2 294.738 11.6257  12
  -6  -9   2 303.802 10.9560  33
  -6  -9   2 292.896 11.3256  17
  -6  -9   2 329.913 12.6748   8
  -6  -9   2 317.404 10.9182  15
   5   9  -2 444.195 17.0817   3
   5   9  -2 438.848 15.8224  19
   5   9  -2 416.278 16.3715  12
  -5  -9   2 457.229 17.7771   8
  -5  -9   2 424.805 15.5911  11
  -5  -9   2 456.448 15.3679  15
  -5  -9   2 449.801 15.4613  33
  -5  -9   2 439.792 16.0481  17
   4   9  -2 140.469 5.38468  19
   4   9  -2 136.941 5.51120  12
   4   9  -2 127.769 5.70811  30
   4   9  -2 133.869 5.73192   3
   4   9  -2 139.880 5.45349  13
  -4  -9   2 134.906 5.29134  33
  -4  -9   2 131.228 5.20240  15
  -4  -9   2 136.104 5.50624  17
  -4  -9   2 134.659 5.33936  11
  -4  -9   2 141.561 5.87642   8
   3   9  -2 9.21604 1.08022   3
   3   9  -2 12.0732 0.92220  30
   3   9  -2 10.0701 1.15609  12
   3   9  -2 11.1358 0.87818  13
   3   9  -2 10.4264 0.97366  22
  -3  -9   2 9.48576 1.24928  17
  -3  -9   2 8.98241 1.36012  26
  -3  -9   2 8.40300 1.34193  21
  -3  -9   2 8.90932 1.07868  16
  -3  -9   2 10.0493 1.14766  15
  -3  -9   2 9.98934 1.17402  11
  -3  -9   2 11.6258 1.10297  33
   2   9  -2 59.5635 2.63840  30
   2   9  -2 58.3774 2.90961  22
   2   9  -2 54.9710 2.47725  13
  -2  -9   2 55.9619 3.28532  26
  -2  -9   2 49.6783 3.17958  34
  -2  -9   2 57.3296 2.73800  17
  -2  -9   2 57.2182 2.61724  33
  -2  -9   2 65.9994 2.80415  11
  -2  -9   2 51.0841 2.76623  16
  -2  -9   2 50.8571 3.53486   7
  -2  -9   2 54.2140 3.54263  21
   1   9  -2 15.3062 1.02145  30
   1   9  -2 15.7455 1.13993  22
  -1  -9   2 16.5726 1.83794  21
  -1  -9   2 17.3212 1.56727  34
  -1  -9   2 15.4252 1.33843  11
  -1  -9   2 15.8172 1.43727  16
  -1  -9   2 14.8500 1.22445  17
  -1  -9   2 16.6923 1.65364  26
  -1  -9   2 17.1780 1.84552   7
   0   9  -2 345.968 14.2558  30
   0   9  -2 351.205 15.5079  22
   0  -9   2 380.372 12.8593  11
   0  -9   2 362.129 13.7736  16
   0  -9   2 366.961 17.5434  21
   0  -9   2 354.554 17.7229   7
   0  -9   2 354.985 16.1305  34
   0  -9   2 347.386 11.9774   1
   1  -9   2 152.167 7.57259  21
   1  -9   2 144.333 6.02256  16
   1  -9   2 140.890 5.23112   1
   1  -9   2 145.532 7.73599   7
   1  -9   2 140.680 6.99137  34
   1  -9   2 141.021 6.90351  20
   2  -9   2 216.968 9.91451  34
   2  -9   2 215.087 7.40577   1
   2  -9   2 220.143 10.8531   7
   2  -9   2 220.777 8.47755  16
   2  -9   2 202.233 9.86276  20
   3  -9   2 48.9757 2.14899   1
   7   8  -2 63.6989 2.90618   3
   7   8  -2 65.8997 2.90787  12
   7   8  -2 70.4465 2.85776  19
  -7  -8   2 62.2311 3.12747   8
  -7  -8   2 66.4703 2.70581  15
   6   8  -2 41.2032 2.10984  19
   6   8  -2 36.4694 2.05169  12
  -6  -8   2 35.8688 2.01132  15
  -6  -8   2 39.7018 2.25193   8
   5   8  -2 295.747 11.7782  12
   5   8  -2 313.158 12.2806   3
   5   8  -2 318.749 11.4183  19
  -5  -8   2 324.367 11.1028  15
  -5  -8   2 309.333 12.8165   8
  -5  -8   2 303.518 11.5200  17
   4   8  -2 638.695 24.6511   3
   4   8  -2 649.885 24.3845  13
   4   8  -2 666.747 22.8795  19
   4   8  -2 630.180 25.5362  30
   4   8  -2 600.488 23.6642  12
  -4  -8   2 659.888 22.1924  15
  -4  -8   2 635.359 22.6006  11
  -4  -8   2 641.742 23.2052  17
  -4  -8   2 672.650 25.6989   8
   3   8  -2 200.673 9.88887  29
   3   8  -2 228.642 10.1080  28
   3   8  -2 236.405 10.2010  22
   3   8  -2 223.492 8.79675  12
   3   8  -2 231.613 8.91560  13
   3   8  -2 225.594 9.13944   3
   3   8  -2 249.123 9.38787  30
   3   8  -2 210.685 9.62767  37
  -3  -8   2 231.463 8.39340  33
  -3  -8   2 232.359 10.3177  26
  -3  -8   2 233.641 8.53209  11
  -3  -8   2 235.223 9.44757   8
  -3  -8   2 231.041 8.95845  16
  -3  -8   2 235.437 8.31044  15
  -3  -8   2 236.297 8.74875  17
  -3  -8   2 218.062 11.3603  21
   2   8  -2 637.982 27.0077  29
   2   8  -2 670.772 27.8153  22
   2   8  -2 670.873 25.6070  30
   2   8  -2 610.376 24.4252  13
   2   8  -2 682.407 27.4970  28
  -2  -8   2 663.253 23.3063  17
  -2  -8   2 666.926 22.3429  33
  -2  -8   2 645.923 22.1933  15
  -2  -8   2 641.647 28.4066  34
  -2  -8   2 649.259 24.0495  16
  -2  -8   2 594.999 30.9168   7
  -2  -8   2 619.359 30.7098  21
  -2  -8   2 631.035 22.7223  11
  -2  -8   2 667.501 27.6307  26
   1   8  -2 110.964 5.01857  28
   1   8  -2 104.825 4.91061  29
   1   8  -2 109.354 4.57089  30
   1   8  -2 113.223 5.02595  22
  -1  -8   2 112.723 4.77778  16
  -1  -8   2 102.358 6.01836   7
  -1  -8   2 104.596 5.42587  34
  -1  -8   2 112.687 4.30686  33
  -1  -8   2 110.396 5.41033  26
  -1  -8   2 106.363 5.98892  21
  -1  -8   2 109.144 4.48740  17
  -1  -8   2 112.482 4.46851  11
  -1  -8   2 108.224 4.09145   1
   0   8  -2 214.975 9.47667  22
   0   8  -2 208.933 9.40276  28
   0  -8   2 214.268 10.0733  34
   0  -8   2 214.615 7.52827   1
   0  -8   2 200.725 11.0920   7
   0  -8   2 223.505 9.86159  26
   0  -8   2 218.700 11.0338  21
   0  -8   2 232.116 8.73661  16
   0  -8   2 221.290 8.04889  11
  -1   8  -2 18.8068 1.08171  22
   1  -8   2 17.0542 1.81379  21
   1  -8   2 18.2054 1.55857  20
   1  -8   2 19.3318 1.36103   1
   1  -8   2 18.3982 1.48851  16
   1  -8   2 18.3768 1.98204   7
   1  -8   2 21.4663 1.72854  34
  -2   8  -2 81.3176 3.99264  22
   2  -8   2 88.8879 5.18793   7
   2  -8   2 93.7804 4.69633  20
   2  -8   2 90.7579 3.58381   1
   2  -8   2 84.0175 4.02928  16
   2  -8   2 97.1071 4.76469  34
   3  -8   2 7.45572 1.04549  16
   3  -8   2 6.57175 0.93989   1
   3  -8   2 5.42567 0.90188  38
   3  -8   2 6.82931 1.20714  34
   4  -8   2 299.342 10.0943   1
   4  -8   2 304.136 13.5688  34
   7   7  -2 12.3931 1.22318  12
   7   7  -2 11.4160 1.03147   3
   7   7  -2 13.4848 1.26647   8
   7   7  -2 14.3668 1.27578  19
  -7  -7   2 14.0828 1.25553   8
  -7  -7   2 12.2700 1.01366  15
   6   7  -2 2.15510 0.69175  19
   6   7  -2 2.07677 0.56168   3
   6   7  -2 2.00913 0.58331  12
  -6  -7   2 2.77509 0.62360   8
  -6  -7   2 1.78852 0.45314  15
   5   7  -2 197.855 7.33002  19
   5   7  -2 194.303 7.84349   3
   5   7  -2 183.252 7.53060  12
  -5  -7   2 181.665 7.30120  17
  -5  -7   2 200.212 7.10954  15
  -5  -7   2 189.268 8.20746   8
   4   7  -2 259.960 9.68812  13
   4   7  -2 253.152 10.1615  30
   4   7  -2 254.084 9.25680  19
   4   7  -2 230.834 12.2710  36
   4   7  -2 263.092 9.99970   3
   4   7  -2 236.085 9.53609  12
  -4  -7   2 250.788 8.99377  15
  -4  -7   2 236.624 9.11864  11
  -4  -7   2 266.852 10.4518   8
  -4  -7   2 246.060 9.40549  17
   3   7  -2 266.396 11.9617  29
   3   7  -2 285.929 12.2951  22
   3   7  -2 284.857 11.6636  37
   3   7  -2 283.102 10.7772  13
   3   7  -2 278.852 10.9980   3
   3   7  -2 288.770 12.1883  28
   3   7  -2 267.772 10.5646  12
   3   7  -2 302.216 11.3261  30
  -3  -7   2 279.699 10.4320  17
  -3  -7   2 279.717 10.1760  11
  -3  -7   2 266.179 12.2711  26
  -3  -7   2 268.135 10.6954  16
  -3  -7   2 287.717 11.4484   8
  -3  -7   2 274.631 9.93288  15
   2   7  -2 1427.65 57.3286  22
   2   7  -2 1429.54 55.6473  29
   2   7  -2 1435.33 56.6037  28
   2   7  -2 1396.79 52.8380  30
   2   7  -2 1338.79 53.5726  37
  -2  -7   2 1361.02 45.6689  33
  -2  -7   2 1263.33 62.8431  21
  -2  -7   2 1316.56 45.4237  15
  -2  -7   2 1302.97 46.4236  11
  -2  -7   2 1250.23 63.3518   7
  -2  -7   2 1374.12 52.7046   8
  -2  -7   2 1318.90 49.1494  16
  -2  -7   2 1359.14 56.4084  26
  -2  -7   2 1297.68 47.6041  17
  -2  -7   2 1322.94 58.1667  34
   1   7  -2 10.0115 0.78542  29
   1   7  -2 9.87460 0.63878  30
   1   7  -2 10.0261 0.75772  22
   1   7  -2 10.3394 0.82107  28
  -1  -7   2 9.67569 0.92519  17
  -1  -7   2 9.55630 1.25779   7
  -1  -7   2 8.84613 1.22215  21
  -1  -7   2 9.57915 1.03270  16
  -1  -7   2 10.6532 1.15179  26
  -1  -7   2 8.77539 0.93523  11
  -1  -7   2 9.86807 0.92472  33
  -1  -7   2 10.8806 0.90146   1
   0   7  -2 128.251 5.64084  29
   0   7  -2 135.107 5.72493  28
   0   7  -2 137.089 5.72732  22
   0  -7   2 128.976 5.00700  11
   0  -7   2 124.745 6.85537  21
   0  -7   2 125.565 5.05669  17
   0  -7   2 135.051 6.28801  34
   0  -7   2 116.516 6.91353   7
   0  -7   2 132.089 5.44025  16
   0  -7   2 131.736 4.72608   1
   0  -7   2 129.880 6.15156  26
  -1   7  -2 109.296 4.79015  28
  -1   7  -2 100.628 4.70105  29
  -1   7  -2 109.181 4.78422  22
   1  -7   2 110.229 4.76378  16
   1  -7   2 110.523 5.46783  34
   1  -7   2 102.492 6.05218   7
   1  -7   2 112.722 5.95362  21
   1  -7   2 113.318 4.16667   1
   1  -7   2 107.772 4.24962  11
   1  -7   2 112.367 5.44943  20
   1  -7   2 107.972 5.24841  26
  -2   7  -2 107.443 4.57272  22
  -2   7  -2 97.1252 4.51416  28
   2  -7   2 99.6633 4.56830  16
   2  -7   2 106.174 5.61057  21
   2  -7   2 99.9885 5.86795   7
   2  -7   2 110.456 5.37686  34
   2  -7   2 102.653 4.01493   1
   2  -7   2 99.4478 4.52472  38
   2  -7   2 106.199 5.33462  20
  -3   7  -2 79.3867 3.92460  22
   3  -7   2 90.2437 4.70577  34
   3  -7   2 90.4606 4.72421  20
   3  -7   2 91.4151 4.05520  38
   3  -7   2 88.8358 3.57298   1
   3  -7   2 90.0389 4.05052  16
   4  -7   2 165.140 7.88315  34
   4  -7   2 171.578 6.88137  38
   4  -7   2 166.732 5.91495   1
   4  -7   2 167.181 7.96232  20
   4  -7   2 159.067 6.72056  16
   8   6  -2 102.277 4.41009   8
   7   6  -2 245.925 10.4722   8
   7   6  -2 263.542 9.38905  19
   7   6  -2 246.956 9.70318  12
  -7  -6   2 259.345 9.94013   3
  -7  -6   2 245.891 10.5242   8
  -7  -6   2 250.926 8.93769  15
   6   6  -2 242.260 9.71027   3
   6   6  -2 250.158 9.15118  19
   6   6  -2 235.111 10.2548   8
   6   6  -2 230.583 9.43603  12
  -6  -6   2 252.392 8.78701  15
  -6  -6   2 246.111 10.3054   8
   5   6  -2 70.6129 3.72852  37
   5   6  -2 78.9441 3.38222  19
   5   6  -2 77.6455 3.52164   3
   5   6  -2 74.2892 3.42573  12
  -5  -6   2 71.8563 3.69480   8
  -5  -6   2 77.4157 4.38393  36
  -5  -6   2 78.8600 3.23889  15
   4   6  -2 482.698 18.8882  12
   4   6  -2 496.569 24.0419  36
   4   6  -2 515.774 18.2377  19
   4   6  -2 515.954 19.3978  13
   4   6  -2 523.675 19.6758   3
   4   6  -2 518.963 20.8561  37
  -4  -6   2 504.699 17.6564  15
  -4  -6   2 561.639 23.8899  36
  -4  -6   2 509.439 20.5448   8
  -4  -6   2 485.084 18.4256  17
   3   6  -2 581.869 21.7914  30
   3   6  -2 505.660 25.4771  35
   3   6  -2 561.252 23.6398  22
   3   6  -2 549.003 23.3563  28
   3   6  -2 526.007 22.9531  29
   3   6  -2 549.209 22.2304  37
  -3  -6   2 566.416 25.3249  36
  -3  -6   2 529.907 34.0169   6
  -3  -6   2 574.366 18.9914  15
   2   6  -2 2372.48 95.9906  30
   2   6  -2 2526.37 123.326  29
   2   6  -2 2377.00 101.652   9
   2   6  -2 2509.10 98.0134  37
   2   6  -2 2523.28 104.809  22
   2   6  -2 2391.36 111.773  35
   2   6  -2 2525.81 103.810  28
  -2  -6   2 2397.01 149.224   6
   1   6  -2 25.6345 1.29887  22
   1   6  -2 24.6986 1.32743  29
   1   6  -2 21.5970 1.11822  30
   1   6  -2 24.5404 1.54642   9
   1   6  -2 25.0847 1.32613  37
   1   6  -2 24.8585 1.33875  28
   1   6  -2 24.4056 1.69560  35
   0   6  -2 376.476 15.4200  28
   0   6  -2 357.896 15.5759   9
   0   6  -2 346.896 17.1775  35
   0   6  -2 376.856 15.1914  29
   0   6  -2 363.279 15.5419  22
  -1   6  -2 197.397 8.03721  29
  -1   6  -2 201.139 8.14602  28
   1  -6   2 182.262 9.58036  21
   1  -6   2 202.436 8.90877  34
   1  -6   2 181.470 7.57207  16
   1  -6   2 185.760 7.03948  11
   1  -6   2 178.617 9.75076   7
   1  -6   2 200.565 6.67071   1
  -2   6  -2 1060.63 44.9684  29
  -2   6  -2 1101.70 45.9374  28
   2  -6   2 1100.99 35.1909   1
   2  -6   2 1029.45 51.7177   7
   2  -6   2 1149.50 48.0190  20
   2  -6   2 1042.11 40.0928  16
   2  -6   2 1125.66 41.3985  38
   2  -6   2 1180.85 47.5233  34
   2  -6   2 1039.58 51.0833  21
  -3   6  -2 50.5178 2.40717  28
   3  -6   2 51.0150 3.21558  10
   3  -6   2 51.2383 2.74007  16
   3  -6   2 51.9338 2.78027  38
   3  -6   2 58.2523 3.29689  20
   3  -6   2 53.0635 2.46941   1
   3  -6   2 57.3538 3.27674  34
  -4   6  -2 6.00101 0.56437  22
   4  -6   2 7.08917 1.25237  34
   4  -6   2 8.50977 1.29585  38
   4  -6   2 8.57394 1.46534  10
   4  -6   2 6.78309 1.04868   1
   4  -6   2 8.84866 1.40168  20
   4  -6   2 8.42595 1.06477  16
   5  -6   2 8.29301 0.97313   1
   5  -6   2 8.86441 1.20791  34
   5  -6   2 8.52176 1.33728  10
   5  -6   2 8.13286 1.21385  38
   5  -6   2 7.62518 1.23434  20
   8   5  -2 8.26392 0.99350  19
  -8  -5   2 9.48394 0.74925   3
   7   5  -2 787.913 26.7842  19
   7   5  -2 717.737 30.0111   8
   7   5  -2 767.628 27.8215  12
  -7  -5   2 717.398 30.1616   8
  -7  -5   2 788.610 28.7635   3
   6   5  -2 477.037 18.4414  12
   6   5  -2 499.574 17.7816  19
   6   5  -2 500.904 19.9950   8
   6   5  -2 486.746 18.9639   3
  -6  -5   2 492.839 20.0186   8
  -6  -5   2 486.131 17.0436  15
  -6  -5   2 504.336 19.0357   3
   5   5  -2 0.43662 0.48415   3
   5   5  -2 0.81200 0.54437  19
   5   5  -2 0.84211 0.67783  36
   5   5  -2 0.60266 0.58431   8
   5   5  -2 0.98033 0.53340  37
   5   5  -2 0.94392 0.43966  12
  -5  -5   2 1.84386 0.52521   8
  -5  -5   2 0.44566 0.34824  15
  -5  -5   2 0.92951 0.66881  36
  -5  -5   2 0.22157 0.40384   3
   4   5  -2 73.8086 3.21741  37
   4   5  -2 61.3126 2.96170   3
   4   5  -2 57.6460 3.68444  36
   4   5  -2 54.8977 2.87974  12
   4   5  -2 74.6054 2.89120  19
  -4  -5   2 59.1286 2.63188  15
  -4  -5   2 60.3410 3.08624   8
   3   5  -2 24.0423 1.35085  22
   3   5  -2 22.3710 1.19271  30
   3   5  -2 20.9246 1.32029  28
   3   5  -2 21.6934 1.46154   9
   3   5  -2 20.8448 1.29974  29
   3   5  -2 21.4388 1.52207  35
   3   5  -2 22.6678 1.40093  37
  -3  -5   2 23.5302 1.62200  36
  -3  -5   2 20.0164 2.07582   6
   2   5  -2 481.126 20.0125   9
   2   5  -2 423.738 18.6708  30
   2   5  -2 469.475 19.7206  29
   2   5  -2 488.336 19.0794  37
   2   5  -2 463.651 21.9906  24
   2   5  -2 485.676 20.0634  28
   2   5  -2 482.718 20.3064  22
   2   5  -2 449.893 21.8241  36
   2   5  -2 475.465 21.9567  35
  -2  -5   2 510.697 21.7397  36
  -2  -5   2 470.848 29.2089   6
   1   5  -2 205.010 9.63704  35
   1   5  -2 186.231 9.44673  24
   1   5  -2 199.202 8.73042   9
   1   5  -2 207.328 8.52726  29
   1   5  -2 200.622 8.64529  28
   1   5  -2 193.679 8.70473  22
   1   5  -2 209.086 10.9491  25
   1   5  -2 202.023 8.25920  37
  -1  -5   2 209.133 12.7296   6
   0   5  -2 132.494 5.92995  22
   0   5  -2 144.034 6.84532  35
   0   5  -2 139.244 6.42159  23
   0   5  -2 148.370 5.94884  28
   0   5  -2 141.288 6.15378   9
   0   5  -2 141.545 5.87512  29
   0   5  -2 131.517 7.42641  25
   0   5  -2 126.446 5.66474  37
   0  -5   2 140.017 8.90354   6
  -1   5  -2 278.875 11.3249  29
  -1   5  -2 274.915 13.0102  35
  -1   5  -2 263.988 12.4379  23
  -1   5  -2 266.377 11.4771  28
  -1   5  -2 282.435 11.7721   9
   1  -5   2 275.237 17.1046   6
  -2   5  -2 2131.45 95.4828  23
  -2   5  -2 2122.75 90.1138  28
  -2   5  -2 2232.94 88.7254  29
   2  -5   2 2119.57 68.4955   1
  -3   5  -2 45.3642 2.10922  29
  -3   5  -2 45.3290 2.15478  28
   3  -5   2 51.3174 2.95784  34
   3  -5   2 49.5785 2.92599  20
   3  -5   2 49.1358 2.22395   1
   3  -5   2 45.6846 2.99702  10
   3  -5   2 45.6791 2.45483  16
   3  -5   2 49.7521 2.57730  38
  -4   5  -2 323.002 14.9964  28
  -4   5  -2 333.820 15.2233  22
   4  -5   2 350.089 13.9901  31
   4  -5   2 359.937 11.9969   1
   4  -5   2 393.421 16.2187  34
   4  -5   2 368.426 16.3446  20
   4  -5   2 339.961 16.2543  10
   4  -5   2 364.858 14.1726  38
  -5   5  -2 3.55151 0.49789  30
   5  -5   2 6.15006 1.00967   1
   5  -5   2 4.34027 1.10481  10
   5  -5   2 2.76277 0.92647  20
   5  -5   2 3.50926 0.97964  38
   5  -5   2 3.70420 0.94005  34
   5  -5   2 5.71630 1.00116  31
   6  -5   2 5.90336 1.12126  38
   6  -5   2 3.16124 0.78328  34
   6  -5   2 3.38596 0.72282  31
  -8  -4   2 7.36751 0.74953   3
   7   4  -2 257.634 12.2982  34
   7   4  -2 266.214 11.0597   8
   7   4  -2 258.556 10.3161  12
   7   4  -2 277.880 9.96408  19
  -7  -4   2 268.289 11.7115  18
  -7  -4   2 271.224 10.5831   3
   6   4  -2 234.621 8.89147  19
   6   4  -2 220.532 9.19815  12
   6   4  -2 234.027 9.90609   8
  -6  -4   2 237.634 9.40869   3
  -6  -4   2 237.846 10.3931  18
   5   4  -2 82.5248 4.66474  36
   5   4  -2 80.1018 3.90768  37
   5   4  -2 75.9088 3.59597  12
   5   4  -2 80.7035 3.91370   8
   5   4  -2 86.0851 3.54619  19
   5   4  -2 82.8791 3.64299   3
  -5  -4   2 72.2988 3.83178   8
  -5  -4   2 81.9758 3.92435  18
  -5  -4   2 75.8982 4.52582  36
  -5  -4   2 79.2599 3.62324   3
  -5  -4   2 77.0778 3.23579  15
  -5  -4   2 79.2086 3.82522  37
   4   4  -2 110.214 4.97261  37
   4   4  -2 108.312 5.26993   9
   4   4  -2 109.041 5.86198  36
  -4  -4   2 113.403 4.93301  37
  -4  -4   2 110.753 5.75749  36
   3   4  -2 58.0259 2.87006   9
   3   4  -2 56.4292 2.69752  37
   3   4  -2 58.1054 3.02498  35
   3   4  -2 53.1140 3.19181  36
  -3  -4   2 55.7082 3.10964  36
  -3  -4   2 54.7236 2.62761  37
   2   4  -2 239.903 11.2875  24
   2   4  -2 252.465 11.2997  35
   2   4  -2 227.492 10.3780  22
   2   4  -2 242.540 9.81906  37
   2   4  -2 236.741 11.2497  36
   2   4  -2 232.875 12.9410  25
   2   4  -2 242.202 10.1137  29
   2   4  -2 231.513 10.2699  28
   2   4  -2 250.575 10.3179   9
  -2  -4   2 246.386 15.0401   6
  -2  -4   2 246.859 11.2137  36
  -2  -4   2 221.420 11.2589  24
   1   4  -2 262.366 10.6736  37
   1   4  -2 248.140 11.1967  28
   1   4  -2 254.990 11.8458  23
   1   4  -2 278.702 14.1249  25
   1   4  -2 261.024 11.2225   9
   1   4  -2 266.479 12.3590  35
   1   4  -2 272.321 11.0384  29
   1   4  -2 270.770 12.2831  24
   1   4  -2 252.373 12.2473  36
   1   4  -2 249.449 11.3119  22
  -1  -4   2 268.255 12.0908  36
  -1  -4   2 266.882 16.3771   6
   0   4  -2 7.93204 0.47408  28
   0   4  -2 9.52367 0.60870  23
   0   4  -2 8.95587 0.69511  25
   0   4  -2 7.83131 0.77654  35
   0   4  -2 7.67461 0.65198   9
   0   4  -2 7.62154 0.52254  37
   0   4  -2 7.31240 0.52707  24
   0   4  -2 9.48125 0.51527  29
   0  -4   2 8.45813 0.96375   6
  -1   4  -2 450.562 17.7020   9
  -1   4  -2 419.407 19.5154  35
  -1   4  -2 369.954 17.3551  29
  -1   4  -2 394.934 16.8077   5
  -1   4  -2 420.238 18.8258  23
  -1   4  -2 432.132 17.3396  29
   1  -4   2 450.320 25.8552   6
  -2   4  -2 2242.08 101.608  23
  -2   4  -2 2273.31 94.9415   9
  -3   4  -2 162.749 7.67403   5
  -3   4  -2 177.592 7.69377  28
  -3   4  -2 184.876 7.57508  29
   3  -4   2 189.644 8.60445  20
   3  -4   2 184.509 7.47144  38
   3  -4   2 181.051 6.31936   1
   3  -4   2 195.995 8.53630  34
   3  -4   2 171.261 8.84003  10
  -4   4  -2 604.761 26.4790  28
  -4   4  -2 583.579 25.9971  29
  -4   4  -2 621.063 26.8104  22
   4  -4   2 647.677 20.5960   1
   4  -4   2 668.310 27.8204  34
   4  -4   2 618.690 28.0162  10
   4  -4   2 624.479 24.3313  38
   4  -4   2 618.780 24.1571  31
   4  -4   2 670.060 28.1718  20
  -5   4  -2 146.943 6.88810  22
  -5   4  -2 145.335 6.33226  30
   5  -4   2 161.337 5.69799   1
   5  -4   2 159.306 7.65870  34
   5  -4   2 153.433 6.58222  31
   5  -4   2 157.702 7.78753  20
   5  -4   2 159.608 7.81037  10
   5  -4   2 149.804 6.77951  38
  -6   4  -2 442.240 17.6678  30
   6  -4   2 471.291 17.2644  31
   6  -4   2 435.153 19.9098  34
   6  -4   2 410.016 20.1389  20
   6  -4   2 451.302 14.6958   1
   6  -4   2 458.380 20.0359  10
   6  -4   2 445.604 17.4354  38
  -8  -3   2 46.7612 2.14680   3
   7   3  -2 171.992 7.12896   8
   7   3  -2 162.968 6.71322  12
   7   3  -2 150.146 7.91554  34
   7   3  -2 170.343 6.48000  19
  -7  -3   2 172.528 7.53011  18
  -7  -3   2 162.368 6.79224   3
   6   3  -2 1217.00 42.8211  19
   6   3  -2 1222.85 48.0555   8
   6   3  -2 1190.44 44.4995  12
  -6  -3   2 1244.16 51.5033  18
  -6  -3   2 1209.37 46.0174   3
   5   3  -2 60.7296 2.85211  19
   5   3  -2 54.5720 2.87983  12
   5   3  -2 58.9390 3.10362   8
   5   3  -2 56.5832 3.62696  36
  -5  -3   2 67.2038 3.15345  18
  -5  -3   2 57.2997 3.01731  37
  -5  -3   2 58.1098 2.86025   3
  -5  -3   2 60.6990 3.66579  36
   4   3  -2 4309.92 183.728   9
   4   3  -2 4377.15 200.884  36
   4   3  -2 4380.27 174.533  37
  -4  -3   2 4497.60 176.130  37
  -4  -3   2 4420.23 202.268  36
   3   3  -2 75.0113 3.93804  36
   3   3  -2 75.8110 3.51269   9
   3   3  -2 64.3181 3.72437  24
   3   3  -2 75.7380 3.32304  37
   3   3  -2 79.8326 3.75569  35
  -3  -3   2 60.0243 3.72375  24
  -3  -3   2 72.4338 3.83903  36
  -3  -3   2 69.9496 3.24839  37
   2   3  -2 313.031 14.6032  24
   2   3  -2 296.451 16.7300  25
   2   3  -2 314.651 13.3153   9
   2   3  -2 325.947 12.7238  37
   2   3  -2 334.693 14.6192  35
   2   3  -2 322.022 13.1364  29
   2   3  -2 321.787 13.3596  28
   2   3  -2 304.610 13.5106  22
  -2  -3   2 308.851 12.6602  37
  -2  -3   2 289.458 14.5871  24
  -2  -3   2 316.702 14.5532  36
   1   3  -2 423.402 16.7280  37
   1   3  -2 400.433 19.1344  36
   1   3  -2 377.258 18.5965  23
   1   3  -2 396.636 17.8389  22
   1   3  -2 443.411 19.2470  24
   1   3  -2 446.666 17.3408  29
   1   3  -2 447.977 19.3047  35
   1   3  -2 389.527 19.2104  24
   1   3  -2 424.426 17.6236  28
   1   3  -2 399.625 22.0666  25
   1   3  -2 424.505 17.5372   9
   1   3  -2 444.894 22.0868  25
  -1  -3   2 413.175 19.2318  24
  -1  -3   2 400.016 16.6602  37
  -1  -3   2 389.726 22.0150  25
  -1  -3   2 435.948 19.0910  36
  -1  -3   2 451.998 25.6311   6
   0   3  -2 931.776 42.4795  28
   0   3  -2 1004.01 46.3050  24
   0   3  -2 1069.65 53.5530  25
   0   3  -2 1011.86 46.9695  35
   0   3  -2 1058.42 53.3175  25
   0   3  -2 1030.13 55.8626   9
   0   3  -2 1018.29 46.5515  24
   0   3  -2 878.306 41.6581  29
   0   3  -2 1060.84 53.4099  23
   0   3  -2 991.367 41.8256  29
   0   3  -2 971.818 40.3829  37
   0  -3   2 1003.12 53.0917  25
   0  -3   2 1009.86 46.5730  24
   0  -3   2 1099.23 62.0525   6
  -1   3  -2 96.6026 4.57641  23
  -1   3  -2 99.7389 4.34571   9
  -1   3  -2 96.5051 4.83205  35
   1  -3   2 102.987 6.38650   6
  -2   3  -2 47.9523 3.05797  27
  -2   3  -2 41.7185 2.11291   5
  -2   3  -2 45.8476 2.11925   4
  -3   3  -2 142.757 6.34334   5
  -3   3  -2 153.401 6.23047  29
  -3   3  -2 147.940 6.27859  28
  -4   3  -2 548.688 23.9993  22
  -4   3  -2 569.009 23.3819  29
  -4   3  -2 575.400 23.7727  28
   4  -3   2 534.314 21.6231  31
   4  -3   2 580.296 25.2331  20
   4  -3   2 597.032 24.9464  34
   4  -3   2 573.332 24.9460   2
   4  -3   2 535.291 21.7971  38
   4  -3   2 531.885 25.0906  10
   4  -3   2 579.520 20.8476  12
   4  -3   2 571.590 18.4232   1
  -5   3  -2 80.6943 3.96907  28
  -5   3  -2 79.1019 3.59718  30
  -5   3  -2 86.7281 3.98935  22
   5  -3   2 83.2256 4.43392   2
   5  -3   2 88.6715 3.44924   1
   5  -3   2 82.6582 3.96930  31
   5  -3   2 85.9536 4.80614  10
   5  -3   2 88.8872 4.79446  20
   5  -3   2 89.0374 3.87220  12
   5  -3   2 80.0323 4.17759  38
   5  -3   2 91.8484 4.74794  34
  -6   3  -2 60.2896 2.99730  22
  -6   3  -2 61.2651 2.71240  30
   6  -3   2 59.6306 3.64119  34
   6  -3   2 60.6375 3.73077  10
   6  -3   2 55.3741 3.71385  20
   6  -3   2 61.9661 3.32436   2
   6  -3   2 59.1930 3.26236  38
   6  -3   2 60.5420 2.62068   1
  -7   3  -2 92.7617 3.62173  13
   7  -3   2 91.6737 4.04329  38
   7  -3   2 85.7900 4.68524  20
   7  -3   2 83.3544 4.58265  34
   7  -3   2 90.8713 3.90546  31
   7  -3   2 93.9396 4.59360  10
   7   2  -2 0.87242 0.58445  12
   7   2  -2 0.51605 0.56991  19
   7   2  -2 1.24070 0.77471  34
  -7  -2   2 1.24323 0.47537   3
  -7  -2   2 0.92266 0.45192  18
   6   2  -2 105.081 4.82529  12
   6   2  -2 99.9090 5.67053  34
   6   2  -2 108.163 4.66922  19
   6   2  -2 112.106 5.02875   8
   6   2  -2 105.135 4.09465   1
  -6  -2   2 111.189 5.23313  18
  -6  -2   2 107.125 4.76856   3
   5   2  -2 5.43077 1.05069   8
   5   2  -2 4.48346 0.77351  12
   5   2  -2 6.00820 1.17586  36
  -5  -2   2 5.83995 1.05396  36
  -5  -2   2 6.19767 0.89857   3
  -5  -2   2 6.06866 0.84242  37
   4   2  -2 26.0669 1.90730  36
   4   2  -2 22.8495 1.63954   9
  -4  -2   2 20.2061 1.72326  36
  -4  -2   2 22.7963 1.43950  37
   3   2  -2 8.28637 0.96467  36
   3   2  -2 5.14872 0.81993   9
   3   2  -2 5.72510 0.72014  24
   3   2  -2 5.79815 0.74561  35
   3   2  -2 6.95308 0.71178  37
  -3  -2   2 6.59383 0.50951   5
  -3  -2   2 5.54323 0.75041  24
  -3  -2   2 7.25429 0.86825  36
  -3  -2   2 7.72130 0.69071  37
   2   2  -2 115.505 5.31691  35
   2   2  -2 109.094 4.73261  29
   2   2  -2 108.416 4.85919   9
   2   2  -2 103.237 6.06121  25
   2   2  -2 112.445 4.63647  37
   2   2  -2 110.194 5.39081  36
   2   2  -2 107.941 5.29543  24
   2   2  -2 101.501 4.78812  28
  -2  -2   2 118.554 4.61814  37
  -2  -2   2 109.753 4.45384   5
  -2  -2   2 101.430 6.04078  25
  -2  -2   2 106.964 5.31100  24
  -2  -2   2 110.499 5.33519  36
   1   2  -2 716.294 31.5843  35
   1   2  -2 676.841 27.4078  37
   1   2  -2 667.816 30.9541  36
   1   2  -2 679.677 28.8771  28
   1   2  -2 639.012 31.0441  24
   1   2  -2 713.656 41.4212  24
   1   2  -2 716.664 36.2291  25
   1   2  -2 670.034 28.5852   9
   1   2  -2 645.377 35.6422  25
   1   2  -2 692.180 28.4809  29
  -1  -2   2 649.912 46.6984  25
  -1  -2   2 684.718 31.4969  36
  -1  -2   2 696.818 27.1871   5
  -1  -2   2 680.796 31.8000  24
  -1  -2   2 653.886 27.3473  37
   0   2  -2 4346.92 193.557  37
   0   2  -2 4304.40 197.786  29
   0   2  -2 4556.07 219.137  24
   0   2  -2 4729.98 222.021  24
   0   2  -2 4837.95 208.234  23
   0   2  -2 4437.57 202.108   9
   0   2  -2 4674.49 256.122  25
   0   2  -2 4640.99 235.008  35
   0   2  -2 4697.03 253.531  25
   0   2  -2 4201.31 199.113  28
   0  -2   2 4581.83 215.977  36
   0  -2   2 4161.13 251.209  25
   0  -2   2 4940.82 306.086   6
   0  -2   2 4300.33 223.142  24
  -1   2  -2 223.006 12.0089  25
  -1   2  -2 211.558 8.91219   9
  -1   2  -2 199.456 9.84666  35
  -1   2  -2 193.912 8.41119  37
  -1   2  -2 216.601 11.1439  25
   1  -2   2 230.203 13.1170   6
  -2   2  -2 30.9793 1.43531   4
  -2   2  -2 28.1013 1.22546  37
  -3   2  -2 156.652 8.63017  25
  -3   2  -2 162.492 8.62118  25
  -3   2  -2 165.306 7.00988   4
  -3   2  -2 163.666 6.90924  28
  -3   2  -2 168.226 6.83342  29
  -4   2  -2 46.3920 2.31157  28
  -4   2  -2 57.5253 2.64361   5
  -4   2  -2 46.6080 2.26518  22
  -4   2  -2 49.6486 2.32857  29
  -5   2  -2 89.5203 4.06312  28
  -5   2  -2 81.1594 3.64665  30
  -5   2  -2 88.2363 4.02569  29
  -5   2  -2 89.6303 4.04448  22
   5  -2   2 86.2880 4.78344  20
   5  -2   2 88.5501 3.40642   1
   5  -2   2 83.4192 4.72489  10
   5  -2   2 86.6651 4.50883   2
   5  -2   2 82.9884 3.97057  31
   5  -2   2 92.8137 4.77334  34
   5  -2   2 83.6710 4.14671  38
   5  -2   2 91.8433 3.90640  12
  -6   2  -2 106.465 4.96665  22
  -6   2  -2 110.158 4.52756  30
   6  -2   2 105.381 4.79723  31
   6  -2   2 114.514 4.72719  12
   6  -2   2 109.603 5.41096   2
   6  -2   2 104.744 5.60163  10
   6  -2   2 103.913 4.05457   1
   6  -2   2 103.644 4.98652  38
   6  -2   2 98.1075 5.73307  20
   6  -2   2 104.632 5.68130  34
  -7   2  -2 62.7483 2.59875  13
  -7   2  -2 61.6299 2.72856  30
   7  -2   2 61.7896 2.95956  31
   7  -2   2 58.2020 3.07963  38
   7  -2   2 59.4220 3.66327  20
   7  -2   2 62.8701 3.49592  10
   7  -2   2 60.5559 3.68617  34
   7  -2   2 59.1433 2.94617  12
   7   1  -2 12.8964 1.29705  19
   7   1  -2 12.2072 0.97895   8
   7   1  -2 11.8446 1.29904  12
   7   1  -2 12.7184 1.02214   1
  -7  -1   2 12.1937 1.07568   3
  -7  -1   2 11.7743 1.18822  18
   6   1  -2 22.4661 1.83078  12
   6   1  -2 19.8605 1.46873   1
   6   1  -2 24.4271 1.77023  19
   6   1  -2 18.3152 2.05675  34
  -6  -1   2 21.5916 1.59344   3
  -6  -1   2 22.1461 1.16600  13
  -6  -1   2 24.6561 1.77490  18
   5   1  -2 291.933 9.56418   1
   5   1  -2 281.507 10.5157  19
   5   1  -2 296.935 11.6464   8
   5   1  -2 267.488 10.8943  12
   5   1  -2 297.226 11.1309  31
   5   1  -2 246.218 12.8831  34
  -5  -1   2 287.488 11.2689  30
  -5  -1   2 266.193 11.7210  37
  -5  -1   2 250.407 13.5975  36
  -5  -1   2 298.483 12.3947  18
  -5  -1   2 284.434 10.7296  13
  -5  -1   2 278.983 11.1158   3
   4   1  -2 44.3899 2.62664  36
  -4  -1   2 41.1226 2.19430  37
  -4  -1   2 41.1983 2.11558   5
  -4  -1   2 38.0867 2.62667  36
  -4  -1   2 41.7824 1.91745  30
   3   1  -2 7.07321 0.79647  35
   3   1  -2 7.46002 0.95867  36
   3   1  -2 7.76160 0.71519  37
  -3  -1   2 7.38179 0.88213  36
  -3  -1   2 9.07176 0.85033  24
  -3  -1   2 7.13652 0.66752  29
  -3  -1   2 6.41366 0.59693  22
  -3  -1   2 7.26331 0.62521   5
  -3  -1   2 6.62611 0.66978  28
  -3  -1   2 8.98229 0.74827  37
   2   1  -2 21.8082 1.47100  27
   2   1  -2 24.6537 1.30198   9
   2   1  -2 22.6762 1.42612  36
   2   1  -2 20.3891 1.16214  37
   2   1  -2 19.4321 1.28814  24
  -2  -1   2 19.7902 1.36500  36
  -2  -1   2 19.3336 1.13415  28
  -2  -1   2 21.1008 1.49698  25
  -2  -1   2 21.6276 1.14284  29
  -2  -1   2 20.4951 1.06936   5
  -2  -1   2 21.9298 1.15068  37
  -2  -1   2 21.7166 1.33605  24
   1   1  -2 1198.35 52.2375  35
   1   1  -2 1039.55 47.3014  28
   1   1  -2 996.495 59.2647  25
   1   1  -2 1143.97 59.6088  25
   1   1  -2 1098.98 50.9573  36
   1   1  -2 1213.72 67.1093  27
   1   1  -2 1147.15 51.9547  24
   1   1  -2 1132.61 47.1046   9
   1   1  -2 1098.40 46.6802  29
   1   1  -2 1117.07 44.7386  37
  -1  -1   2 1120.30 45.1285  37
  -1  -1   2 1189.00 52.1417  24
  -1  -1   2 1040.97 59.2929  25
  -1  -1   2 1098.93 51.8071  36
  -1  -1   2 1112.54 44.9113   5
  -1  -1   2 1174.71 59.7118  25
   0   1  -2 2772.98 153.584  25
   0   1  -2 2485.01 121.610   9
   0   1  -2 2795.76 171.804  27
   0   1  -2 2649.54 119.083  24
   0   1  -2 2558.80 137.861  35
   0   1  -2 2467.83 119.334  28
   0   1  -2 2522.88 103.566  37
   0   1  -2 2750.38 135.744  24
   0   1  -2 2509.96 118.539  36
   0   1  -2 2633.13 152.269  25
   0   1  -2 2503.86 117.839  29
   0  -1   2 2886.55 116.429   5
   0  -1   2 2458.62 132.290  24
   0  -1   2 2479.42 114.087  37
   0  -1   2 2781.59 179.165   6
   0  -1   2 2598.02 131.519  24
   0  -1   2 2587.30 132.653  36
   0  -1   2 2476.13 149.474  25
  -1   1  -2 194.874 10.5857   9
  -1   1  -2 171.917 8.03708  29
  -1   1  -2 195.547 10.3524  25
  -1   1  -2 202.111 10.2028  25
  -1   1  -2 184.982 8.07621  29
  -1   1  -2 188.035 7.74014  37
  -1   1  -2 202.607 9.00844  24
  -1   1  -2 202.071 12.0635  24
  -1   1  -2 181.985 8.96814  35
  -1   1  -2 200.661 11.6847  27
   1  -1   2 191.508 10.2135  25
   1  -1   2 188.911 9.00088  24
   1  -1   2 181.143 10.1836  25
   1  -1   2 181.517 9.34829  24
   1  -1   2 211.561 11.9773   6
  -2   1  -2 1058.35 58.5068  24
  -2   1  -2 1158.18 46.3211   4
  -2   1  -2 957.804 48.9093  29
  -2   1  -2 1192.92 81.2126  27
  -2   1  -2 1156.27 50.3041  24
  -2   1  -2 1090.20 57.8200  25
  -2   1  -2 1010.96 43.7311  37
  -2   1  -2 1204.17 57.7765  25
  -2   1  -2 1038.28 50.5647  35
   2  -1   2 1050.29 50.3185  24
   2  -1   2 1139.14 50.2466  24
  -3   1  -2 109.869 6.11375  25
  -3   1  -2 107.728 4.62696  37
  -3   1  -2 111.022 5.24933  24
  -3   1  -2 110.964 4.79137  28
  -3   1  -2 113.801 4.73246  29
  -3   1  -2 116.353 6.05740  25
  -3   1  -2 116.335 4.88393   4
  -4   1  -2 724.461 29.8467  22
  -4   1  -2 660.720 29.1661   4
  -4   1  -2 637.101 27.8743  37
  -4   1  -2 735.208 28.1968   5
  -4   1  -2 739.385 29.1838  29
  -4   1  -2 701.574 29.4853  28
  -5   1  -2 18.0134 0.92360  30
  -5   1  -2 16.7591 1.03888  22
  -5   1  -2 16.7313 1.08636  29
  -5   1  -2 14.5082 1.08657  37
  -5   1  -2 18.7727 1.11033  28
   5  -1   2 16.1268 1.38260   2
   5  -1   2 16.7961 1.28085  12
   5  -1   2 14.8552 1.34818  38
   5  -1   2 15.0647 1.24511  31
   5  -1   2 15.7304 1.53057  10
   5  -1   2 16.5578 1.57657  34
  -6   1  -2 85.6492 4.06049  22
  -6   1  -2 86.4144 3.69311  30
  -6   1  -2 85.8540 4.09076  28
   6  -1   2 82.7304 3.97322  31
   6  -1   2 81.6806 4.06559  38
   6  -1   2 81.7007 4.64260  10
   6  -1   2 89.1008 4.82251  34
   6  -1   2 81.1089 4.83057  20
   6  -1   2 87.4484 3.94441  12
   6  -1   2 86.0818 4.49767   2
  -7   1  -2 1.22357 0.38987  22
  -7   1  -2 0.99224 0.33290  30
  -7   1  -2 1.02972 0.28123  13
   7  -1   2 0.50415 0.80023  38
   7  -1   2 1.81130 0.82962  10
   7  -1   2 1.47447 0.65055  12
   7  -1   2 0.94073 0.88023  34
   7  -1   2 -0.0044 0.85025  20
  -8   1  -2 192.481 7.17603  13
   8  -1   2 195.428 7.40796  31
   8  -1   2 190.342 8.56639  10
   8  -1   2 172.671 8.60331  34
   8  -1   2 178.730 8.67057  20
   7   0  -2 19.7570 1.49790  12
   7   0  -2 19.0912 1.56937  34
   7   0  -2 19.3132 1.08810   1
   7   0  -2 20.6256 1.36950  19
  -7   0   2 21.1080 1.44856  18
  -7   0   2 19.5168 1.28850   3
   6   0  -2 348.152 14.1197  12
   6   0  -2 336.462 16.7475  34
   6   0  -2 381.398 14.9727   8
   6   0  -2 363.174 13.6140  19
   6   0  -2 368.797 12.3542   1
  -6   0   2 385.338 16.1418  18
  -6   0   2 370.145 14.0511  13
  -6   0   2 393.160 14.5276   3
   5   0  -2 228.895 11.1094  10
   5   0  -2 250.726 8.43718   1
   5   0  -2 219.537 11.3160  34
   5   0  -2 253.215 9.74418  31
   5   0  -2 237.066 9.56802  12
   5   0  -2 247.986 9.26941  19
  -5   0   2 247.587 9.80156  30
  -5   0   2 240.221 9.32596  13
  -5   0   2 231.780 9.70463   3
  -5   0   2 251.098 10.8205  18
   4   0  -2 488.973 22.5501  34
   4   0  -2 505.511 18.9452  12
   4   0  -2 520.048 18.2635  19
   4   0  -2 519.665 20.3341   8
   4   0  -2 500.338 22.5303  10
   4   0  -2 547.996 23.5733  36
   4   0  -2 526.442 19.5450  31
  -4   0   2 539.675 20.1518  30
  -4   0   2 543.205 21.9283  22
  -4   0   2 490.477 19.2169  13
  -4   0   2 518.077 20.6392  37
  -4   0   2 507.904 21.6795  28
  -4   0   2 456.062 23.7219  36
  -4   0   2 454.038 19.4559   3
  -4   0   2 500.908 21.3485  29
   3   0  -2 284.730 12.3290  36
   3   0  -2 244.643 12.3094  35
  -3   0   2 260.265 11.2403  28
  -3   0   2 244.889 14.1200  25
  -3   0   2 262.602 11.0771  29
  -3   0   2 274.595 10.7314  37
  -3   0   2 271.503 10.7205   5
  -3   0   2 252.964 10.4103  30
  -3   0   2 245.386 12.3577  36
  -3   0   2 266.999 11.3498  22
   2   0  -2 4.18630 0.61843  35
   2   0  -2 2.86526 0.44127  37
   2   0  -2 3.93977 0.61833  36
  -2   0   2 3.59973 0.45600  37
  -2   0   2 2.87048 0.56929  25
  -2   0   2 3.23767 0.41664   5
  -2   0   2 2.50175 0.38166  22
  -2   0   2 4.13914 0.44770  29
  -2   0   2 3.83972 0.59741  36
  -2   0   2 4.16847 0.45942  28
  -2   0   2 2.99053 0.48595  24
   1   0  -2 53.5126 2.54075  37
   1   0  -2 54.7687 3.34033  25
   1   0  -2 54.7146 2.94905  36
   1   0  -2 55.2962 2.91867  24
   1   0  -2 57.2623 3.68323  27
   1   0  -2 55.4710 2.95855  35
   1   0  -2 48.8806 3.33744  25
  -1   0   2 58.2173 3.36127  25
  -1   0   2 58.0005 2.52689   5
  -1   0   2 53.0991 2.59590  29
  -1   0   2 58.8941 2.93056  24
  -1   0   2 52.7739 2.51813  37
  -1   0   2 56.3966 3.34425  25
  -1   0   2 54.5557 2.94947  36
  -1   0   2 50.0600 2.62674  28
   0   0  -2 2992.22 129.545   9
   0   0  -2 2753.11 128.715  36
   0   0  -2 2687.25 126.631  37
   0   0  -2 2945.73 146.825  24
   0   0  -2 2814.30 147.034  35
   0   0  -2 2958.53 166.348  25
   0   0  -2 2935.58 188.871  27
   0   0  -2 2699.68 127.549  29
   0   0   2 2634.47 163.021  25
   0   0   2 2974.88 146.145  24
   0   0   2 2830.52 147.124  36
   0   0   2 2932.22 168.206  25
   0   0   2 3028.56 190.649   6
   0   0   2 2820.65 132.029  23
   0   0   2 2751.77 125.204  37
   0   0   2 2886.13 125.608   5
   0   0   2 2518.45 129.148  24
  -1   0  -2 338.836 14.1043   4
  -1   0  -2 341.573 15.6957  35
  -1   0  -2 357.755 25.4713  27
  -1   0  -2 338.000 14.1209  29
  -1   0  -2 339.370 18.1919  24
  -1   0  -2 340.951 15.6905  24
  -1   0  -2 353.965 17.8573  25
  -1   0  -2 321.024 14.3006  28
  -1   0  -2 317.971 15.3703  36
  -1   0  -2 343.677 18.0683  25
   1   0   2 342.150 17.7336  25
   1   0   2 318.738 19.5216  24
   1   0   2 356.136 20.9377   6
   1   0   2 301.087 17.8034  25
   1   0   2 340.561 15.3521  23
   1   0   2 344.623 15.7066  24
   1   0   2 336.132 15.4719  36
  -2   0  -2 294.522 11.6745   4
  -2   0  -2 296.158 14.9645  25
  -2   0  -2 259.106 12.8110  24
  -2   0  -2 292.007 11.7352  29
  -2   0  -2 265.301 11.1856  37
  -2   0  -2 275.599 12.7669  35
  -2   0  -2 307.805 16.8931  27
  -2   0  -2 264.023 14.7978  25
  -2   0  -2 288.844 12.8082  24
  -2   0  -2 254.698 12.7497  36
   2   0   2 280.884 12.7348  36
   2   0   2 269.717 14.6799  25
   2   0   2 283.827 12.8028  24
  -3   0  -2 79.6985 5.03262  25
  -3   0  -2 87.5667 5.59748  27
  -3   0  -2 90.2693 3.80883  37
  -3   0  -2 96.9010 5.01213  25
  -3   0  -2 98.0229 3.88751  29
  -3   0  -2 91.4133 3.93213  28
  -3   0  -2 93.1034 3.99617   4
  -3   0  -2 77.1523 4.37005  36
  -3   0  -2 96.0296 4.37824  24
   3   0   2 90.9017 4.35744  24
   3   0   2 92.4133 4.28258  36
  -4   0  -2 1560.62 65.3655  22
  -4   0  -2 1537.05 63.5448  29
  -4   0  -2 1578.06 61.9619  37
  -4   0  -2 1501.72 80.6888  25
  -4   0  -2 1545.42 64.1938   4
  -4   0  -2 1572.12 64.7898  28
  -4   0  -2 1394.83 70.0939  24
  -5   0  -2 3.29241 0.55982  37
  -5   0  -2 5.05604 0.57462  28
  -5   0  -2 4.04817 0.51455  22
  -5   0  -2 4.99054 0.57127  29
  -5   0  -2 4.63568 0.44897  30
   5   0   2 2.71583 0.85500  20
  -6   0  -2 506.534 20.6606  22
  -6   0  -2 463.082 18.1390  13
  -6   0  -2 500.420 20.4517  28
  -6   0  -2 480.419 20.1306  29
  -6   0  -2 497.967 18.9949  30
  -6   0  -2 418.894 19.3473  37
   6   0   2 457.656 21.7171  20
   6   0   2 483.168 17.9987  12
   6   0   2 453.968 18.6170  38
   6   0   2 461.965 21.3497  10
   6   0   2 509.178 21.4042   2
   6   0   2 484.164 18.5056  31
   6   0   2 488.464 21.5399  34
  -7   0  -2 141.066 6.61007  22
  -7   0  -2 151.593 6.05108  30
  -7   0  -2 146.869 5.76349  13
   7   0   2 149.814 7.03204   2
   7   0   2 145.593 6.10610  31
   7   0   2 141.410 7.03780  10
   7   0   2 145.013 7.37096  34
   7   0   2 138.250 6.19127  38
   7   0   2 144.412 6.11952  12
   7   0   2 138.924 7.38012  20
  -8   0  -2 6.57538 0.57030  13
   8   0   2 6.76897 1.07075  12
   8   0   2 7.80569 1.34255  20
   8   0   2 7.08287 0.86831  31
   6  -1  -2 21.3222 1.69888  12
   6  -1  -2 21.3105 1.74640  10
   6  -1  -2 19.7519 1.70354  19
   6  -1  -2 21.0708 1.41953   1
   6  -1  -2 18.9781 1.96989  34
  -6   1   2 20.6044 1.59084  18
  -6   1   2 20.7924 1.26041  30
  -6   1   2 25.1883 1.55539   3
  -6   1   2 23.8943 1.16770  13
   5  -1  -2 521.712 16.7057   1
   5  -1  -2 501.787 18.8749  16
   5  -1  -2 523.111 20.1322   8
   5  -1  -2 489.899 22.3804  10
   5  -1  -2 503.147 18.2375  19
   5  -1  -2 480.047 22.4983  34
   5  -1  -2 496.287 18.9335  12
   5  -1  -2 523.826 19.4410  31
  -5   1   2 516.730 19.9821  30
  -5   1   2 486.235 21.7380  22
  -5   1   2 450.044 19.3638   3
  -5   1   2 514.506 21.7087  18
  -5   1   2 511.173 19.0649  13
   4  -1  -2 329.356 12.6913  32
   4  -1  -2 356.222 12.6457  19
   4  -1  -2 345.727 13.1003  12
   4  -1  -2 357.148 13.4852  31
   4  -1  -2 328.244 15.5513  34
   4  -1  -2 348.670 11.6091   1
   4  -1  -2 344.393 15.5648  10
  -4   1   2 345.045 13.1220  13
  -4   1   2 355.908 14.8820  28
  -4   1   2 364.293 13.7654  30
  -4   1   2 350.435 14.9889  22
  -4   1   2 308.323 13.3674   3
  -4   1   2 331.070 14.6324  29
  -4   1   2 342.031 14.1407  37
   3  -1  -2 381.304 17.4836  36
  -3   1   2 387.311 16.1522  28
  -3   1   2 357.034 17.6728  36
  -3   1   2 384.615 15.4149   5
  -3   1   2 383.163 15.3361  37
  -3   1   2 381.064 16.3157  22
  -3   1   2 377.366 15.8935  29
  -3   1   2 370.633 14.9948  30
   2  -1  -2 1976.73 97.7944  35
   2  -1  -2 2166.60 97.5835  36
   2  -1  -2 2005.86 97.1939  24
  -2   1   2 2150.26 90.0715  28
  -2   1   2 2015.92 90.7803  22
  -2   1   2 2204.32 85.6987   5
  -2   1   2 2064.39 97.7104  36
  -2   1   2 2238.24 98.4173  24
  -2   1   2 2178.79 112.633  25
  -2   1   2 2159.37 88.3747  29
  -2   1   2 2190.30 85.4721  37
   1  -1  -2 8.68260 0.81368  27
   1  -1  -2 9.32275 0.77016  35
   1  -1  -2 10.2301 0.73439  36
   1  -1  -2 8.95242 0.76170  25
   1  -1  -2 9.79177 0.61249  37
   1  -1  -2 11.1071 0.70694  24
  -1   1   2 10.1142 0.68909  24
  -1   1   2 9.75940 0.79199  25
  -1   1   2 9.37694 0.59922  28
  -1   1   2 9.70160 0.63196  23
  -1   1   2 8.22660 0.75296  25
  -1   1   2 8.97735 0.72877  36
  -1   1   2 10.6260 0.59945  29
   0  -1  -2 87.3498 4.18196  36
   0  -1  -2 87.6316 4.76470  25
   0  -1  -2 91.3156 4.22786  35
   0  -1  -2 81.7706 4.77520  25
   0  -1  -2 90.4823 4.16983  24
   0  -1  -2 87.8773 5.41878  27
   0  -1  -2 86.7140 3.68364   4
   0  -1  -2 88.5475 3.63390  37
   0   1   2 87.3421 4.17293  36
   0   1   2 90.7183 3.61519  37
   0   1   2 90.8468 4.01794  23
   0   1   2 80.4542 4.15252  24
   0   1   2 91.3190 4.16231  24
   0   1   2 87.7502 3.62626   5
   0   1   2 87.3246 4.78651  25
   0   1   2 85.3116 3.73051  29
   0   1   2 89.7695 5.42598   6
   0   1   2 79.8025 4.74132  25
  -1  -1  -2 474.188 24.2375  25
  -1  -1  -2 443.555 18.9593  29
  -1  -1  -2 458.634 20.9353  35
  -1  -1  -2 438.741 24.0763  25
  -1  -1  -2 466.891 19.1860   4
  -1  -1  -2 431.372 18.2333  37
  -1  -1  -2 442.900 21.0363  24
  -1  -1  -2 447.227 27.4298  27
  -1  -1  -2 471.673 21.2667  24
  -1  -1  -2 431.260 20.8802  36
   1   1   2 462.658 20.6467  23
   1   1   2 478.638 27.8224   6
   1   1   2 410.370 23.9657  25
   1   1   2 453.100 24.2183  25
   1   1   2 451.626 18.0861   5
   1   1   2 440.223 20.8647  36
   1   1   2 424.414 18.1632  37
   1   1   2 416.535 20.8502  24
   1   1   2 468.588 21.1863  24
  -2  -1  -2 54.4238 3.62852  27
  -2  -1  -2 54.5026 2.80013  24
  -2  -1  -2 54.1128 2.50887  28
  -2  -1  -2 53.7031 2.41582  37
  -2  -1  -2 63.5982 3.20487  25
  -2  -1  -2 54.3417 3.21925  25
  -2  -1  -2 57.1258 2.47326  29
  -2  -1  -2 59.5053 2.53747   4
  -2  -1  -2 59.0203 2.80685  24
  -2  -1  -2 58.0601 2.81850  36
   2   1   2 58.5104 2.81382  36
   2   1   2 54.1301 2.42501  37
   2   1   2 59.1368 2.46572   9
   2   1   2 56.9302 2.67371  35
   2   1   2 56.0736 2.79630  24
   2   1   2 58.1163 3.21720  25
   2   1   2 53.6802 2.77718  23
  -3  -1  -2 84.8226 3.66906  28
  -3  -1  -2 85.9755 3.61989  29
  -3  -1  -2 82.1626 3.70093  22
  -3  -1  -2 89.9712 3.72278   4
  -3  -1  -2 76.1865 4.09365  36
  -3  -1  -2 92.1165 4.70228  25
  -3  -1  -2 71.4930 4.68076  25
  -3  -1  -2 85.3823 5.24785  27
  -3  -1  -2 85.5157 3.55084  37
  -3  -1  -2 88.4694 4.12021  24
  -3  -1  -2 75.2313 4.10043  24
   3   1   2 87.8886 4.10235  36
   3   1   2 86.0163 4.09861  24
   3   1   2 80.4966 4.68142  25
   3   1   2 84.0910 3.57101  37
   3   1   2 89.3719 3.67727   9
  -4  -1  -2 1099.62 44.8270  37
  -4  -1  -2 1162.49 46.6253   4
  -4  -1  -2 991.115 50.4002  36
  -4  -1  -2 1122.16 58.0933  25
  -4  -1  -2 1123.96 47.3737  22
  -4  -1  -2 1126.51 57.6890  29
  -4  -1  -2 1125.13 51.1197  24
  -4  -1  -2 1120.20 47.2186  28
  -5  -1  -2 2.81514 0.49107  29
  -5  -1  -2 3.25144 0.41876  30
  -5  -1  -2 2.64389 0.55104  37
  -5  -1  -2 2.65194 0.46678  22
  -5  -1  -2 2.51554 0.57547   4
  -6  -1  -2 1773.75 67.8723  13
  -6  -1  -2 1896.45 76.0635  28
  -6  -1  -2 1890.87 77.3872  22
  -6  -1  -2 1747.51 74.7575  29
  -6  -1  -2 1693.13 68.0261   3
  -6  -1  -2 1835.11 72.0490  37
  -6  -1  -2 1890.42 71.0217  30
   6   1   2 1841.79 61.1145  33
   6   1   2 1739.86 79.2785  20
   6   1   2 1818.79 78.4386  34
   6   1   2 1685.05 68.2310  38
   6   1   2 1800.58 65.7552  12
   6   1   2 1790.16 68.0137  31
   6   1   2 1934.65 70.9529   8
   6   1   2 1839.82 78.7614   2
  -7  -1  -2 152.179 6.74155   3
  -7  -1  -2 164.765 6.76515  30
  -7  -1  -2 157.615 7.39883  22
  -7  -1  -2 164.730 6.45553  13
   7   1   2 170.106 7.84767   2
   7   1   2 169.128 6.82671  12
   7   1   2 166.511 6.78706  31
   7   1   2 156.184 8.15119  20
   7   1   2 164.648 8.18254  34
  -8  -1  -2 194.776 7.87770   3
  -8  -1  -2 210.797 7.63077  13
  -8  -1  -2 181.476 7.97713  30
   8   1   2 204.288 9.42560  34
   8   1   2 193.370 7.85328  31
   8   1   2 199.824 7.82457  12
   8   1   2 190.883 9.35853  20
   6  -2  -2 26.5579 1.46201   1
   6  -2  -2 23.6879 1.76146  10
   6  -2  -2 21.1015 1.58862  19
   6  -2  -2 19.4029 1.76855  34
  -6   2   2 21.1711 1.39547   3
  -6   2   2 22.6063 1.59650  18
  -6   2   2 23.3691 1.14717  13
  -6   2   2 21.3287 1.26751  30
   5  -2  -2 58.6854 2.73341   1
   5  -2  -2 59.1266 3.08518  12
   5  -2  -2 54.9077 3.54153  34
   5  -2  -2 60.4405 2.96101  16
   5  -2  -2 62.1121 2.97458  19
   5  -2  -2 57.0106 3.42750  10
  -5   2   2 59.7619 2.71476  30
  -5   2   2 59.8109 2.56519  13
  -5   2   2 60.2860 3.22861  18
  -5   2   2 59.5114 3.04493  22
  -5   2   2 49.5920 2.80685   3
   4  -2  -2 161.085 6.67863  31
   4  -2  -2 165.674 6.59486  12
   4  -2  -2 171.746 6.41748  19
   4  -2  -2 164.237 6.76750   8
   4  -2  -2 152.340 6.72286  38
   4  -2  -2 162.720 7.83063  34
   4  -2  -2 160.937 7.78763  10
   4  -2  -2 164.172 5.90762   1
   4  -2  -2 167.296 6.65758  16
   4  -2  -2 158.274 6.37618  32
  -4   2   2 154.920 7.36267  18
  -4   2   2 161.750 7.28180  22
  -4   2   2 140.248 6.54856   3
  -4   2   2 166.862 7.28891  28
  -4   2   2 154.751 7.16145  29
  -4   2   2 161.816 6.32508  13
  -4   2   2 163.368 6.63949  30
  -4   2   2 147.383 6.85660  37
   3  -2  -2 819.239 28.4605  19
   3  -2  -2 745.005 35.3914  10
   3  -2  -2 805.183 26.0958   1
  -3   2   2 777.997 31.7210  30
  -3   2   2 823.387 32.2435  37
  -3   2   2 830.674 34.0549  28
  -3   2   2 808.539 34.4553  22
  -3   2   2 834.870 33.4979  29
  -3   2   2 810.795 36.1959  23
   2  -2  -2 1918.30 88.1737  36
  -2   2   2 2014.24 82.0657  28
  -2   2   2 1983.91 87.0116  23
  -2   2   2 1997.03 80.6134  29
  -2   2   2 1918.02 88.5010  24
  -2   2   2 1732.19 75.9607  30
  -2   2   2 1880.50 82.7323  22
  -2   2   2 1838.06 88.2868  36
  -2   2   2 2012.87 102.237  25
  -2   2   2 1962.88 92.9055  37
  -2   2   2 1937.78 77.3003   5
   1  -2  -2 5.14138 0.50711  24
   1  -2  -2 4.88713 0.48508  37
   1  -2  -2 6.34276 0.57485  36
  -1   2   2 4.55332 0.41715  29
  -1   2   2 6.14097 0.61134  25
  -1   2   2 5.09020 0.47834   5
  -1   2   2 5.33677 0.49460  23
  -1   2   2 5.13117 0.44403  37
  -1   2   2 4.55383 0.48885  24
  -1   2   2 6.02284 0.43401  22
  -1   2   2 6.09395 0.58516  36
  -1   2   2 5.22710 0.43525  28
   0  -2  -2 1097.52 57.4992  25
   0  -2  -2 1137.23 50.0527  36
   0  -2  -2 1000.29 64.6401  27
   0  -2  -2 1138.47 50.2968  24
   0   2   2 1177.26 50.4120  24
   0   2   2 1072.09 67.3603   6
   0   2   2 1108.53 43.8043   5
   0   2   2 1143.94 48.9633  23
   0   2   2 984.236 49.7136  24
   0   2   2 1090.17 49.5292  36
   0   2   2 995.329 57.2671  25
   0   2   2 1046.00 45.7959  28
   0   2   2 1089.13 45.2319  29
   0   2   2 1064.20 43.4521  37
  -1  -2  -2 540.123 33.9982  27
  -1  -2  -2 519.536 34.1665  25
  -1  -2  -2 557.876 22.5151  37
  -1  -2  -2 579.711 35.2875  36
  -1  -2  -2 561.581 23.6296   4
  -1  -2  -2 588.861 30.0416  25
  -1  -2  -2 596.126 30.5631  24
   1   2   2 572.105 22.4668   5
   1   2   2 511.935 23.5413  28
   1   2   2 528.463 25.7367  24
   1   2   2 600.159 25.6593  23
   1   2   2 572.498 29.7419  25
   1   2   2 564.360 22.7499  37
   1   2   2 581.561 25.9323  36
   1   2   2 534.857 36.5421  25
   1   2   2 591.475 26.0888  24
   1   2   2 540.742 23.4869  29
  -2  -2  -2 1215.03 62.3274  25
  -2  -2  -2 1148.42 70.3136  27
  -2  -2  -2 1174.25 47.0517  37
  -2  -2  -2 1080.66 62.2481  25
  -2  -2  -2 1155.52 53.9848  36
  -2  -2  -2 1136.14 49.4582  28
  -2  -2  -2 1248.81 49.3069   4
  -2  -2  -2 1131.12 48.6922  29
  -2  -2  -2 1241.67 54.2159  24
   2   2   2 1150.50 61.9660  25
   2   2   2 1082.55 48.6606  29
   2   2   2 1204.78 47.2986  37
   2   2   2 1187.42 49.0625   9
   2   2   2 1184.68 61.7786  25
   2   2   2 1218.45 54.0641  36
   2   2   2 1182.11 53.0116  23
   2   2   2 1197.85 54.0134  24
  -3  -2  -2 86.3441 5.73599  27
  -3  -2  -2 95.9937 4.04324   4
  -3  -2  -2 91.3176 3.86335  37
  -3  -2  -2 88.6695 4.00115  28
  -3  -2  -2 93.5467 5.10244  25
  -3  -2  -2 92.6668 4.48976  24
  -3  -2  -2 82.7417 4.45591  36
  -3  -2  -2 89.6071 3.94299  29
   3   2   2 94.9315 4.49966  36
   3   2   2 92.0404 4.47807  24
   3   2   2 87.7833 3.87493  37
   3   2   2 88.4958 5.13325  25
   3   2   2 93.3128 3.99349   9
   3   2   2 90.9966 4.42516  23
  -4  -2  -2 144.002 6.24012   4
  -4  -2  -2 135.017 6.18913  28
  -4  -2  -2 142.309 5.97174  37
  -4  -2  -2 134.622 6.90417  24
  -4  -2  -2 131.533 6.90370  36
  -4  -2  -2 141.477 7.88097  25
  -4  -2  -2 144.928 6.26272  22
  -4  -2  -2 141.061 6.11699  29
   4   2   2 140.058 6.89401  24
   4   2   2 151.232 6.87651  36
   4   2   2 142.271 6.20187   9
  -5  -2  -2 12.2128 1.06669   4
  -5  -2  -2 14.2678 1.05295  37
  -5  -2  -2 14.3371 0.86214  30
  -5  -2  -2 15.6723 1.34384  36
  -5  -2  -2 14.9073 0.98158  22
  -5  -2  -2 13.9251 0.98198  29
   5   2   2 16.4621 1.31472  36
  -6  -2  -2 636.361 27.1228  22
  -6  -2  -2 612.854 24.0986   3
  -6  -2  -2 595.539 26.3745  29
  -6  -2  -2 663.293 24.9781  30
  -6  -2  -2 638.505 26.8230  28
  -6  -2  -2 649.314 25.5230  37
  -6  -2  -2 606.802 21.5624  15
  -6  -2  -2 619.881 23.8508  13
   6   2   2 603.514 24.0430  31
   6   2   2 674.642 27.9443   2
   6   2   2 654.256 23.4451  12
   6   2   2 652.928 25.1756   8
   6   2   2 594.345 28.1645  20
  -7  -2  -2 499.416 20.3212  30
  -7  -2  -2 492.412 19.7222   3
  -7  -2  -2 515.806 19.4197  13
   7   2   2 543.059 20.5449   8
   7   2   2 527.464 19.2735  12
   7   2   2 516.916 23.0274  34
   7   2   2 494.363 19.6362  31
   7   2   2 540.118 22.8427   2
   7   2   2 471.172 23.0820  20
  -8  -2  -2 189.973 7.33026  13
  -8  -2  -2 186.859 7.67016   3
   8   2   2 198.666 9.14954  34
   8   2   2 186.476 7.55616  31
   8   2   2 174.364 8.97911  20
   8   2   2 197.424 7.62006  12
   9   2   2 8.52192 0.95937  34
   6  -3  -2 181.689 9.07566  34
   6  -3  -2 195.089 7.36358  19
   6  -3  -2 195.975 6.72126   1
  -6   3   2 213.425 7.58265  13
   5  -3  -2 10.5457 1.45003  10
   5  -3  -2 11.1956 1.35328  19
   5  -3  -2 9.32200 1.21255  38
   5  -3  -2 7.65068 1.45956  34
   5  -3  -2 9.14933 1.23044   1
   5  -3  -2 12.1456 1.29254  16
  -5   3   2 10.3875 0.77785  13
  -5   3   2 10.7112 0.84378  30
  -5   3   2 10.0421 1.20099  18
   4  -3  -2 54.2862 3.32182  34
   4  -3  -2 58.1266 2.89497  12
   4  -3  -2 49.7912 3.27101  20
   4  -3  -2 55.2340 2.78331  31
   4  -3  -2 52.4038 2.57061   1
   4  -3  -2 54.6102 3.31871  10
   4  -3  -2 59.4237 2.77338  19
   4  -3  -2 53.6095 2.89355  16
   4  -3  -2 54.7372 2.89713  38
   4  -3  -2 55.4236 2.80563  32
  -4   3   2 49.9302 2.63945   3
  -4   3   2 58.6019 2.57222  30
  -4   3   2 54.9941 2.85366  22
  -4   3   2 50.2248 2.95573  18
  -4   3   2 52.7864 2.40855  13
  -4   3   2 54.4404 2.89383  28
   3  -3  -2 0.82344 0.41779  12
   3  -3  -2 0.43007 0.57288  38
   3  -3  -2 0.94953 0.56920  20
   3  -3  -2 0.75572 0.42842  32
   3  -3  -2 1.42280 0.62450   1
   3  -3  -2 0.65940 0.40602  19
   3  -3  -2 0.48242 0.53285  10
   3  -3  -2 0.61426 0.49974  16
   3  -3  -2 1.33059 0.59924  34
  -3   3   2 1.01761 0.37984  29
  -3   3   2 0.61214 0.34192  28
  -3   3   2 1.18792 0.39972  37
  -3   3   2 0.96002 0.31973  30
  -2   3   2 1923.94 84.0178   5
  -2   3   2 1947.98 84.5528  22
  -2   3   2 1855.79 77.8286  30
  -2   3   2 2001.38 79.3930  37
  -2   3   2 2033.96 82.4775  29
  -2   3   2 2064.28 83.8225  28
  -2   3   2 1958.75 88.6107  23
   1  -3  -2 67.0198 3.40735  36
  -1   3   2 70.1767 3.47339  24
  -1   3   2 68.5786 3.08604  29
  -1   3   2 70.5894 4.02090  25
  -1   3   2 68.3759 3.53609  36
  -1   3   2 69.0717 2.99989  37
  -1   3   2 70.5652 3.42727  23
  -1   3   2 70.9395 3.09605   5
  -1   3   2 68.4702 3.14526  22
  -1   3   2 69.8998 3.13104  28
   0  -3  -2 251.253 17.1603  27
   0  -3  -2 278.534 13.1513  24
   0  -3  -2 283.659 13.0974  36
   0   3   2 270.590 12.1736  22
   0   3   2 281.104 11.4682   5
   0   3   2 291.999 11.8458  29
   0   3   2 276.694 13.1204  36
   0   3   2 281.115 12.0337  28
   0   3   2 276.878 11.4149  37
   0   3   2 302.736 13.1617  24
   0   3   2 304.841 12.8472  23
  -1  -3  -2 965.436 49.8136  25
  -1  -3  -2 935.320 39.1468   4
  -1  -3  -2 997.971 43.7654  24
  -1  -3  -2 863.504 56.4771  27
  -1  -3  -2 949.422 43.3702  36
  -1  -3  -2 909.564 37.7614  37
   1   3   2 984.989 59.8058  23
   1   3   2 948.737 37.8903   5
   1   3   2 902.653 39.7023  28
   1   3   2 854.567 49.3682  25
   1   3   2 927.125 38.9327  29
   1   3   2 951.179 43.4402  24
   1   3   2 930.535 42.8845  36
   1   3   2 918.856 37.6722  37
   1   3   2 952.108 39.5756   9
   1   3   2 975.117 49.9599  25
  -2  -3  -2 6127.36 341.332  25
  -2  -3  -2 5743.29 258.150  37
  -2  -3  -2 5900.24 303.068  36
  -2  -3  -2 6350.63 303.748  24
  -2  -3  -2 5474.53 348.227  27
  -2  -3  -2 5988.82 268.127   4
   2   3   2 6063.10 260.100  37
   2   3   2 5793.88 298.935  36
   2   3   2 6028.64 302.116  24
   2   3   2 5501.82 245.447  28
   2   3   2 6056.42 307.239  25
   2   3   2 5650.86 241.340  29
   2   3   2 5465.90 306.410  25
   2   3   2 5944.44 253.893   5
   2   3   2 5923.08 265.586   9
   2   3   2 5809.39 286.046  23
  -3  -3  -2 719.923 33.6074  36
  -3  -3  -2 695.297 44.0935  27
  -3  -3  -2 756.703 31.0193   4
  -3  -3  -2 740.576 30.5785  29
  -3  -3  -2 666.348 30.9200  28
  -3  -3  -2 757.929 29.8938  37
  -3  -3  -2 742.942 39.0098  25
  -3  -3  -2 767.658 33.8000  24
   3   3   2 734.086 29.3460  37
   3   3   2 736.441 38.7794  25
   3   3   2 773.201 33.7953  24
   3   3   2 748.604 33.6059  36
   3   3   2 710.680 32.8967  23
   3   3   2 764.890 30.6444   9
  -4  -3  -2 1335.61 63.4189  36
  -4  -3  -2 1332.32 66.4488  24
  -4  -3  -2 1377.83 56.9727  29
  -4  -3  -2 1376.55 56.7828   4
  -4  -3  -2 1344.15 57.8608  28
  -4  -3  -2 1340.21 71.6794  25
  -4  -3  -2 1347.27 58.0973  22
  -4  -3  -2 1381.63 55.5386  37
   4   3   2 1384.28 60.9538  23
   4   3   2 1392.16 57.3477   9
   4   3   2 1363.39 62.5098  24
   4   3   2 1380.17 54.4708  37
   4   3   2 1427.98 62.1864  36
  -5  -3  -2 45.2343 2.01889  30
  -5  -3  -2 41.6689 2.67915  36
  -5  -3  -2 44.9431 2.23468  22
  -5  -3  -2 41.1582 2.33443   4
  -5  -3  -2 44.3077 2.22703  37
   5   3   2 46.1301 2.59306  36
  -6  -3  -2 208.073 8.30054  13
  -6  -3  -2 218.979 8.71252  30
  -6  -3  -2 220.611 9.10706  37
  -6  -3  -2 211.689 8.61252   3
  -6  -3  -2 199.867 10.5561  36
  -6  -3  -2 213.452 7.70696  15
   6   3   2 209.526 8.40646  12
   6   3   2 224.792 9.04726   8
   6   3   2 220.446 9.93454   2
  -7  -3  -2 121.662 5.36190   3
  -7  -3  -2 124.531 5.00056  13
  -7  -3  -2 124.534 4.80170  15
   7   3   2 128.159 5.39334  12
   7   3   2 119.120 6.35583  20
   7   3   2 130.713 5.62132   8
  -8  -3  -2 2.69974 0.68006   3
   8   3   2 1.98866 0.73719  12
   8   3   2 1.97582 0.69385   8
   8   3   2 1.74174 0.83421  20
   8   3   2 1.74260 0.92749  34
  -9  -3  -2 2.01365 0.38280   3
   9   3   2 3.44268 0.77448  34
   9   3   2 1.81602 0.46151  12
   5  -4  -2 88.6012 3.65004   1
   5  -4  -2 95.2553 4.06356  16
   5  -4  -2 92.7816 4.13982  38
   5  -4  -2 80.7680 4.75458  34
   5  -4  -2 91.9554 3.99642  19
   5  -4  -2 107.555 4.91193  10
  -5   4   2 100.688 3.84313  13
  -5   4   2 91.2937 4.02421  30
   4  -4  -2 191.824 7.57358  19
   4  -4  -2 178.308 9.32306  20
   4  -4  -2 194.949 7.95540  16
   4  -4  -2 207.058 9.41705  10
   4  -4  -2 195.278 7.68099  32
   4  -4  -2 189.881 9.32735  34
   4  -4  -2 196.641 7.03409   1
   4  -4  -2 200.432 8.16993  38
  -4   4   2 193.963 7.65644  13
  -4   4   2 199.344 8.05287  30
  -4   4   2 196.349 8.80682  22
   3  -4  -2 31.2496 1.96004  38
   3  -4  -2 32.3331 1.70812   1
   3  -4  -2 28.0774 2.16637  20
   3  -4  -2 28.1147 1.82078  32
   3  -4  -2 31.5468 1.79215  19
   3  -4  -2 31.1041 2.30978  10
   3  -4  -2 32.3391 1.93632  16
   3  -4  -2 28.9697 2.11135  34
  -3   4   2 28.9000 1.53300  30
  -3   4   2 28.6656 1.70991  29
  -3   4   2 28.5229 1.74756  28
  -3   4   2 26.5768 1.66314  37
  -3   4   2 27.6452 1.45901  13
  -3   4   2 30.0421 1.73262  22
   2  -4  -2 41.5799 1.91129   1
   2  -4  -2 40.9257 2.52138  20
   2  -4  -2 40.9919 2.46910  34
   2  -4  -2 39.9375 2.10515  32
   2  -4  -2 41.8059 2.21186  16
   2  -4  -2 39.9096 2.01562  19
   2  -4  -2 38.2928 2.81634   7
   2  -4  -2 40.8402 2.22862  38
  -2   4   2 40.8809 2.01551  37
  -2   4   2 42.5152 2.11371  28
  -2   4   2 40.4096 1.89114  30
  -2   4   2 43.7381 2.09477  29
  -2   4   2 42.7099 2.10657  22
  -1   4   2 6.06802 0.55270  29
  -1   4   2 6.37450 0.57849  28
  -1   4   2 6.58379 0.66820   5
  -1   4   2 7.49836 0.60667  37
  -1   4   2 6.43312 0.54679  22
  -1   4   2 6.54209 0.69679  23
  -1   4   2 6.28083 0.48170  30
   0  -4  -2 70.9976 3.68808  36
   0   4   2 75.3514 3.29958   5
   0   4   2 78.2112 3.71903  23
   0   4   2 74.0507 3.39986  22
   0   4   2 75.6516 3.74546  24
   0   4   2 74.1649 3.24785  37
   0   4   2 77.5651 3.34526  29
   0   4   2 81.1638 3.93906  36
  -1  -4  -2 249.827 11.3491  36
  -1  -4  -2 248.283 11.3986  24
   1   4   2 239.588 10.3553   9
   1   4   2 248.478 13.1053  25
   1   4   2 233.180 10.5021  22
   1   4   2 244.867 9.88052  37
   1   4   2 239.841 9.87100   5
   1   4   2 257.541 11.1216  23
   1   4   2 243.558 10.2260  29
   1   4   2 243.925 11.3930  24
   1   4   2 243.595 10.3949  28
   1   4   2 240.189 11.3562  36
  -2  -4  -2 3261.90 131.072   4
  -2  -4  -2 2706.15 227.760  27
  -2  -4  -2 3130.50 125.480  37
  -2  -4  -2 3127.49 143.804  36
  -2  -4  -2 3230.95 144.573  24
   2   4   2 3273.45 165.885  25
   2   4   2 3240.20 140.716  23
   2   4   2 3128.15 132.370  28
   2   4   2 3252.48 131.333   9
   2   4   2 3013.46 173.333  36
   2   4   2 2914.51 133.744  22
   2   4   2 3179.00 144.485  24
   2   4   2 3151.06 146.502   5
   2   4   2 3254.29 130.280  29
   2   4   2 3152.66 144.118  37
  -3  -4  -2 8.00846 0.82877  24
  -3  -4  -2 7.05351 0.65889  37
  -3  -4  -2 7.25436 0.74252   4
   3   4   2 7.15622 0.67099   9
   3   4   2 7.89317 0.99568  25
   3   4   2 6.99888 0.77457  23
   3   4   2 7.47898 0.71339  29
   3   4   2 7.88861 0.72584  37
   3   4   2 7.65826 0.83864  24
  -4  -4  -2 103.991 4.34616  37
  -4  -4  -2 91.3208 5.02737  24
  -4  -4  -2 102.852 4.54708   4
  -4  -4  -2 93.3944 5.03677  36
   4   4   2 95.8088 4.88351  23
   4   4   2 101.067 4.44444   9
   4   4   2 100.509 4.35300  37
   4   4   2 99.3493 5.05504  24
   4   4   2 99.1007 5.02558  36
  -5  -4  -2 18.7848 1.38591   4
  -5  -4  -2 20.1466 1.31359  37
  -5  -4  -2 18.6920 1.58916  36
   5   4   2 20.2612 1.52688  36
   5   4   2 22.1799 1.37237  37
  -6  -4  -2 162.034 5.98619  15
  -6  -4  -2 164.836 7.05711  37
  -6  -4  -2 162.369 8.26955  36
  -6  -4  -2 160.918 6.32210  13
  -6  -4  -2 163.610 6.68480   3
   6   4   2 157.423 7.61754   2
   6   4   2 164.894 6.50482  12
   6   4   2 157.812 6.99681   8
  -7  -4  -2 10.6155 1.07880  15
  -7  -4  -2 7.82462 0.68666  13
  -7  -4  -2 7.98823 1.05522   3
   7   4   2 8.16298 1.14756   8
   7   4   2 6.95312 1.26451  20
   7   4   2 9.13883 1.23748  12
  -8  -4  -2 38.8286 1.98889  15
  -8  -4  -2 40.5974 2.26698   3
   8   4   2 38.3731 2.65916  20
   8   4   2 40.6894 2.26276   8
   8   4   2 41.7026 2.34966  12
  -9  -4  -2 18.3725 1.16449   3
   9   4   2 15.2901 0.96455   8
   9   4   2 17.0299 1.21594  12
   9   4   2 17.7956 1.46503  34
   5  -5  -2 18.9986 1.30190  38
   5  -5  -2 18.1813 1.12686   1
  -5   5   2 22.5384 1.04528  13
   4  -5  -2 476.260 17.0184  32
   4  -5  -2 475.152 18.1379  38
   4  -5  -2 451.932 20.7446  34
   4  -5  -2 499.629 20.9040  10
   4  -5  -2 475.626 16.8522  19
   4  -5  -2 447.173 15.4362   1
   4  -5  -2 424.790 20.8786  20
   4  -5  -2 477.565 17.6408  16
  -4   5   2 464.933 18.5497  30
  -4   5   2 457.835 17.6954  13
   3  -5  -2 19.2968 1.55994  19
   3  -5  -2 20.8078 1.65104  16
   3  -5  -2 18.3769 1.82225  10
   3  -5  -2 19.5738 1.63812  32
   3  -5  -2 20.0529 1.86776  34
   3  -5  -2 20.5746 1.68883  38
   3  -5  -2 20.5925 1.84957  20
   3  -5  -2 18.8601 1.37160   1
  -3   5   2 16.9264 1.09768  13
  -3   5   2 21.1618 1.20222  30
  -3   5   2 19.7256 1.33118  22
   2  -5  -2 106.836 6.22870   7
   2  -5  -2 117.959 4.25993   1
   2  -5  -2 114.955 4.87221  16
   2  -5  -2 111.076 5.63143  34
   2  -5  -2 108.900 5.67804  20
   2  -5  -2 111.917 4.58203  19
   2  -5  -2 111.410 4.69279  32
   2  -5  -2 113.872 5.69873  10
   2  -5  -2 109.525 4.96718  38
  -2   5   2 113.003 4.69413  30
  -2   5   2 107.355 5.01907  29
  -2   5   2 113.256 5.10990  28
  -2   5   2 113.063 5.13840  22
   1  -5  -2 193.446 6.86053   1
   1  -5  -2 199.538 7.90411  16
   1  -5  -2 200.863 8.12824  38
   1  -5  -2 206.405 7.53187  19
   1  -5  -2 197.750 7.67167  32
   1  -5  -2 184.888 10.1837   7
   1  -5  -2 181.419 7.69602  14
   1  -5  -2 201.808 9.38940  20
   1  -5  -2 207.284 9.30459  34
  -1   5   2 204.236 8.06242  30
  -1   5   2 202.868 8.26968  37
  -1   5   2 208.996 8.78601  22
  -1   5   2 206.084 8.57684  29
  -1   5   2 206.774 8.70098  28
   0   5   2 239.777 9.62684  37
   0   5   2 222.802 9.38037  30
   0   5   2 232.120 10.1014  28
   0   5   2 242.930 10.2169  22
   0   5   2 237.352 10.8855  23
   0   5   2 239.496 9.95805  29
  -1  -5  -2 560.988 25.3720  36
   1   5   2 565.533 23.2845   9
   1   5   2 568.391 23.4089  28
   1   5   2 563.551 23.6910  22
   1   5   2 568.213 24.9301  23
   1   5   2 560.593 23.0173  29
   1   5   2 538.290 25.4641  36
   1   5   2 533.603 22.1767   5
   1   5   2 555.822 22.1976  37
   1   5   2 525.581 21.8224  30
  -2  -5  -2 980.800 43.8889  36
   2   5   2 941.982 40.8184  22
   2   5   2 908.472 37.6532  30
   2   5   2 977.355 39.9590   9
   2   5   2 960.717 43.7205  36
   2   5   2 982.480 39.6412  29
   2   5   2 990.593 50.4981  25
   2   5   2 967.153 42.9650  23
   2   5   2 905.390 43.9259  24
   2   5   2 1013.48 38.4796  37
   2   5   2 955.376 40.3087  28
   2   5   2 935.722 38.3257   5
  -3  -5  -2 116.094 5.57262  36
  -3  -5  -2 110.574 5.56422  24
  -3  -5  -2 105.443 4.74791  37
  -3  -5  -2 113.742 4.99696   4
   3   5   2 105.468 4.98383  22
   3   5   2 115.130 4.80226  37
   3   5   2 109.253 4.96436  28
   3   5   2 108.770 4.90092  29
   3   5   2 108.831 5.36291  23
   3   5   2 112.464 4.96529   9
   3   5   2 112.410 5.53845  36
   3   5   2 114.080 6.44918  25
  -4  -5  -2 1855.57 78.4888   4
  -4  -5  -2 2016.47 88.1349  36
  -4  -5  -2 1965.55 76.3673  37
   4   5   2 1894.08 85.9625  36
   4   5   2 1844.36 78.4879   9
   4   5   2 1796.87 84.1282  23
   4   5   2 1883.14 75.4072  37
  -5  -5  -2 308.294 12.5928  37
  -5  -5  -2 311.164 10.7082  15
  -5  -5  -2 301.450 14.5463  36
   5   5   2 296.312 12.5871  37
   5   5   2 316.075 14.4896  36
   5   5   2 293.097 11.4381  12
  -6  -5  -2 581.713 19.1665  15
  -6  -5  -2 545.676 26.0187  36
  -6  -5  -2 565.585 21.3452   3
  -6  -5  -2 560.180 22.5958  37
  -6  -5  -2 530.105 19.9678  17
   6   5   2 551.949 20.5627  12
   6   5   2 548.434 22.3284   8
   6   5   2 557.377 25.8163  36
  -7  -5  -2 31.0082 1.95744   3
  -7  -5  -2 33.9333 1.83075  15
   7   5   2 33.5933 2.14739   8
   7   5   2 31.8249 1.93334  12
  -8  -5  -2 464.539 16.3428  15
  -8  -5  -2 487.979 18.2863   3
   8   5   2 489.893 17.7156  12
   8   5   2 446.273 21.1749  20
   8   5   2 474.362 19.0322   8
  -9  -5  -2 125.230 5.04894  15
  -9  -5  -2 142.431 5.73591   3
   9   5   2 149.117 5.64055  12
   9   5   2 141.400 5.88241   8
   9   5   2 149.743 6.76437  34
   4  -6  -2 266.312 10.1211  38
   4  -6  -2 253.281 8.64380   1
   4  -6  -2 237.467 11.5153  34
   4  -6  -2 238.670 11.6286  20
   4  -6  -2 275.741 9.90946  16
  -4   6   2 253.599 9.76827  13
   3  -6  -2 38.0883 2.18593  32
   3  -6  -2 35.4749 1.92665   1
   3  -6  -2 35.9670 2.21921  38
   3  -6  -2 34.5446 2.51674  20
   3  -6  -2 37.1639 2.23238  16
   3  -6  -2 36.0256 2.52232  10
   3  -6  -2 35.2000 2.44824  34
  -3   6   2 38.4585 2.03462  22
  -3   6   2 35.5060 1.72315  13
  -3   6   2 36.7309 1.83046  30
   2  -6  -2 364.375 15.9800  10
   2  -6  -2 361.769 13.6139  16
   2  -6  -2 354.747 11.8349   1
   2  -6  -2 345.886 15.8809  34
   2  -6  -2 350.453 17.4999   7
   2  -6  -2 356.991 13.9558  38
   2  -6  -2 347.409 13.1532  32
   2  -6  -2 356.306 16.1290  20
   2  -6  -2 355.846 12.9304  19
  -2   6   2 351.624 14.0696  30
  -2   6   2 346.093 15.1221  28
  -2   6   2 344.016 15.2866  22
  -2   6   2 332.794 13.4164  13
   1  -6  -2 224.521 10.1933  10
   1  -6  -2 216.439 7.52594   1
   1  -6  -2 201.557 11.1818   7
   1  -6  -2 223.821 8.89841  38
   1  -6  -2 217.071 10.1414  34
   1  -6  -2 221.299 10.2801  20
   1  -6  -2 214.474 8.41275  32
   1  -6  -2 200.431 8.46794  14
   1  -6  -2 222.775 8.70471  16
  -1   6   2 213.908 9.37644  29
  -1   6   2 223.838 9.53134  28
  -1   6   2 220.659 8.82325  30
  -1   6   2 237.135 9.63192  22
   0  -6  -2 1634.43 57.7481  16
   0  -6  -2 1575.20 55.9902  32
   0  -6  -2 1628.38 59.6460  38
   0  -6  -2 1459.66 74.5322   7
   0  -6  -2 1486.57 56.7543  14
   0  -6  -2 1341.33 73.7384  21
   0  -6  -2 1653.92 69.1677  20
   0  -6  -2 1606.89 68.3115  34
   0   6   2 1693.96 67.5310  28
   0   6   2 1617.63 62.2512  30
   0   6   2 1586.24 76.8233  29
   0   6   2 1615.96 63.1776  37
   0   6   2 1690.08 68.3413  22
   1   6   2 366.308 14.6208  30
   1   6   2 376.675 14.9576  37
   1   6   2 377.017 15.8899  22
   1   6   2 339.597 15.6833   9
   1   6   2 380.167 15.7222  28
   1   6   2 373.632 15.4736  29
  -2  -6  -2 4.74201 0.75022  36
   2   6   2 5.58665 0.69073  37
   2   6   2 6.93662 0.64808  29
   2   6   2 6.71457 0.64349  28
   2   6   2 6.78141 0.60469  22
   2   6   2 5.75530 0.64731   9
   2   6   2 5.30305 0.80662  36
   2   6   2 6.28850 0.52329  30
   2   6   2 6.71041 0.76980  23
   3   6   2 10.4712 1.06563  36
   3   6   2 9.29987 0.85962  37
   3   6   2 10.7932 0.83128  28
   3   6   2 8.75883 0.89021  23
   3   6   2 8.89018 0.67947  30
   3   6   2 8.94729 0.82725   9
   3   6   2 9.10276 0.76516  22
   3   6   2 10.1644 0.80755  29
  -4  -6  -2 187.322 7.84959   4
  -4  -6  -2 181.812 8.68042  36
   4   6   2 178.787 8.68091  36
   4   6   2 163.710 8.38115  23
   4   6   2 177.021 7.51140  37
   4   6   2 166.179 7.74128   9
  -5  -6  -2 193.161 8.03317  37
  -5  -6  -2 179.568 7.92963   8
  -5  -6  -2 191.307 7.21146  17
  -5  -6  -2 192.961 6.83478  15
  -5  -6  -2 183.823 7.55795   3
  -5  -6  -2 199.378 9.37189  36
   5   6   2 173.364 7.99514   8
   5   6   2 184.748 7.27306  12
   5   6   2 182.570 8.02320  37
   5   6   2 194.003 9.29274  36
   5   6   2 184.055 7.54024   3
  -6  -6  -2 643.869 23.8785  17
  -6  -6  -2 665.877 31.0207  36
  -6  -6  -2 682.628 25.4451   3
  -6  -6  -2 637.536 26.5823   8
  -6  -6  -2 709.747 22.8726  15
   6   6   2 688.262 24.5302  12
   6   6   2 670.985 25.3731   3
   6   6   2 652.108 26.6416   8
   6   6   2 636.053 30.8069  36
  -7  -6  -2 29.4682 1.84722   3
  -7  -6  -2 26.7212 1.87544   8
  -7  -6  -2 32.1125 1.75939  15
   7   6   2 29.3466 1.84404  12
   7   6   2 30.6439 2.02461   8
  -8  -6  -2 1073.96 40.6104   3
  -8  -6  -2 1050.76 36.3942  15
   8   6   2 1079.88 42.4014   8
   8   6   2 1092.91 39.2005  12
  -9  -6  -2 330.963 12.7842   3
  -9  -6  -2 315.941 11.4380  15
   9   6   2 318.746 13.2943   8
   9   6   2 348.171 14.8394  34
   9   6   2 347.691 12.4226  12
   3  -7  -2 3.15722 0.79541  34
   3  -7  -2 1.59778 0.66276  20
   3  -7  -2 2.60375 0.69862   1
   3  -7  -2 3.04317 0.70717  16
   3  -7  -2 1.86508 0.67171  38
  -3   7   2 2.12494 0.45382  30
  -3   7   2 2.52890 0.45448  13
   2  -7  -2 177.471 7.44766  16
   2  -7  -2 172.091 6.43206   1
   2  -7  -2 193.411 8.68394  10
   2  -7  -2 185.301 8.69657  34
   2  -7  -2 183.477 7.59745  38
   2  -7  -2 181.648 7.24267  32
   2  -7  -2 187.682 9.65342   7
   2  -7  -2 177.993 8.76710  20
  -2   7   2 179.017 7.14098  13
  -2   7   2 190.750 7.51513  30
  -2   7   2 179.925 8.16750  22
   1  -7  -2 167.420 6.89794  14
   1  -7  -2 165.904 9.10124   7
   1  -7  -2 165.854 8.13105  34
   1  -7  -2 165.481 6.03206   1
   1  -7  -2 182.228 7.15102  38
   1  -7  -2 174.179 8.26260  20
   1  -7  -2 167.106 6.79849  32
   1  -7  -2 167.625 6.99971  16
  -1   7   2 174.990 6.99505  30
  -1   7   2 171.562 7.58441  28
  -1   7   2 176.025 7.63574  22
  -1   7   2 161.854 6.64487  13
   0  -7  -2 1549.24 76.3356  21
   0  -7  -2 1585.55 58.7352  14
   0  -7  -2 1650.26 61.6196  38
   0  -7  -2 1490.85 77.0717   7
   0  -7  -2 1681.51 71.4940  20
   0  -7  -2 1622.88 57.9114  32
   0  -7  -2 1713.35 59.7456  16
   0  -7  -2 1633.27 70.6157  34
   0   7   2 1760.53 70.6060  22
   0   7   2 1657.10 61.2823  13
   0   7   2 1527.32 67.4359  29
   0   7   2 1701.29 68.9964  28
   0   7   2 1689.09 64.8014  30
  -1  -7  -2 63.2806 3.02545  14
  -1  -7  -2 64.0332 3.46697  34
  -1  -7  -2 61.2109 2.90155   8
  -1  -7  -2 61.0759 3.94751   7
  -1  -7  -2 63.0975 3.51375  26
  -1  -7  -2 63.4165 2.95980  38
  -1  -7  -2 65.1718 2.99788  16
  -1  -7  -2 59.4366 3.88372  21
  -1  -7  -2 70.1008 3.54297  20
  -1  -7  -2 65.2164 2.96692  32
   1   7   2 66.5048 3.08382  22
   1   7   2 62.1472 3.00421  37
   1   7   2 67.2249 2.80361  30
   1   7   2 66.0980 3.10998  28
   1   7   2 58.5448 2.63814  13
   1   7   2 63.5209 3.06193  29
  -2  -7  -2 33.7504 2.54116   7
  -2  -7  -2 38.1144 1.91038   8
  -2  -7  -2 38.3926 2.28722  20
  -2  -7  -2 36.2282 1.98998  14
  -2  -7  -2 34.6488 2.23188  34
   2   7   2 34.9984 1.92822  28
   2   7   2 36.8465 1.91371  22
   2   7   2 34.9646 1.62505  13
   2   7   2 35.0868 1.91822  29
   2   7   2 35.4708 1.83822   3
  -3  -7  -2 204.874 7.88584  17
  -3  -7  -2 201.709 8.59758   8
  -3  -7  -2 207.940 7.99144  14
  -3  -7  -2 213.790 9.65388  34
  -3  -7  -2 211.104 9.65963  20
  -3  -7  -2 202.870 9.38190  26
   3   7   2 211.551 8.76670  37
   3   7   2 192.531 10.1968  36
   3   7   2 207.697 8.99723  29
   3   7   2 214.226 9.19742  22
   3   7   2 202.721 8.02849  13
   3   7   2 202.270 8.23238   3
   3   7   2 216.526 8.44560  30
   3   7   2 211.595 9.12265  28
  -4  -7  -2 26.6200 1.94603  26
  -4  -7  -2 26.4459 1.94184  34
  -4  -7  -2 31.7706 2.08064  36
  -4  -7  -2 27.7742 1.71571   8
  -4  -7  -2 27.5289 1.68134  17
   4   7   2 28.7170 1.61588  12
   4   7   2 27.5355 1.66353   3
   4   7   2 27.7305 2.09408  36
   4   7   2 29.9720 1.79308  37
  -5  -7  -2 8.76368 0.92587  15
  -5  -7  -2 7.45788 1.19861  36
  -5  -7  -2 9.69563 1.12438  17
   5   7   2 7.43377 1.01932   3
   5   7   2 7.86779 1.02549  12
   5   7   2 9.70901 1.02539  37
   5   7   2 8.32136 1.17200  36
  -6  -7  -2 26.5637 1.67068   3
  -6  -7  -2 26.6500 1.72075  17
  -6  -7  -2 26.4699 1.78653   8
  -6  -7  -2 25.5115 1.59357  15
   6   7   2 23.3831 1.83352   8
   6   7   2 24.3143 1.64550   3
   6   7   2 25.0782 1.61786  12
  -7  -7  -2 45.0843 2.34768   3
  -7  -7  -2 42.4077 2.50122   8
  -7  -7  -2 47.6899 2.25700  15
  -7  -7  -2 45.1736 2.26101  17
   7   7   2 44.1191 2.35648  12
   7   7   2 43.4250 2.27493   3
   7   7   2 43.7234 2.58503   8
  -8  -7  -2 343.768 11.8527  15
  -8  -7  -2 342.535 13.1579   3
  -8  -7  -2 325.050 13.8216   8
   8   7   2 330.747 13.7954   8
   8   7   2 349.292 12.7913  12
  -9  -7  -2 258.046 9.02083  15
   9   7   2 234.207 10.4501   8
   9   7   2 287.064 9.81011  12
   2  -8  -2 8.80606 0.87359   1
   2  -8  -2 9.04695 1.08805  38
   2  -8  -2 8.30033 1.11210  16
   2  -8  -2 8.21840 1.42724   7
   2  -8  -2 9.07273 1.13155  34
  -2   8   2 7.35498 0.66945  30
  -2   8   2 9.86688 0.67557  13
   1  -8  -2 143.526 7.72862   7
   1  -8  -2 142.918 5.80577  14
   1  -8  -2 144.937 5.94052  38
   1  -8  -2 136.043 5.88375  16
   1  -8  -2 144.138 6.93894  20
   1  -8  -2 134.239 6.79925  34
  -1   8   2 139.780 5.55693  13
  -1   8   2 131.884 6.34956  22
  -1   8   2 143.795 5.84376  30
   0  -8  -2 744.728 32.5272  34
   0  -8  -2 722.431 35.1935  21
   0  -8  -2 745.486 27.1668  14
   0  -8  -2 768.373 27.5979  16
   0  -8  -2 775.182 32.9340  20
   0  -8  -2 735.339 28.2973  38
   0  -8  -2 716.366 35.6353   7
   0  -8  -2 721.986 26.7428  32
   0   8   2 725.730 27.9625  13
   0   8   2 726.818 31.7823  22
   0   8   2 774.736 29.2944  30
  -1  -8  -2 173.077 7.03914  16
  -1  -8  -2 179.191 8.31298  34
  -1  -8  -2 181.673 8.37504  20
  -1  -8  -2 165.464 9.16360   7
  -1  -8  -2 171.828 8.14352  26
  -1  -8  -2 163.697 9.06470  21
  -1  -8  -2 177.714 7.09326  38
  -1  -8  -2 173.292 7.02959  14
   1   8   2 169.012 6.78902  13
   1   8   2 180.375 7.14303  30
   1   8   2 174.769 7.78712  22
   1   8   2 171.897 7.75329  28
  -2  -8  -2 387.096 16.8991  34
  -2  -8  -2 363.908 13.4689  11
  -2  -8  -2 370.929 15.0796   8
  -2  -8  -2 369.950 16.4800  26
  -2  -8  -2 351.043 18.3119  21
  -2  -8  -2 371.948 14.1123  14
  -2  -8  -2 383.989 17.0351  20
  -2  -8  -2 367.107 18.4667   7
   2   8   2 390.485 15.0294  30
   2   8   2 402.846 15.4662  37
   2   8   2 372.281 16.3221  22
   2   8   2 374.659 14.3337  13
   2   8   2 375.999 14.5555   3
  -3  -8  -2 3.97115 0.74482   8
  -3  -8  -2 5.22746 1.07263  34
  -3  -8  -2 4.12103 0.70348  17
  -3  -8  -2 3.85178 0.88484  26
  -3  -8  -2 3.84264 1.03026  21
   3   8   2 5.47397 0.85938  28
   3   8   2 4.61074 0.69811  22
   3   8   2 4.55790 0.57417  13
   3   8   2 5.50375 0.84461  37
   3   8   2 3.71341 0.62117  30
  -4  -8  -2 848.783 36.0883  26
  -4  -8  -2 918.050 37.2997  34
  -4  -8  -2 880.554 33.7433   8
  -4  -8  -2 860.458 30.4630  17
  -4  -8  -2 753.086 40.0776  21
   4   8   2 846.582 34.2861  37
   4   8   2 868.176 31.1432  12
   4   8   2 822.598 32.0638  13
   4   8   2 891.763 33.6367  30
   4   8   2 822.681 32.2910   3
  -5  -8  -2 32.8270 1.98113   8
  -5  -8  -2 29.6451 2.11419  26
  -5  -8  -2 31.1188 1.86866  17
  -5  -8  -2 31.1786 1.69174  15
   5   8   2 32.6154 1.83695  12
   5   8   2 31.1381 1.86995   3
  -6  -8  -2 182.369 7.12557  17
  -6  -8  -2 185.410 6.73693  15
  -6  -8  -2 183.202 7.85531   8
   6   8   2 182.100 7.20524  12
   6   8   2 176.203 7.42402   3
  -7  -8  -2 50.3826 2.69873   8
  -7  -8  -2 50.7173 2.38395  15
  -7  -8  -2 50.4111 2.47740  17
   7   8   2 49.9608 2.51978  12
   7   8   2 49.9878 2.49164   3
   7   8   2 49.4531 2.76260   8
  -8  -8  -2 151.855 5.54735  15
  -8  -8  -2 145.850 6.46010   8
   8   8   2 151.423 6.45936   8
   8   8   2 152.168 5.98810  12
   1  -9  -2 8.65335 1.07838  16
   1  -9  -2 9.65477 1.42664   7
   1  -9  -2 9.11064 1.13009  34
   1  -9  -2 8.65936 1.14639  20
  -1   9   2 9.14843 0.70035  13
  -1   9   2 9.34260 0.71650  30
   0  -9  -2 121.603 5.14503  14
   0  -9  -2 115.502 5.98764  34
   0  -9  -2 116.184 6.70412   7
   0  -9  -2 122.618 6.52513  21
   0  -9  -2 124.215 5.19460  16
   0  -9  -2 121.492 6.05525  20
   0   9   2 125.596 4.87796  13
   0   9   2 124.112 5.11786  30
  -1  -9  -2 56.5827 3.26598  34
  -1  -9  -2 55.0067 2.81618  14
  -1  -9  -2 53.5094 3.70018   7
  -1  -9  -2 58.9659 3.27175  20
  -1  -9  -2 55.7660 3.27344  26
  -1  -9  -2 52.9219 3.70432  21
  -1  -9  -2 58.3175 2.83336  16
   1   9   2 52.2218 2.82490  22
   1   9   2 56.5479 2.45137  13
   1   9   2 57.3609 2.58655  30
  -2  -9  -2 91.6521 5.39119   7
  -2  -9  -2 96.6637 4.17570  14
  -2  -9  -2 91.0295 4.81862  20
  -2  -9  -2 93.0086 4.87474  34
   2   9   2 91.1331 4.42999  22
   2   9   2 96.2519 4.05883  30
   2   9   2 90.2924 4.07155   3
   2   9   2 92.9447 3.83809  13
  -3  -9  -2 2.89621 0.82119  26
  -3  -9  -2 2.19400 0.72755  11
  -3  -9  -2 3.31342 0.96522   7
  -3  -9  -2 3.20496 0.99201  21
  -3  -9  -2 1.50564 0.55583  14
  -3  -9  -2 3.04049 0.67668  17
   3   9   2 4.20778 0.61050  13
   3   9   2 4.29213 0.89303   3
   3   9   2 2.25095 0.52553  22
   3   9   2 3.05206 0.60541  30
  -4  -9  -2 951.304 33.5249  17
  -4  -9  -2 894.712 44.2129  21
  -4  -9  -2 967.602 37.0859   8
  -4  -9  -2 926.702 39.7132  26
   4   9   2 959.612 34.2954  12
   4   9   2 924.749 35.3278  13
   4   9   2 944.048 35.5868   3
  -5  -9  -2 275.034 12.4724  26
  -5  -9  -2 284.877 10.6121  17
  -5  -9  -2 287.221 11.6391   8
   5   9   2 284.458 10.7461  12
   5   9   2 274.696 11.1208   3
  -6  -9  -2 962.717 36.3175   8
  -6  -9  -2 860.419 31.0960  15
  -6  -9  -2 903.442 32.6945  17
   6   9   2 926.752 33.4806  12
   6   9   2 928.567 34.7362   3
  -7  -9  -2 148.051 6.39152   8
  -7  -9  -2 148.978 5.48698  15
  -7  -9  -2 153.255 5.79429  17
   7   9   2 143.966 5.88923  12
   7   9   2 143.702 6.02350   3
  -8  -9  -2 2.16459 0.52902   8
  -8  -9  -2 2.04683 0.35302  15
   8   9   2 3.01954 0.51448  12
   8   9   2 1.34598 0.48389   8
   0 -10  -2 18.7160 1.42737  20
   0 -10  -2 16.4866 1.20202  16
   0 -10  -2 17.3000 1.35857  34
   0 -10  -2 17.2618 1.66040   7
   0  10   2 18.9026 0.98724  13
  -1 -10  -2 117.409 6.14906  21
  -1 -10  -2 115.491 5.39716  26
  -1 -10  -2 103.351 4.64898  16
  -1 -10  -2 110.576 5.51205  34
  -1 -10  -2 116.357 4.75137  14
  -1 -10  -2 106.793 6.13623   7
  -1 -10  -2 112.915 5.55261  20
   1  10   2 113.932 4.51683  13
   1  10   2 111.123 4.75028  30
  -2 -10  -2 52.8733 3.48811  21
  -2 -10  -2 53.1989 3.46035   7
  -2 -10  -2 51.1841 2.64755  14
  -2 -10  -2 53.7449 3.06547  34
  -2 -10  -2 52.2896 3.10002  26
   2  10   2 50.7265 2.45483  30
   2  10   2 52.0024 2.32437  13
  -3 -10  -2 1.35029 0.78349   7
  -3 -10  -2 0.93886 0.71626  34
  -3 -10  -2 0.39084 0.82640  21
  -3 -10  -2 0.63478 0.70092  26
  -3 -10  -2 1.25164 0.59449  11
   3  10   2 1.48231 0.53998   3
   3  10   2 1.40327 0.41415  30
  -4 -10  -2 75.9768 4.66067  21
  -4 -10  -2 81.2084 4.26669  26
  -4 -10  -2 82.4085 3.55499  17
  -4 -10  -2 77.3678 3.64002   8
  -4 -10  -2 85.7692 3.54852  11
   4  10   2 80.9842 3.68521   3
   4  10   2 82.4426 3.37435  13
   4  10   2 81.7696 3.57236  12
  -5 -10  -2 197.409 10.5412  21
  -5 -10  -2 214.722 8.12558  17
  -5 -10  -2 224.691 8.85002   8
  -5 -10  -2 216.226 9.58429  26
  -5 -10  -2 209.417 7.92949  11
   5  10   2 209.891 8.50287   3
   5  10   2 212.165 8.22167  12
  -6 -10  -2 189.120 7.79513   8
  -6 -10  -2 186.141 7.13655  17
  -6 -10  -2 187.847 6.96792  11
   6  10   2 186.216 7.22650  12
   6  10   2 178.517 7.45053   3
  -7 -10  -2 21.3918 1.32312  11
  -7 -10  -2 21.6829 1.44041   8
  -7 -10  -2 22.7822 1.28657  15
  -7 -10  -2 25.2186 1.48149  17
   7  10   2 28.3014 1.45116   3
   7  10   2 27.4206 1.47470  12
  -8 -10  -2 42.1805 2.16984   8
  -1 -11  -2 94.2510 5.51420   7
   1  11   2 113.039 4.12423  13
  -2 -11  -2 415.212 21.2674   7
  -2 -11  -2 445.982 19.5412  34
  -2 -11  -2 450.594 21.1695  21
   2  11   2 463.634 16.8294  13
  -3 -11  -2 96.2602 5.17348  21
  -3 -11  -2 95.6953 4.62350  26
   3  11   2 93.2730 3.97266   3
   3  11   2 96.6812 3.82432  13
   3  11   2 90.1583 3.93581  12
  -4 -11  -2 11.7462 1.39845  21
  -4 -11  -2 13.5351 1.07452  17
  -4 -11  -2 12.7433 1.33137  26
  -4 -11  -2 14.6813 1.11427  11
   4  11   2 10.4834 0.77523  13
   4  11   2 13.3787 1.13602  12
   4  11   2 11.7706 1.12230   3
  -5 -11  -2 24.6001 1.64450  26
  -5 -11  -2 22.7837 1.41095  11
  -5 -11  -2 23.8420 1.42670  17
  -5 -11  -2 19.1751 1.68090  21
   5  11   2 23.6933 1.37838  19
   5  11   2 22.3986 1.39267  12
   5  11   2 22.1914 1.42151   3
  -6 -11  -2 279.547 9.98141  17
  -6 -11  -2 266.881 10.9085   8
  -6 -11  -2 269.408 9.73566  11
   6  11   2 271.290 10.5520   3
   6  11   2 273.464 10.1934  12
   4  11  -3 128.206 5.05571  13
   4  11  -3 133.647 4.93487  19
   4  11  -3 114.975 5.15399   3
  -4 -11   3 129.719 4.77384  33
  -4 -11   3 130.387 4.85435  11
  -4 -11   3 141.913 5.04788  17
   3  11  -3 766.707 27.6030  13
   3  11  -3 731.629 25.7205  19
  -3 -11   3 767.065 26.0928  17
  -3 -11   3 689.075 26.7957  16
  -3 -11   3 758.069 25.4273  11
  -3 -11   3 718.121 24.9575  33
  -3 -11   3 698.858 34.3139  21
   2  11  -3 510.191 18.2193  13
  -2 -11   3 492.227 22.8049  21
  -2 -11   3 468.001 16.8416  11
  -2 -11   3 473.455 22.9425   7
  -2 -11   3 459.359 17.7945  16
   1  11  -3 0.95241 0.25509  13
  -1 -11   3 0.64028 0.58721   7
  -1 -11   3 0.83417 0.50048  21
  -1 -11   3 0.45688 0.43840  16
  -1 -11   3 1.48358 0.39359  11
   0 -11   3 15.5895 1.41088   7
   0 -11   3 14.2220 1.08474  16
   6  10  -3 177.036 7.02179   3
   6  10  -3 183.837 6.60229  19
  -6 -10   3 172.838 6.40149  33
  -6 -10   3 181.503 6.36559  15
   5  10  -3 31.1639 1.74020   3
   5  10  -3 33.0240 1.72157  19
   5  10  -3 29.2428 1.62289  32
  -5 -10   3 32.3939 1.68854  17
  -5 -10   3 33.5355 1.66205  33
  -5 -10   3 31.8907 1.60263  15
   4  10  -3 59.9870 2.59526  13
   4  10  -3 63.2148 2.74592  19
   4  10  -3 58.2789 2.82588   3
  -4 -10   3 58.7226 2.64788  11
  -4 -10   3 62.6859 2.65184  15
  -4 -10   3 60.2633 2.67495  33
  -4 -10   3 61.9080 2.77879  17
   3  10  -3 253.179 9.77156  13
   3  10  -3 249.792 10.2564  30
   3  10  -3 250.334 9.30138  19
  -3 -10   3 247.109 12.3852  21
  -3 -10   3 255.211 9.11890  33
  -3 -10   3 250.511 9.24011  11
  -3 -10   3 263.889 9.51018  17
  -3 -10   3 252.408 8.99300  15
  -3 -10   3 249.825 9.71213  16
   2  10  -3 611.956 23.8475  30
   2  10  -3 601.615 22.7603  13
  -2 -10   3 585.539 20.7306  33
  -2 -10   3 603.845 21.6308  17
  -2 -10   3 582.128 22.3059  16
  -2 -10   3 598.532 28.7748   7
  -2 -10   3 608.384 28.5573  21
  -2 -10   3 614.860 21.1290  11
   1  10  -3 16.1828 1.06575  30
   1  10  -3 16.0094 1.02931  13
  -1 -10   3 19.7444 1.45388  16
  -1 -10   3 15.3698 1.50590  34
  -1 -10   3 18.1932 1.32311  11
  -1 -10   3 18.1385 1.82120   7
   0  10  -3 147.866 6.12353  30
   0 -10   3 154.100 7.85495   7
   0 -10   3 155.299 5.63900  11
   0 -10   3 138.522 7.01290  34
   0 -10   3 150.399 6.08473  16
   0 -10   3 149.137 7.72059  21
   1 -10   3 4.27157 1.09700   7
   1 -10   3 3.73966 0.70122  34
   1 -10   3 3.58589 0.88212  21
   6   9  -3 2.58751 0.51288   3
   6   9  -3 1.67667 0.51313  19
  -6  -9   3 1.52565 0.40273  15
  -6  -9   3 1.15963 0.44724   8
   5   9  -3 18.0227 1.35478  32
   5   9  -3 21.8314 1.47463  19
   5   9  -3 22.7041 1.46706   3
  -5  -9   3 20.0748 1.39037  17
  -5  -9   3 20.5045 1.39964  33
  -5  -9   3 20.3595 1.40937  15
  -5  -9   3 19.6879 1.38205   8
   4   9  -3 2.26878 0.70719  19
  -4  -9   3 1.52085 0.44191   8
  -4  -9   3 1.12273 0.54844  11
  -4  -9   3 0.57673 0.59250  33
  -4  -9   3 1.61551 0.48090  15
  -4  -9   3 1.84420 0.58319  17
   3   9  -3 376.051 14.6685  30
   3   9  -3 347.610 14.1558   3
   3   9  -3 333.930 15.8918  22
   3   9  -3 368.061 13.9722  13
  -3  -9   3 357.697 13.4409  17
  -3  -9   3 354.243 17.5978  21
  -3  -9   3 371.334 12.8414  15
  -3  -9   3 384.556 12.9814  33
  -3  -9   3 378.074 13.8549  16
  -3  -9   3 370.486 13.1226  11
   2   9  -3 1035.18 47.0291  22
   2   9  -3 1100.20 41.4481  13
   2   9  -3 1151.41 43.4025  30
  -2  -9   3 1127.71 37.6173  33
  -2  -9   3 1050.43 47.7726  34
  -2  -9   3 1059.15 51.6880  21
  -2  -9   3 1085.80 37.3684  15
  -2  -9   3 1154.25 40.4906  16
  -2  -9   3 1119.37 38.2321  11
  -2  -9   3 1089.69 52.1477   7
  -2  -9   3 1144.73 39.2104  17
   1   9  -3 22.2001 1.39871  22
   1   9  -3 21.5542 1.25635  30
  -1  -9   3 22.0126 1.42722  33
  -1  -9   3 22.7478 1.48774  17
  -1  -9   3 18.5061 1.66700  34
  -1  -9   3 22.9277 1.53567  11
  -1  -9   3 23.1379 1.60948  16
  -1  -9   3 20.7073 2.03542   7
  -1  -9   3 20.8285 2.05231  21
   0   9  -3 428.714 18.6150  22
   0   9  -3 431.367 17.1470  30
   0  -9   3 434.367 20.8857  21
   0  -9   3 430.691 16.3959  16
   0  -9   3 450.887 15.3699  11
   0  -9   3 431.012 19.2211  34
   0  -9   3 412.247 21.0593   7
   1  -9   3 0.22294 0.57334  34
   1  -9   3 0.43539 0.51155  16
   1  -9   3 0.89603 0.69013  21
   1  -9   3 0.14826 0.40805  11
   1  -9   3 0.65649 0.65063   1
   1  -9   3 0.13348 0.71976   7
   2  -9   3 94.5492 4.12255  16
   2  -9   3 92.2280 3.63225   1
   2  -9   3 100.087 5.30743   7
   2  -9   3 92.9947 4.75200  34
   3  -9   3 54.9938 2.26447   1
   7   8  -3 63.9462 2.57160  19
  -7  -8   3 54.1829 2.74577   8
  -7  -8   3 58.9812 2.39907  15
   5   8  -3 191.988 7.06321  19
   5   8  -3 170.715 7.47215   3
   5   8  -3 182.597 7.03500  32
  -5  -8   3 193.337 7.88250   8
  -5  -8   3 190.800 6.81965  15
  -5  -8   3 178.918 6.83038  33
  -5  -8   3 175.567 6.98889  17
   4   8  -3 105.999 4.54953   3
   4   8  -3 100.024 4.22605  19
   4   8  -3 103.366 4.21516  13
  -4  -8   3 98.2634 4.28898  17
  -4  -8   3 104.169 4.14611  15
  -4  -8   3 100.110 4.34457  16
  -4  -8   3 111.537 4.70359   8
  -4  -8   3 102.349 4.17300  33
  -4  -8   3 94.5070 4.10736  11
   3   8  -3 116.569 5.47669  22
   3   8  -3 107.910 5.41773  28
   3   8  -3 116.232 4.75073  13
   3   8  -3 117.413 5.02309   3
  -3  -8   3 124.707 5.12525   8
  -3  -8   3 115.685 4.84685  17
  -3  -8   3 118.489 4.71344  11
  -3  -8   3 116.494 4.93636  16
  -3  -8   3 115.077 4.60588  15
  -3  -8   3 117.861 4.67437  33
   2   8  -3 321.605 12.9255  13
   2   8  -3 348.224 14.7579  22
   2   8  -3 358.519 13.5811  30
   2   8  -3 336.058 14.5857  28
  -2  -8   3 327.658 16.5774   7
  -2  -8   3 330.817 12.2001  11
  -2  -8   3 333.040 16.4555  21
  -2  -8   3 344.863 12.9410  16
  -2  -8   3 345.029 12.0338  33
  -2  -8   3 324.631 15.1541  34
  -2  -8   3 329.706 11.8891  15
  -2  -8   3 344.171 12.5251  17
   1   8  -3 2.48960 0.59135  28
   1   8  -3 1.38273 0.38817  22
   1   8  -3 1.65477 0.37178  30
  -1  -8   3 0.55379 0.63711  21
  -1  -8   3 0.53763 0.60632  34
  -1  -8   3 1.62834 0.54749  33
  -1  -8   3 2.58995 0.56777  11
  -1  -8   3 1.04223 0.56541  16
  -1  -8   3 3.28881 0.96359   7
   0   8  -3 507.147 22.5095  28
   0   8  -3 532.933 22.8017  22
   0  -8   3 508.396 25.7343   7
   0  -8   3 543.174 20.0235  16
   0  -8   3 527.108 19.1680  17
   0  -8   3 518.283 23.4664  34
   0  -8   3 547.656 18.4201  33
   0  -8   3 532.098 18.7701  11
   0  -8   3 547.102 25.5480  21
   0  -8   3 547.972 17.5274   1
  -1   8  -3 9.88699 0.70811  22
   1  -8   3 10.0437 1.01990  11
   1  -8   3 8.98067 1.57025   7
   1  -8   3 10.9650 1.25382  16
   1  -8   3 10.3152 1.09986   1
   1  -8   3 7.79445 1.13704  34
   1  -8   3 9.33943 1.48015  21
   2  -8   3 303.030 15.4986  21
   2  -8   3 330.357 14.4808  34
   2  -8   3 318.895 12.3365  16
   2  -8   3 323.501 10.8436   1
   2  -8   3 320.291 15.8562   7
   3  -8   3 27.7381 1.93813  20
   3  -8   3 29.9335 2.05756  34
   3  -8   3 31.0582 1.84578  16
   3  -8   3 29.3593 1.63162   1
   4  -8   3 483.072 15.7363   1
   7   7  -3 93.8449 3.60774  19
   7   7  -3 83.7789 3.92504   8
  -7  -7   3 83.4395 3.94824   8
  -7  -7   3 87.5549 3.32534  15
   6   7  -3 175.497 7.41582   3
   6   7  -3 182.828 7.02803  19
  -6  -7   3 179.921 6.73310  15
  -6  -7   3 195.800 7.93243   8
   5   7  -3 781.160 28.6918  32
   5   7  -3 796.123 30.6008   3
   5   7  -3 820.346 28.4543  19
  -5  -7   3 805.117 31.9998   8
  -5  -7   3 815.970 27.5058  15
   4   7  -3 1108.81 40.9477  13
   4   7  -3 1090.18 38.1956  19
   4   7  -3 1075.18 41.1905   3
  -4  -7   3 1126.97 43.0093   8
  -4  -7   3 1088.71 39.8505  16
  -4  -7   3 1036.75 38.6136  17
  -4  -7   3 1091.28 36.9898  15
   3   7  -3 1.45016 0.46911  37
   3   7  -3 2.03321 0.57018   3
   3   7  -3 2.20819 0.50242  22
   3   7  -3 2.05412 0.35954  13
   3   7  -3 2.82595 0.66677  28
  -3  -7   3 1.57424 0.48062  11
  -3  -7   3 3.12516 0.66080   8
  -3  -7   3 1.43118 0.42509  15
  -3  -7   3 1.11722 0.49612  17
   2   7  -3 4.75507 0.72481  37
   2   7  -3 3.90839 0.59072  13
   2   7  -3 4.10902 0.58880  30
   2   7  -3 3.96202 0.70056  28
  -2  -7   3 4.44652 0.88611  16
  -2  -7   3 4.10583 0.93243  34
  -2  -7   3 3.90457 0.67409  33
  -2  -7   3 3.97467 0.75805  15
  -2  -7   3 4.39698 0.64159   8
  -2  -7   3 4.31254 1.03977   7
  -2  -7   3 4.65379 0.91358  26
  -2  -7   3 4.67731 0.80298  17
  -2  -7   3 5.00380 0.88170  11
  -2  -7   3 4.32312 1.00117  21
   1   7  -3 50.2685 2.40247  22
   1   7  -3 47.5441 2.15174  30
   1   7  -3 51.0883 2.41896  28
   1   7  -3 48.2236 2.35866  29
  -1  -7   3 47.5603 2.43047  16
  -1  -7   3 44.2134 2.26041  17
  -1  -7   3 53.2488 3.19275   7
  -1  -7   3 48.2909 2.80595  26
  -1  -7   3 46.3193 3.05651  21
  -1  -7   3 45.0955 2.23908  11
  -1  -7   3 42.7667 2.65313  34
  -1  -7   3 44.9658 2.11959  15
  -1  -7   3 45.6267 2.20924  33
   0   7  -3 63.6646 2.90399  22
   0   7  -3 62.5873 2.92636  28
   0   7  -3 61.5415 2.87259  29
   0  -7   3 61.4352 3.75088  21
   0  -7   3 59.9022 2.96751  16
   0  -7   3 64.3157 2.67023  33
   0  -7   3 62.4389 2.75839  17
   0  -7   3 62.0062 2.61736   1
   0  -7   3 59.9581 3.85730   7
   0  -7   3 59.6084 2.71566  11
   0  -7   3 61.8740 3.35537  34
  -1   7  -3 1.38603 0.28871  22
  -1   7  -3 1.83090 0.32740  29
   1  -7   3 0.71290 0.53182  16
   1  -7   3 1.84356 0.55475  34
   1  -7   3 0.87823 0.56938   1
   2  -7   3 334.574 17.0797   7
   2  -7   3 362.234 15.6388  34
   2  -7   3 346.442 15.6934  20
   2  -7   3 347.302 11.6797   1
   2  -7   3 349.583 16.8059  21
   2  -7   3 330.574 13.2773  16
   3  -7   3 156.679 7.34738  34
   3  -7   3 154.453 6.36718  38
   3  -7   3 152.085 8.05674   7
   3  -7   3 154.563 7.36190  20
   3  -7   3 150.078 5.55324   1
   3  -7   3 136.675 6.18251  16
   4  -7   3 1051.00 45.9846  34
   4  -7   3 1049.22 34.1263   1
   4  -7   3 1085.25 40.1512  38
   4  -7   3 1054.36 46.5042  20
   7   6  -3 25.4718 1.57060  19
   7   6  -3 25.8089 1.64868   8
  -7  -6   3 24.8425 1.64673   8
   6   6  -3 29.1060 1.87038  19
   6   6  -3 32.1926 1.78722   3
   6   6  -3 32.0407 1.98700   8
  -6  -6   3 27.7731 1.89245   8
  -6  -6   3 25.0105 1.64235  15
   5   6  -3 548.407 19.3545  19
   5   6  -3 538.033 20.7528   3
   5   6  -3 540.819 19.4770  32
  -5  -6   3 537.844 18.6394  15
  -5  -6   3 528.031 21.7459   8
   4   6  -3 1548.29 57.4391   3
   4   6  -3 1484.53 60.8511  37
   4   6  -3 1563.96 57.2014  13
   4   6  -3 1407.72 69.7426  36
   4   6  -3 1581.16 53.2736  19
  -4  -6   3 1542.32 55.5609  16
  -4  -6   3 1520.49 51.5005  15
  -4  -6   3 1551.76 59.9703   8
   3   6  -3 17.4662 1.21306   3
   3   6  -3 16.1870 1.19766  29
   3   6  -3 15.9224 1.21510  19
   3   6  -3 14.6951 0.95211  13
   3   6  -3 17.4862 1.16618  22
   3   6  -3 17.9291 1.05410  30
   3   6  -3 16.7047 1.27026  37
  -3  -6   3 14.2896 1.13787  17
  -3  -6   3 13.7015 1.07614  11
  -3  -6   3 14.8334 1.10772  15
  -3  -6   3 17.7426 1.24700   8
   2   6  -3 68.2593 3.21989  37
   2   6  -3 72.8994 3.30403  22
   2   6  -3 69.3437 3.24133  29
   2   6  -3 69.0686 3.28369  28
   2   6  -3 68.1950 2.99355  30
  -2  -6   3 65.8522 2.98479  17
  -2  -6   3 73.7618 2.87088  15
  -2  -6   3 69.0816 3.18406  16
  -2  -6   3 68.1262 3.65195  26
  -2  -6   3 63.3461 5.01490   6
  -2  -6   3 62.6284 2.82849  33
   1   6  -3 274.172 11.2040  29
   1   6  -3 288.801 12.8817  35
   1   6  -3 254.717 10.8096  37
   1   6  -3 272.955 11.4932  22
   1   6  -3 276.111 11.3842  28
   1   6  -3 252.596 10.5408  30
   1   6  -3 259.771 11.4941   9
  -1  -6   3 235.815 16.6939   6
   0   6  -3 185.303 7.73015  29
   0   6  -3 183.298 7.84351  28
   0   6  -3 194.432 7.88170  22
   0   6  -3 207.172 8.13995   9
   0  -6   3 172.200 9.26570   7
   0  -6   3 181.519 6.75872  11
   0  -6   3 171.854 7.18007  16
   0  -6   3 175.896 9.16162  21
   0  -6   3 162.383 8.25041  26
   0  -6   3 179.574 6.29557   1
  -1   6  -3 86.1894 3.75508  28
  -1   6  -3 86.1999 3.71848  29
   1  -6   3 80.5977 3.45073  17
   1  -6   3 89.1930 3.34236   1
   1  -6   3 86.6148 4.32849  34
   1  -6   3 85.5561 4.76837  21
   1  -6   3 88.6788 3.38481  33
   1  -6   3 84.3536 4.88737   7
   1  -6   3 85.4923 3.44017  11
   1  -6   3 83.1548 3.77508  16
  -2   6  -3 5.79715 0.36904  29
  -2   6  -3 5.28682 0.38397  28
   2  -6   3 7.68219 1.35644   7
   2  -6   3 7.37272 1.01405  20
   2  -6   3 7.19550 1.08729  21
   2  -6   3 7.43776 1.01206  34
   2  -6   3 5.52720 0.87861   1
   3  -6   3 18.0194 1.45142  38
   3  -6   3 18.1477 1.64985  20
   3  -6   3 15.1396 1.38664  16
   3  -6   3 19.9465 1.65741  34
   3  -6   3 15.9237 1.34153   1
   4  -6   3 826.656 31.0216  38
   4  -6   3 789.498 26.3176   1
   4  -6   3 803.122 35.4598  34
   4  -6   3 837.101 35.9237  20
   4  -6   3 792.864 35.7053  10
   5  -6   3 120.541 4.44097   1
   5  -6   3 114.884 5.96011  10
   5  -6   3 121.992 5.94156  34
   5  -6   3 119.262 5.99761  20
   5  -6   3 124.939 5.26442  38
   7   5  -3 64.6151 2.90828  19
   7   5  -3 64.4399 3.12901   8
  -7  -5   3 64.2616 2.88649   3
  -7  -5   3 60.4706 3.13959   8
   6   5  -3 111.899 5.13820   8
   6   5  -3 116.623 4.67175  19
   6   5  -3 103.223 4.71573  12
   6   5  -3 110.400 4.75353   3
  -6  -5   3 112.510 4.77717   3
  -6  -5   3 109.413 5.14985   8
   5   5  -3 112.794 4.87417   3
   5   5  -3 99.3540 4.87554  12
   5   5  -3 111.363 5.21920   8
   5   5  -3 117.503 4.64666  32
   5   5  -3 114.658 4.67134  19
  -5  -5   3 112.892 4.38438  15
  -5  -5   3 108.919 5.16677   8
  -5  -5   3 114.585 4.81925   3
   4   5  -3 383.437 14.3706  19
   4   5  -3 365.384 18.9007  36
   4   5  -3 400.308 16.4349  37
   4   5  -3 416.525 14.5610  32
   4   5  -3 417.594 15.4988   3
  -4  -5   3 387.719 13.8605  15
  -4  -5   3 394.776 16.2126   8
  -4  -5   3 416.960 18.8337  36
   3   5  -3 3.96223 0.61070  22
   3   5  -3 5.94403 0.84160  19
   3   5  -3 3.60107 0.52566  30
   3   5  -3 5.15963 0.81063  35
   3   5  -3 3.79966 0.72216  37
  -3  -5   3 5.50211 0.86999  36
   2   5  -3 331.999 13.9543  29
   2   5  -3 335.201 14.3465  22
   2   5  -3 330.147 14.2026   9
   2   5  -3 332.196 15.5990  35
   2   5  -3 323.009 14.1727  28
   2   5  -3 341.004 13.5510  37
   2   5  -3 310.243 13.1887  30
  -2  -5   3 318.374 20.7489   6
  -2  -5   3 356.596 15.3778  36
   1   5  -3 626.998 26.6174  30
   1   5  -3 693.552 28.9132  22
   1   5  -3 632.976 31.0818  24
   1   5  -3 671.603 28.4301   9
   1   5  -3 706.365 28.5661  28
   1   5  -3 679.966 31.3008  35
   1   5  -3 667.507 27.0817  37
   1   5  -3 730.063 28.0993  29
  -1  -5   3 683.310 41.5621   6
   0   5  -3 1490.45 63.9421  22
   0   5  -3 1395.30 59.3659  37
   0   5  -3 1514.99 62.1077  29
   0   5  -3 1555.78 68.6611  35
   0   5  -3 1486.92 62.3184   9
   0   5  -3 1521.42 63.0601  28
   0  -5   3 1539.00 91.7699   6
  -1   5  -3 67.4123 2.88739  28
  -1   5  -3 67.1305 2.88318  29
  -1   5  -3 67.1830 3.63658  35
  -1   5  -3 65.2377 3.20201   9
   1  -5   3 65.7339 4.69082   6
   2  -5   3 444.531 14.6475   1
   3  -5   3 44.5761 2.64965  20
   3  -5   3 41.7685 1.99532   1
   3  -5   3 38.2259 2.18256  16
   3  -5   3 40.4706 2.27913  31
   3  -5   3 39.1216 2.69588  10
   3  -5   3 40.9887 2.28966  38
   3  -5   3 45.2719 2.61625  34
  -4   5  -3 9.42450 0.59520  28
   4  -5   3 8.83989 1.29505  31
   4  -5   3 9.54190 1.08609   1
   4  -5   3 7.41985 1.60691  10
   4  -5   3 10.8744 1.33028  20
   4  -5   3 10.6428 1.34421  38
   4  -5   3 9.39952 1.34675  34
   5  -5   3 406.297 17.9115  34
   5  -5   3 402.614 13.2870   1
   5  -5   3 393.554 15.5618  31
   5  -5   3 396.280 18.1410  20
   5  -5   3 396.149 15.7378  38
   5  -5   3 386.754 18.0727  10
   6  -5   3 5.76679 1.29122  10
   6  -5   3 3.41678 0.84918  34
   6  -5   3 3.97687 0.91873  20
   6  -5   3 3.96809 0.71769   1
   6  -5   3 3.02011 0.87126  38
   7   4  -3 259.254 9.57159  19
  -7  -4   3 261.605 10.1568   3
  -7  -4   3 254.184 11.2852  18
   6   4  -3 1160.73 45.0960   8
   6   4  -3 1182.51 40.1957  19
   6   4  -3 1055.47 41.6002  12
  -6  -4   3 1210.40 48.3075  18
  -6  -4   3 1101.44 45.1538   8
  -6  -4   3 1133.05 43.1271   3
   5   4  -3 4.13989 0.79894  32
   5   4  -3 3.30323 0.71904  12
   5   4  -3 3.32743 0.75269  19
   5   4  -3 6.25029 0.98921   8
   5   4  -3 4.62122 0.93163   3
  -5  -4   3 4.37087 0.84811   3
  -5  -4   3 4.67730 0.80527  37
  -5  -4   3 4.60736 0.86436  18
  -5  -4   3 4.15729 0.92207   8
   4   4  -3 101.198 4.27988   3
   4   4  -3 97.5571 5.38605  36
   4   4  -3 96.1951 4.04471  32
   4   4  -3 94.2555 4.01638  19
   4   4  -3 97.8531 4.54567  37
   4   4  -3 90.1731 4.52309   8
  -4  -4   3 92.7333 3.76825  15
  -4  -4   3 100.490 4.21764   3
  -4  -4   3 92.8005 4.58561  18
  -4  -4   3 93.5040 4.49481   8
  -4  -4   3 100.614 4.47395  37
  -4  -4   3 101.669 5.27828  36
   3   4  -3 114.001 4.96974  37
   3   4  -3 109.728 5.21111   9
   3   4  -3 111.817 5.64437  35
   3   4  -3 109.483 5.81808  36
   3   4  -3 106.944 4.70951  30
  -3  -4   3 115.883 5.71267  36
  -3  -4   3 109.521 7.56760   6
   2   4  -3 29.0264 1.55911  22
   2   4  -3 29.1071 1.66320   9
   2   4  -3 29.7943 1.57288  28
   2   4  -3 28.3004 1.40972  30
   2   4  -3 28.2114 1.95229  36
   2   4  -3 30.0348 1.55390  29
   2   4  -3 29.6312 1.84154  35
   2   4  -3 24.8467 2.01736  25
   2   4  -3 28.9057 1.59224  37
  -2  -4   3 31.5452 1.82716  36
  -2  -4   3 26.4709 2.38651   6
   1   4  -3 248.547 10.4256  37
   1   4  -3 252.380 13.7575  25
   1   4  -3 264.364 10.9530  28
   1   4  -3 244.236 11.0547  22
   1   4  -3 268.173 10.7805  29
   1   4  -3 240.329 10.9374   9
   1   4  -3 267.290 12.1069  35
   1   4  -3 251.156 11.9763  24
  -1  -4   3 267.134 11.8009  36
  -1  -4   3 250.689 16.0184   6
   0   4  -3 518.850 23.2860  35
   0   4  -3 462.647 22.9952  24
   0   4  -3 522.448 26.4790  25
   0   4  -3 497.339 21.1437  28
   0   4  -3 501.714 20.0488  37
   0   4  -3 489.662 21.0772   9
   0   4  -3 466.809 21.3592  22
   0   4  -3 534.357 22.3342  29
   0  -4   3 527.924 30.8855   6
  -1   4  -3 150.615 7.26740  35
  -1   4  -3 149.408 6.23240  29
  -1   4  -3 149.483 6.51567   9
  -1   4  -3 142.833 6.27848  28
   1  -4   3 148.526 9.56400   6
  -2   4  -3 2348.17 97.6215   4
  -2   4  -3 2224.13 106.809  35
  -2   4  -3 2460.19 140.019  27
  -3   4  -3 44.3370 2.47329   5
  -3   4  -3 45.9953 1.98804  29
   3  -4   3 40.4727 2.41403  31
   3  -4   3 54.2255 2.93377  20
   3  -4   3 42.7676 2.82830  10
   3  -4   3 46.0098 2.38843  38
   3  -4   3 49.5237 2.08746   1
  -4   4  -3 8.28415 0.60354  28
  -4   4  -3 7.83417 0.54337  29
   4  -4   3 7.46756 1.59280  10
   4  -4   3 8.21573 0.93319   1
   4  -4   3 9.80684 1.08917   2
   4  -4   3 10.6970 1.12153  31
  -5   4  -3 5.26396 0.58775  22
   5  -4   3 5.44074 1.02108  31
   5  -4   3 6.87599 1.22279  34
   5  -4   3 5.13485 1.08270  38
   5  -4   3 4.67239 1.14161   2
   5  -4   3 6.16227 0.98866   1
   5  -4   3 4.91525 1.20503  10
   5  -4   3 5.81755 1.31106  20
  -6   4  -3 43.1918 1.93325  30
   6  -4   3 37.2238 2.75808  20
   6  -4   3 42.5892 2.53624  38
   6  -4   3 40.9206 2.34266  31
   6  -4   3 40.9239 2.67828  34
   6  -4   3 42.0265 1.97449   1
   7  -4   3 44.5905 2.68234  20
   7  -4   3 46.9595 2.66723  10
   7  -4   3 49.1517 2.37351  38
   7   3  -3 370.402 15.1545  12
   7   3  -3 432.495 14.7495  19
  -7  -3   3 411.752 17.5470  18
  -7  -3   3 415.911 15.7186   3
   6   3  -3 319.448 11.3239   1
   6   3  -3 345.483 12.5974  19
   6   3  -3 348.075 13.9990   8
   6   3  -3 312.175 12.9303  12
  -6  -3   3 354.438 14.8762  18
  -6  -3   3 353.523 13.3554   3
   5   3  -3 0.25816 0.58919  12
   5   3  -3 1.52468 0.72870  19
   5   3  -3 2.72864 0.73182  32
   5   3  -3 1.02017 0.67536   8
  -5  -3   3 1.83990 0.53253  37
  -5  -3   3 0.58827 0.46524  18
  -5  -3   3 0.39580 0.46150   3
  -5  -3   3 1.04510 0.53498   8
   4   3  -3 24.3168 1.65887  37
   4   3  -3 26.2837 1.64784  32
   4   3  -3 24.0557 2.07191  36
   4   3  -3 25.7565 1.59168  19
   4   3  -3 21.1414 1.66077   8
  -4  -3   3 27.8562 1.63753  37
  -4  -3   3 22.1242 1.63764   8
  -4  -3   3 25.7403 1.64564  18
  -4  -3   3 25.1611 1.56282   3
   3   3  -3 405.853 15.8241  37
   3   3  -3 375.525 18.1793  36
   3   3  -3 391.419 18.1182  35
   3   3  -3 377.786 16.5545   9
  -3  -3   3 386.112 18.1003  36
  -3  -3   3 380.269 15.7216  37
   2   3  -3 646.805 25.2282  37
   2   3  -3 606.760 28.9352  36
   2   3  -3 641.193 26.1190  29
   2   3  -3 684.218 37.6006  27
   2   3  -3 597.593 28.9479  24
   2   3  -3 649.926 29.0318  35
   2   3  -3 568.467 33.1940  25
   2   3  -3 648.453 26.9116  22
   2   3  -3 624.140 26.5542  28
   2   3  -3 641.824 26.4074   9
  -2  -3   3 646.689 28.8473  36
  -2  -3   3 568.500 28.9390  24
  -2  -3   3 635.281 25.1573  37
  -2  -3   3 643.839 38.5781   6
   1   3  -3 44.9380 2.05302  28
   1   3  -3 43.6529 2.01327  37
   1   3  -3 43.9859 2.01925  29
   1   3  -3 42.8499 2.63849  25
   1   3  -3 40.9313 2.04341  22
   1   3  -3 43.0034 2.39727  36
   1   3  -3 42.0449 2.29027  24
   1   3  -3 44.7901 2.38232  35
   1   3  -3 44.5422 2.13719   9
  -1  -3   3 36.5601 2.24283  24
  -1  -3   3 42.0762 3.09420   6
  -1  -3   3 44.2987 2.25935  36
   0   3  -3 730.127 38.6351  25
   0   3  -3 745.286 29.7229  37
   0   3  -3 755.798 33.9720  24
   0   3  -3 763.206 38.9104  25
   0   3  -3 661.162 31.2827  22
   0   3  -3 735.379 31.3637  28
   0   3  -3 744.780 33.8344  35
   0   3  -3 722.556 30.6886   9
   0   3  -3 745.074 30.8416  29
   0  -3   3 760.329 44.9189   6
  -1   3  -3 132.616 5.57285  37
  -1   3  -3 148.726 7.36611  25
  -1   3  -3 139.630 7.32492  25
  -1   3  -3 138.949 5.76687  29
  -1   3  -3 123.920 5.81955  28
  -1   3  -3 141.965 5.77660  29
  -1   3  -3 136.092 5.96622   9
  -1   3  -3 146.112 8.65116  27
  -1   3  -3 136.872 6.27525  23
  -1   3  -3 136.383 6.65384  35
   1  -3   3 145.014 8.83254   6
  -2   3  -3 1349.14 56.0353   4
  -2   3  -3 1233.64 61.2261  35
  -2   3  -3 1370.40 56.4207   9
  -2   3  -3 1410.00 80.7555  27
   2  -3   3 1347.42 82.0380   6
  -3   3  -3 139.853 6.07396   5
  -3   3  -3 141.341 6.16514   4
  -3   3  -3 141.677 5.86014  29
  -4   3  -3 314.225 13.2696  29
  -4   3  -3 306.402 13.4522  28
   4  -3   3 309.838 10.6343   1
   4  -3   3 328.540 14.6002  20
   4  -3   3 320.787 12.5485  31
   4  -3   3 299.679 14.5804  10
   4  -3   3 337.483 14.4350   2
   4  -3   3 344.008 14.4284  34
   4  -3   3 300.312 12.6304  38
  -5   3  -3 286.698 12.6400  28
  -5   3  -3 287.669 12.7478  22
   5  -3   3 293.346 13.7670  10
   5  -3   3 283.932 11.7633  31
   5  -3   3 310.205 13.6055  34
   5  -3   3 311.468 13.5305   2
   5  -3   3 282.787 9.99095   1
   5  -3   3 308.257 11.3506  12
   5  -3   3 302.363 13.8102  20
   5  -3   3 278.210 11.9507  38
  -6   3  -3 1235.83 53.6287  22
  -6   3  -3 1253.91 49.4341  30
   6  -3   3 1300.36 54.8205  34
   6  -3   3 1233.98 47.6179  31
   6  -3   3 1227.63 47.9365  38
   6  -3   3 1258.85 55.5379  20
   6  -3   3 1263.68 55.1256  10
   6  -3   3 1302.03 55.0052   2
  -7   3  -3 13.5387 0.82955  30
  -7   3  -3 13.8312 0.80334  13
   7  -3   3 12.7063 1.44443  38
   7  -3   3 11.7793 1.35073  34
   7  -3   3 12.6335 1.10000  31
   7  -3   3 14.6499 1.52774  10
   7  -3   3 11.7314 1.12496   2
   7   2  -3 63.8469 2.86635  19
   7   2  -3 63.4202 2.98120   8
   7   2  -3 58.2598 2.82960  12
  -7  -2   3 65.8944 2.93231   3
  -7  -2   3 66.9748 3.21179  18
   6   2  -3 270.553 10.1214  19
   6   2  -3 265.258 9.11607   1
   6   2  -3 240.141 10.3436  12
  -6  -2   3 266.395 10.6623   3
  -6  -2   3 290.768 11.9071  18
   5   2  -3 105.796 4.52596  19
   5   2  -3 103.935 4.84295   8
   5   2  -3 96.6177 4.51744  12
   5   2  -3 101.920 4.47153  32
  -5  -2   3 106.250 5.02170  18
  -5  -2   3 98.4643 4.54039   3
   4   2  -3 5.89018 0.93273   8
   4   2  -3 4.91559 0.75061  12
   4   2  -3 4.61551 0.77213  32
   4   2  -3 4.73034 0.98862  36
   4   2  -3 4.15557 0.74782  19
  -4  -2   3 3.72283 0.70291  37
  -4  -2   3 3.65260 0.95976  36
  -4  -2   3 5.11915 0.82996  18
   3   2  -3 2016.89 88.5905  36
   3   2  -3 1807.80 80.6909   9
   3   2  -3 2002.51 77.6423  37
   3   2  -3 1934.39 88.6989  35
  -3  -2   3 1934.60 88.4904  36
  -3  -2   3 1958.63 78.6231  37
   2   2  -3 1373.98 60.7654  35
   2   2  -3 1236.41 60.6270  24
   2   2  -3 1376.82 53.5501  37
   2   2  -3 1476.62 79.8425  27
   2   2  -3 1279.82 58.1297   9
   2   2  -3 1195.49 69.5649  25
   2   2  -3 1360.11 60.4656  36
  -2  -2   3 1388.14 53.9796  37
  -2  -2   3 1250.58 60.9416  24
  -2  -2   3 1352.05 62.1092  36
   1   2  -3 5.56396 0.67188  27
   1   2  -3 4.67445 0.55345   9
   1   2  -3 5.18536 0.46078  29
   1   2  -3 5.63900 0.64908  36
   1   2  -3 4.98729 0.61996  35
   1   2  -3 4.98789 0.46603  28
   1   2  -3 5.13782 0.56498  24
  -1  -2   3 5.42888 0.44188  37
  -1  -2   3 5.95129 0.58234  36
  -1  -2   3 4.88300 0.36281   5
  -1  -2   3 4.93831 0.52241  24
   0   2  -3 345.928 15.4950  28
   0   2  -3 359.865 15.3973   9
   0   2  -3 367.955 19.4100  25
   0   2  -3 352.219 16.8635  36
   0   2  -3 380.968 19.4043  25
   0   2  -3 391.430 22.0860  27
   0   2  -3 389.366 16.9193  24
   0   2  -3 375.702 14.7127  37
   0   2  -3 366.887 17.0114  35
   0   2  -3 385.860 15.3820  29
   0   2  -3 366.099 16.8859  24
   0  -2   3 377.572 16.9185  36
   0  -2   3 346.267 16.8849  24
   0  -2   3 339.468 19.3665  25
   0  -2   3 339.140 14.6422  37
   0  -2   3 375.266 22.5637   6
  -1   2  -3 33.6937 1.83487  35
  -1   2  -3 36.7172 1.69250  24
  -1   2  -3 32.6677 1.49069  29
  -1   2  -3 30.8616 1.47979  29
  -1   2  -3 35.8580 1.94381  25
  -1   2  -3 38.1681 2.40913  27
  -1   2  -3 33.1455 1.66360  24
  -1   2  -3 33.2239 1.47404  37
  -1   2  -3 31.3429 1.56739   9
  -1   2  -3 34.1434 1.93679  25
  -1   2  -3 31.9877 1.50102  28
   1  -2   3 36.2749 2.44828   6
  -2   2  -3 321.889 14.7125  29
  -2   2  -3 374.642 18.7120  25
  -2   2  -3 328.626 14.1429  37
  -2   2  -3 372.610 14.7724  29
  -2   2  -3 340.651 18.6530  25
  -2   2  -3 366.737 14.9675   4
  -2   2  -3 353.797 14.8999   9
  -2   2  -3 382.935 21.4317  27
  -2   2  -3 344.671 16.4425  35
   2  -2   3 371.595 21.9686   6
  -3   2  -3 68.2432 3.11874   4
  -3   2  -3 69.1425 2.89168  29
  -3   2  -3 66.3146 3.59252  25
  -4   2  -3 103.217 4.43774  28
  -4   2  -3 108.407 4.41570  29
  -4   2  -3 93.5677 4.60445   5
  -5   2  -3 59.4029 2.86798  29
  -5   2  -3 61.2438 2.85086  22
  -5   2  -3 60.3590 2.88568  28
   5  -2   3 57.6250 3.60636  10
   5  -2   3 59.2885 3.20402  38
   5  -2   3 59.0308 2.99519  31
   5  -2   3 62.7956 3.39452   2
   5  -2   3 63.5770 2.88275  12
   5  -2   3 64.3615 3.55038  34
   5  -2   3 58.1143 3.59937  20
  -6   2  -3 1511.92 64.0213  22
  -6   2  -3 1490.26 59.0140  30
   6  -2   3 1488.83 65.6396  10
   6  -2   3 1478.73 57.1031  38
   6  -2   3 1537.98 54.7288  12
   6  -2   3 1458.86 66.1596  20
   6  -2   3 1512.03 65.3182  34
   6  -2   3 1517.57 56.7769  31
   6  -2   3 1548.78 65.6193   2
  -7   2  -3 102.482 4.32635  30
  -7   2  -3 101.887 4.13263  13
   7  -2   3 95.8801 5.44585  20
   7  -2   3 98.0220 4.34965  12
   7  -2   3 107.693 5.10658   2
   7  -2   3 102.777 5.31384  10
   7  -2   3 105.081 4.72989  38
   7  -2   3 98.6856 5.31450  34
   7  -2   3 105.136 4.52237  31
  -8   2  -3 264.318 10.0539  13
   7   1  -3 8.70396 0.94568  12
   7   1  -3 6.04104 0.64066   8
   7   1  -3 7.23244 0.94287  19
  -7  -1   3 7.60437 0.89352  18
  -7  -1   3 6.11874 0.81909   3
   6   1  -3 37.5583 2.18353   8
   6   1  -3 34.1082 2.15975  12
   6   1  -3 35.2906 1.84023   1
   6   1  -3 32.5621 2.18809  19
  -6  -1   3 35.4598 2.20601  18
  -6  -1   3 33.8281 2.05355   3
   5   1  -3 3.14859 0.85783   8
   5   1  -3 3.08715 0.68811  12
   5   1  -3 3.32907 0.83206  19
   5   1  -3 4.07947 0.88542   1
  -5  -1   3 3.77760 0.50483  13
  -5  -1   3 4.77267 1.02891  18
  -5  -1   3 2.39855 0.63221   3
   4   1  -3 162.030 6.38156  32
   4   1  -3 155.321 6.32296  19
   4   1  -3 162.757 6.97206   8
   4   1  -3 170.013 8.17542  36
   4   1  -3 151.966 6.47894  12
  -4  -1   3 158.564 6.64416   3
  -4  -1   3 170.093 7.39645  18
  -4  -1   3 160.996 7.01185  37
  -4  -1   3 154.347 8.20778  36
  -4  -1   3 160.753 6.27155  13
   3   1  -3 1092.87 52.6537  35
   3   1  -3 1192.86 52.4471  36
   3   1  -3 1225.61 45.8095  37
  -3  -1   3 1148.23 45.6583   5
  -3  -1   3 1140.18 45.7326  37
  -3  -1   3 1085.38 52.4185  36
   2   1  -3 3408.15 130.354  37
   2   1  -3 3268.09 149.244  35
   2   1  -3 3083.14 158.810   9
   2   1  -3 3403.65 149.323  36
   2   1  -3 3111.74 149.515  24
  -2  -1   3 3290.79 130.333  37
  -2  -1   3 3157.44 149.631  24
  -2  -1   3 3245.66 148.948  36
  -2  -1   3 3255.56 129.829   5
   1   1  -3 55.0364 2.66640  28
   1   1  -3 58.5158 2.71319   9
   1   1  -3 55.7493 2.59243  37
   1   1  -3 62.6944 3.79030  27
   1   1  -3 58.8679 3.41074  25
   1   1  -3 55.5241 2.96434  24
   1   1  -3 56.0666 2.62889  29
   1   1  -3 58.1618 3.04382  36
   1   1  -3 58.8158 3.03375  35
   1   1  -3 53.0299 3.42069  25
  -1  -1   3 59.4816 2.97880  24
  -1  -1   3 56.0817 2.55105  37
  -1  -1   3 58.4362 3.40698  25
  -1  -1   3 56.9062 2.99612  36
  -1  -1   3 58.2988 2.51141   5
   0   1  -3 1482.43 68.1318  24
   0   1  -3 1443.01 59.4699  37
   0   1  -3 1466.23 68.1498  36
   0   1  -3 1315.31 62.4204  28
   0   1  -3 1519.65 86.2670  24
   0   1  -3 1471.39 62.0238   9
   0   1  -3 1548.67 89.1092  27
   0   1  -3 1553.30 100.007  25
   0   1  -3 1444.08 61.4568  29
   0   1  -3 1453.19 67.9743  35
   0  -1   3 1491.56 90.9256   6
   0  -1   3 1557.97 68.4990  24
   0  -1   3 1570.65 59.5398   5
   0  -1   3 1444.35 59.2021  37
   0  -1   3 1439.27 93.5876  25
   0  -1   3 1517.33 87.8480  36
  -1   1  -3 4.48900 0.32282  29
  -1   1  -3 4.30009 0.31217   9
  -1   1  -3 4.39089 0.35348  37
  -1   1  -3 4.31377 0.38891  24
  -1   1  -3 4.28993 0.43055  36
  -1   1  -3 4.89285 0.32700  28
  -1   1  -3 5.39511 0.47164  25
  -1   1  -3 5.02826 0.43942  25
   1  -1   3 4.43024 0.36895  36
   1  -1   3 4.94968 0.61387   6
   1  -1   3 4.77441 0.36593  24
   1  -1   3 4.82446 0.43894  25
  -2   1  -3 115.982 6.77030  27
  -2   1  -3 118.523 4.63132  28
  -2   1  -3 111.861 5.07914  24
  -2   1  -3 91.5001 4.59333  29
  -2   1  -3 104.172 5.85818  25
  -2   1  -3 118.065 4.73829   4
  -2   1  -3 104.178 4.59932   9
  -2   1  -3 110.367 4.43764  37
  -2   1  -3 102.189 5.11974  35
  -2   1  -3 110.528 4.56426  29
  -2   1  -3 97.1891 5.08203  24
  -2   1  -3 114.693 5.83102  25
   2  -1   3 114.972 6.96832   6
  -3   1  -3 87.7977 4.40381  24
  -3   1  -3 94.0654 5.90092  27
  -3   1  -3 96.8381 5.09093  25
  -3   1  -3 95.3319 3.99068  29
  -3   1  -3 85.5264 3.88978  37
  -3   1  -3 94.6856 4.16821   4
  -4   1  -3 48.8973 2.06730  29
  -4   1  -3 40.4012 2.03510  37
  -4   1  -3 43.4087 2.04980  28
  -4   1  -3 43.8159 2.20211   4
  -5   1  -3 254.679 10.7423  22
  -5   1  -3 251.544 10.5319  29
  -5   1  -3 243.249 10.6530  28
   5  -1   3 250.168 9.89400  31
   5  -1   3 259.330 9.57834  12
   5  -1   3 255.874 11.4569  34
   5  -1   3 240.952 11.6059  20
   5  -1   3 264.147 11.4090   2
   5  -1   3 239.812 8.70083  33
   5  -1   3 230.641 11.4600  10
   5  -1   3 232.154 10.0358  38
  -6   1  -3 1319.48 54.9503  22
  -6   1  -3 1309.12 54.2692  28
  -6   1  -3 1310.40 50.6438  30
   6  -1   3 1281.08 48.7418  31
   6  -1   3 1250.22 56.8692  20
   6  -1   3 1335.42 56.3720   2
   6  -1   3 1274.77 56.3511  10
   6  -1   3 1219.01 43.6785  33
   6  -1   3 1313.27 47.0481  12
   6  -1   3 1315.36 56.1628  34
   6  -1   3 1262.51 49.0452  38
  -7   1  -3 212.256 8.28069  13
  -7   1  -3 224.599 8.68528  30
  -7   1  -3 207.817 9.44958  22
   7  -1   3 210.917 8.84599  38
   7  -1   3 215.179 9.93602   2
   7  -1   3 203.092 10.3189  20
   7  -1   3 213.078 8.42964  12
   7  -1   3 213.476 10.0612  10
   7  -1   3 208.343 10.1612  34
   7  -1   3 214.576 8.66384  31
  -8   1  -3 101.418 3.98593  13
   8  -1   3 97.2725 4.22430  31
   8  -1   3 95.1638 4.87533  10
   8  -1   3 99.7142 5.04208  34
   8  -1   3 99.6547 4.31452  38
   8  -1   3 106.988 5.17489  20
   6   0  -3 6.67799 0.96411   1
   6   0  -3 5.24784 0.87978  19
   6   0  -3 6.70775 0.90219   8
  -6   0   3 6.49695 0.98720   3
  -6   0   3 4.15758 1.00204  18
   5   0  -3 47.8627 2.88534  10
   5   0  -3 43.1303 2.59574  19
   5   0  -3 52.9556 2.45256   1
  -5   0   3 48.7747 2.80936  18
  -5   0   3 47.4633 2.11276  13
  -5   0   3 45.7141 2.55524   3
   4   0  -3 95.5394 4.25581  12
   4   0  -3 95.8385 4.92232  10
   4   0  -3 89.2995 4.15500  32
   4   0  -3 97.6238 5.12734  36
   4   0  -3 98.0983 4.17981  19
  -4   0   3 98.9121 3.92557  13
  -4   0   3 98.8227 4.72588  18
  -4   0   3 94.9710 4.28326   3
  -4   0   3 89.3299 5.32007  36
  -4   0   3 101.763 4.14689  30
  -4   0   3 100.811 4.52936  37
   3   0  -3 275.319 14.2402  35
   3   0  -3 321.847 14.2375  36
  -3   0   3 297.679 12.3080   5
  -3   0   3 287.119 14.2729  36
  -3   0   3 306.372 11.9946  30
  -3   0   3 308.793 12.3605  37
  -3   0   3 302.273 13.0779  22
   2   0  -3 1249.79 60.6433  24
   2   0  -3 1333.28 52.8965  37
   2   0  -3 1383.13 61.3425  36
   2   0  -3 1292.74 60.9929  35
  -2   0   3 1317.61 54.7844  29
  -2   0   3 1311.86 56.2388  28
  -2   0   3 1330.22 61.8709  36
  -2   0   3 1311.87 69.9614  25
  -2   0   3 1289.15 56.8333  22
  -2   0   3 1385.65 53.7808   5
  -2   0   3 1399.88 54.1157  37
  -2   0   3 1347.05 61.3879  24
   1   0  -3 1.86030 0.55340  36
   1   0  -3 2.54498 0.43321  24
   1   0  -3 2.66825 0.44810  37
   1   0  -3 2.21581 0.51328  27
   1   0  -3 2.71338 0.53678  35
  -1   0   3 1.79969 0.40354  24
  -1   0   3 2.93760 0.37867  37
  -1   0   3 2.03966 0.36498  28
  -1   0   3 1.88695 0.34272  29
  -1   0   3 2.81311 0.31281  23
  -1   0   3 3.02541 0.38621   5
  -1   0   3 1.78388 0.50190  25
  -1   0   3 2.32577 0.49953  36
   0   0  -3 1997.06 105.480  25
   0   0  -3 2084.29 119.982  27
   0   0  -3 1904.43 82.9585  29
   0   0  -3 1792.00 84.3584  28
   0   0  -3 2061.57 80.2980  37
   0   0  -3 2037.64 93.0541  24
   0   0  -3 1888.82 105.742  25
   0   0  -3 2018.58 92.5461  35
   0   0  -3 2023.00 91.9843  36
   0   0   3 2118.01 148.191   6
   0   0   3 2052.75 107.111  36
   0   0   3 2036.38 80.2021   5
   0   0   3 1999.51 79.9432  37
   0   0   3 2075.07 101.688  24
   0   0   3 1998.19 96.0437  23
   0   0   3 1979.49 105.710  25
  -1   0  -3 61.4988 3.44256  25
  -1   0  -3 58.9587 3.01296  36
  -1   0  -3 62.0205 3.40891  25
  -1   0  -3 60.2908 3.93177  27
  -1   0  -3 51.9875 2.68627  28
  -1   0  -3 62.0612 3.00658  35
  -1   0  -3 62.0381 2.66412  29
  -1   0  -3 55.4141 2.59496  37
  -1   0  -3 56.1925 2.97860  24
  -1   0  -3 58.5570 2.98143  24
   1   0   3 58.4228 3.42062  25
   1   0   3 55.1059 2.95453  24
   1   0   3 52.6241 2.55796  37
   1   0   3 51.0630 2.57202   9
   1   0   3 56.9378 2.96783  36
   1   0   3 58.9137 2.63173   5
   1   0   3 62.7771 3.96799   6
   1   0   3 58.5107 2.85043  23
  -2   0  -3 1338.77 65.6470  36
  -2   0  -3 1494.72 65.9413  24
  -2   0  -3 1389.29 65.9653  24
  -2   0  -3 1429.16 75.8075  25
  -2   0  -3 1487.97 75.6765  25
  -2   0  -3 1404.37 65.7225  35
  -2   0  -3 1501.45 60.2653   4
  -2   0  -3 1476.76 86.3397  27
  -2   0  -3 1352.84 60.3914  28
  -2   0  -3 1399.97 57.3629  37
   2   0   3 1409.71 89.0165  25
   2   0   3 1484.39 66.1097  24
   2   0   3 1443.43 65.6028  36
   2   0   3 1450.96 87.8504   6
  -3   0  -3 177.083 7.45949  28
  -3   0  -3 185.869 9.38770  25
  -3   0  -3 179.071 8.18825  24
  -3   0  -3 179.785 7.34526  29
  -3   0  -3 175.722 10.6877  27
  -3   0  -3 166.514 7.53132  22
  -3   0  -3 172.349 7.48595   4
  -3   0  -3 171.255 7.12180  37
   3   0   3 173.138 8.06003  36
  -4   0  -3 1495.14 82.6059  24
  -4   0  -3 1711.50 71.3847  28
  -4   0  -3 1709.18 70.7580   4
  -4   0  -3 1779.71 70.1701  29
  -4   0  -3 1724.22 88.9268  25
  -4   0  -3 1723.65 72.0484  22
  -4   0  -3 1650.36 67.9349  37
  -5   0  -3 136.956 5.75759  28
  -5   0  -3 131.949 5.76691  22
  -5   0  -3 125.985 5.54764  37
  -5   0  -3 129.158 5.68707  29
   5   0   3 124.296 6.38386   2
  -6   0  -3 113.697 5.01087  28
  -6   0  -3 111.835 4.99966  22
  -6   0  -3 106.690 4.93621  29
  -6   0  -3 92.8181 4.77020  37
  -6   0  -3 110.900 4.55622  30
   6   0   3 111.568 4.68837  12
   6   0   3 108.543 4.75657  31
   6   0   3 104.934 4.92497  38
   6   0   3 117.982 5.48980   2
   6   0   3 106.070 4.08288  33
   6   0   3 101.916 5.74434  20
   6   0   3 101.653 5.52488  10
   6   0   3 110.639 5.66612  34
  -7   0  -3 55.6652 2.45244  13
  -7   0  -3 53.5109 2.80612  22
  -7   0  -3 57.9967 2.56667  30
   7   0   3 53.2899 2.95473  38
   7   0   3 54.0462 3.46988  34
   7   0   3 54.3172 2.85788  12
   7   0   3 57.5944 3.21314   2
   7   0   3 51.5153 3.26311  10
   7   0   3 54.5899 2.81860  31
   7   0   3 52.6451 3.59703  20
  -8   0  -3 190.577 7.01046  13
  -8   0  -3 175.266 7.33112  30
   8   0   3 181.439 8.56655  34
   8   0   3 171.851 7.22630  31
   8   0   3 185.300 8.69760  20
   8   0   3 180.550 8.54276  10
   8   0   3 178.328 7.09045  12
   8   0   3 173.214 7.31622  38
   6  -1  -3 32.1539 1.63432   1
   6  -1  -3 30.9009 1.92139  19
  -6   1   3 29.6155 1.87645  18
  -6   1   3 30.8266 1.77993   3
   5  -1  -3 836.613 30.0740  19
   5  -1  -3 829.058 27.4878   1
   5  -1  -3 787.955 31.1044  12
   5  -1  -3 854.484 37.0684  10
   5  -1  -3 827.568 31.2282  16
   5  -1  -3 898.875 33.4930   8
  -5   1   3 882.454 36.0325  18
  -5   1   3 817.721 32.1816   3
  -5   1   3 863.181 31.8105  13
   4  -1  -3 519.768 20.1884  12
   4  -1  -3 520.998 19.7026  32
   4  -1  -3 554.332 24.0896  10
   4  -1  -3 565.318 19.5646  19
   4  -1  -3 589.659 21.7576   8
   4  -1  -3 542.103 17.9278   1
  -4   1   3 500.326 21.9835  37
  -4   1   3 545.262 20.5042  13
  -4   1   3 556.156 23.3166  18
  -4   1   3 503.107 23.4175  22
  -4   1   3 535.178 20.8565   3
  -4   1   3 555.963 21.4894  30
   3  -1  -3 71.8803 3.14258  31
   3  -1  -3 67.6972 2.96985  19
   3  -1  -3 65.4957 3.62358  10
   3  -1  -3 67.6746 3.62618  36
   3  -1  -3 65.1154 3.04722  32
  -3   1   3 69.0723 3.26052  22
  -3   1   3 68.3293 2.93856  30
  -3   1   3 67.0803 3.24770  29
  -3   1   3 59.2959 3.33945  18
  -3   1   3 62.8152 3.77583  36
  -3   1   3 71.7934 3.20868  37
  -3   1   3 62.6408 2.78810  13
  -3   1   3 69.2277 3.28714  28
   2  -1  -3 78.3964 4.01078  36
   2  -1  -3 82.0880 4.14818  35
  -2   1   3 79.6550 3.59727  28
  -2   1   3 79.9299 3.46342  37
  -2   1   3 72.5302 3.26368  30
  -2   1   3 75.6621 3.78751  23
  -2   1   3 76.8524 4.58753  25
  -2   1   3 71.8373 4.04513  36
  -2   1   3 76.8340 3.48199   5
  -2   1   3 80.2943 3.56024  29
  -2   1   3 76.8140 3.59556  22
   1  -1  -3 53.6805 2.82861  24
   1  -1  -3 51.6191 2.45608  37
   1  -1  -3 53.3973 3.56724  27
   1  -1  -3 55.1099 2.93726  35
   1  -1  -3 57.8381 2.90401  36
  -1   1   3 52.9460 2.53452  28
  -1   1   3 58.2631 2.85016  24
  -1   1   3 50.1990 2.53439  22
  -1   1   3 57.1103 2.45806  37
  -1   1   3 56.8589 3.27381  25
  -1   1   3 52.4196 2.87155  36
  -1   1   3 54.4201 2.50825  29
  -1   1   3 60.1588 2.49273   5
  -1   1   3 54.6479 2.66898  23
   0  -1  -3 2196.83 98.1340  24
   0  -1  -3 2174.67 85.1630  37
   0  -1  -3 2015.62 88.2991  29
   0  -1  -3 2219.78 98.0032  36
   0  -1  -3 2155.35 98.2424  35
   0  -1  -3 2058.25 127.342  27
   0  -1  -3 2116.68 136.966  25
   0   1   3 2000.62 89.8448  28
   0   1   3 2183.97 85.3727   5
   0   1   3 1858.71 112.194  25
   0   1   3 2190.34 113.847  25
   0   1   3 2064.09 88.3966  29
   0   1   3 2209.45 85.3570  37
   0   1   3 2141.48 97.5870  36
   0   1   3 2264.98 98.1089  24
   0   1   3 2194.83 95.1211  23
   0   1   3 2200.92 148.680   6
  -1  -1  -3 -0.2491 0.29164  36
  -1  -1  -3 0.04376 0.30903  24
  -1  -1  -3 -0.1822 0.27392  25
  -1  -1  -3 0.42400 0.25361  28
  -1  -1  -3 0.14804 0.36256  25
  -1  -1  -3 0.71135 0.46664  27
   1   1   3 0.45497 0.29201  25
   1   1   3 0.74420 0.31410   6
   1   1   3 0.01185 0.25665   5
   1   1   3 0.34206 0.35131  25
  -2  -1  -3 2229.67 91.5913  29
  -2  -1  -3 2246.75 92.2613   4
  -2  -1  -3 2123.68 116.637  25
  -2  -1  -3 2181.82 106.802  28
  -2  -1  -3 2143.77 101.077  36
  -2  -1  -3 2272.57 102.530  24
  -2  -1  -3 2225.69 132.389  27
  -2  -1  -3 2202.14 88.3283  37
  -2  -1  -3 2317.96 101.396  35
  -2  -1  -3 2368.82 140.447  25
  -2  -1  -3 2127.53 101.393  24
   2   1   3 2255.89 101.091  36
   2   1   3 2130.47 99.1633  23
   2   1   3 2280.98 101.735  24
   2   1   3 2199.57 116.564  25
   2   1   3 2098.24 88.0836  37
  -3  -1  -3 263.247 13.3328  36
  -3  -1  -3 300.465 12.1724   4
  -3  -1  -3 305.803 15.3410  25
  -3  -1  -3 297.708 12.0196  29
  -3  -1  -3 288.625 12.2186  28
  -3  -1  -3 296.392 13.3946  24
  -3  -1  -3 296.403 17.4254  27
  -3  -1  -3 277.032 11.6175  37
   3   1   3 293.872 13.3380  36
   3   1   3 288.688 13.3767  24
   3   1   3 265.960 11.6407  37
  -4  -1  -3 2425.93 99.4968  37
  -4  -1  -3 2205.39 113.307  36
  -4  -1  -3 2612.70 104.738  28
  -4  -1  -3 2517.87 130.376  25
  -4  -1  -3 2422.26 103.608   4
  -4  -1  -3 2519.13 105.893  22
  -4  -1  -3 2561.95 108.904  29
  -4  -1  -3 2416.27 114.226  24
   4   1   3 2629.31 112.970  36
  -5  -1  -3 626.958 25.8521  29
  -5  -1  -3 636.278 24.9802  37
  -5  -1  -3 637.528 26.2698  28
  -5  -1  -3 573.879 26.0623   4
  -5  -1  -3 652.157 26.5879  22
  -5  -1  -3 604.238 24.4837  30
  -6  -1  -3 197.822 8.51812   3
  -6  -1  -3 217.166 8.65416  30
  -6  -1  -3 226.589 9.39798  28
  -6  -1  -3 212.814 8.98457  37
  -6  -1  -3 223.271 9.44905  22
  -6  -1  -3 206.747 9.24041  29
   6   1   3 217.724 8.83942   8
   6   1   3 233.414 8.83276  38
   6   1   3 202.308 10.1823  20
   6   1   3 209.818 8.38848  12
   6   1   3 209.535 7.59786  33
   6   1   3 206.378 8.56837  31
   6   1   3 217.661 10.1244  34
   6   1   3 214.340 9.91678   2
   6   1   3 196.767 9.89594  10
  -7  -1  -3 18.8719 1.37753   3
  -7  -1  -3 20.0236 1.16667  13
  -7  -1  -3 18.6841 1.16640  30
   7   1   3 18.2416 1.58743  38
   7   1   3 17.2237 1.79141  34
   7   1   3 18.1564 1.62737   2
   7   1   3 15.4883 1.42158  31
   7   1   3 17.9594 2.05022  20
   7   1   3 18.0989 1.54979  12
  -8  -1  -3 6.73645 0.67810  30
  -8  -1  -3 6.23448 0.83968   3
  -8  -1  -3 8.49547 0.69014  13
   8   1   3 7.72515 1.07452  12
   8   1   3 6.89960 1.41068  20
   8   1   3 7.18048 0.92506  31
   8   1   3 6.48928 1.37652  34
   6  -2  -3 134.041 4.78561   1
   6  -2  -3 136.517 5.27148  19
  -6   2   3 130.655 5.46755   3
  -6   2   3 138.709 6.12955  18
   5  -2  -3 298.567 11.1924  19
   5  -2  -3 315.528 13.6840  10
   5  -2  -3 281.676 11.5148  12
   5  -2  -3 294.974 10.2383   1
   5  -2  -3 297.563 11.5520  16
  -5   2   3 280.516 11.7850   3
  -5   2   3 315.922 11.4729  13
  -5   2   3 302.051 13.1659  18
  -5   2   3 297.185 12.0323  30
   4  -2  -3 1682.55 61.9563  32
   4  -2  -3 1764.52 61.2694  19
   4  -2  -3 1826.66 68.5836   8
   4  -2  -3 1827.10 76.0823  10
   4  -2  -3 1680.85 63.5486  12
   4  -2  -3 1731.99 56.1229   1
  -4   2   3 1765.08 65.6174  13
  -4   2   3 1705.39 65.8632   3
  -4   2   3 1812.98 68.6919  30
  -4   2   3 1750.35 74.5425  22
  -4   2   3 1707.53 73.7977  18
   3  -2  -3 20.7913 1.40109  12
   3  -2  -3 18.9570 1.37086  38
   3  -2  -3 19.2021 1.69625  10
   3  -2  -3 19.5137 1.34326  31
   3  -2  -3 18.7290 1.38388  32
   3  -2  -3 19.8360 1.35150  19
   3  -2  -3 17.6673 1.32645   1
   3  -2  -3 19.4239 1.30444   8
  -3   2   3 20.1439 1.28009  22
  -3   2   3 19.9713 1.32750  37
  -3   2   3 19.9951 1.13332  30
  -3   2   3 18.1624 1.04508  13
  -3   2   3 16.4545 1.37404  18
  -3   2   3 18.5542 1.29873  29
  -3   2   3 19.0783 1.33601  28
   2  -2  -3 26.9357 1.70146  36
  -2   2   3 25.2373 1.48042  29
  -2   2   3 26.5097 1.53852   5
  -2   2   3 26.9956 1.48009  37
  -2   2   3 25.5644 1.79883  36
  -2   2   3 30.4128 1.68802  23
  -2   2   3 29.5847 1.51808  22
  -2   2   3 27.0365 1.34020  30
  -2   2   3 25.7791 1.50358  28
   1  -2  -3 133.135 6.39582  36
   1  -2  -3 121.657 6.37550  24
  -1   2   3 134.636 5.72826  29
  -1   2   3 132.742 5.86573  22
  -1   2   3 133.830 5.54430  37
  -1   2   3 135.224 5.61026   5
  -1   2   3 130.100 6.43228  36
  -1   2   3 139.194 6.42447  24
  -1   2   3 133.956 7.36948  25
  -1   2   3 135.313 6.18677  23
  -1   2   3 130.838 5.80574  28
   0  -2  -3 456.802 20.5997  36
   0  -2  -3 423.681 26.8890  27
   0  -2  -3 439.852 20.7731  35
   0  -2  -3 463.619 20.6782  24
   0   2   3 453.534 18.0622  37
   0   2   3 438.616 18.9318  28
   0   2   3 450.370 18.6228  29
   0   2   3 456.493 20.6574  24
   0   2   3 453.731 20.5976  36
   0   2   3 405.587 19.1596  22
   0   2   3 460.587 20.1882  23
   0   2   3 454.962 23.7388  25
   0   2   3 455.060 17.9954   5
  -1  -2  -3 336.752 15.0769  36
  -1  -2  -3 327.939 13.1352  37
  -1  -2  -3 342.372 15.1214  24
  -1  -2  -3 322.141 13.6120   4
  -1  -2  -3 351.949 17.3342  25
  -1  -2  -3 346.539 15.1749  35
  -1  -2  -3 324.185 19.7092  27
  -1  -2  -3 312.287 13.5883  29
   1   2   3 300.168 13.8153  28
   1   2   3 345.286 14.6769  23
   1   2   3 311.905 13.5909  29
   1   2   3 284.067 17.2544  25
   1   2   3 329.635 13.1383   5
   1   2   3 329.143 13.1085  37
   1   2   3 333.047 15.0516  36
   1   2   3 340.954 17.3636  25
  -2  -2  -3 165.861 10.1252  25
  -2  -2  -3 195.587 7.68043  37
  -2  -2  -3 186.760 7.91505  29
  -2  -2  -3 202.213 8.86239  24
  -2  -2  -3 194.764 7.97766   4
  -2  -2  -3 180.589 11.5280  27
  -2  -2  -3 177.770 8.04208  28
  -2  -2  -3 191.611 8.83412  36
  -2  -2  -3 189.441 10.1048  25
   2   2   3 198.718 8.81238  36
   2   2   3 196.679 8.84811  24
   2   2   3 185.993 8.59878  23
   2   2   3 190.565 7.68528   5
   2   2   3 193.111 7.66459  37
   2   2   3 182.339 10.1425  25
   2   2   3 184.486 7.89707   9
  -3  -2  -3 296.003 11.8626   4
  -3  -2  -3 278.629 11.7191  29
  -3  -2  -3 288.590 14.9704  25
  -3  -2  -3 285.487 11.9232  28
  -3  -2  -3 275.879 17.0068  27
  -3  -2  -3 271.994 12.0645  22
  -3  -2  -3 285.810 11.3510  37
  -3  -2  -3 272.578 13.0352  36
  -3  -2  -3 290.300 13.0960  24
   3   2   3 287.223 11.7433   9
   3   2   3 266.753 11.3396  37
   3   2   3 276.663 13.0104  36
   3   2   3 279.454 12.7957  23
   3   2   3 280.852 13.0727  24
  -4  -2  -3 4124.44 264.855  27
  -4  -2  -3 4601.47 183.927  29
  -4  -2  -3 4569.12 186.913  28
  -4  -2  -3 4462.29 177.516  37
  -4  -2  -3 4518.33 233.853  25
  -4  -2  -3 4100.28 203.065  36
  -4  -2  -3 4523.27 185.364   4
  -4  -2  -3 4299.62 203.606  24
  -4  -2  -3 4576.02 189.361  22
   4   2   3 4652.73 203.112  36
  -5  -2  -3 513.853 26.5589  36
  -5  -2  -3 608.615 24.6450  22
  -5  -2  -3 587.389 23.9615  29
  -5  -2  -3 589.161 23.1583  37
  -5  -2  -3 565.158 24.1857   4
  -5  -2  -3 571.334 22.6899  30
  -5  -2  -3 590.512 24.3439  28
  -6  -2  -3 98.5735 4.08735  13
  -6  -2  -3 98.1129 3.90322  15
  -6  -2  -3 91.4601 4.30918   3
  -6  -2  -3 103.150 4.69111  22
  -6  -2  -3 106.241 4.70404  28
  -6  -2  -3 102.998 4.27639  30
  -6  -2  -3 96.8298 4.62912  29
  -6  -2  -3 110.369 4.62120  37
   6   2   3 102.406 4.54621   8
   6   2   3 98.3580 5.01984   2
   6   2   3 98.6260 4.31720  12
   6   2   3 94.2558 4.43736  38
   6   2   3 95.7789 5.23804  20
   6   2   3 106.138 3.86863  33
  -7  -2  -3 1.69349 0.43166  15
  -7  -2  -3 0.82481 0.52800   3
  -7  -2  -3 1.42000 0.34076  13
   7   2   3 0.70048 0.46344   8
   7   2   3 3.00037 0.77613   2
   7   2   3 1.79464 0.91024  20
   7   2   3 0.80024 0.86057  34
   7   2   3 0.81163 0.61966  12
  -8  -2  -3 31.0905 1.89927   3
  -8  -2  -3 28.4540 1.61888  30
  -8  -2  -3 32.2970 1.56256  13
   8   2   3 36.4353 2.53123  34
   8   2   3 33.9800 1.91879  31
   8   2   3 34.8358 2.08506  12
   8   2   3 30.9071 2.56200  20
  -9  -2  -3 19.8735 1.16544   3
   9   2   3 19.4493 1.53040  20
   9   2   3 19.1984 1.29325  12
   9   2   3 20.1693 1.57294  34
   5  -3  -3 267.582 9.95704  16
   5  -3  -3 262.209 9.61870  19
   5  -3  -3 254.702 8.79717   1
  -5   3   3 224.678 10.0124   3
  -5   3   3 244.130 10.3058  30
  -5   3   3 278.068 9.84407  13
   4  -3  -3 482.429 17.6126  32
   4  -3  -3 490.887 16.0125   1
   4  -3  -3 516.702 21.5610  10
   4  -3  -3 494.247 17.4305  19
   4  -3  -3 426.034 21.3249  34
   4  -3  -3 499.776 18.2382  16
   4  -3  -3 458.496 18.5722  38
  -4   3   3 459.562 20.6713  18
  -4   3   3 499.237 19.1239  30
  -4   3   3 495.943 18.2321  13
  -4   3   3 456.362 18.4764   3
  -4   3   3 463.246 20.7922  22
   3  -3  -3 1.09550 0.65155  34
   3  -3  -3 1.31666 0.40260   8
   3  -3  -3 1.59964 0.54630  19
   3  -3  -3 2.09586 0.74486   1
   3  -3  -3 1.68568 0.66754  16
   3  -3  -3 1.84756 0.79343  10
   3  -3  -3 1.22832 0.60150  32
  -3   3   3 1.38268 0.46909   3
  -3   3   3 1.54456 0.46786  28
  -3   3   3 1.17613 0.41702  37
   2  -3  -3 347.605 14.0263  38
   2  -3  -3 336.227 13.1448  32
   2  -3  -3 357.959 13.4467  12
   2  -3  -3 346.065 16.1381  10
   2  -3  -3 354.270 11.9167   1
   2  -3  -3 360.996 12.9717  19
  -2   3   3 354.702 14.2572  30
  -2   3   3 372.062 15.1201  29
  -2   3   3 363.248 14.5646  37
  -2   3   3 372.878 15.5296  22
  -2   3   3 367.555 15.3540  28
   1  -3  -3 74.6079 3.71193  36
  -1   3   3 72.4133 3.29637  29
  -1   3   3 74.6977 3.22221  37
  -1   3   3 73.4216 3.62674  23
  -1   3   3 65.3676 3.75509  36
  -1   3   3 74.8869 3.31281   5
  -1   3   3 72.1079 3.34029  28
  -1   3   3 73.6830 3.36163  22
  -1   3   3 69.6798 3.05887  30
   0  -3  -3 926.143 60.6033  27
   0  -3  -3 1018.12 46.9957  36
   0  -3  -3 1000.77 46.6766  24
   0   3   3 1072.91 41.4448  37
   0   3   3 1009.79 44.0092  22
   0   3   3 1005.15 46.8372  36
   0   3   3 1052.50 46.0181  23
   0   3   3 1031.94 41.1559   5
   0   3   3 1041.67 53.7673  25
   0   3   3 1028.97 42.8291  29
   0   3   3 1047.70 46.6641  24
   0   3   3 994.655 55.6884  28
  -1  -3  -3 214.907 14.0545  27
  -1  -3  -3 243.481 10.7583  36
  -1  -3  -3 232.923 9.34593  37
  -1  -3  -3 237.082 10.7677  24
   1   3   3 235.324 12.3721  25
   1   3   3 212.283 9.90648  22
   1   3   3 238.559 10.4512  23
   1   3   3 223.591 9.64512  29
   1   3   3 230.531 9.34066   5
   1   3   3 236.312 9.32071  37
   1   3   3 234.696 10.7284  36
   1   3   3 222.737 9.80306  28
  -2  -3  -3 261.813 11.8130  24
  -2  -3  -3 258.446 11.7835  36
  -2  -3  -3 254.511 10.6327   4
  -2  -3  -3 244.858 15.4059  27
  -2  -3  -3 250.829 13.4896  25
  -2  -3  -3 251.015 10.2377  37
   2   3   3 260.457 13.5691  25
   2   3   3 261.205 11.8071  24
   2   3   3 251.992 11.4642  23
   2   3   3 255.093 10.2239  37
   2   3   3 250.189 10.2226   5
   2   3   3 253.413 10.6144   9
   2   3   3 248.085 11.7323  36
   2   3   3 232.130 10.7493  28
   2   3   3 243.263 10.5855  29
  -3  -3  -3 18.6488 1.77999  27
  -3  -3  -3 21.4476 1.22285   4
  -3  -3  -3 22.1631 1.18779  37
  -3  -3  -3 20.6510 1.41162  36
  -3  -3  -3 22.8160 1.42146  24
  -3  -3  -3 18.4653 1.18619  28
  -3  -3  -3 19.0325 1.12365  29
  -3  -3  -3 21.4354 1.54837  25
   3   3   3 19.6831 1.33958  23
   3   3   3 20.1141 1.17341  37
   3   3   3 22.7431 1.42857  36
   3   3   3 20.9834 1.12236   9
   3   3   3 21.5241 1.40919  24
  -4  -3  -3 1322.24 56.7484  22
  -4  -3  -3 1326.53 72.7799  25
  -4  -3  -3 1316.34 53.5327  37
  -4  -3  -3 1347.47 56.2630  28
  -4  -3  -3 1363.90 55.3839  29
  -4  -3  -3 1339.49 61.3942  36
  -4  -3  -3 1357.48 55.7773   4
  -4  -3  -3 1237.01 79.2064  27
   4   3   3 1345.01 60.6968  24
   4   3   3 1309.16 59.1648  23
   4   3   3 1315.65 52.7465  37
   4   3   3 1359.80 60.3713  36
  -5  -3  -3 374.041 14.9917  30
  -5  -3  -3 372.478 15.8715  29
  -5  -3  -3 369.721 16.1092  28
  -5  -3  -3 389.773 16.3078  22
  -5  -3  -3 366.484 17.7251  36
  -5  -3  -3 378.888 15.3788  37
  -5  -3  -3 354.638 16.0446   4
   5   3   3 412.229 17.6270  36
  -6  -3  -3 263.006 10.3241  13
  -6  -3  -3 258.401 10.5894   3
  -6  -3  -3 246.126 12.9589  36
  -6  -3  -3 272.535 11.7926  22
  -6  -3  -3 283.866 11.2508  37
  -6  -3  -3 264.095 9.50336  15
  -6  -3  -3 279.912 10.8282  30
   6   3   3 277.709 11.1213   8
   6   3   3 264.029 12.2159   2
   6   3   3 272.047 10.3122  12
  -7  -3  -3 10.4754 0.85501  30
  -7  -3  -3 11.5226 0.87830  13
  -7  -3  -3 11.4664 1.19938   3
  -7  -3  -3 14.5026 1.15025  15
   7   3   3 13.0046 1.22931   8
   7   3   3 12.6312 1.49249  20
   7   3   3 11.5782 1.29345  12
   7   3   3 13.4226 1.31745   2
  -8  -3  -3 1126.66 38.9167  15
  -8  -3  -3 1211.42 43.5269   3
  -8  -3  -3 1101.06 43.1578  13
   8   3   3 1126.81 50.6276  20
   8   3   3 1134.91 45.1739   8
   8   3   3 1176.22 42.0103  12
   8   3   3 1176.28 50.1347  34
  -9  -3  -3 149.459 5.97023   3
   9   3   3 145.085 7.02130  20
   9   3   3 150.714 7.01791  34
   9   3   3 145.760 5.80674  12
   5  -4  -3 43.7978 2.01208   1
   5  -4  -3 46.0192 2.23156  16
   5  -4  -3 43.1395 2.24321  19
  -5   4   3 46.5270 1.93893  13
   4  -4  -3 267.253 10.9136  38
   4  -4  -3 267.748 10.7459  16
   4  -4  -3 301.394 12.7281  10
   4  -4  -3 282.320 10.4149  32
   4  -4  -3 268.881 9.44457   1
   4  -4  -3 278.160 10.2779  19
   4  -4  -3 249.333 12.6878  34
  -4   4   3 283.758 11.1059  30
  -4   4   3 252.033 10.7279   3
  -4   4   3 281.948 10.5719  13
   3  -4  -3 6.63823 1.30203  10
   3  -4  -3 6.64868 1.13736  19
   3  -4  -3 6.69322 1.08996  16
   3  -4  -3 6.82565 0.97062   1
   3  -4  -3 6.75935 1.24818  34
   3  -4  -3 7.49507 1.21310  38
   3  -4  -3 7.87614 1.21556  20
  -3   4   3 7.47626 0.89475   3
  -3   4   3 7.64664 0.90948  28
  -3   4   3 7.23820 0.69375  13
  -3   4   3 6.70168 0.68409  30
   2  -4  -3 428.988 13.8674   1
   2  -4  -3 415.576 15.3467  32
   2  -4  -3 411.600 16.3056  38
   2  -4  -3 404.240 16.6373   8
   2  -4  -3 390.037 18.7878  20
   2  -4  -3 432.204 18.8126  10
   2  -4  -3 426.428 15.1024  19
   2  -4  -3 413.084 18.5815  34
   2  -4  -3 429.067 15.8679  16
  -2   4   3 427.913 17.8753  28
  -2   4   3 409.312 16.9251  37
  -2   4   3 408.453 16.0424   3
  -2   4   3 422.534 16.6181  30
  -2   4   3 413.675 17.5806  29
  -2   4   3 386.899 15.8364  13
  -2   4   3 449.592 18.0954  22
  -1   4   3 336.258 13.7315   5
  -1   4   3 334.693 14.4146  22
  -1   4   3 343.908 14.2655  28
  -1   4   3 328.617 13.2578  30
  -1   4   3 342.242 13.5542  37
  -1   4   3 332.469 14.0304  29
  -1   4   3 312.951 15.2080  23
   0  -4  -3 1390.77 62.7585  36
   0   4   3 1367.66 54.7760   5
   0   4   3 1387.67 57.8476  29
   0   4   3 1279.33 54.3200  30
   0   4   3 1409.35 62.1920  23
   0   4   3 1402.39 59.4802  22
   0   4   3 1452.55 55.9395  37
   0   4   3 1358.89 62.7816  36
   0   4   3 1360.56 58.4015  28
  -1  -4  -3 19.2140 1.30413  36
  -1  -4  -3 17.7943 1.79842  27
   1   4   3 18.8896 1.48621  25
   1   4   3 18.3305 1.08041  28
   1   4   3 18.5752 1.28631  36
   1   4   3 18.6728 1.07630   5
   1   4   3 17.6551 1.05166  22
   1   4   3 20.6184 1.24091  23
   1   4   3 18.7694 1.06333  37
   1   4   3 18.6339 1.11354   9
  -2  -4  -3 1424.59 57.1452  37
  -2  -4  -3 1419.00 59.1406   4
  -2  -4  -3 1284.32 83.9676  27
  -2  -4  -3 1478.01 65.7554  36
  -2  -4  -3 1473.03 65.2727  24
   2   4   3 1451.82 59.4697   9
   2   4   3 1305.71 60.1920  22
   2   4   3 1416.46 56.6772   5
   2   4   3 1437.92 57.0729  37
   2   4   3 1450.35 63.9690  23
   2   4   3 1417.19 74.0182  25
   2   4   3 1377.61 64.4549  24
   2   4   3 1464.58 65.3837  36
   2   4   3 1363.22 59.1895  28
   2   4   3 1444.55 58.9007  29
  -3  -4  -3 237.890 10.8999  36
  -3  -4  -3 214.722 14.2039  27
  -3  -4  -3 234.743 9.84771   4
  -3  -4  -3 234.944 10.9348  24
  -3  -4  -3 238.553 9.44831  37
   3   4   3 237.039 9.45684  37
   3   4   3 229.773 10.9169  24
   3   4   3 231.580 10.8623  36
   3   4   3 220.418 10.5910  23
   3   4   3 223.720 9.77299   9
  -4  -4  -3 121.176 5.49476   4
  -4  -4  -3 133.320 5.29663  37
  -4  -4  -3 122.939 6.13307  36
  -4  -4  -3 105.042 7.82291  27
   4   4   3 123.675 6.13710  24
   4   4   3 126.587 5.29614  37
   4   4   3 128.225 6.13339  36
   4   4   3 119.772 5.94804  23
  -5  -4  -3 208.299 8.54856  37
  -5  -4  -3 203.716 9.93036  36
  -5  -4  -3 195.898 8.91518   4
   5   4   3 211.510 9.81915  36
   5   4   3 200.132 9.64820  23
   5   4   3 196.607 8.60213  37
  -6  -4  -3 1.46633 0.52930  37
  -6  -4  -3 2.43490 0.51544  17
  -6  -4  -3 1.70964 0.34005  13
  -6  -4  -3 1.66931 0.40044  15
  -6  -4  -3 1.17508 0.61790  36
  -6  -4  -3 2.89018 0.59493   3
   6   4   3 2.05603 0.54460   8
   6   4   3 2.97375 0.69447  36
  -7  -4  -3 2.45075 0.61319   3
  -7  -4  -3 1.59452 0.33475  13
  -7  -4  -3 1.60170 0.41818  15
   7   4   3 1.46140 0.56539   8
   7   4   3 2.97113 0.65742  12
  -8  -4  -3 379.011 13.2731  15
  -8  -4  -3 388.601 14.8329   3
   8   4   3 384.384 15.3799   8
   8   4   3 370.470 17.2914  20
   8   4   3 374.690 14.3519  12
  -9  -4  -3 54.3100 2.34459  15
  -9  -4  -3 60.0032 2.68671   3
   9   4   3 59.6332 2.65281  12
   9   4   3 52.7594 2.54460   8
   9   4   3 62.3234 3.24096  34
   9   4   3 58.8978 3.20546  20
   4  -5  -3 7.62502 1.17961  16
   4  -5  -3 10.4060 1.19664  32
   4  -5  -3 7.41586 1.10216  19
   4  -5  -3 6.87062 1.05333  38
  -4   5   3 8.07962 0.66636  13
   3  -5  -3 65.0425 3.30347  38
   3  -5  -3 66.3307 2.89075   1
   3  -5  -3 65.3954 3.08247  19
   3  -5  -3 60.3142 3.61635  34
   3  -5  -3 76.2238 3.91501  10
   3  -5  -3 65.6032 3.33107  16
   3  -5  -3 64.3327 3.24385  32
   3  -5  -3 59.2423 3.68918  20
  -3   5   3 67.4263 3.01093  30
  -3   5   3 65.9580 2.84618  13
  -3   5   3 65.9763 3.31370  22
   2  -5  -3 25.7748 1.95442  20
   2  -5  -3 22.7253 2.20951   7
   2  -5  -3 24.6233 1.56528  19
   2  -5  -3 20.9058 1.63043  32
   2  -5  -3 21.3159 1.65056  16
   2  -5  -3 23.8147 1.76506  38
   2  -5  -3 22.5382 1.86073  34
   2  -5  -3 25.0502 1.47248   1
  -2   5   3 23.9383 1.44998   3
  -2   5   3 22.5097 1.50988  28
  -2   5   3 23.7363 1.24440  13
  -2   5   3 22.4227 1.45371  22
   1  -5  -3 249.930 9.66874  38
   1  -5  -3 247.467 11.0431  10
   1  -5  -3 229.976 9.69655   8
   1  -5  -3 239.982 11.0992  20
   1  -5  -3 235.248 10.9181  34
   1  -5  -3 236.631 8.12877   1
   1  -5  -3 231.464 9.18034  14
   1  -5  -3 247.887 9.38854  16
   1  -5  -3 248.705 8.91571  19
   1  -5  -3 241.366 9.09277  32
   1  -5  -3 230.883 12.1270   7
  -1   5   3 238.406 10.2282  29
  -1   5   3 234.660 9.86248  37
  -1   5   3 246.510 10.3928  28
  -1   5   3 244.599 10.4828  22
  -1   5   3 222.792 9.34750   3
  -1   5   3 220.221 9.16198  13
  -1   5   3 246.072 9.63243  30
   0  -5  -3 223.940 10.2061  38
   0   5   3 267.460 11.0103  28
   0   5   3 267.153 11.1174  22
   0   5   3 263.950 10.4801  37
   0   5   3 258.434 10.8340  29
   0   5   3 249.298 10.5254   5
   0   5   3 255.069 10.2133  30
  -1  -5  -3 178.573 8.27154  36
   1   5   3 163.449 8.31124  36
   1   5   3 169.119 7.20483   5
   1   5   3 177.184 7.44436  29
   1   5   3 174.477 7.61307  22
   1   5   3 174.448 7.55285  28
   1   5   3 180.454 7.22814  37
   1   5   3 164.945 7.54548   9
   1   5   3 171.295 6.99391  30
   1   5   3 179.397 8.14576  23
  -2  -5  -3 1922.15 83.6534  36
   2   5   3 1838.36 81.0169  23
   2   5   3 1872.20 72.7834  37
   2   5   3 1783.48 72.4573   5
   2   5   3 1782.02 75.3293   9
   2   5   3 1779.38 77.2062  22
   2   5   3 1764.58 82.4612  36
   2   5   3 1762.52 94.4123  25
   2   5   3 1718.42 71.0197  30
   2   5   3 1814.11 76.3507  28
  -3  -5  -3 450.954 19.7596   4
  -3  -5  -3 448.256 21.8505  24
  -3  -5  -3 479.352 18.9497  37
  -3  -5  -3 507.625 21.8080  36
   3   5   3 486.816 18.9680  37
   3   5   3 469.527 21.7396  36
   3   5   3 457.556 21.2470  23
   3   5   3 457.581 19.7355   9
  -4  -5  -3 825.818 34.1494   4
  -4  -5  -3 835.859 32.6862  37
  -4  -5  -3 856.316 37.5211  36
   4   5   3 807.450 32.6847  37
   4   5   3 761.595 36.6127  23
   4   5   3 812.710 37.4538  36
  -5  -5  -3 26.7453 1.97959  36
  -5  -5  -3 22.9615 1.34514  15
  -5  -5  -3 23.0212 1.47880  17
  -5  -5  -3 23.2695 1.55602   3
   5   5   3 27.6482 1.60910  12
   5   5   3 25.9500 1.58854  37
   5   5   3 27.1108 1.88093  36
  -6  -5  -3 640.816 24.8710   3
  -6  -5  -3 669.268 26.3760  37
  -6  -5  -3 631.202 23.3511  17
  -6  -5  -3 651.765 30.3470  36
  -6  -5  -3 677.685 22.3396  15
   6   5   3 629.906 26.0234   8
   6   5   3 663.018 30.1174  36
   6   5   3 642.824 23.9481  12
  -7  -5  -3 31.4953 1.80715  15
  -7  -5  -3 33.0385 1.97324   3
   7   5   3 31.8148 1.90317  12
   7   5   3 31.8904 2.06007   8
  -8  -5  -3 100.760 4.21326   3
  -8  -5  -3 90.7060 3.73640  15
   8   5   3 90.6117 4.08323  12
   8   5   3 93.4322 4.32049   8
   8   5   3 87.7965 4.88082  20
  -9  -5  -3 46.4419 2.06717  15
  -9  -5  -3 51.9635 2.34701   3
   9   5   3 44.9636 2.26436   8
   9   5   3 50.0057 2.80985  34
   9   5   3 48.1578 2.28566  12
   9   5   3 45.5197 2.68017  20
  -4   6   3 59.6990 2.46724  13
   3  -6  -3 202.144 7.70524  16
   3  -6  -3 189.479 7.75881  38
   3  -6  -3 196.075 7.43852  32
   3  -6  -3 183.120 6.61358   1
   3  -6  -3 174.685 8.75324  34
   3  -6  -3 182.181 8.90853  20
  -3   6   3 188.757 7.37185  13
  -3   6   3 190.818 7.75069  30
   2  -6  -3 368.768 18.1380   7
   2  -6  -3 340.185 16.6018  20
   2  -6  -3 354.474 12.2094   1
   2  -6  -3 411.770 16.6298  10
   2  -6  -3 372.328 14.4459  38
   2  -6  -3 361.643 13.6277  32
   2  -6  -3 337.095 16.3767  34
   2  -6  -3 369.185 14.0794  16
  -2   6   3 365.839 14.6346  30
  -2   6   3 361.747 15.9068  22
  -2   6   3 367.691 13.9628  13
   1  -6  -3 15.2845 1.34389  38
   1  -6  -3 16.1692 1.47097  10
   1  -6  -3 12.9728 1.35283  34
   1  -6  -3 14.3796 1.38238  14
   1  -6  -3 13.9765 1.34207  16
   1  -6  -3 12.8777 1.89045   7
   1  -6  -3 16.2622 1.37246  32
   1  -6  -3 12.5822 1.03935   1
   1  -6  -3 13.5404 1.48050  20
  -1   6   3 13.4468 0.91241  30
  -1   6   3 13.7761 0.87541  13
  -1   6   3 13.9731 1.03873  22
  -1   6   3 13.9415 1.10017  28
   0  -6  -3 108.922 5.38934  20
   0  -6  -3 99.7049 5.93951   7
   0  -6  -3 99.2436 4.56162   8
   0  -6  -3 107.994 4.53229  14
   0  -6  -3 113.479 4.51031  32
   0  -6  -3 105.339 4.62882  38
   0  -6  -3 104.368 5.25559  34
   0  -6  -3 111.610 4.60254  16
   0   6   3 101.086 4.22934  13
   0   6   3 103.862 4.79438  29
   0   6   3 107.409 4.46102  30
   0   6   3 106.728 4.67962  37
   0   6   3 97.3159 4.41053   3
   0   6   3 111.914 4.89375  22
   0   6   3 112.052 4.89448  28
  -1  -6  -3 60.5463 2.86099   8
  -1  -6  -3 59.8554 3.32307  26
  -1  -6  -3 60.6356 2.82600  16
  -1  -6  -3 61.6601 2.87150  38
  -1  -6  -3 60.7852 2.86190  14
  -1  -6  -3 61.1832 2.76786  32
  -1  -6  -3 57.9688 3.71887   7
  -1  -6  -3 63.3793 3.36492  20
   1   6   3 61.5611 2.96475  28
   1   6   3 62.8320 2.69093  30
   1   6   3 57.4312 2.54343  13
   1   6   3 65.2197 2.97090  22
   1   6   3 63.9231 2.94885  29
   1   6   3 61.7291 2.89277  37
  -2  -6  -3 1401.31 60.9664  36
   2   6   3 1329.89 56.9887  22
   2   6   3 1324.60 55.7507   9
   2   6   3 1367.94 56.2837  28
   2   6   3 1277.45 60.9923  36
   2   6   3 1309.59 52.5379  30
   2   6   3 1335.42 55.3267  29
   2   6   3 1377.01 53.3116  37
  -3  -6  -3 205.772 9.53716  36
   3   6   3 190.993 9.50521  36
   3   6   3 202.860 8.27387  37
   3   6   3 190.805 7.96897  30
   3   6   3 192.501 9.29082  23
  -4  -6  -3 97.2654 4.86082  26
  -4  -6  -3 91.5411 4.37536   8
  -4  -6  -3 95.2524 4.00538  17
  -4  -6  -3 103.190 5.19208  36
   4   6   3 99.0576 4.05063  12
   4   6   3 95.7885 4.13312   3
   4   6   3 96.7677 5.12913  36
   4   6   3 97.3609 4.40414  37
  -5  -6  -3 264.310 10.8586  37
  -5  -6  -3 264.069 9.20700  15
  -5  -6  -3 259.080 9.71758  17
  -5  -6  -3 276.169 12.6293  36
  -5  -6  -3 245.435 10.7120   8
  -5  -6  -3 253.292 10.2177   3
   5   6   3 245.311 10.7934   8
   5   6   3 269.579 12.5390  36
   5   6   3 256.020 9.82648  12
   5   6   3 249.002 10.1842   3
   5   6   3 264.650 10.8843  37
  -6  -6  -3 750.886 32.4888   8
  -6  -6  -3 810.134 37.9025  36
  -6  -6  -3 847.436 31.1562   3
  -6  -6  -3 823.881 29.2760  17
  -6  -6  -3 848.108 27.9500  15
   6   6   3 811.246 37.7402  36
   6   6   3 832.484 29.9649  12
   6   6   3 839.442 32.6174   8
   6   6   3 800.845 31.0327   3
  -7  -6  -3 63.8074 3.04433  17
  -7  -6  -3 67.0063 3.23000   3
  -7  -6  -3 68.8311 2.96003  15
   7   6   3 68.7180 3.15091  12
   7   6   3 66.1732 3.43577   8
  -8  -6  -3 34.9179 1.92157  15
  -8  -6  -3 39.6082 2.11733   3
   8   6   3 37.0731 2.46469  20
   8   6   3 37.3875 2.21626   8
   8   6   3 36.6493 2.08576  12
  -9  -6  -3 4.48241 0.76186  15
  -9  -6  -3 5.48066 0.81390   3
   9   6   3 6.37852 1.03032  34
   9   6   3 4.94954 0.79994  12
   9   6   3 5.26209 0.74279   8
   3  -7  -3 298.787 11.2723  38
   3  -7  -3 268.447 9.57365   1
   3  -7  -3 301.516 11.0218  16
   3  -7  -3 267.743 12.9241  20
  -3   7   3 299.436 10.9888  13
   2  -7  -3 585.374 27.9749   7
   2  -7  -3 575.325 25.8401  20
   2  -7  -3 605.769 22.3553  38
   2  -7  -3 529.620 25.4254  34
   2  -7  -3 597.886 21.0907  32
   2  -7  -3 595.142 21.7549  16
   2  -7  -3 538.028 18.8680   1
  -2   7   3 595.900 23.0058  30
  -2   7   3 594.462 21.9629  13
   1  -7  -3 0.45870 0.52335  16
   1  -7  -3 0.95188 0.58695  14
   1  -7  -3 1.14627 0.55000  32
   1  -7  -3 0.57592 0.68288  38
   1  -7  -3 1.20912 0.67313  34
   1  -7  -3 0.61066 0.64083  20
   1  -7  -3 1.94061 1.00268   7
  -1   7   3 0.65965 0.25405  13
  -1   7   3 0.81817 0.39681  22
   0  -7  -3 73.5562 4.79205   7
   0  -7  -3 74.3537 3.59636  16
   0  -7  -3 75.9075 4.11648  34
   0  -7  -3 82.1284 4.26257  20
   0  -7  -3 70.6058 4.51831  21
   0  -7  -3 73.8064 3.61737  14
   0  -7  -3 82.3257 3.65954  38
   0  -7  -3 77.9904 3.57341  32
   0   7   3 78.6486 3.40343  30
   0   7   3 78.3126 3.76659  28
   0   7   3 79.5470 3.23908  13
   0   7   3 80.0064 3.46123   3
   0   7   3 79.2052 3.74583  22
  -1  -7  -3 1.42353 0.58494  14
  -1  -7  -3 0.69035 0.48338  32
  -1  -7  -3 1.99038 0.64670  38
  -1  -7  -3 1.29065 0.38098   8
  -1  -7  -3 1.32750 0.82945   7
  -1  -7  -3 1.27029 0.63250  34
  -1  -7  -3 2.30756 0.58009  16
  -1  -7  -3 1.59808 0.57449  20
   1   7   3 0.96818 0.42508  29
   1   7   3 0.58620 0.24839  13
   1   7   3 0.56144 0.38849  28
   1   7   3 0.79898 0.37652  22
   1   7   3 0.36730 0.40140  37
   1   7   3 0.83763 0.43415   3
   1   7   3 1.21299 0.35474  30
  -2  -7  -3 89.2854 4.57402  20
  -2  -7  -3 100.444 4.60910  34
  -2  -7  -3 87.3007 3.95010   8
  -2  -7  -3 87.7581 3.83212  14
  -2  -7  -3 85.1233 5.01583   7
  -2  -7  -3 85.0341 3.69873  32
  -2  -7  -3 84.7584 4.49470  26
   2   7   3 79.0397 4.04707  29
   2   7   3 84.5376 3.56600  13
   2   7   3 86.3770 4.12678  28
   2   7   3 87.6233 4.02812  37
   2   7   3 86.2132 3.78101   3
   2   7   3 88.7061 3.75832  30
   2   7   3 93.3064 4.14887  22
  -3  -7  -3 212.638 9.80220  34
  -3  -7  -3 217.068 8.80967   8
  -3  -7  -3 224.716 10.2236  36
  -3  -7  -3 199.489 9.55957  26
  -3  -7  -3 202.745 8.01191  17
  -3  -7  -3 212.030 8.14729  14
   3   7   3 214.407 8.40804   3
   3   7   3 216.187 8.60097  30
   3   7   3 200.329 8.16879  13
   3   7   3 203.117 10.2705  36
   3   7   3 208.391 9.37991  22
   3   7   3 220.039 8.94366  37
  -4  -7  -3 18.5092 1.57899  26
  -4  -7  -3 19.3961 1.34749  17
  -4  -7  -3 17.8251 1.59806  36
  -4  -7  -3 17.8684 1.30700   8
  -4  -7  -3 20.0297 1.58962  34
   4   7   3 19.5000 1.06354  13
   4   7   3 18.3322 1.67464  36
   4   7   3 19.1174 1.34326   3
   4   7   3 18.7893 1.39488  37
  -5  -7  -3 126.484 5.66219   8
  -5  -7  -3 129.238 6.67057  36
  -5  -7  -3 128.024 4.82511  15
  -5  -7  -3 127.777 5.18146  17
  -5  -7  -3 122.535 6.03907  26
   5   7   3 127.799 5.36596   3
   5   7   3 127.367 5.18401  12
   5   7   3 124.421 5.72482  37
   5   7   3 128.533 6.65222  36
  -6  -7  -3 971.039 37.3769   3
  -6  -7  -3 1033.12 33.5756  15
  -6  -7  -3 1013.50 35.2240  17
  -6  -7  -3 946.886 39.0732   8
   6   7   3 967.271 39.1544   8
   6   7   3 966.820 37.3415   3
   6   7   3 1009.95 36.0282  12
  -7  -7  -3 307.352 12.4602   3
  -7  -7  -3 311.138 13.1250   8
  -7  -7  -3 334.545 11.2896  15
  -7  -7  -3 308.198 11.7674  17
   7   7   3 327.124 12.0843  12
   7   7   3 316.544 13.1551   8
   7   7   3 317.935 12.4676   3
  -8  -7  -3 341.792 13.0782   3
  -8  -7  -3 337.949 11.7753  15
   8   7   3 322.430 13.6770   8
   8   7   3 339.502 12.6530  12
  -9  -7  -3 57.9842 2.37076  15
  -9  -7  -3 56.3537 2.58079   3
   9   7   3 64.4353 2.60690  12
   9   7   3 55.1055 2.69240   8
   2  -8  -3 391.873 14.5112  16
   2  -8  -3 406.294 18.6648   7
   2  -8  -3 343.065 17.1526  20
  -2   8   3 397.177 14.6200  13
   1  -8  -3 30.0676 2.13377  20
   1  -8  -3 34.3578 2.67997   7
   1  -8  -3 30.6454 1.94144  32
   1  -8  -3 31.3115 1.90364  38
   1  -8  -3 28.1488 2.02567  34
   1  -8  -3 36.9454 2.05267  16
   1  -8  -3 30.8441 1.94035  14
  -1   8   3 32.9352 1.52408  13
  -1   8   3 31.2684 1.62155  30
   0  -8  -3 430.366 20.2773  34
   0  -8  -3 475.065 17.7313  38
   0  -8  -3 437.394 22.0413  21
   0  -8  -3 467.534 16.8182  32
   0  -8  -3 453.715 17.2669  16
   0  -8  -3 437.208 17.0270  14
   0  -8  -3 471.979 20.6134  20
   0  -8  -3 448.315 22.4148   7
   0   8   3 459.822 17.3683  13
   0   8   3 477.092 18.2124  30
   0   8   3 462.603 19.7885  22
  -1  -8  -3 4.62309 1.22518   7
  -1  -8  -3 3.14544 0.87101  26
  -1  -8  -3 3.03150 0.79358  34
  -1  -8  -3 4.42590 0.89498  16
  -1  -8  -3 6.09985 1.06340  32
  -1  -8  -3 4.93623 0.87811  14
  -1  -8  -3 3.63808 1.09227  21
   1   8   3 4.36548 0.83769   3
   1   8   3 3.51634 0.64624  22
  -2  -8  -3 471.236 24.4379  21
  -2  -8  -3 498.079 22.4967  34
  -2  -8  -3 515.824 18.8397  14
  -2  -8  -3 493.926 24.6451   7
  -2  -8  -3 506.281 21.9833  26
  -2  -8  -3 521.923 22.7878  20
  -2  -8  -3 529.616 20.2750   8
   2   8   3 502.938 19.4824   3
   2   8   3 495.197 21.7069  28
   2   8   3 504.198 20.1795  30
   2   8   3 556.740 21.9791  22
   2   8   3 493.213 19.2593  13
  -3  -8  -3 122.966 6.07998  26
  -3  -8  -3 121.347 5.01725  17
  -3  -8  -3 117.071 6.66324  21
  -3  -8  -3 124.061 6.14674  34
  -3  -8  -3 123.665 5.14083  14
  -3  -8  -3 114.288 6.59875   7
  -3  -8  -3 128.127 5.42467   8
   3   8   3 127.502 5.22572  30
   3   8   3 126.428 4.95566  13
   3   8   3 123.435 5.20408   3
  -4  -8  -3 650.116 24.1533   8
  -4  -8  -3 601.104 25.8662  26
  -4  -8  -3 538.848 28.6807  21
  -4  -8  -3 643.388 26.6799  34
  -4  -8  -3 601.087 21.7951  17
   4   8   3 587.004 22.7975  13
   4   8   3 598.384 23.0680   3
  -5  -8  -3 143.977 6.80906  26
  -5  -8  -3 145.564 6.30694   8
  -5  -8  -3 131.279 7.42791  21
  -5  -8  -3 148.119 5.81056  17
   5   8   3 145.179 5.78471  12
   5   8   3 142.436 5.98177   3
  -6  -8  -3 634.652 22.2658  17
  -6  -8  -3 608.335 24.6511   8
  -6  -8  -3 605.544 21.1246  15
   6   8   3 590.041 23.5049   3
   6   8   3 637.350 22.7223  12
  -7  -8  -3 201.015 7.05976  15
  -7  -8  -3 199.475 7.42787  17
  -7  -8  -3 186.065 8.18110   8
   7   8   3 185.726 7.71163   3
   7   8   3 183.555 8.21487   8
   7   8   3 196.977 7.55603  12
  -8  -8  -3 307.777 11.8990  17
  -8  -8  -3 331.357 13.3616   8
  -8  -8  -3 329.982 11.4412  15
   8   8   3 334.989 12.3149  12
   8   8   3 334.121 13.3466   8
   9   8   3 31.3757 1.64332   8
   1  -9  -3 0.85409 0.67907   7
   1  -9  -3 0.80368 0.54661  34
   1  -9  -3 1.15792 0.45558  16
  -1   9   3 1.39562 0.28282  13
   0  -9  -3 294.868 15.2390   7
   0  -9  -3 297.275 13.9586  20
   0  -9  -3 303.679 11.7553  16
   0  -9  -3 323.479 11.6670  14
   0  -9  -3 293.832 13.7754  34
   0   9   3 309.926 12.3355  30
   0   9   3 324.987 11.7848  13
  -1  -9  -3 5.81871 1.08006  34
  -1  -9  -3 5.97249 1.14295  14
  -1  -9  -3 6.60331 1.15220  20
  -1  -9  -3 4.46648 0.90760  26
  -1  -9  -3 5.11484 1.22466   7
  -1  -9  -3 6.58623 0.96419  16
   1   9   3 5.99023 0.75002  22
   1   9   3 6.55380 0.66534  13
   1   9   3 5.24218 0.66350  30
  -2  -9  -3 284.975 13.1367  34
  -2  -9  -3 280.218 14.3570  21
  -2  -9  -3 287.175 12.8739  26
  -2  -9  -3 294.482 13.2792  20
  -2  -9  -3 290.632 14.4788   7
  -2  -9  -3 300.522 11.0800  14
   2   9   3 291.928 11.6543  30
   2   9   3 289.158 11.3313   3
   2   9   3 268.331 12.6552  22
   2   9   3 290.773 11.1022  13
  -3  -9  -3 591.273 31.5017   7
  -3  -9  -3 683.230 28.2600  26
  -3  -9  -3 669.565 23.1738  11
  -3  -9  -3 691.113 24.1717  14
  -3  -9  -3 653.600 26.1328   8
  -3  -9  -3 688.293 29.0435  34
  -3  -9  -3 641.613 31.4298  21
   3   9   3 649.861 26.1099  30
   3   9   3 669.401 25.1706   3
   3   9   3 650.102 24.9155  13
  -4  -9  -3 426.026 15.9667   8
  -4  -9  -3 403.223 14.4839  17
  -4  -9  -3 383.904 17.1989  26
  -4  -9  -3 379.331 14.6078  14
  -4  -9  -3 364.650 19.0799  21
   4   9   3 390.876 15.2848   3
   4   9   3 387.784 14.9840  13
   4   9   3 407.280 14.7560  12
  -5  -9  -3 3.22288 0.80273  26
  -5  -9  -3 3.02389 0.85669  21
  -5  -9  -3 2.57302 0.61326  17
  -5  -9  -3 4.43282 0.83629   8
   5   9   3 2.41744 0.67422   3
   5   9   3 2.56872 0.61588  12
  -6  -9  -3 26.2029 1.76813   8
   6   9   3 26.3522 1.71630   3
   6   9   3 28.6160 1.70205  12
  -7  -9  -3 6.84846 0.97649   8
  -7  -9  -3 8.64498 0.94216  15
  -7  -9  -3 8.60323 1.07999  17
   7   9   3 8.52392 1.05219  12
  -8  -9  -3 20.3965 1.23995  11
  -8  -9  -3 25.9044 1.35525  17
  -8  -9  -3 24.7429 1.26573  15
  -8  -9  -3 24.0269 1.51021   8
   8   9   3 23.0343 1.50889   8
   8   9   3 23.8985 1.34978  12
   0 -10  -3 29.2643 2.11874   7
   0  10   3 30.6897 1.38394  13
  -1 -10  -3 19.6233 1.26538  16
  -1 -10  -3 17.8741 1.74673   7
  -1 -10  -3 21.1929 1.43924  14
  -1 -10  -3 19.0853 1.69417  21
  -1 -10  -3 18.5898 1.49300  34
   1  10   3 21.1840 1.09814  13
  -2 -10  -3 122.260 6.81005   7
  -2 -10  -3 129.712 6.10627  26
  -2 -10  -3 124.002 6.15577  34
  -2 -10  -3 132.562 6.85351  21
  -2 -10  -3 128.802 5.26047  14
   2  10   3 120.893 5.23441   3
   2  10   3 134.087 5.08599  13
   2  10   3 123.007 5.33135  30
  -3 -10  -3 63.2222 3.48638  34
  -3 -10  -3 63.9137 3.52056  26
  -3 -10  -3 65.8372 3.00262  14
  -3 -10  -3 62.7876 3.91737  21
  -3 -10  -3 59.0093 3.76578   7
   3  10   3 61.0762 2.67912  13
   3  10   3 62.8716 2.97621   3
  -4 -10  -3 1152.52 40.3570  17
  -4 -10  -3 1141.56 47.8823  26
  -4 -10  -3 1147.62 39.3967  11
  -4 -10  -3 1210.17 44.6858   8
  -4 -10  -3 1013.92 53.2856  21
   4  10   3 1157.93 42.9573   3
   4  10   3 1148.56 41.3656  12
   4  10   3 1129.89 42.6999  13
  -5 -10  -3 371.362 15.6742  26
  -5 -10  -3 352.412 12.8980  11
  -5 -10  -3 356.912 14.5146   8
  -5 -10  -3 370.656 13.2247  17
  -5 -10  -3 328.323 17.3136  21
   5  10   3 367.634 13.4638  12
   5  10   3 367.348 13.9766   3
  -6 -10  -3 112.266 4.44534  17
  -6 -10  -3 103.453 4.31243  11
  -6 -10  -3 116.383 4.82309   8
  -6 -10  -3 97.6285 5.08827  26
   6  10   3 110.225 4.45853  12
   6  10   3 111.189 4.60867   3
  -7 -10  -3 0.89744 0.35662   8
  -7 -10  -3 1.79884 0.48442  11
  -7 -10  -3 2.01539 0.54559  17
   7  10   3 1.05089 0.35869   3
   7  10   3 1.67521 0.53672  12
  -2 -11  -3 7.56903 1.06519   7
  -2 -11  -3 7.80395 1.09543  21
   2  11   3 7.16224 0.59240  13
  -3 -11  -3 76.1895 4.28051  21
  -3 -11  -3 79.5562 3.87211  26
   3  11   3 76.6885 3.27237  12
   3  11   3 75.8377 3.31955   3
   3  11   3 79.7620 3.15090  13
  -4 -11  -3 621.814 22.1063  11
  -4 -11  -3 634.173 26.9351  26
  -4 -11  -3 638.312 30.0361  21
   4  11   3 642.950 23.2553  12
   4  11   3 641.890 24.1314   3
  -5 -11  -3 234.852 9.12512  17
  -5 -11  -3 255.531 10.8875  26
  -5 -11  -3 243.875 12.0684  21
  -5 -11  -3 237.336 8.94714  11
   5  11   3 262.710 9.73094   3
   5  11   3 255.650 9.36424  12
  -6 -11  -3 355.171 12.9578   8
  -6 -11  -3 291.059 11.4383  11
  -6 -11  -3 313.291 11.7384  17
   6  11   3 332.829 12.0176  12
   6  11   3 326.598 12.4543   3
   3  11  -4 10.8149 0.92441  19
   3  11  -4 11.3155 0.74980  13
  -3 -11   4 9.81167 0.81603  33
  -3 -11   4 10.9597 0.84676  11
  -3 -11   4 10.2874 0.93791  16
   2  11  -4 5.63972 0.77258  19
   2  11  -4 4.34991 0.55245  13
  -2 -11   4 4.38903 0.72802  16
  -2 -11   4 4.37994 0.66254  11
  -2 -11   4 4.57263 0.87005  21
   1  11  -4 83.6596 3.32254  13
  -1 -11   4 79.9051 4.37121   7
  -1 -11   4 84.4802 4.36497  21
  -1 -11   4 80.7072 3.44409  16
  -1 -11   4 83.8259 3.21800  11
   5  10  -4 224.976 9.30449   3
   5  10  -4 246.139 8.72245  19
  -5 -10   4 242.499 8.46072  33
  -5 -10   4 245.702 8.43253  15
   4  10  -4 204.109 8.11458  13
   4  10  -4 201.844 8.30319   3
   4  10  -4 209.090 7.79039  19
  -4 -10   4 214.490 7.62146  33
  -4 -10   4 207.625 7.61470  11
  -4 -10   4 222.984 7.91446  17
  -4 -10   4 216.705 7.56546  15
   3  10  -4 108.965 4.35927  19
   3  10  -4 102.146 4.62789  30
   3  10  -4 111.844 4.42335  13
  -3 -10   4 103.368 4.47378  16
  -3 -10   4 109.369 4.21283  15
  -3 -10   4 110.954 4.29251  11
  -3 -10   4 112.730 4.43927  17
  -3 -10   4 114.219 4.29692  33
   2  10  -4 41.9531 1.88146  13
   2  10  -4 39.1681 1.96704  30
   2  10  -4 41.6239 2.02561  19
  -2 -10   4 42.8810 2.02646  11
  -2 -10   4 37.5957 2.64446   7
  -2 -10   4 40.6670 1.99102  33
  -2 -10   4 38.0837 2.12738  16
  -2 -10   4 37.8176 2.59598  21
   1  10  -4 30.6267 1.48471  13
   1  10  -4 29.7450 1.55130  30
  -1 -10   4 29.3805 2.27776  21
  -1 -10   4 29.4213 1.65498  11
  -1 -10   4 29.7755 2.27145   7
  -1 -10   4 34.3785 1.90322  16
  -1 -10   4 28.1567 1.56051  33
   0  10  -4 263.699 11.2455  30
   0 -10   4 285.987 10.7976  16
   0 -10   4 280.921 13.7381  21
   0 -10   4 289.375 10.1288  11
   0 -10   4 286.994 13.8882   7
   1 -10   4 35.4328 2.30506  21
   1 -10   4 33.8552 1.79896  16
   6   9  -4 57.0908 2.54594   3
  -6  -9   4 57.1128 2.35596  15
  -6  -9   4 59.4720 2.62164   8
   5   9  -4 265.013 10.5978   3
   5   9  -4 272.491 9.90947  19
   5   9  -4 264.003 9.96224  32
  -5  -9   4 282.052 9.59334  15
  -5  -9   4 277.570 9.63633  33
  -5  -9   4 263.824 10.9649   8
   4   9  -4 295.985 10.7294  19
   4   9  -4 283.161 11.2217  13
   4   9  -4 281.972 11.4773   3
  -4  -9   4 302.044 10.4063  15
  -4  -9   4 297.311 10.4685  33
  -4  -9   4 294.992 11.8116   8
  -4  -9   4 292.271 10.8220  17
   3   9  -4 250.197 9.31185  13
   3   9  -4 218.445 10.5907  22
   3   9  -4 249.641 8.90847  19
   3   9  -4 230.575 9.74387  30
   3   9  -4 222.374 9.45950   3
  -3  -9   4 246.282 9.05988  17
  -3  -9   4 235.883 9.27399  16
  -3  -9   4 244.157 8.66952  15
  -3  -9   4 242.349 8.80084  11
  -3  -9   4 248.852 8.76253  33
   2   9  -4 405.428 16.3487  30
   2   9  -4 374.346 17.7199  22
   2   9  -4 409.421 15.6004  13
  -2  -9   4 425.841 14.9970  17
  -2  -9   4 404.358 14.2756  15
  -2  -9   4 386.688 19.8033   7
  -2  -9   4 420.147 19.7101  21
  -2  -9   4 413.805 15.4565  16
  -2  -9   4 424.829 14.6222  11
  -2  -9   4 415.412 14.4029  33
   1   9  -4 1.03596 0.38448  22
   1   9  -4 1.35310 0.39686  30
  -1  -9   4 1.08733 0.55939  16
  -1  -9   4 0.76180 0.47481  17
  -1  -9   4 0.87148 0.79027  21
  -1  -9   4 1.61912 0.58116  33
  -1  -9   4 0.52797 0.78712   7
   0   9  -4 21.4760 1.22250  30
   0   9  -4 22.0246 1.33951  22
   0  -9   4 22.6282 1.64256  16
   0  -9   4 23.0894 1.49762  11
   0  -9   4 23.2179 2.10177  21
   0  -9   4 22.6782 2.16835   7
   0  -9   4 23.7385 1.42758  33
   1  -9   4 59.0381 3.71652   7
   1  -9   4 55.5491 2.86067  16
   1  -9   4 61.8357 2.61377  11
   1  -9   4 56.5500 3.54833  21
   2  -9   4 5.09339 0.92829  16
   2  -9   4 7.97031 1.02779  21
   6   8  -4 9.01714 0.98333  19
   6   8  -4 8.40640 0.87790   3
  -6  -8   4 9.13419 0.89314   8
  -6  -8   4 6.98507 0.78746  15
  -6  -8   4 7.33327 0.79180  33
   5   8  -4 32.4123 1.94178   3
   5   8  -4 37.9872 1.98786  19
   5   8  -4 34.4173 1.91691  32
  -5  -8   4 36.2876 1.87654  15
  -5  -8   4 33.9173 2.00456   8
  -5  -8   4 33.2397 1.80646  33
   4   8  -4 118.019 4.77210  19
   4   8  -4 115.785 4.74756  13
   4   8  -4 114.969 5.05065   3
  -4  -8   4 124.464 5.23843   8
  -4  -8   4 117.557 4.63207  15
  -4  -8   4 115.419 4.65283  33
  -4  -8   4 114.963 4.76150  17
   3   8  -4 237.407 9.71454   3
   3   8  -4 247.961 9.08393  19
   3   8  -4 213.220 10.7770  22
   3   8  -4 248.860 9.48619  13
   3   8  -4 242.969 9.94920  30
  -3  -8   4 248.956 9.24212  17
  -3  -8   4 246.238 9.50677  16
  -3  -8   4 253.972 8.94008  33
  -3  -8   4 252.237 10.0053   8
  -3  -8   4 243.751 8.84137  15
  -3  -8   4 235.434 8.93558  11
  -3  -8   4 248.459 11.4139   2
   2   8  -4 769.786 32.9207  22
   2   8  -4 798.060 30.3513  30
   2   8  -4 758.730 28.9662  13
   2   8  -4 713.281 32.4817  28
  -2  -8   4 750.177 36.5291   7
  -2  -8   4 791.221 28.4170  16
  -2  -8   4 763.039 36.2146  21
  -2  -8   4 797.383 27.5284  17
  -2  -8   4 756.619 26.4095  33
  -2  -8   4 775.721 26.2707  15
  -2  -8   4 758.318 26.7974  11
   1   8  -4 14.3584 0.97085  30
   1   8  -4 15.0253 1.07637  22
   1   8  -4 14.9538 1.10682  28
  -1  -8   4 13.3848 1.15007  15
  -1  -8   4 14.4305 1.26999  17
  -1  -8   4 13.5037 1.15677  33
  -1  -8   4 13.7009 1.18869  11
  -1  -8   4 12.7243 1.63836  21
  -1  -8   4 13.7126 1.36681  16
  -1  -8   4 13.9833 1.61270   7
   0   8  -4 220.747 9.25193  30
   0   8  -4 219.390 9.97741  28
   0   8  -4 228.740 10.0862  22
   0  -8   4 235.884 8.54932  11
   0  -8   4 236.444 11.6271  21
   0  -8   4 229.388 9.12736  16
   0  -8   4 237.703 8.38034  33
   0  -8   4 227.069 11.7218   7
  -1   8  -4 422.416 19.5486  22
   1  -8   4 464.530 22.3056   7
   1  -8   4 468.537 22.0341  21
   1  -8   4 462.119 15.1998   1
   1  -8   4 462.630 15.8778  33
   1  -8   4 461.869 16.1684  11
   1  -8   4 450.772 17.2894  16
   2  -8   4 500.810 23.5826  21
   2  -8   4 510.957 16.3537   1
   2  -8   4 441.762 18.4918  16
   2  -8   4 520.748 23.9829   7
   2  -8   4 492.516 17.3076  11
   3  -8   4 4.99323 0.90903   1
   3  -8   4 5.70644 0.93748  16
   4  -8   4 19.9992 1.18547   1
   6   7  -4 332.036 12.0606  19
   6   7  -4 327.316 12.8648   3
  -6  -7   4 342.454 13.5664   8
  -6  -7   4 328.397 11.7223  33
  -6  -7   4 329.631 11.5612  15
   5   7  -4 1.90262 0.67007  19
   5   7  -4 1.11400 0.66255  32
   5   7  -4 1.60239 0.55527   3
  -5  -7   4 1.21872 0.57780   8
  -5  -7   4 1.75315 0.61006  33
   4   7  -4 8.85534 0.85195  13
   4   7  -4 8.85921 1.12827   3
   4   7  -4 9.64350 1.25259  19
   4   7  -4 11.9240 1.21169  32
  -4  -7   4 10.5374 1.05429  17
  -4  -7   4 9.51844 1.12150   8
  -4  -7   4 9.86385 1.10877  15
  -4  -7   4 10.6641 1.15243  33
   3   7  -4 34.6356 1.91903  19
   3   7  -4 33.6829 1.81309  30
   3   7  -4 34.0224 1.71742  13
   3   7  -4 34.3506 2.02134  22
   3   7  -4 33.4548 1.97095   3
  -3  -7   4 33.6992 1.86658  15
  -3  -7   4 35.0475 2.02307  16
  -3  -7   4 33.6648 1.81526  11
  -3  -7   4 35.0041 1.96389  17
  -3  -7   4 34.4543 1.95239  33
  -3  -7   4 38.6902 2.03737   8
   2   7  -4 415.278 18.9303  29
   2   7  -4 431.986 17.1199  13
   2   7  -4 445.366 17.3573   3
   2   7  -4 459.025 19.5043  22
   2   7  -4 477.874 17.9750  30
   2   7  -4 416.624 18.3100  37
   2   7  -4 452.840 19.2856  28
  -2  -7   4 480.321 17.9942   8
  -2  -7   4 448.417 15.9741  11
  -2  -7   4 461.446 16.4226  17
  -2  -7   4 465.466 20.2883   2
  -2  -7   4 441.594 21.7588   7
  -2  -7   4 450.327 15.6699  15
  -2  -7   4 458.123 15.7758  33
  -2  -7   4 465.479 16.9685  16
  -2  -7   4 423.214 21.4988  21
   1   7  -4 6.14087 0.67284  29
   1   7  -4 6.15936 0.62552  30
   1   7  -4 6.85427 0.76295  28
   1   7  -4 7.39251 0.73138  22
  -1  -7   4 6.19416 1.17880  21
  -1  -7   4 5.30440 0.90855  17
  -1  -7   4 5.55768 0.88340  16
  -1  -7   4 5.49818 0.83212  15
  -1  -7   4 5.90987 1.25279   7
  -1  -7   4 5.72561 0.83701  11
  -1  -7   4 5.67147 1.14259   2
  -1  -7   4 5.26383 0.86832  33
   0   7  -4 145.149 6.20631  28
   0   7  -4 134.130 6.06865  29
   0   7  -4 140.823 6.24152  22
   0  -7   4 137.278 5.21781  15
   0  -7   4 146.334 5.32880  33
   0  -7   4 136.954 5.40717  11
   0  -7   4 137.020 7.45966   7
   0  -7   4 138.192 7.36342  21
   0  -7   4 139.960 5.52598  17
   0  -7   4 137.203 5.82109  16
  -1   7  -4 591.043 26.0311  22
  -1   7  -4 591.756 25.7184  28
  -1   7  -4 546.205 25.2744  29
   1  -7   4 617.980 29.4543   7
   1  -7   4 626.673 21.4223  11
   1  -7   4 608.682 22.8245  16
   1  -7   4 638.430 21.0622  33
   1  -7   4 640.897 29.1781  21
   1  -7   4 633.093 20.0562   1
   2  -7   4 1714.99 81.5794   7
   2  -7   4 1759.57 55.4697   1
   2  -7   4 1732.06 59.4852  11
   2  -7   4 1718.73 63.2258  16
   2  -7   4 1736.29 80.7562  21
   3  -7   4 9.17122 1.41910   7
   3  -7   4 9.24653 1.13329  16
   3  -7   4 9.43886 1.14100   1
   3  -7   4 8.16192 1.17437  34
   4  -7   4 80.2374 4.25735  34
   4  -7   4 82.6801 4.30486  20
   4  -7   4 89.0115 3.34763   1
  -7  -6   4 403.778 16.1951   8
   6   6  -4 303.074 10.8958  19
   6   6  -4 290.018 11.5260   3
   6   6  -4 279.111 12.1403   8
  -6  -6   4 310.175 12.2535   8
   5   6  -4 123.843 5.15008  19
   5   6  -4 128.573 5.44936   3
   5   6  -4 128.328 5.19068  32
  -5  -6   4 130.809 5.80889   8
  -5  -6   4 122.057 4.88841  33
  -5  -6   4 129.812 4.91182  15
   4   6  -4 147.531 5.77126  32
   4   6  -4 137.396 5.66534  19
   4   6  -4 141.352 6.04489   3
  -4  -6   4 145.588 6.36586   8
  -4  -6   4 142.816 5.45940  15
   3   6  -4 95.0042 4.58269  37
   3   6  -4 99.1111 4.05036  13
   3   6  -4 98.0442 4.32039   3
   3   6  -4 102.305 4.27332  30
   3   6  -4 97.7723 4.02163  19
  -3  -6   4 100.350 4.49741   8
  -3  -6   4 98.8827 4.22590  16
  -3  -6   4 95.8240 3.96446  33
  -3  -6   4 92.4434 4.04486  17
  -3  -6   4 97.6656 3.93732  15
   2   6  -4 4.25622 0.55326  13
   2   6  -4 4.28488 0.64493  22
  -2  -6   4 5.07510 0.80084  33
  -2  -6   4 4.44081 0.77075  17
   1   6  -4 51.7198 2.47462  22
   1   6  -4 52.4186 2.49313  28
   1   6  -4 46.6697 2.40181  37
   1   6  -4 49.3698 2.23590  30
   1   6  -4 52.9736 2.46063  29
  -1  -6   4 48.0740 2.26244  11
  -1  -6   4 49.2269 2.21442  15
  -1  -6   4 47.8075 2.86845   2
  -1  -6   4 47.4478 3.08107   7
  -1  -6   4 44.9638 3.00430  21
  -1  -6   4 47.2157 2.21817  33
  -1  -6   4 52.6921 2.35873  17
  -1  -6   4 48.7516 2.46610  16
   0   6  -4 15.7483 0.96230  22
   0   6  -4 16.2298 1.00620  28
   0  -6   4 18.3765 1.11979  33
   0  -6   4 13.8644 1.52352   7
   0  -6   4 14.1607 1.04103  15
   0  -6   4 15.3260 1.11919   1
   0  -6   4 14.5345 1.13262  11
   0  -6   4 15.1889 1.49588  21
   0  -6   4 17.9788 1.26824  16
   0  -6   4 14.8534 1.09505  17
  -1   6  -4 292.997 13.1533  22
  -1   6  -4 310.772 13.0629  28
  -1   6  -4 294.943 12.8235  29
   1  -6   4 309.064 10.7583  15
   1  -6   4 297.528 11.7979  16
   1  -6   4 299.826 15.2317   7
   1  -6   4 310.538 11.0402  11
   1  -6   4 317.393 10.8606  33
   1  -6   4 314.210 10.3960   1
   1  -6   4 306.165 15.0464  21
   1  -6   4 327.677 14.0662   2
  -2   6  -4 281.371 12.7965  28
   2  -6   4 308.562 10.8994  11
   2  -6   4 299.875 11.7251  16
   2  -6   4 315.062 10.7430  33
   2  -6   4 307.721 15.1543   7
   2  -6   4 308.902 14.8789  21
   2  -6   4 305.885 10.3419   1
   3  -6   4 281.700 13.7769  21
   3  -6   4 273.284 9.56650   1
   3  -6   4 287.057 13.9318   7
   3  -6   4 282.257 12.7350  34
   3  -6   4 268.398 10.8135  16
   4  -6   4 111.671 4.96720  38
   4  -6   4 115.423 4.31892   1
   4  -6   4 107.425 5.78258  10
   4  -6   4 109.261 5.59236  34
   4  -6   4 116.277 5.71672  20
   5  -6   4 1.30928 0.68285  20
   5  -6   4 1.41125 0.76029  38
   5  -6   4 1.53513 0.61995  34
   5  -6   4 2.38789 0.86594  10
   7   5  -4 119.344 4.63420  19
   6   5  -4 276.478 11.6504   8
   6   5  -4 281.568 10.4436  19
  -6  -5   4 285.339 11.7271   8
   5   5  -4 178.277 7.00076  32
   5   5  -4 188.974 7.39223   3
   5   5  -4 183.976 7.02365  19
   5   5  -4 169.038 7.75595   8
  -5  -5   4 176.334 7.80526   8
  -5  -5   4 174.242 6.56592  15
   4   5  -4 379.862 13.4149  32
   4   5  -4 362.145 13.2341  19
   4   5  -4 376.621 14.2149   3
   4   5  -4 322.468 17.3597  36
   4   5  -4 354.653 15.1016  37
  -4  -5   4 358.025 12.7102  15
  -4  -5   4 372.335 14.9127   8
  -4  -5   4 368.670 17.2448  36
   3   5  -4 273.574 11.3697  37
   3   5  -4 271.261 10.4190  13
   3   5  -4 278.172 10.9385  30
   3   5  -4 257.015 13.1334  36
   3   5  -4 254.696 9.89235  19
   3   5  -4 275.828 10.6897   3
  -3  -5   4 276.371 10.3900  16
  -3  -5   4 262.333 9.58717  15
  -3  -5   4 286.388 12.9119  36
  -3  -5   4 258.633 11.1411   8
   2   5  -4 79.4546 4.17755   9
   2   5  -4 88.0646 5.97549  27
   2   5  -4 90.5831 3.78136  30
   2   5  -4 89.0359 4.11526  28
   2   5  -4 88.0574 4.05026  37
   2   5  -4 91.6090 4.14251  22
   2   5  -4 89.4272 4.07290  29
  -2  -5   4 83.9621 3.45034  15
  -2  -5   4 86.8559 3.79434  16
   1   5  -4 306.284 15.0642  35
   1   5  -4 330.685 13.6463  28
   1   5  -4 314.050 12.6803  30
   1   5  -4 309.847 12.9944  37
   1   5  -4 328.967 13.4286  29
   1   5  -4 324.912 13.7871  22
   1   5  -4 346.431 19.6871  27
   1   5  -4 300.960 13.6298   9
  -1  -5   4 300.160 19.9880   6
   0   5  -4 1010.59 43.7406  37
   0   5  -4 1106.12 50.6675  35
   0   5  -4 1178.70 65.9624  27
   0   5  -4 1145.30 45.8480  29
   0   5  -4 1113.55 46.8413  22
   0   5  -4 1132.18 46.5907  28
   0  -5   4 1032.08 67.2035   6
  -1   5  -4 185.474 9.45294  35
  -1   5  -4 200.794 8.30583  28
  -1   5  -4 194.774 12.3087  27
  -1   5  -4 195.401 8.16758  29
   1  -5   4 182.354 12.4612   6
   1  -5   4 206.008 6.81771   1
  -2   5  -4 871.451 36.1682  29
  -2   5  -4 850.311 36.7850  28
   2  -5   4 908.126 29.9332  33
   2  -5   4 898.764 30.4033  11
   2  -5   4 942.928 38.6178   2
   2  -5   4 884.568 41.2805  21
   2  -5   4 888.452 33.4156  31
   2  -5   4 852.292 41.7198   7
   2  -5   4 834.677 32.3108  16
   2  -5   4 858.834 28.3633   1
   3  -5   4 69.1993 4.13065  10
   3  -5   4 83.8187 4.23539  20
   3  -5   4 71.6907 2.98527  33
   3  -5   4 77.2687 4.02778   2
   3  -5   4 73.3034 3.48501  38
   3  -5   4 75.5051 3.04767   1
   3  -5   4 73.6622 3.01258  11
   3  -5   4 72.6908 3.54207  31
   3  -5   4 71.0011 4.12644  21
   4  -5   4 1500.97 58.3833  31
   4  -5   4 1657.30 66.9893  34
   4  -5   4 1546.36 58.5421  38
   4  -5   4 1539.98 67.7549  20
   4  -5   4 1439.62 67.4531  10
   4  -5   4 1589.26 67.4761   2
   4  -5   4 1561.06 49.6204   1
   5  -5   4 30.6133 2.32432  20
   5  -5   4 32.5304 2.18861  34
   5  -5   4 32.5411 1.75686   1
   5  -5   4 31.2368 2.15983  38
   5  -5   4 30.7331 2.02584  31
   5  -5   4 29.7178 2.49240  10
   6  -5   4 476.958 18.8043  38
   6  -5   4 493.717 21.6657  10
   6  -5   4 472.526 21.3765  34
   6  -5   4 506.868 18.6838  31
   6  -5   4 480.733 21.7389  20
   7   4  -4 131.972 4.57777  19
   7   4  -4 117.199 4.95779   8
  -7  -4   4 97.0502 4.66776   3
   6   4  -4 31.8116 1.90784  19
   6   4  -4 29.8377 2.00413   8
  -6  -4   4 29.8441 2.01133   8
  -6  -4   4 28.2465 1.77141   3
  -6  -4   4 32.8975 1.99081  18
   5   4  -4 188.122 7.23289  19
   5   4  -4 186.989 7.21464  32
   5   4  -4 178.669 7.98054   8
   5   4  -4 190.437 7.57565   3
  -5  -4   4 182.019 7.51270   3
  -5  -4   4 174.567 8.01785   8
  -5  -4   4 183.683 8.37239  18
   4   4  -4 160.393 6.30439  19
   4   4  -4 152.013 8.29154  36
   4   4  -4 152.042 7.10375  37
   4   4  -4 155.512 7.05214   8
   4   4  -4 170.899 6.69598   3
   4   4  -4 168.360 6.41036  32
  -4  -4   4 159.556 7.06198   8
  -4  -4   4 165.777 6.60204   3
  -4  -4   4 146.378 5.89427  15
  -4  -4   4 159.912 8.17705  36
  -4  -4   4 166.057 7.35040  18
   3   4  -4 180.112 9.18349  36
   3   4  -4 187.082 7.15141  13
   3   4  -4 191.856 7.44973   3
   3   4  -4 194.249 7.93628  37
   3   4  -4 191.247 7.06391  32
   3   4  -4 178.722 6.91651  19
  -3  -4   4 174.109 7.75543   8
  -3  -4   4 185.956 9.01305  36
  -3  -4   4 169.237 8.21094  18
  -3  -4   4 169.581 6.60541  15
   2   4  -4 727.352 34.9464   9
   2   4  -4 848.727 33.5038  37
   2   4  -4 859.165 35.7212  22
   2   4  -4 858.389 32.9299  30
   2   4  -4 750.904 38.3678  36
   2   4  -4 889.338 50.0043  27
   2   4  -4 859.278 38.5720  35
   2   4  -4 863.915 34.6863  29
   2   4  -4 860.883 35.2694  28
  -2  -4   4 754.611 51.1627   6
  -2  -4   4 914.938 38.2577  36
   1   4  -4 1035.49 43.0909  29
   1   4  -4 1085.25 44.4179  22
   1   4  -4 1063.08 47.9107  35
   1   4  -4 992.123 43.4569   9
   1   4  -4 1020.69 41.5481  37
   1   4  -4 1006.71 40.9371  30
   1   4  -4 1129.64 62.2869  27
   1   4  -4 1087.50 48.3779  28
  -1  -4   4 1029.01 47.3835  36
  -1  -4   4 985.537 63.5892   6
   0   4  -4 1871.18 83.0458   9
   0   4  -4 2021.89 84.6496  28
   0   4  -4 2190.45 119.293  27
   0   4  -4 2012.47 91.9973  35
   0   4  -4 2121.91 83.4464  29
   0   4  -4 1978.42 85.8036  22
   0   4  -4 1819.20 91.3551  24
   0   4  -4 1967.12 79.7665  37
   0  -4   4 2046.30 123.710   6
  -1   4  -4 89.0558 4.58910  35
  -1   4  -4 88.4316 3.88968  28
  -1   4  -4 92.1207 3.84230  29
  -1   4  -4 91.1737 5.94899  27
   1  -4   4 83.7345 5.98444   6
  -2   4  -4 2.97433 0.23918  29
  -2   4  -4 2.34133 0.49189   4
  -2   4  -4 2.33689 0.70783  27
  -2   4  -4 2.26819 0.21579  28
   2  -4   4 3.67089 0.87544   6
  -3   4  -4 86.8292 3.76817  29
   3  -4   4 89.6254 3.45856   1
   3  -4   4 92.4698 4.08001  31
   3  -4   4 94.0736 3.50269  33
   3  -4   4 88.2554 3.49831  11
   3  -4   4 96.3831 4.63501   2
   3  -4   4 87.2529 3.99958  38
   3  -4   4 82.2793 4.75257  10
   3  -4   4 94.3553 4.90018  21
  -4   4  -4 16.3606 0.87219  28
   4  -4   4 15.0829 1.40143  31
   4  -4   4 18.1546 1.52988   2
   4  -4   4 16.8648 1.22555   1
   4  -4   4 16.2331 1.05561  33
   4  -4   4 19.5577 1.60257  20
   4  -4   4 14.5723 1.42327  38
   4  -4   4 14.6185 1.44816  34
   4  -4   4 17.8450 1.92435  10
  -5   4  -4 1.27090 0.29059  22
   5  -4   4 2.04620 0.77890  20
   5  -4   4 2.07230 0.75053   2
   5  -4   4 1.47446 0.72929  34
   5  -4   4 0.33979 0.75187  38
   5  -4   4 0.88105 0.92591  10
   5  -4   4 1.47989 0.68282  31
   5  -4   4 0.66547 0.66847   1
   6  -4   4 214.876 9.75444   2
   6  -4   4 210.242 10.0353  10
   6  -4   4 211.065 8.58575  31
   6  -4   4 199.297 8.70967  38
   6  -4   4 209.083 9.81016  34
   6  -4   4 214.383 10.0695  20
   7  -4   4 24.1766 1.46792  31
   7  -4   4 25.1794 1.78655  10
   7  -4   4 26.2108 1.64032  38
   7   3  -4 12.3126 1.12227  19
   7   3  -4 14.4695 1.00551   8
  -7  -3   4 14.9657 0.96192   3
   6   3  -4 25.8273 1.48293   1
   6   3  -4 25.0881 1.79924  19
  -6  -3   4 26.6694 1.79564  18
  -6  -3   4 23.8103 1.62677   3
   5   3  -4 119.606 5.57357   8
   5   3  -4 116.956 5.05910  32
   5   3  -4 116.854 5.12800  19
  -5  -3   4 127.496 5.26439   3
  -5  -3   4 113.527 5.60542   8
  -5  -3   4 129.756 5.84494  18
   4   3  -4 38.0162 2.08898   3
   4   3  -4 34.4852 2.06880  32
   4   3  -4 37.7540 2.28074  37
   4   3  -4 35.0910 2.22867   8
   4   3  -4 35.8107 2.12291  19
   4   3  -4 33.6212 2.63312  36
  -4  -3   4 36.2860 2.02630   3
  -4  -3   4 36.5073 2.62048  36
  -4  -3   4 38.9516 2.21088  18
  -4  -3   4 34.3904 2.19118   8
  -4  -3   4 37.2065 2.12918  37
   3   3  -4 55.9172 2.86518  37
   3   3  -4 55.6409 2.62091  32
   3   3  -4 52.6777 2.54029  19
   3   3  -4 53.6101 3.36914  36
   3   3  -4 59.7329 2.74963   3
   3   3  -4 51.4103 3.19794  35
  -3  -3   4 54.3345 2.72067  37
  -3  -3   4 54.8690 3.27731  36
   2   3  -4 194.598 9.16079  35
   2   3  -4 195.306 8.33632  22
   2   3  -4 191.032 7.92946  37
   2   3  -4 179.470 8.26098   9
   2   3  -4 181.897 9.18354  36
   2   3  -4 188.966 7.64627  30
  -2  -3   4 193.707 9.05314  36
  -2  -3   4 171.862 12.0177   6
   1   3  -4 1006.38 48.0348  36
   1   3  -4 1068.23 44.9259  22
   1   3  -4 1130.40 41.4510  30
   1   3  -4 1063.36 48.3285  35
   1   3  -4 1027.47 43.8470   9
   1   3  -4 1054.20 42.0976  37
   1   3  -4 1149.86 62.7638  27
   1   3  -4 1027.28 43.4810  29
   1   3  -4 1066.64 44.4463  28
   1   3  -4 980.618 48.1574  24
   1   3  -4 1006.40 55.2836  25
  -1  -3   4 1026.88 64.1416   6
  -1  -3   4 1093.43 59.1443  36
   0   3  -4 2612.45 118.562   9
   0   3  -4 2865.37 119.953  28
   0   3  -4 2822.86 121.413  22
   0   3  -4 2899.95 141.155  29
   0   3  -4 2844.05 163.382  35
   0   3  -4 2682.45 130.440  24
   0   3  -4 2903.73 113.870  37
   0   3  -4 3027.77 170.915  27
   0  -3   4 2918.21 174.708   6
  -1   3  -4 71.3767 3.43115  22
  -1   3  -4 89.9637 5.26863  27
  -1   3  -4 79.8487 3.44734  28
  -1   3  -4 81.6836 3.40235  29
  -1   3  -4 76.9724 4.00368  35
  -1   3  -4 80.8607 3.30961  37
  -1   3  -4 74.2690 3.75094  24
  -1   3  -4 77.7391 4.35093  25
   1  -3   4 76.1725 5.27268   6
  -2   3  -4 64.2288 2.73415  28
  -2   3  -4 64.6269 2.71094  29
  -2   3  -4 64.5590 4.30731  27
  -2   3  -4 61.5526 2.98842   4
  -2   3  -4 59.2416 3.27393  35
   2  -3   4 62.9927 4.43989   6
  -3   3  -4 49.0059 2.47036   4
  -3   3  -4 50.3656 2.16427  28
  -4   3  -4 450.845 19.0858  28
  -4   3  -4 445.251 18.7896  29
   4  -3   4 485.050 20.3367   2
   4  -3   4 462.029 15.6591  33
   4  -3   4 484.445 20.4744  20
   4  -3   4 434.560 17.6934  38
   4  -3   4 428.619 20.4523  10
   4  -3   4 438.954 14.9201   1
   4  -3   4 455.303 17.6201  31
  -5   3  -4 13.0198 0.90287  28
  -5   3  -4 15.1681 0.86677  22
   5  -3   4 16.2232 1.46270  31
   5  -3   4 14.0628 1.42709   2
   5  -3   4 12.8679 1.78958  10
   5  -3   4 12.9623 0.95218  33
   5  -3   4 15.1371 1.43999  38
   5  -3   4 13.5160 1.45905  34
  -6   3  -4 90.0015 4.36321  22
  -6   3  -4 87.1217 3.97256  30
   6  -3   4 100.146 5.02841  34
   6  -3   4 93.4593 4.39688  31
   6  -3   4 98.1902 5.27807  10
   6  -3   4 100.699 5.24454  20
   6  -3   4 90.3598 4.85801   2
   6  -3   4 97.2664 4.61443  38
  -7   3  -4 10.8215 0.70670  30
   7  -3   4 10.1464 1.01868   2
   7  -3   4 10.1513 1.48829  10
   7  -3   4 8.78516 1.26759  34
   7  -3   4 9.38481 1.06926  31
   7  -3   4 9.71514 1.45357  20
   7  -3   4 9.07686 1.30898  38
   6   2  -4 89.0679 4.24159   8
   6   2  -4 89.5975 3.52068   1
   6   2  -4 88.8310 3.99951  19
  -6  -2   4 93.3518 4.48464  18
  -6  -2   4 94.4634 4.05696   3
   5   2  -4 558.884 20.6485  19
   5   2  -4 564.504 20.7751  32
  -5  -2   4 572.451 22.0279   3
  -5  -2   4 589.978 24.6369  18
   4   2  -4 272.506 11.3403   8
   4   2  -4 291.252 10.7742   3
   4   2  -4 276.038 13.2862  36
   4   2  -4 260.541 10.1759  19
   4   2  -4 276.735 10.3068  32
  -4  -2   4 276.863 10.7855   3
  -4  -2   4 250.794 11.3628   8
  -4  -2   4 253.978 11.3598  37
  -4  -2   4 284.216 12.0219  18
  -4  -2   4 259.052 13.2272  36
   3   2  -4 49.5499 2.54040  37
   3   2  -4 43.9672 2.25923  19
   3   2  -4 48.8413 3.03325  36
   3   2  -4 41.9907 2.82340  35
   3   2  -4 44.9373 2.33121  32
  -3  -2   4 47.5419 2.41910  37
  -3  -2   4 47.7359 2.55932  18
  -3  -2   4 48.2848 2.95839  36
   2   2  -4 21.9597 1.55915   9
   2   2  -4 27.8291 1.86682  36
   2   2  -4 26.6585 1.51891  37
   2   2  -4 23.7549 1.75951  35
  -2  -2   4 24.3898 1.40032  37
  -2  -2   4 28.0379 1.77860  36
  -2  -2   4 25.0967 2.25019   6
  -2  -2   4 21.7527 1.62463  24
   1   2  -4 630.472 27.0558  28
   1   2  -4 687.790 38.3672  27
   1   2  -4 645.899 25.6851  37
   1   2  -4 631.715 29.4536  36
   1   2  -4 645.024 26.6043  29
   1   2  -4 653.702 29.6288  35
   1   2  -4 629.326 29.4995  24
   1   2  -4 625.853 33.8456  25
   1   2  -4 640.484 27.4241  22
   1   2  -4 601.916 26.8186   9
  -1  -2   4 630.405 29.4975  24
  -1  -2   4 652.415 25.6079  37
  -1  -2   4 672.633 29.3727  36
  -1  -2   4 630.610 39.2543   6
   0   2  -4 2122.42 99.7963  36
   0   2  -4 2103.85 114.487  25
   0   2  -4 2191.40 92.1925  28
   0   2  -4 2180.31 87.4402  37
   0   2  -4 2322.28 131.110  27
   0   2  -4 2219.39 90.6339  29
   0   2  -4 2165.38 100.015  24
   0   2  -4 2164.99 93.2904  22
   0   2  -4 2238.65 100.880  35
   0   2  -4 2026.81 90.9229   9
   0  -2   4 2252.09 99.4807  36
   0  -2   4 2132.45 159.066   6
   0  -2   4 2185.94 100.456  24
  -1   2  -4 81.3973 3.83554  24
  -1   2  -4 81.4525 3.42359  29
  -1   2  -4 82.0674 5.15150  27
  -1   2  -4 79.7930 4.39671  25
  -1   2  -4 80.3710 3.47384  28
  -1   2  -4 74.0580 3.48904  22
  -1   2  -4 81.9730 3.35246  37
  -1   2  -4 76.7367 3.94687  35
   1  -2   4 76.7180 5.23200   6
  -2   2  -4 1927.21 79.0400   4
  -2   2  -4 1832.15 79.3948  28
  -2   2  -4 1835.39 75.2249  37
  -2   2  -4 1784.99 86.5715  35
  -2   2  -4 1956.86 87.5478  29
  -2   2  -4 1947.55 145.750  27
  -2   2  -4 1946.29 99.2474  25
   2  -2   4 1891.71 115.862   6
  -3   2  -4 291.753 11.7057  29
  -3   2  -4 290.051 11.8885  28
  -3   2  -4 258.493 14.7845  25
  -3   2  -4 286.868 12.0146   4
  -3   2  -4 280.734 17.1528  27
  -4   2  -4 1975.79 84.5135   4
  -4   2  -4 2032.23 84.3456  29
  -4   2  -4 2069.39 99.4148  28
  -4   2  -4 2069.72 86.5462  22
  -5   2  -4 20.2842 1.11756  22
  -5   2  -4 21.0510 1.17222  28
  -5   2  -4 19.0282 1.16446  29
   5  -2   4 19.0427 1.85826  10
   5  -2   4 20.7745 1.83924  20
   5  -2   4 20.5531 1.15344  33
   5  -2   4 20.1162 1.53298  31
   5  -2   4 22.1365 1.72253  34
   5  -2   4 23.5322 1.67329   2
   5  -2   4 16.0344 1.63604  38
  -6   2  -4 84.2986 3.80035  30
  -6   2  -4 83.5272 4.16644  22
   6  -2   4 85.3653 3.49368  33
   6  -2   4 89.5035 4.81755  34
   6  -2   4 90.2072 5.03409  10
   6  -2   4 90.9843 4.44636  38
   6  -2   4 92.3660 4.74633   2
   6  -2   4 102.822 5.16427  20
   6  -2   4 89.4944 4.22436  31
  -7   2  -4 89.4377 3.85105  30
   7  -2   4 82.2345 4.94302  20
   7  -2   4 94.9640 4.87808  10
   7  -2   4 92.1413 4.33152  38
   7  -2   4 87.2578 4.59809   2
   7  -2   4 93.5907 4.11533  31
   7  -2   4 90.7257 4.76478  34
  -8   2  -4 282.034 10.6243  13
   8  -2   4 278.098 10.9271  38
   8  -2   4 263.347 10.7888  31
   8  -2   4 294.751 12.7641  20
   6   1  -4 63.7741 3.16462  19
   6   1  -4 69.7394 2.81840   1
   6   1  -4 68.7366 3.31049   8
  -6  -1   4 70.4587 3.20102   3
  -6  -1   4 70.9766 3.53595  18
   5   1  -4 310.580 10.6775   1
   5   1  -4 313.774 11.7490  32
   5   1  -4 308.143 11.7185  19
  -5  -1   4 312.475 12.3793   3
  -5  -1   4 313.407 13.7787  18
   4   1  -4 536.910 19.0246  32
   4   1  -4 515.091 18.7908  19
  -4  -1   4 530.226 20.0676   3
  -4  -1   4 457.889 24.4027  36
  -4  -1   4 508.241 21.2160  37
  -4  -1   4 564.039 22.4553  18
   3   1  -4 48.7825 3.01476  36
   3   1  -4 51.4271 2.59645   8
   3   1  -4 47.0586 2.45254  32
   3   1  -4 43.4501 2.30713  19
   3   1  -4 49.6203 2.57835  37
  -3  -1   4 49.1509 2.49680  37
  -3  -1   4 50.7287 2.65066  18
  -3  -1   4 43.5701 2.35614   3
  -3  -1   4 46.9436 2.99518  36
   2   1  -4 450.102 17.8040  37
   2   1  -4 440.508 20.4494  36
   2   1  -4 431.822 20.5526  35
  -2  -1   4 438.348 20.4139  36
  -2  -1   4 425.408 27.0976   6
  -2  -1   4 427.551 17.6332   5
  -2  -1   4 454.400 17.7445  37
   1   1  -4 67.0094 3.16030  29
   1   1  -4 66.3817 3.56209  24
   1   1  -4 71.2666 3.14579  37
   1   1  -4 62.6207 4.05784  25
   1   1  -4 66.2273 3.22136   9
   1   1  -4 70.2330 3.68069  35
   1   1  -4 71.4997 3.68812  36
   1   1  -4 72.6533 4.57533  27
  -1  -1   4 68.0661 3.06865  37
  -1  -1   4 73.7205 3.59520  24
  -1  -1   4 69.0544 3.02336   5
  -1  -1   4 69.2963 4.72330   6
  -1  -1   4 73.0382 3.62427  36
   0   1  -4 400.459 16.9642   9
   0   1  -4 427.472 24.3994  27
   0   1  -4 409.400 18.7355  24
   0   1  -4 393.250 18.8063  35
   0   1  -4 395.926 16.2939  37
   0   1  -4 403.390 21.4789  25
   0   1  -4 433.305 18.7310  36
   0   1  -4 394.330 17.3874  22
   0   1  -4 363.146 17.1358  28
   0   1  -4 414.109 16.8786  29
   0  -1   4 414.921 24.9085   6
   0  -1   4 396.545 16.2370  37
   0  -1   4 421.850 18.7226  24
   0  -1   4 413.225 16.2756   5
   0  -1   4 409.835 18.6292  36
  -1   1  -4 143.244 8.89442  27
  -1   1  -4 144.400 6.07506  29
  -1   1  -4 134.081 6.23626  22
  -1   1  -4 146.138 7.76185  25
  -1   1  -4 142.843 5.90405  37
  -1   1  -4 136.946 6.79433  36
  -1   1  -4 136.569 6.16067  28
  -1   1  -4 141.671 6.83691  35
  -1   1  -4 146.169 6.78207  24
   1  -1   4 141.527 9.05833   6
   1  -1   4 143.390 6.69794  36
   1  -1   4 144.613 6.75249  24
  -2   1  -4 139.016 5.73245  28
  -2   1  -4 132.288 5.47705  37
  -2   1  -4 134.600 6.28199  24
  -2   1  -4 125.614 6.31694  35
  -2   1  -4 138.674 5.81218   4
  -2   1  -4 138.924 5.64598  29
  -2   1  -4 131.475 8.31751  27
  -2   1  -4 126.622 5.77515  22
  -2   1  -4 142.113 7.21337  25
   2  -1   4 130.922 8.50719   6
  -3   1  -4 93.3320 4.05208  37
  -3   1  -4 98.5529 6.21992  27
  -3   1  -4 101.858 4.16982  29
  -3   1  -4 99.7606 5.31204  25
  -3   1  -4 95.6561 4.23847  22
  -3   1  -4 99.7235 4.36082   4
  -3   1  -4 91.3049 4.59813  24
  -4   1  -4 1951.99 81.7732  22
  -4   1  -4 2015.13 96.5152  28
  -4   1  -4 2022.37 79.6051  29
  -4   1  -4 1705.59 76.3232  37
  -4   1  -4 1901.10 79.7701   4
  -5   1  -4 2.39656 0.37543  22
  -5   1  -4 3.14819 0.44297  28
  -5   1  -4 3.53688 0.44998  29
  -5   1  -4 2.40448 0.35064  30
   5  -1   4 2.08659 0.58543   2
   5  -1   4 2.66549 0.56575  31
   5  -1   4 3.57437 0.85655  10
   5  -1   4 2.73386 0.77206  38
   5  -1   4 2.47438 0.46895  33
   5  -1   4 4.32049 0.95833  20
  -6   1  -4 910.147 35.8227  30
  -6   1  -4 930.406 38.8875  22
  -6   1  -4 901.107 38.4113  28
   6  -1   4 907.269 34.9577  38
   6  -1   4 909.371 30.9805  33
   6  -1   4 942.325 40.0501   2
   6  -1   4 891.013 40.4578  20
   6  -1   4 876.129 34.6195  31
   6  -1   4 947.487 39.8974  34
   6  -1   4 891.920 40.0973  10
  -7   1  -4 171.428 7.77078  22
  -7   1  -4 173.912 7.12619  30
  -7   1  -4 165.965 6.80242  13
   7  -1   4 180.272 8.27881   2
   7  -1   4 177.979 8.43221  10
   7  -1   4 172.111 7.41118  38
   7  -1   4 170.339 8.64923  20
   7  -1   4 166.870 6.25492  33
   7  -1   4 173.425 7.20862  31
   7  -1   4 177.863 8.43157  34
  -8   1  -4 44.3151 1.95899  13
   8  -1   4 44.4079 2.63780  34
   8  -1   4 43.2819 2.82278  20
   8  -1   4 45.4685 2.24595  31
   8  -1   4 40.8631 2.57433  10
   8  -1   4 44.5725 2.38145  38
   8  -1   4 52.3113 2.59435   2
   6   0  -4 17.5192 1.18562   1
   6   0  -4 19.2222 1.52559  19
   6   0  -4 18.4996 1.17680   8
  -6   0   4 19.4764 1.43560  18
  -6   0   4 18.9143 1.29808   3
   5   0  -4 160.513 6.41126  19
   5   0  -4 158.003 6.30987  32
   5   0  -4 143.820 6.42705  12
   5   0  -4 158.575 6.88177   8
   5   0  -4 160.247 5.82327   1
  -5   0   4 155.939 6.59787   3
  -5   0   4 159.082 7.30543  18
   4   0  -4 406.392 15.5796  19
   4   0  -4 443.162 14.3716   1
   4   0  -4 439.144 17.4053   8
   4   0  -4 418.447 15.7934  32
  -4   0   4 409.149 16.6005   3
  -4   0   4 437.397 18.5612  18
  -4   0   4 427.826 16.1803  13
   3   0  -4 406.486 15.3350  32
   3   0  -4 420.533 18.6279  10
   3   0  -4 428.039 15.1332  19
   3   0  -4 436.328 19.6579  36
  -3   0   4 424.574 17.0824  37
  -3   0   4 407.834 15.8057  13
  -3   0   4 409.068 18.0401  18
  -3   0   4 402.069 16.1341   3
  -3   0   4 415.915 19.7354  36
   2   0  -4 3154.04 141.498  36
   2   0  -4 2927.10 141.192  35
   2   0  -4 3163.14 123.160  37
  -2   0   4 3011.77 141.500  36
  -2   0   4 3126.59 123.697  37
  -2   0   4 3042.95 123.223   5
   1   0  -4 100.047 5.02116  36
   1   0  -4 102.438 6.32999  27
   1   0  -4 99.0270 5.06268  35
   1   0  -4 96.2161 4.94164  24
   1   0  -4 100.214 4.32666  37
  -1   0   4 97.2113 6.46253   6
  -1   0   4 100.299 4.99676  36
  -1   0   4 103.331 4.27079   5
  -1   0   4 99.8420 4.94858  24
  -1   0   4 98.6898 4.27077  37
   0   0  -4 332.767 15.5561  36
   0   0  -4 347.195 15.5820  24
   0   0  -4 337.836 13.5544  37
   0   0  -4 323.523 13.9999  29
   0   0  -4 327.277 17.8412  25
   0   0  -4 348.029 20.2505  27
   0   0  -4 330.125 15.6429  35
   0   0  -4 320.237 14.2368  28
   0   0   4 332.269 13.4968  37
   0   0   4 352.769 15.5263  36
   0   0   4 351.456 15.5614  24
   0   0   4 333.168 20.6074   6
   0   0   4 332.734 13.5203   5
  -1   0  -4 469.632 21.5082  22
  -1   0  -4 519.962 23.1674  24
  -1   0  -4 512.383 30.1896  27
  -1   0  -4 498.935 23.0879  36
  -1   0  -4 520.549 20.1601  37
  -1   0  -4 511.607 23.2099  35
  -1   0  -4 502.082 21.0284  29
  -1   0  -4 474.694 21.2955  28
  -1   0  -4 531.415 26.5706  25
   1   0   4 499.458 26.6315  25
   1   0   4 516.227 20.1868   5
   1   0   4 486.065 22.6317  23
   1   0   4 511.263 23.2416  24
   1   0   4 530.223 31.1794   6
   1   0   4 480.495 20.0906  37
   1   0   4 505.689 23.1685  36
  -2   0  -4 33.1073 1.65762  28
  -2   0  -4 39.1197 1.66208  37
  -2   0  -4 36.5652 1.72801   4
  -2   0  -4 32.7566 1.66655  22
  -2   0  -4 37.1094 1.89145  24
  -2   0  -4 40.6590 1.88931  35
  -2   0  -4 35.0417 2.13253  25
  -2   0  -4 36.0452 2.54358  27
  -2   0  -4 34.1531 1.92220  36
   2   0   4 35.9711 1.85408  36
   2   0   4 33.2232 2.50056   6
  -3   0  -4 137.859 5.66168  37
  -3   0  -4 136.215 8.54097  27
  -3   0  -4 134.926 5.95101   4
  -3   0  -4 138.754 7.43235  25
  -3   0  -4 133.984 6.48502  24
  -3   0  -4 140.807 5.81510  29
  -3   0  -4 133.561 5.95758  22
  -4   0  -4 8.16671 0.72177  24
  -4   0  -4 9.65674 0.70895  37
  -4   0  -4 10.8291 0.81434   4
  -4   0  -4 10.3798 0.65997  29
  -5   0  -4 11.7353 0.77042  22
  -5   0  -4 11.6679 0.79678  28
  -5   0  -4 10.7415 0.78779  29
  -5   0  -4 11.1221 0.69222  30
  -5   0  -4 11.9433 0.85963  37
   5   0   4 10.1138 1.11842  38
   5   0   4 11.1418 0.98849  31
   5   0   4 13.0927 1.33255  10
   5   0   4 10.8470 0.79906  33
   5   0   4 11.3748 1.08198   2
  -6   0  -4 582.740 23.7494  22
  -6   0  -4 519.700 23.0930  29
  -6   0  -4 556.918 21.8505  30
  -6   0  -4 565.544 23.4850  28
   6   0   4 541.567 24.6193  10
   6   0   4 558.542 24.5516   2
   6   0   4 531.592 21.4761  38
   6   0   4 552.546 18.9741  33
   6   0   4 593.664 24.5959  34
   6   0   4 519.108 24.8877  20
   6   0   4 550.485 21.2521  31
  -7   0  -4 257.872 11.7436  22
  -7   0  -4 258.606 10.3083  13
  -7   0  -4 275.028 10.8022  30
   7   0   4 259.618 12.3546  10
   7   0   4 255.648 9.40882  33
   7   0   4 266.784 12.4312  34
   7   0   4 278.749 12.3270   2
   7   0   4 276.142 10.6906  31
   7   0   4 271.577 10.8926  38
   7   0   4 264.576 12.6922  20
  -8   0  -4 290.714 12.0486  30
  -8   0  -4 314.011 11.5285  13
   8   0   4 315.768 13.6151   2
   8   0   4 306.960 13.7002  34
   8   0   4 297.293 11.8972  38
   8   0   4 300.515 13.9300  20
   8   0   4 294.079 11.7454  31
   8   0   4 284.710 13.5426  10
   6  -1  -4 150.797 5.35490   1
   6  -1  -4 147.893 5.86739  19
  -6   1   4 155.564 6.18937   3
  -6   1   4 161.240 6.92853  18
   5  -1  -4 19.9401 1.66444  19
   5  -1  -4 18.2358 1.47549  12
   5  -1  -4 18.2598 1.38143   8
   5  -1  -4 20.6102 1.61154  32
   5  -1  -4 20.5753 1.55342  16
   5  -1  -4 19.3224 1.49220   1
  -5   1   4 16.4072 1.42567   3
  -5   1   4 20.2454 1.56800  18
   4  -1  -4 153.901 6.12829  19
   4  -1  -4 156.250 6.58688   8
   4  -1  -4 131.689 6.07205  12
   4  -1  -4 147.800 5.63352   1
   4  -1  -4 147.739 6.14369  32
  -4   1   4 148.911 6.97952  18
  -4   1   4 145.725 6.29991   3
  -4   1   4 154.827 5.88353  13
   3  -1  -4 144.522 6.20347   8
   3  -1  -4 150.514 6.96187  10
   3  -1  -4 142.652 7.15088  36
   3  -1  -4 140.562 5.26110   1
   3  -1  -4 147.315 5.68832  19
   3  -1  -4 141.247 5.80710  32
  -3   1   4 144.860 5.90081  30
  -3   1   4 136.619 6.57169  18
  -3   1   4 138.567 5.92571   3
  -3   1   4 128.533 7.28288  36
  -3   1   4 138.399 5.58267  13
  -3   1   4 142.007 6.24080  37
   2  -1  -4 671.403 29.6138  36
   2  -1  -4 579.846 29.8286  35
  -2   1   4 669.165 25.8171  37
  -2   1   4 657.286 25.8478   5
  -2   1   4 630.355 29.6467  36
   1  -1  -4 142.987 6.14692  37
   1  -1  -4 154.801 7.13209  36
   1  -1  -4 133.676 7.03173  24
   1  -1  -4 149.143 7.21809  35
  -1   1   4 146.577 6.10736  37
  -1   1   4 147.024 7.06803  24
  -1   1   4 145.924 6.13230   5
  -1   1   4 143.825 7.08871  36
   0  -1  -4 127.023 6.38258  24
   0  -1  -4 127.337 8.28073  27
   0  -1  -4 131.963 5.57030  37
   0  -1  -4 132.706 7.41696  25
   0  -1  -4 134.507 6.43625  36
   0  -1  -4 135.896 6.49755  35
   0   1   4 133.481 6.40122  36
   0   1   4 132.623 6.37290  24
   0   1   4 134.905 5.52426  37
   0   1   4 130.763 7.33488  25
   0   1   4 123.315 8.27471   6
   0   1   4 135.176 6.08215  23
   0   1   4 134.529 5.55543   5
  -1  -1  -4 727.323 32.7569  28
  -1  -1  -4 778.238 35.5306  35
  -1  -1  -4 757.755 32.6140   4
  -1  -1  -4 798.954 35.9887  24
  -1  -1  -4 794.389 35.8690  36
  -1  -1  -4 792.929 46.5632  27
  -1  -1  -4 804.764 49.3705  25
   1   1   4 756.639 30.9493  37
   1   1   4 771.811 35.5504  36
   1   1   4 778.006 31.4182   5
   1   1   4 778.356 40.7152  25
   1   1   4 803.856 36.0941  24
   1   1   4 742.945 47.5776   6
   1   1   4 780.075 34.8452  23
  -2  -1  -4 3091.97 126.709  29
  -2  -1  -4 2899.18 130.336  22
  -2  -1  -4 3073.64 183.415  27
  -2  -1  -4 3220.57 140.712  24
  -2  -1  -4 3037.25 140.401  35
  -2  -1  -4 3058.49 140.122  36
  -2  -1  -4 3133.48 122.355  37
  -2  -1  -4 3282.84 161.329  25
  -2  -1  -4 2982.10 127.406   4
   2   1   4 3204.28 140.660  24
   2   1   4 2927.95 121.997  37
   2   1   4 3078.57 186.412   6
   2   1   4 3079.88 139.791  36
   2   1   4 3006.20 122.584   5
   2   1   4 2829.70 136.492  23
  -3  -1  -4 135.567 5.69135  37
  -3  -1  -4 131.020 6.56701  36
  -3  -1  -4 145.887 7.50590  25
  -3  -1  -4 139.581 8.58874  27
  -3  -1  -4 137.653 5.94903   4
  -3  -1  -4 142.585 6.57200  24
  -3  -1  -4 131.822 5.98807  22
  -3  -1  -4 138.327 5.93430  28
  -3  -1  -4 137.042 5.83969  29
   3   1   4 136.560 6.51203  36
   3   1   4 135.737 6.54267  24
  -4  -1  -4 58.3995 3.53207  25
  -4  -1  -4 60.5005 2.70754  37
  -4  -1  -4 63.7044 2.73108  29
  -4  -1  -4 53.7150 4.01130  27
  -4  -1  -4 54.3158 2.52674  30
  -4  -1  -4 58.5537 2.83863   4
  -4  -1  -4 60.1850 2.75219  28
  -4  -1  -4 57.7260 3.10530  24
  -4  -1  -4 57.8293 2.75998  22
   4   1   4 62.7428 3.06660  36
  -5  -1  -4 15.9221 1.15966   4
  -5  -1  -4 18.7458 1.16166  37
  -5  -1  -4 18.5054 1.08788  28
  -5  -1  -4 18.4090 1.06450  22
  -5  -1  -4 18.2613 1.08787  29
  -6  -1  -4 1294.39 51.9462  28
  -6  -1  -4 1216.77 51.0770  29
  -6  -1  -4 1214.77 46.6708   3
  -6  -1  -4 1126.70 46.3062  13
  -6  -1  -4 1201.83 49.2081  37
  -6  -1  -4 1310.19 52.7203  22
  -6  -1  -4 1293.54 48.4751  30
   6   1   4 1255.35 48.4390   8
   6   1   4 1175.89 54.2963  20
   6   1   4 1175.09 53.7714  10
   6   1   4 1243.37 41.8008  33
   6   1   4 1345.71 53.7058  34
   6   1   4 1248.47 53.8661   2
   6   1   4 1186.82 46.5092  31
   6   1   4 1227.50 46.8548  38
  -7  -1  -4 201.654 7.40717  15
  -7  -1  -4 196.334 8.24237   3
  -7  -1  -4 204.007 7.98001  13
  -7  -1  -4 210.217 8.35681  30
  -7  -1  -4 196.528 9.12607  28
  -7  -1  -4 203.295 9.11075  22
   7   1   4 205.749 9.96496  20
   7   1   4 202.900 9.55133   2
   7   1   4 212.756 9.79078  34
   7   1   4 202.393 8.48237  38
   7   1   4 206.835 7.34992  33
   7   1   4 201.438 8.27199  31
   7   1   4 200.658 9.60075  10
  -8  -1  -4 102.834 3.90733  13
  -8  -1  -4 92.3722 4.06499  30
   8   1   4 96.9496 4.79006   2
   8   1   4 98.0018 5.01663  34
   8   1   4 87.2060 4.26288  38
   8   1   4 91.5018 4.11372  31
   8   1   4 94.7240 5.14409  20
   9   1   4 0.78007 0.48509  20
   5  -2  -4 1.23648 0.57070  16
   5  -2  -4 2.96837 0.71130  32
   5  -2  -4 1.48427 0.67816  19
   5  -2  -4 0.53175 0.66850   1
  -5   2   4 1.54093 0.50678  18
  -5   2   4 1.02765 0.46929   3
   4  -2  -4 2.44840 0.73334  19
   4  -2  -4 3.80338 0.85660  16
   4  -2  -4 3.20159 0.83794  32
   4  -2  -4 3.47489 0.97469   1
  -4   2   4 4.61139 0.60020  13
  -4   2   4 4.58735 0.92941   3
  -4   2   4 4.14026 0.96190  18
   3  -2  -4 36.0915 2.07452   8
   3  -2  -4 39.7564 2.23991  32
   3  -2  -4 38.5734 2.02768   1
   3  -2  -4 37.4589 2.54381  10
   3  -2  -4 35.3547 2.06066  19
   3  -2  -4 36.2851 2.02664  12
  -3   2   4 33.6796 1.68539  13
  -3   2   4 35.4705 1.81789  30
  -3   2   4 35.8371 2.06968  37
  -3   2   4 30.8375 2.12684  18
  -3   2   4 36.2561 2.04202   3
   2  -2  -4 143.202 5.85121  32
   2  -2  -4 146.358 5.71800  19
   2  -2  -4 149.044 6.30830   8
   2  -2  -4 143.617 5.30084   1
   2  -2  -4 146.235 7.12183  10
   2  -2  -4 153.650 7.30860  36
  -2   2   4 142.490 7.41230  36
  -2   2   4 133.800 5.76066  13
  -2   2   4 155.025 6.09737  30
  -2   2   4 146.744 6.03570   3
  -2   2   4 170.198 6.40752  37
  -2   2   4 145.752 6.65022  22
  -2   2   4 137.084 6.71348  18
   1  -2  -4 246.205 11.5221  36
  -1   2   4 239.080 11.1240  23
  -1   2   4 239.348 10.3435  29
  -1   2   4 231.237 10.4924  28
  -1   2   4 256.658 10.0185  37
  -1   2   4 250.527 11.5882  36
  -1   2   4 252.350 10.0812   5
  -1   2   4 232.173 9.74392  30
   0  -2  -4 512.651 24.0074  35
   0  -2  -4 509.901 31.0689  27
   0  -2  -4 504.815 23.8771  24
   0  -2  -4 544.913 23.8262  36
   0   2   4 530.065 23.8705  24
   0   2   4 509.478 21.4954  29
   0   2   4 508.266 27.4126  25
   0   2   4 535.809 20.7301  37
   0   2   4 531.219 20.7910   5
   0   2   4 551.287 23.1664  23
   0   2   4 479.510 21.8500  28
   0   2   4 472.415 22.1080  22
   0   2   4 538.953 23.8123  36
  -1  -2  -4 373.940 15.2919  37
  -1  -2  -4 361.222 15.8155   4
  -1  -2  -4 383.086 20.1841  25
  -1  -2  -4 389.111 17.5690  36
  -1  -2  -4 388.147 17.6740  35
  -1  -2  -4 363.564 22.9264  27
  -1  -2  -4 378.869 17.6037  24
   1   2   4 392.171 15.2663  37
   1   2   4 383.410 17.5803  24
   1   2   4 394.318 17.0591  23
   1   2   4 378.127 17.5206  36
   1   2   4 377.350 15.3011   5
  -2  -2  -4 3089.07 122.998  37
  -2  -2  -4 3144.16 141.617  35
  -2  -2  -4 3011.77 147.590   4
  -2  -2  -4 2991.42 127.527  29
  -2  -2  -4 3269.13 141.875  24
  -2  -2  -4 2956.50 184.355  27
  -2  -2  -4 3261.21 162.437  25
  -2  -2  -4 3062.86 140.878  36
  -2  -2  -4 2946.54 150.129  28
   2   2   4 3030.50 122.760  37
   2   2   4 3124.72 140.951  36
   2   2   4 3017.96 139.052   5
   2   2   4 2888.88 137.442  23
   2   2   4 3263.81 141.844  24
  -3  -2  -4 30.2860 1.86577  25
  -3  -2  -4 28.1831 1.41322  37
  -3  -2  -4 26.0557 1.39438  22
  -3  -2  -4 28.0133 1.68183  36
  -3  -2  -4 28.7821 2.19985  27
  -3  -2  -4 25.9009 1.36479  29
  -3  -2  -4 27.9262 1.65115  24
  -3  -2  -4 28.2374 1.44889   4
  -3  -2  -4 28.0361 1.40562  28
   3   2   4 25.9396 1.60750  23
   3   2   4 27.1066 1.64420  36
   3   2   4 26.2068 1.38544  37
   3   2   4 26.9639 1.62084  24
  -4  -2  -4 460.515 22.6178  36
  -4  -2  -4 493.509 26.0137  25
  -4  -2  -4 500.150 21.0055  22
  -4  -2  -4 502.580 22.7850  24
  -4  -2  -4 489.380 20.3914  29
  -4  -2  -4 488.321 20.7348  28
  -4  -2  -4 509.383 19.7287  37
  -4  -2  -4 482.101 19.3598  30
  -4  -2  -4 495.822 20.6106   4
  -4  -2  -4 476.350 29.5160  27
   4   2   4 501.418 22.5842  36
  -5  -2  -4 1.51295 0.40980  37
  -5  -2  -4 1.72868 0.35062  30
  -5  -2  -4 1.03607 0.27040  28
  -5  -2  -4 1.17077 0.32820  29
   5   2   4 0.77371 0.37796  36
  -6  -2  -4 122.733 4.99115  30
  -6  -2  -4 120.661 5.44498  28
  -6  -2  -4 120.614 5.45531  22
  -6  -2  -4 111.533 4.99415   3
  -6  -2  -4 125.577 5.31614  37
  -6  -2  -4 112.152 5.36721  29
   6   2   4 110.886 5.17779  38
   6   2   4 124.770 5.25959   8
   6   2   4 120.433 5.82047   2
   6   2   4 118.467 4.47146  33
  -7  -2  -4 23.0492 1.42524  15
  -7  -2  -4 20.5713 1.22363  13
  -7  -2  -4 20.9479 1.24128  30
  -7  -2  -4 19.5232 1.37453  22
  -7  -2  -4 19.3293 1.44810  28
  -7  -2  -4 18.9774 1.46046   3
   7   2   4 20.2971 1.64057   2
   7   2   4 22.5685 1.44610   8
   7   2   4 20.4562 1.24396  33
   7   2   4 19.3074 1.86639  34
   7   2   4 18.7859 1.59013  38
   7   2   4 20.9167 1.96929  20
  -8  -2  -4 4.84051 0.90553  15
  -8  -2  -4 5.40748 0.65173  30
   8   2   4 5.86538 1.00606   2
   8   2   4 6.79960 1.30475  34
   8   2   4 3.93141 1.13987  20
   8   2   4 6.28789 1.10273  38
  -9  -2  -4 11.9385 0.69642  13
  -9  -2  -4 11.9000 0.90134   3
   9   2   4 14.4365 1.36991  20
   9   2   4 12.9304 1.24012  34
   5  -3  -4 50.0947 2.40300  16
   5  -3  -4 49.6239 2.38041  19
   5  -3  -4 51.1735 2.21360   1
  -5   3   4 46.6814 2.31089   3
   4  -3  -4 396.032 15.9121   8
   4  -3  -4 381.001 13.3394   1
   4  -3  -4 407.848 15.2756  16
   4  -3  -4 387.675 14.5480  19
   4  -3  -4 410.921 14.7949  32
  -4   3   4 387.972 15.4707   3
  -4   3   4 409.510 15.1574  13
   3  -3  -4 68.1220 3.24425   8
   3  -3  -4 71.5686 3.94918  10
   3  -3  -4 60.7161 3.24976  38
   3  -3  -4 70.2850 3.45619  16
   3  -3  -4 68.1853 3.15902  19
   3  -3  -4 69.6337 3.33127  32
   3  -3  -4 71.3280 3.01199   1
  -3   3   4 64.7474 2.88332  13
  -3   3   4 66.7108 3.07100  30
  -3   3   4 63.1380 3.17612   3
   2  -3  -4 65.1770 3.06647   8
   2  -3  -4 59.3989 3.08708  38
   2  -3  -4 58.5201 2.99215  32
   2  -3  -4 65.9738 2.91819  19
   2  -3  -4 65.6064 3.62893  10
   2  -3  -4 62.5376 2.71351   1
  -2   3   4 68.1108 2.99398   3
  -2   3   4 63.3884 2.86113  30
  -2   3   4 63.2706 2.70921  13
  -2   3   4 61.8851 3.15451  22
  -2   3   4 64.2266 3.07908  37
   1  -3  -4 179.904 8.43879  36
  -1   3   4 178.756 7.11482  30
  -1   3   4 176.602 7.75402  22
  -1   3   4 150.979 7.40726   5
  -1   3   4 171.287 8.18929  23
  -1   3   4 175.820 8.55566  36
  -1   3   4 178.253 7.69180  28
  -1   3   4 183.931 7.35590  37
   0  -3  -4 4.78505 1.04289  27
   0  -3  -4 5.94172 0.80085  36
   0   3   4 5.97788 0.79953  36
   0   3   4 5.49989 0.56578  28
   0   3   4 6.89099 0.62657  23
   0   3   4 5.32114 0.54379  29
  -1  -3  -4 169.572 7.44649  36
  -1  -3  -4 150.383 9.69121  27
  -1  -3  -4 145.533 7.38320  24
  -1  -3  -4 151.018 6.40703  37
   1   3   4 152.817 6.37368  37
   1   3   4 149.833 6.58196  29
   1   3   4 151.019 6.40782   5
   1   3   4 154.930 7.37863  24
   1   3   4 151.253 7.37191  36
   1   3   4 160.204 7.14366  23
   1   3   4 147.580 6.73285  28
  -2  -3  -4 2535.80 108.714   4
  -2  -3  -4 2688.59 120.616  24
  -2  -3  -4 2653.20 104.826  37
  -2  -3  -4 2661.80 119.609  36
  -2  -3  -4 2531.91 156.787  27
   2   3   4 2600.27 120.173  24
   2   3   4 2562.14 104.510  37
   2   3   4 2620.76 147.107  23
   2   3   4 2609.06 119.806  36
   2   3   4 2610.32 131.170   5
  -3  -3  -4 102.625 7.03876  27
  -3  -3  -4 111.873 4.66556  37
  -3  -3  -4 111.147 6.25993  25
  -3  -3  -4 109.273 5.41026  24
  -3  -3  -4 111.204 4.82127   4
  -3  -3  -4 107.872 5.41101  36
   3   3   4 114.871 5.38745  36
   3   3   4 108.201 5.39092  24
   3   3   4 103.147 5.23115  23
   3   3   4 107.593 4.64418  37
  -4  -3  -4 730.968 30.8829  22
  -4  -3  -4 685.634 29.9609  29
  -4  -3  -4 681.426 43.3375  27
  -4  -3  -4 731.089 33.2055  36
  -4  -3  -4 732.548 30.4969  28
  -4  -3  -4 706.687 28.4672  30
  -4  -3  -4 720.683 38.2046  25
  -4  -3  -4 760.839 28.9580  37
  -4  -3  -4 763.066 30.2588   4
   4   3   4 702.267 33.3163  24
   4   3   4 710.115 28.9384  37
   4   3   4 720.034 32.5127  23
   4   3   4 761.801 33.1712  36
  -5  -3  -4 4.19579 0.81504  36
  -5  -3  -4 4.46755 0.68679   4
  -5  -3  -4 3.44776 0.52046  28
  -5  -3  -4 3.51010 0.51040  22
  -5  -3  -4 3.63875 0.50375  29
  -5  -3  -4 4.73105 0.47630  30
   5   3   4 3.75810 0.74772  36
  -6  -3  -4 369.750 14.9009   3
  -6  -3  -4 417.275 15.3679  30
  -6  -3  -4 349.699 13.9445  17
  -6  -3  -4 405.153 15.8206  37
  -6  -3  -4 399.186 16.7037  22
   6   3   4 376.824 17.1910   2
   6   3   4 393.917 13.3812  33
   6   3   4 358.464 14.9953  38
   6   3   4 388.174 15.6082   8
  -7  -3  -4 35.8108 1.90335  15
  -7  -3  -4 35.6361 1.75912  13
  -7  -3  -4 36.2652 2.09126   3
  -7  -3  -4 36.2573 1.83087  30
   7   3   4 35.6435 2.08359  12
   7   3   4 36.0974 2.59758  20
   7   3   4 38.6482 2.12694   8
   7   3   4 36.0097 2.27883   2
   7   3   4 34.8912 2.12727  38
  -8  -3  -4 522.107 20.3997   3
  -8  -3  -4 531.697 18.2796  15
  -8  -3  -4 524.293 20.0665  13
   8   3   4 527.143 21.0840   8
   8   3   4 538.338 19.7260  12
   8   3   4 528.584 23.8767  20
   8   3   4 543.556 23.6209  34
   8   3   4 524.567 23.4894   2
  -9  -3  -4 7.54840 0.85988   3
   9   3   4 9.37405 1.15721  34
   9   3   4 8.94154 1.18388  20
   4  -4  -4 164.594 6.42960  19
   4  -4  -4 154.897 5.85910   1
   4  -4  -4 172.064 6.77064  16
   4  -4  -4 162.509 6.78697  38
   4  -4  -4 165.309 6.52933  32
  -4   4   4 149.675 6.62474   3
  -4   4   4 179.396 6.44719  13
   3  -4  -4 373.886 13.9462  16
   3  -4  -4 359.262 12.1330   1
   3  -4  -4 358.148 14.4157   8
   3  -4  -4 372.460 13.2531  19
   3  -4  -4 344.957 14.1284  38
   3  -4  -4 363.953 13.4881  32
  -3   4   4 339.322 13.9875   3
  -3   4   4 356.468 14.4375  30
  -3   4   4 361.449 13.7633  13
   2  -4  -4 46.0907 2.42539  32
   2  -4  -4 45.6552 2.86858  10
   2  -4  -4 45.3262 2.27521   8
   2  -4  -4 42.4795 2.41150  38
   2  -4  -4 41.6873 2.41062  16
   2  -4  -4 43.8412 2.07497   1
   2  -4  -4 44.3237 2.24021  19
  -2   4   4 43.8791 2.25561   3
  -2   4   4 41.7647 2.53297  28
  -2   4   4 42.6216 2.11511  30
  -2   4   4 42.8319 2.35042  22
  -2   4   4 41.6243 1.98722  13
   1  -4  -4 821.658 27.0423   1
   1  -4  -4 773.985 30.3691  14
   1  -4  -4 916.684 36.8868  10
   1  -4  -4 842.009 33.0774   8
   1  -4  -4 833.237 30.0065  32
   1  -4  -4 835.602 31.9809  38
   1  -4  -4 820.109 29.5271  19
   1  -4  -4 866.542 30.9714  16
  -1   4   4 790.909 31.5391  13
  -1   4   4 823.598 31.7200   3
  -1   4   4 833.565 34.8328  29
  -1   4   4 846.135 35.8505  22
  -1   4   4 852.778 35.4200  28
  -1   4   4 861.630 33.0446  30
  -1   4   4 856.746 33.5753  37
   0  -4  -4 737.455 32.6170  36
   0   4   4 722.683 30.4113  22
   0   4   4 707.399 30.0308  28
   0   4   4 708.585 31.9096  23
   0   4   4 682.490 28.5462   5
   0   4   4 688.356 32.6784  36
   0   4   4 716.004 29.5448  29
   0   4   4 709.926 28.0226  30
   0   4   4 730.229 28.4872  37
  -1  -4  -4 270.776 18.0000  27
  -1  -4  -4 313.689 13.7660  36
   1   4   4 291.479 13.7263  36
   1   4   4 296.041 13.3685  23
   1   4   4 285.469 12.3298  29
   1   4   4 278.268 11.6476  30
   1   4   4 302.292 11.9244  37
   1   4   4 300.016 11.9668   5
   1   4   4 290.606 12.5368  28
  -2  -4  -4 22.7824 1.26211  37
  -2  -4  -4 20.0070 2.00268  27
  -2  -4  -4 23.0065 1.54939  36
   2   4   4 22.2779 1.41868  23
   2   4   4 22.7180 1.26029  37
   2   4   4 22.0183 1.23547   5
   2   4   4 21.9817 1.50504  36
  -3  -4  -4 3.81776 0.63551  24
  -3  -4  -4 4.07183 0.72137  36
  -3  -4  -4 3.94720 0.53870   4
  -3  -4  -4 4.40972 0.99853  27
  -3  -4  -4 5.28203 0.57031  37
   3   4   4 3.83318 0.58929  23
   3   4   4 3.85265 0.56348  37
   3   4   4 3.59764 0.71724  24
   3   4   4 3.54879 0.66602  36
  -4  -4  -4 81.6837 3.53775  37
  -4  -4  -4 75.5568 3.66093   4
  -4  -4  -4 73.8285 5.34573  27
  -4  -4  -4 78.7874 4.15492  36
   4   4   4 83.2990 4.13211  36
   4   4   4 77.3006 3.52898  37
   4   4   4 75.1677 3.98918  23
  -5  -4  -4 5.48820 1.08383  27
  -5  -4  -4 7.00605 0.76473  37
  -5  -4  -4 6.25713 0.97864  36
   5   4   4 8.19595 1.00288  36
  -6  -4  -4 656.297 25.3579  37
  -6  -4  -4 628.818 23.9186   3
  -6  -4  -4 621.917 21.4349  15
  -6  -4  -4 629.511 23.6329  13
  -6  -4  -4 614.437 22.4516  17
  -6  -4  -4 595.587 29.1366  36
   6   4   4 622.549 23.0174  12
   6   4   4 642.117 25.0396   8
   6   4   4 635.321 28.8610  36
   6   4   4 607.580 23.9836  38
  -7  -4  -4 6.50315 0.98161  15
  -7  -4  -4 7.39142 1.05949   3
  -7  -4  -4 6.67357 0.69317  13
   7   4   4 7.74571 1.08786   8
   7   4   4 5.83634 0.99179  12
  -8  -4  -4 953.172 33.4182  15
  -8  -4  -4 1010.91 37.3484   3
   8   4   4 1006.30 38.8351   8
   8   4   4 963.458 43.4233  20
   8   4   4 988.236 35.9732  12
  -9  -4  -4 170.762 6.49011  15
  -9  -4  -4 185.174 7.29330   3
   9   4   4 182.114 8.54154  20
   9   4   4 188.830 8.46749  34
   4  -5  -4 14.4869 1.22107  16
   4  -5  -4 12.5747 0.99471   1
  -4   5   4 15.1393 0.80994  13
   3  -5  -4 7.64833 1.17685  38
   3  -5  -4 10.3220 1.05826   1
   3  -5  -4 11.1172 1.35157  32
   3  -5  -4 9.54188 1.21348  19
   3  -5  -4 11.3289 1.35467  16
  -3   5   4 7.60309 0.73272  30
  -3   5   4 7.82521 0.71137  13
  -3   5   4 8.72562 0.89550   3
   2  -5  -4 110.699 4.79498  16
   2  -5  -4 103.650 4.08146   1
   2  -5  -4 107.791 4.62001   8
   2  -5  -4 106.923 4.62948  32
   2  -5  -4 116.055 6.23963   7
   2  -5  -4 105.058 4.82186  38
   2  -5  -4 110.982 4.49242  19
  -2   5   4 103.523 4.57927   3
  -2   5   4 103.957 4.34767  13
  -2   5   4 100.652 5.01363  22
  -2   5   4 102.614 4.57695  30
   1  -5  -4 258.766 9.31822  19
   1  -5  -4 239.512 9.49113  32
   1  -5  -4 234.441 11.5399  20
   1  -5  -4 260.718 10.0973  38
   1  -5  -4 246.403 9.63890  14
   1  -5  -4 251.232 10.1963   8
   1  -5  -4 249.895 8.54424   1
   1  -5  -4 250.222 9.79610  16
  -1   5   4 240.034 10.7219  29
  -1   5   4 247.404 10.8931  28
  -1   5   4 241.883 9.60275  13
  -1   5   4 244.679 9.82081   3
  -1   5   4 248.386 10.3727  37
  -1   5   4 258.928 10.0989  30
  -1   5   4 255.838 10.9934  22
   0  -5  -4 1690.27 66.4154  14
   0  -5  -4 1816.90 64.5880  19
   0  -5  -4 1869.11 80.9510  20
   0  -5  -4 1932.62 69.9144  38
   0  -5  -4 1871.64 73.2576   8
   0  -5  -4 1923.64 67.5806  16
   0  -5  -4 1890.61 65.5382  32
   0   5   4 1888.89 73.2456  30
   0   5   4 1914.56 79.8917  22
   0   5   4 1797.22 69.5674   3
   0   5   4 1860.86 76.7727  29
   0   5   4 1905.15 78.5588  28
   0   5   4 1849.50 74.2936  37
   0   5   4 1780.13 70.0971  13
  -1  -5  -4 17.8748 1.36129  38
  -1  -5  -4 17.6252 1.24164  14
  -1  -5  -4 18.7451 1.40521  36
   1   5   4 19.2241 1.13571  22
   1   5   4 17.2256 1.40727  36
   1   5   4 18.1773 1.15117   5
   1   5   4 16.8662 1.16293   9
   1   5   4 17.8400 1.14686  29
   1   5   4 18.3120 1.15541  28
   1   5   4 18.5866 1.00445  30
   1   5   4 18.2189 1.32271  23
   2   5   4 89.6793 4.09430   5
   2   5   4 89.2693 3.91004  30
   2   5   4 96.0193 4.66931  23
   2   5   4 99.6530 4.15120  37
   2   5   4 92.8683 4.79314  36
  -3  -5  -4 208.219 8.63225  37
  -3  -5  -4 183.091 13.0412  27
  -3  -5  -4 219.373 10.0105  36
   3   5   4 213.055 9.96674  36
   3   5   4 203.980 8.58536   5
   3   5   4 217.906 8.65497  37
   3   5   4 205.081 9.71034  23
  -4  -5  -4 12.4085 1.21115  36
  -4  -5  -4 12.6669 1.02789   4
  -4  -5  -4 14.8929 1.65650  27
   4   5   4 12.1336 1.21031  36
   4   5   4 11.4191 0.97031  37
   4   5   4 10.1072 1.05115  23
  -5  -5  -4 21.9394 1.30025  15
  -5  -5  -4 23.7780 1.49299  37
  -5  -5  -4 22.4130 1.41300  17
  -5  -5  -4 21.6896 1.38865   3
  -5  -5  -4 25.2085 1.89474  36
  -5  -5  -4 21.8734 1.49804   8
   5   5   4 23.1927 1.61052   8
   5   5   4 22.6142 1.35754  12
   5   5   4 24.0618 1.83281  36
   5   5   4 23.1061 1.51079  37
   5   5   4 21.5536 1.38527   3
  -6  -5  -4 173.240 7.67742  37
  -6  -5  -4 187.485 6.56992  15
  -6  -5  -4 165.635 8.95109  36
  -6  -5  -4 185.382 6.92093  17
  -6  -5  -4 174.476 7.25473   3
   6   5   4 179.319 7.69285   8
   6   5   4 174.606 6.96080  12
   6   5   4 177.240 8.77127  36
  -7  -5  -4 38.2302 2.08460  17
  -7  -5  -4 39.6242 2.02407  15
  -7  -5  -4 40.6785 2.25102   3
   7   5   4 38.5704 2.12454  12
   7   5   4 39.0350 2.31851   8
  -8  -5  -4 920.249 33.8372   3
  -8  -5  -4 888.741 30.3026  15
   8   5   4 884.004 32.5642  12
   8   5   4 883.303 39.3264  20
   8   5   4 875.412 35.2200   8
  -9  -5  -4 276.685 10.1160  15
  -9  -5  -4 297.049 11.3239   3
   9   5   4 300.720 13.0755  34
   9   5   4 288.411 11.6629   8
   9   5   4 286.290 10.8910  12
   9   5   4 291.969 13.2107  20
   3  -6  -4 4.98485 0.88138  38
   3  -6  -4 4.94127 0.97692  16
   3  -6  -4 4.95066 0.80893  32
   3  -6  -4 5.40293 0.81890   1
  -3   6   4 5.49533 0.56431  13
   2  -6  -4 62.0450 3.12435  38
   2  -6  -4 65.3421 3.19565  16
   2  -6  -4 61.5992 3.48946  20
   2  -6  -4 63.1726 4.01695   7
   2  -6  -4 64.6439 3.10291  32
   2  -6  -4 58.3799 2.58796   1
  -2   6   4 63.2638 2.69631  13
  -2   6   4 58.0792 2.83940   3
   1  -6  -4 138.455 7.05117  20
   1  -6  -4 148.471 8.02565   7
   1  -6  -4 141.505 5.90549  32
   1  -6  -4 146.245 6.08338  16
   1  -6  -4 150.282 6.04872  14
   1  -6  -4 136.824 6.10811   8
   1  -6  -4 149.211 6.24030  38
  -1   6   4 142.787 5.74828  13
  -1   6   4 140.747 5.96087   3
  -1   6   4 146.883 6.05571  30
  -1   6   4 145.830 6.62526  22
   0  -6  -4 1867.22 64.5223  32
   0  -6  -4 1857.10 71.5324   8
   0  -6  -4 1772.45 79.6084  20
   0  -6  -4 1760.03 85.9602   7
   0  -6  -4 1912.89 68.7766  38
   0  -6  -4 1789.13 65.4373  14
   0  -6  -4 1876.66 66.5029  16
   0   6   4 1847.02 78.1400  22
   0   6   4 1927.40 72.4014  30
   0   6   4 1755.23 75.2549  29
   0   6   4 1835.82 68.4505   3
   0   6   4 1785.73 68.7647  13
   0   6   4 1728.93 72.4452  37
  -1  -6  -4 242.252 9.24399  38
  -1  -6  -4 223.962 8.85927  14
  -1  -6  -4 228.760 8.70213  32
  -1  -6  -4 227.419 8.90440  16
  -1  -6  -4 239.844 9.47738   8
  -1  -6  -4 228.543 10.6824  20
  -1  -6  -4 214.023 10.3251  26
   1   6   4 228.120 9.57157  37
   1   6   4 237.278 9.05389   3
   1   6   4 228.358 10.0938  22
   1   6   4 215.427 9.87339  29
   1   6   4 236.696 9.27812  30
   1   6   4 224.213 8.82909  13
   1   6   4 228.372 10.0180  28
  -2  -6  -4 416.678 15.7098  32
  -2  -6  -4 398.409 18.7165  26
  -2  -6  -4 438.754 16.0484  14
  -2  -6  -4 439.530 17.4033   8
  -2  -6  -4 443.835 20.1839  36
  -2  -6  -4 453.900 19.5154  20
   2   6   4 438.594 18.7332  22
   2   6   4 426.916 20.2390  36
   2   6   4 423.686 16.6105   3
   2   6   4 420.559 16.4441  13
   2   6   4 439.999 17.2316  30
   2   6   4 461.184 17.6534  37
  -3  -6  -4 314.305 13.8619  36
  -3  -6  -4 289.402 10.8943  14
  -3  -6  -4 277.649 12.8051  26
  -3  -6  -4 293.085 11.8694   8
  -3  -6  -4 279.102 10.7508  17
   3   6   4 278.949 11.1037  13
   3   6   4 279.393 11.2894   3
   3   6   4 302.515 12.0183  37
   3   6   4 299.589 13.8327  36
  -4  -6  -4 491.079 21.4507  36
  -4  -6  -4 442.751 16.5871  17
  -4  -6  -4 459.058 17.5841   3
  -4  -6  -4 461.302 18.3650   8
  -4  -6  -4 450.055 19.6783  26
   4   6   4 467.826 21.3729  36
   4   6   4 460.432 18.6013  37
   4   6   4 437.559 16.8491  12
   4   6   4 440.153 17.5133   3
  -5  -6  -4 7.97513 1.09717  26
  -5  -6  -4 7.88720 0.94219  17
  -5  -6  -4 8.01681 0.89114   3
  -5  -6  -4 7.94970 0.90162   8
  -5  -6  -4 6.94341 0.83892  15
  -5  -6  -4 8.77789 0.92997  37
  -5  -6  -4 7.85998 1.20465  36
   5   6   4 7.82429 0.94499  37
   5   6   4 6.80959 0.84182  12
   5   6   4 8.10412 1.14694  36
   5   6   4 6.97287 0.91167   3
   5   6   4 6.81242 1.00190   8
  -6  -6  -4 150.571 6.08196   3
  -6  -6  -4 150.684 7.80014  36
  -6  -6  -4 141.591 6.40724  37
  -6  -6  -4 143.898 5.80175  17
  -6  -6  -4 156.054 5.50765  15
  -6  -6  -4 136.180 6.34675   8
   6   6   4 140.326 5.95412   3
   6   6   4 135.896 7.34364  36
   6   6   4 143.202 5.78931  12
   6   6   4 143.341 6.44791   8
  -7  -6  -4 121.478 4.62452  15
  -7  -6  -4 116.866 5.08637   3
  -7  -6  -4 112.471 4.79663  17
   7   6   4 118.456 4.87649  12
   7   6   4 116.172 5.37383   8
  -8  -6  -4 303.204 10.9980  15
  -8  -6  -4 308.720 12.2530   3
   8   6   4 316.337 11.8275  12
   8   6   4 319.417 12.8299   8
  -9  -6  -4 200.987 7.87616   3
  -9  -6  -4 194.328 7.05473  15
   9   6   4 207.967 9.14201  34
   9   6   4 198.152 7.59030  12
   9   6   4 194.940 9.18096  20
   9   6   4 195.444 8.14384   8
   2  -7  -4 88.6196 3.91973  16
   2  -7  -4 85.7707 3.82813  32
   2  -7  -4 91.9081 5.00086   7
   2  -7  -4 83.5892 4.41768  20
  -2   7   4 89.7026 3.59850  13
   1  -7  -4 128.318 5.55619  16
   1  -7  -4 134.241 5.65732  38
   1  -7  -4 138.169 5.55071  14
   1  -7  -4 129.297 7.26575   7
   1  -7  -4 135.877 5.46252  32
   1  -7  -4 124.246 6.44761  20
  -1   7   4 133.992 5.24477  13
  -1   7   4 119.567 5.36089   3
  -1   7   4 133.628 5.51550  30
   0  -7  -4 83.2010 3.67629  32
   0  -7  -4 78.2435 4.94743   7
   0  -7  -4 82.9485 3.77447  38
   0  -7  -4 77.5601 3.73048  14
   0  -7  -4 77.9497 4.30685  20
   0  -7  -4 77.2408 3.66398  16
   0   7   4 79.0816 3.50668  30
   0   7   4 78.8276 3.54660   3
  -1  -7  -4 362.601 18.3342   7
  -1  -7  -4 385.603 13.7365  32
  -1  -7  -4 367.356 13.9419  14
  -1  -7  -4 382.062 14.9438   8
  -1  -7  -4 380.524 16.8583  20
  -1  -7  -4 373.104 16.2880  26
  -1  -7  -4 356.323 14.0309  16
   1   7   4 369.600 14.8007  30
   1   7   4 368.309 14.3345   3
   1   7   4 353.422 16.0838  22
   1   7   4 366.812 14.1213  13
  -2  -7  -4 5.51315 0.78059   8
  -2  -7  -4 7.12168 1.03566  14
  -2  -7  -4 5.93573 0.80117  32
   2   7   4 5.18554 0.76085  22
   2   7   4 4.98290 0.57596  13
  -3  -7  -4 300.416 12.1000   8
  -3  -7  -4 296.095 10.9893  17
  -3  -7  -4 292.311 14.6057   7
  -3  -7  -4 299.549 13.1565  26
  -3  -7  -4 306.401 11.1867  14
   3   7   4 272.526 14.0741  36
   3   7   4 299.328 12.2710  37
   3   7   4 298.971 11.3239  13
   3   7   4 286.901 11.5309   3
  -4  -7  -4 1434.87 55.3086   8
  -4  -7  -4 1477.07 64.3088  36
  -4  -7  -4 1420.16 59.0629  26
  -4  -7  -4 1424.92 49.8342  17
   4   7   4 1366.47 56.1106  37
   4   7   4 1369.05 52.9315   3
   4   7   4 1356.25 64.2512  36
  -5  -7  -4 60.7107 3.38525  26
  -5  -7  -4 62.6510 2.90096  17
  -5  -7  -4 59.5328 3.06138   8
   5   7   4 60.5504 2.89614   3
   5   7   4 54.7765 3.04595  37
   5   7   4 58.9074 3.64632  36
   5   7   4 65.1771 2.83408  12
  -6  -7  -4 804.288 28.9595  17
  -6  -7  -4 812.782 30.7230   3
  -6  -7  -4 815.028 27.5533  15
  -6  -7  -4 797.074 32.1318   8
   6   7   4 815.145 30.6835   3
   6   7   4 775.314 32.1811   8
   6   7   4 833.034 29.5757  12
  -7  -7  -4 72.6719 3.41838   3
  -7  -7  -4 73.3313 3.33026  17
  -7  -7  -4 68.5211 3.59575   8
  -7  -7  -4 75.8534 3.13763  15
   7   7   4 74.8465 3.30721  12
   7   7   4 75.0857 3.70250   8
  -8  -7  -4 16.0223 1.23778   3
  -8  -7  -4 13.1567 1.15463  15
   8   7   4 14.3540 1.20079  12
   8   7   4 12.5167 1.28824   8
  -9  -7  -4 28.7181 1.55554   3
  -9  -7  -4 30.5240 1.46643  15
   9   7   4 28.9053 1.60866   8
   9   7   4 31.1063 1.56125  12
   9   7   4 33.3288 1.91753  20
   1  -8  -4 48.4664 2.41573  32
   1  -8  -4 42.1678 2.66908  20
   1  -8  -4 49.3318 2.39211  14
   1  -8  -4 43.9676 2.35930  16
   1  -8  -4 50.2233 3.23794   7
  -1   8   4 48.5292 2.09439  13
   0  -8  -4 10.0572 1.27590  20
   0  -8  -4 7.82257 1.09627  16
   0  -8  -4 8.05859 1.19990  14
   0  -8  -4 10.8134 1.19194  32
   0  -8  -4 6.46954 1.63159   7
   0   8   4 10.5340 0.99587   3
   0   8   4 10.1514 0.80366  30
   0   8   4 9.93904 0.76579  13
  -1  -8  -4 285.173 11.2119  16
  -1  -8  -4 278.156 14.6498   7
  -1  -8  -4 268.720 14.4424  21
  -1  -8  -4 306.609 11.0208  32
  -1  -8  -4 299.254 11.2171  14
  -1  -8  -4 303.158 13.0319  26
  -1  -8  -4 304.279 13.4721  20
   1   8   4 291.985 11.4384   3
   1   8   4 296.436 11.7629  30
   1   8   4 266.285 12.7892  22
   1   8   4 301.493 11.2264  13
  -2  -8  -4 19.8716 2.10878  21
  -2  -8  -4 20.4963 1.74639  20
  -2  -8  -4 20.2005 1.37163   8
  -2  -8  -4 20.4805 2.08190   7
  -2  -8  -4 21.7159 1.65220  14
   2   8   4 20.3941 1.15830  13
   2   8   4 20.5121 1.43785   3
   2   8   4 19.8867 1.23195  30
  -3  -8  -4 1.80455 0.80306  34
  -3  -8  -4 2.36479 0.60905  14
  -3  -8  -4 2.14591 0.52481   8
  -3  -8  -4 2.81775 0.89688   7
  -3  -8  -4 1.95839 0.84355  26
   3   8   4 1.87228 0.54455   3
  -4  -8  -4 856.182 36.4724  26
  -4  -8  -4 845.749 34.0186   8
  -4  -8  -4 857.810 31.2086  14
  -4  -8  -4 855.963 30.7115  17
   4   8   4 835.861 32.5741   3
   4   8   4 898.999 32.4088  13
  -5  -8  -4 3.61927 0.70277   8
  -5  -8  -4 2.47060 0.73081  26
  -5  -8  -4 2.32602 0.72303  17
   5   8   4 2.09807 0.55530  12
   5   8   4 1.85640 0.58990   3
  -6  -8  -4 1091.96 42.1751   8
  -6  -8  -4 1095.19 38.0096  17
   6   8   4 1094.03 38.8373  12
   6   8   4 1010.66 42.2312   8
   6   8   4 1039.62 40.2877   3
  -7  -8  -4 207.396 7.45838  15
  -7  -8  -4 207.449 7.89483  17
  -7  -8  -4 207.774 8.73976   8
   7   8   4 208.711 8.00380  12
   7   8   4 202.900 8.20909   3
   7   8   4 201.791 8.75760   8
  -8  -8  -4 99.1114 4.44290   3
  -8  -8  -4 96.6303 4.65018   8
  -8  -8  -4 104.002 4.20221  17
  -8  -8  -4 110.929 4.04077  15
   8   8   4 113.486 4.33716  12
   8   8   4 105.841 4.71139   8
   9   8   4 -0.4510 0.32284   8
   0  -9  -4 87.9562 5.23043   7
   0  -9  -4 95.2272 4.70801  20
   0  -9  -4 87.3598 3.93958  16
   0  -9  -4 102.972 4.06307  14
   0   9   4 98.3167 3.81785  13
  -1  -9  -4 132.743 7.31466   7
  -1  -9  -4 133.821 5.67850  16
  -1  -9  -4 132.481 7.16101  21
  -1  -9  -4 131.056 5.58437  14
  -1  -9  -4 141.643 6.62796  20
   1   9   4 138.989 5.68772  30
   1   9   4 131.977 5.56956   3
   1   9   4 141.764 5.40684  13
  -2  -9  -4 255.530 13.0291  21
  -2  -9  -4 255.367 10.0153  14
  -2  -9  -4 248.486 13.0748   7
  -2  -9  -4 264.121 11.6961  26
   2   9   4 266.869 10.0520  13
   2   9   4 268.693 10.3112   3
  -3  -9  -4 43.1105 2.28402   8
  -3  -9  -4 47.3208 2.44413  14
  -3  -9  -4 42.9605 3.03816   7
  -3  -9  -4 45.3132 2.83088  26
  -3  -9  -4 40.3745 2.67670  34
  -3  -9  -4 42.4700 3.06238  21
   3   9   4 43.6254 2.32500   3
   3   9   4 46.6963 2.03629  13
  -4  -9  -4 98.2777 4.60424   8
  -4  -9  -4 106.646 5.24956  26
  -4  -9  -4 101.361 4.32433  14
  -4  -9  -4 96.8965 5.72085  21
  -4  -9  -4 101.169 4.29339  17
   4   9   4 108.564 4.34810  12
   4   9   4 100.652 4.46253   3
  -5  -9  -4 0.86786 0.49126  17
  -5  -9  -4 1.15421 0.78493  21
  -5  -9  -4 0.33973 0.45013   8
   5   9   4 0.12832 0.52572  12
   5   9   4 0.48395 0.55107   3
  -6  -9  -4 426.605 19.6014  26
  -6  -9  -4 446.302 18.4264   8
  -6  -9  -4 482.053 16.7137  17
   6   9   4 469.465 16.9868  12
   6   9   4 462.289 17.6172   3
  -7  -9  -4 126.201 5.12638  17
  -7  -9  -4 123.590 5.60136   8
   7   9   4 137.994 5.20181  12
   7   9   4 126.642 5.73925   8
  -8  -9  -4 98.0500 3.66738  15
  -8  -9  -4 92.6810 4.30565   8
  -8  -9  -4 99.7005 3.91060  17
   8   9   4 107.055 3.99368  12
   8   9   4 95.1389 4.32916   8
  -1 -10  -4 209.584 7.86732  14
  -1 -10  -4 189.875 10.2625   7
   1  10   4 219.884 7.95483  13
  -2 -10  -4 718.183 25.7025  14
  -2 -10  -4 735.880 29.9393  26
  -2 -10  -4 629.765 33.5908   7
  -2 -10  -4 724.646 33.4205  21
   2  10   4 727.301 26.6329  13
   2  10   4 705.951 26.7782   3
  -3 -10  -4 151.728 7.96173  21
  -3 -10  -4 151.720 6.09671  14
  -3 -10  -4 141.385 7.85565   7
  -3 -10  -4 155.996 7.17000  26
   3  10   4 158.722 6.27547   3
   3  10   4 156.622 5.98338  13
  -4 -10  -4 156.331 6.19724  14
  -4 -10  -4 149.904 7.31292  26
  -4 -10  -4 151.600 5.94308  11
  -4 -10  -4 168.830 6.60592   8
  -4 -10  -4 152.652 8.13659  21
   4  10   4 158.750 6.19290  12
   4  10   4 161.187 6.44513   3
  -5 -10  -4 94.5482 3.99060   8
  -5 -10  -4 85.7360 3.68337  17
  -5 -10  -4 80.2614 4.81867  21
  -5 -10  -4 83.5645 3.60300  11
  -5 -10  -4 88.5906 4.42692  26
   5  10   4 88.8309 3.85482   3
   5  10   4 90.8443 3.70867  12
  -6 -10  -4 13.5005 1.13206   8
  -6 -10  -4 15.3299 1.22449  17
  -6 -10  -4 17.2333 1.38937  26
   6  10   4 15.4107 1.13874  12
   6  10   4 15.6326 1.16877   3
  -7 -10  -4 47.2855 2.23985  17
  -7 -10  -4 45.7844 2.35855   8
   7  10   4 50.7812 2.20297  12
   7  10   4 50.8674 2.25215   3
  -3 -11  -4 34.8885 2.17458  21
   3  11   4 30.0636 1.66301  12
  -4 -11  -4 260.672 11.6082  26
  -4 -11  -4 259.915 12.9393  21
   4  11   4 282.765 10.3790   3
   4  11   4 263.536 9.94377  12
  -5 -11  -4 0.41715 0.52003  21
  -5 -11  -4 1.57630 0.52141  26
  -5 -11  -4 0.97824 0.40982  11
   5  11   4 1.03686 0.36797  12
   5  11   4 0.96447 0.37808   3
  -6 -11  -4 56.6881 2.54496  11
  -6 -11  -4 62.9398 2.79440   8
   6  11   4 65.0386 2.71011   3
   4  10  -5 9.39244 0.76189   3
   4  10  -5 6.17173 0.77924  19
   4  10  -5 6.87470 0.87951  32
  -4 -10   5 7.81772 0.80662  33
  -4 -10   5 7.71109 0.71701  15
   3  10  -5 142.474 5.37504  19
   3  10  -5 145.333 5.57597  13
  -3 -10   5 148.451 5.24585  15
  -3 -10   5 141.165 5.58700  16
  -3 -10   5 134.562 5.24571  33
  -3 -10   5 137.081 5.25779  11
   2  10  -5 495.658 18.6116  13
  -2 -10   5 483.078 16.8431  15
  -2 -10   5 488.041 23.2149  21
  -2 -10   5 495.672 16.9858  33
  -2 -10   5 480.092 23.4167   7
  -2 -10   5 495.442 18.2347  16
  -2 -10   5 496.712 17.2164  11
   1  10  -5 76.0891 3.08276  13
   1  10  -5 70.4536 3.21410  30
  -1 -10   5 70.3277 4.10772  21
  -1 -10   5 77.1162 3.31102  16
  -1 -10   5 72.8899 3.01610  33
  -1 -10   5 78.0754 4.24155   7
  -1 -10   5 74.2061 3.07552  11
   0 -10   5 232.739 8.73389  11
   0 -10   5 238.034 11.9679   7
   0 -10   5 252.341 11.9030  21
   0 -10   5 248.183 9.32583  16
   1 -10   5 28.8356 1.92857  21
   1 -10   5 24.7330 1.36716  11
   1 -10   5 29.5112 1.97943   7
   5   9  -5 421.519 15.7115  32
   5   9  -5 450.979 15.5752  19
   5   9  -5 430.755 16.7302   3
  -5  -9   5 429.310 15.0677  33
  -5  -9   5 459.142 15.0530  15
   4   9  -5 306.757 10.8684  19
   4   9  -5 286.632 10.9905  32
   4   9  -5 294.584 11.6358   3
  -4  -9   5 283.674 13.4811   2
  -4  -9   5 315.524 10.5950  33
  -4  -9   5 306.254 10.5382  15
   3   9  -5 10.2156 0.80499  30
   3   9  -5 7.72751 1.10652  19
   3   9  -5 9.69022 0.80595  13
   3   9  -5 8.41108 0.97230   3
  -3  -9   5 6.47233 1.03398  15
  -3  -9   5 7.95139 1.04971  16
  -3  -9   5 8.80364 0.91769  11
  -3  -9   5 7.63161 0.98517  33
   2   9  -5 8.32726 1.01815  19
   2   9  -5 5.42333 0.70572  13
  -2  -9   5 7.08357 1.02508  16
  -2  -9   5 5.39158 0.98736  33
  -2  -9   5 6.22957 1.00826  15
  -2  -9   5 5.59637 0.90320  11
  -2  -9   5 5.62877 1.18895  21
  -2  -9   5 5.39441 1.22247   7
   1   9  -5 1.02704 0.36429  30
   1   9  -5 1.61355 0.44201  22
   1   9  -5 0.83015 0.28810  13
  -1  -9   5 0.69623 0.53461  33
  -1  -9   5 0.87759 0.73158  21
  -1  -9   5 1.06431 0.73374   7
  -1  -9   5 1.24273 0.51876  11
   0   9  -5 60.8561 2.72651  30
   0  -9   5 64.0734 2.71034  33
   0  -9   5 60.3976 2.74662  11
   0  -9   5 60.2696 3.74211  21
   0  -9   5 58.3295 3.78359   7
   0  -9   5 60.8113 2.95775  16
   1  -9   5 36.0918 1.81242  11
   1  -9   5 34.8209 2.54613   7
   1  -9   5 33.9256 1.98630  16
   1  -9   5 33.4859 1.68893  33
   1  -9   5 35.2617 2.53635  21
   2  -9   5 188.984 9.26357   7
   2  -9   5 185.920 6.66578  11
   2  -9   5 185.631 9.12708  21
   2  -9   5 175.871 7.16703  16
  -6  -8   5 15.8938 1.11212   8
   5   8  -5 549.317 20.0518  32
   5   8  -5 561.442 19.8513  19
   5   8  -5 540.435 21.3205   3
  -5  -8   5 571.393 19.1747  15
  -5  -8   5 566.463 22.2320   8
  -5  -8   5 577.249 24.7812   2
  -5  -8   5 550.549 19.2160  33
   4   8  -5 626.925 23.5078  32
   4   8  -5 661.461 25.0230   3
   4   8  -5 656.072 23.2295  19
  -4  -8   5 670.334 22.5018  15
  -4  -8   5 639.366 29.0044   2
  -4  -8   5 675.974 26.0095   8
  -4  -8   5 657.587 22.5807  33
   3   8  -5 22.1853 1.34792  30
   3   8  -5 22.7526 1.29752  13
   3   8  -5 22.2725 1.54012   3
   3   8  -5 21.4424 1.54373  19
  -3  -8   5 20.9454 1.41887   8
  -3  -8   5 21.8463 1.52423  15
  -3  -8   5 21.3584 1.50778  17
  -3  -8   5 23.1443 1.46153  11
  -3  -8   5 22.6571 1.90215   2
  -3  -8   5 21.4824 1.51002  33
  -3  -8   5 22.2528 1.58021  16
   2   8  -5 63.2212 3.36182  22
   2   8  -5 69.7341 2.94550  13
   2   8  -5 67.5540 3.08992  30
   2   8  -5 64.2782 2.96811  19
  -2  -8   5 67.8067 3.21120  16
  -2  -8   5 65.2449 3.02155  33
  -2  -8   5 69.3988 3.00621  11
  -2  -8   5 69.7603 3.88799   2
  -2  -8   5 66.2094 3.99846   7
  -2  -8   5 69.0680 3.13138  17
  -2  -8   5 69.9301 3.01933  15
  -2  -8   5 63.3321 3.89409  21
   1   8  -5 449.237 17.8872  30
   1   8  -5 425.376 17.0612  13
   1   8  -5 442.238 19.4118  22
  -1  -8   5 447.195 21.5775  21
  -1  -8   5 458.059 20.2413   2
  -1  -8   5 455.658 21.8144   7
  -1  -8   5 450.149 15.6289  15
  -1  -8   5 441.910 15.9495  11
  -1  -8   5 453.483 15.7447  33
  -1  -8   5 454.608 16.9508  16
   0   8  -5 455.449 18.3157  30
   0   8  -5 444.099 19.8689  22
   0  -8   5 461.036 17.4229  16
   0  -8   5 471.388 22.2369  21
   0  -8   5 461.798 16.1197  33
   0  -8   5 462.747 16.0135  15
   0  -8   5 465.022 22.4581   7
   0  -8   5 462.926 16.3944  11
  -1   8  -5 79.6387 3.82618  22
   1  -8   5 83.6916 3.42732  33
   1  -8   5 82.2278 3.49436  11
   1  -8   5 83.0491 4.91490   7
   1  -8   5 84.9220 4.84247  21
   1  -8   5 84.7105 3.83996  16
   2  -8   5 24.3726 1.36425  33
   2  -8   5 21.1238 1.33047  11
   2  -8   5 21.1785 1.89023  21
   2  -8   5 19.4525 1.52219  16
   2  -8   5 22.5379 2.03105   7
   6   7  -5 0.81018 0.48802  19
   6   7  -5 0.93249 0.34822   3
  -6  -7   5 0.45175 0.29832   8
   5   7  -5 282.402 11.4109   3
   5   7  -5 291.764 10.7924  32
   5   7  -5 299.668 10.7155  19
  -5  -7   5 302.364 10.2805  15
  -5  -7   5 279.741 10.2617  33
  -5  -7   5 291.944 11.9771   8
   4   7  -5 541.539 21.0375   3
   4   7  -5 529.995 19.5318  19
   4   7  -5 542.842 19.8079  32
  -4  -7   5 575.405 21.9896   8
  -4  -7   5 545.118 18.9704  33
  -4  -7   5 546.240 18.9085  15
   3   7  -5 57.4552 2.58490  13
   3   7  -5 59.1352 2.70335  19
   3   7  -5 56.7878 2.86679   3
   3   7  -5 56.7232 2.71901  30
  -3  -7   5 57.7031 2.68221  33
  -3  -7   5 56.2189 2.81754  16
  -3  -7   5 56.5735 2.65586  15
  -3  -7   5 57.9242 2.90750   8
  -3  -7   5 60.0450 3.45779   2
  -3  -7   5 55.9566 2.70760  17
   2   7  -5 307.276 13.2291  22
   2   7  -5 289.082 11.8055   3
   2   7  -5 312.202 12.1692  30
   2   7  -5 299.627 11.5859  13
   2   7  -5 273.364 10.9213  19
   2   7  -5 294.916 13.0842  28
  -2  -7   5 306.178 11.5820  16
  -2  -7   5 302.376 10.7326  15
  -2  -7   5 305.087 10.8835  11
  -2  -7   5 304.345 11.2061  17
  -2  -7   5 301.614 14.8287   7
  -2  -7   5 313.916 13.9294   2
  -2  -7   5 287.476 10.7626  33
   1   7  -5 400.252 15.8404  30
   1   7  -5 396.827 17.0144  28
   1   7  -5 400.698 17.2061  22
  -1  -7   5 398.142 14.5431  17
  -1  -7   5 405.050 15.0659  16
  -1  -7   5 399.485 18.0002   2
  -1  -7   5 398.410 19.3638   7
  -1  -7   5 394.470 13.9652  33
  -1  -7   5 380.284 19.1084  21
  -1  -7   5 391.168 13.8759  15
  -1  -7   5 385.731 14.1438  11
   0   7  -5 51.4091 2.40555  30
   0   7  -5 57.0669 2.67872  28
   0   7  -5 51.9954 2.64543  22
   0  -7   5 48.9490 3.42935   7
   0  -7   5 53.6394 2.50380  11
   0  -7   5 56.1060 2.44477  15
   0  -7   5 50.1495 2.67827  16
   0  -7   5 49.4157 2.42393  33
   0  -7   5 57.5253 3.28449   2
  -1   7  -5 86.5690 4.39491  28
  -1   7  -5 93.0158 4.46410  22
   1  -7   5 97.8674 3.96122  33
   1  -7   5 102.433 5.19610   2
   1  -7   5 104.331 5.70970   7
   1  -7   5 97.1166 4.01566  11
   1  -7   5 100.428 4.41496  16
   1  -7   5 106.699 5.61710  21
   2  -7   5 28.5322 1.90542  16
   2  -7   5 34.0328 2.46461  21
   2  -7   5 29.9535 1.79962   1
   2  -7   5 31.1378 1.65902  33
   2  -7   5 32.5646 2.54860   7
   2  -7   5 30.5675 1.68590  11
   3  -7   5 135.767 5.08194   1
   3  -7   5 138.757 7.06390  21
   3  -7   5 136.768 7.26411   7
   3  -7   5 137.245 5.16999  11
   4  -7   5 165.798 5.88676   1
   6   6  -5 74.6883 3.23002   3
   6   6  -5 75.3512 3.19838  19
  -6  -6   5 75.9655 3.51048   8
   5   6  -5 26.4525 1.76144  19
   5   6  -5 29.3399 1.77459   3
   5   6  -5 27.9312 1.81839  32
  -5  -6   5 27.4839 1.56647  15
  -5  -6   5 28.3007 1.86814   8
   4   6  -5 281.471 11.3358   3
   4   6  -5 277.373 10.5798  19
   4   6  -5 294.367 10.7692  32
  -4  -6   5 306.100 11.9585   8
  -4  -6   5 284.686 10.1912  15
  -4  -6   5 267.805 10.1763  33
   3   6  -5 16.8824 1.37524   3
   3   6  -5 19.9612 1.48688  32
   3   6  -5 16.8752 1.17792  30
   3   6  -5 17.1435 1.39366  19
   3   6  -5 16.0758 1.11222  13
  -3  -6   5 18.7428 1.44959  16
  -3  -6   5 16.5234 1.37325   8
  -3  -6   5 18.8696 1.34560  33
  -3  -6   5 14.7736 1.24899  17
  -3  -6   5 17.6090 1.33421  15
   2   6  -5 8.45521 0.80955  30
   2   6  -5 7.88261 1.02893  37
   2   6  -5 7.30930 1.01532  19
   2   6  -5 10.1550 0.98830  28
   2   6  -5 9.78162 0.94897  22
   2   6  -5 7.72840 0.87718  29
   2   6  -5 9.81477 1.01950   3
  -2  -6   5 6.31164 0.87910  11
  -2  -6   5 10.2822 0.98060   8
  -2  -6   5 7.30640 1.26273   7
  -2  -6   5 9.77965 1.04209  16
  -2  -6   5 6.73275 0.93127  33
   1   6  -5 468.907 19.4211  28
   1   6  -5 471.525 18.0870  30
   1   6  -5 410.290 18.3943  37
   1   6  -5 450.344 19.0955  29
   1   6  -5 482.865 19.6508  22
  -1  -6   5 450.132 21.9717   7
  -1  -6   5 444.300 16.4879  17
  -1  -6   5 446.907 16.0637  11
  -1  -6   5 464.913 20.4276   2
  -1  -6   5 468.407 15.8739  33
  -1  -6   5 421.932 21.6850  21
  -1  -6   5 462.010 17.0861  16
  -1  -6   5 453.301 15.7633  15
   0   6  -5 1236.55 49.0828  30
   0   6  -5 1285.41 52.5787  28
   0   6  -5 1290.98 53.2589  22
   0   6  -5 1223.84 51.6651  29
   0  -6   5 1239.22 42.3062  15
   0  -6   5 1220.20 58.5483  21
   0  -6   5 1268.49 42.5075  33
   0  -6   5 1238.96 44.3011  17
   0  -6   5 1241.99 45.7997  16
   0  -6   5 1223.16 59.0931   7
   0  -6   5 1253.77 43.1950  11
   0  -6   5 1290.92 54.7359   2
  -1   6  -5 242.003 10.8727  29
  -1   6  -5 253.542 11.0844  28
  -1   6  -5 254.055 11.1993  22
   1  -6   5 257.823 8.89627   1
   1  -6   5 257.801 12.8313  21
   1  -6   5 247.840 10.0491  16
   1  -6   5 267.266 9.21473  15
   1  -6   5 270.286 9.28971  33
   1  -6   5 258.820 9.42096  11
   1  -6   5 266.434 12.0147   2
   1  -6   5 266.160 13.0399   7
  -2   6  -5 1553.54 71.3859  28
  -2   6  -5 1520.29 69.9663  29
   2  -6   5 1752.22 54.5819   1
   2  -6   5 1771.76 74.2796   2
   2  -6   5 1762.09 80.2979   7
   2  -6   5 1780.31 57.6738  33
   2  -6   5 1624.64 62.1392  16
   2  -6   5 1772.45 58.6029  11
   2  -6   5 1806.99 79.5517  21
   3  -6   5 1.90217 0.43215  11
   3  -6   5 2.32242 0.72316   1
   3  -6   5 1.72850 0.64585  21
   3  -6   5 2.77460 0.90529   7
   3  -6   5 1.96971 0.50557  33
   4  -6   5 11.0479 1.35751   2
   4  -6   5 10.2175 1.12879   1
   4  -6   5 12.8106 1.33652  31
   4  -6   5 10.8324 1.55334  10
   5  -6   5 31.8772 2.17648  10
   5  -6   5 32.3363 1.94500  38
   5  -6   5 32.5879 1.97463  31
   5  -6   5 35.7687 1.68470   1
   6   5  -5 160.421 6.21842  19
  -6  -5   5 164.316 6.95199   8
   5   5  -5 7.58917 1.23706  19
   5   5  -5 8.95439 1.27738   8
   5   5  -5 11.1201 1.27432  32
   5   5  -5 11.0301 1.15782   3
  -5  -5   5 10.9421 1.25276   8
   4   5  -5 5.02252 0.92113  32
   4   5  -5 3.45982 0.73439   3
   4   5  -5 5.41576 1.02763  19
  -4  -5   5 6.74971 1.07696   8
  -4  -5   5 5.20440 0.93286  15
   3   5  -5 190.955 7.47793  19
   3   5  -5 191.930 8.57572  37
   3   5  -5 210.082 8.08621   3
   3   5  -5 178.960 9.93956  36
   3   5  -5 207.418 7.67458  32
   3   5  -5 203.118 7.73530  13
  -3  -5   5 189.875 7.20469  15
  -3  -5   5 187.004 7.21669  33
  -3  -5   5 209.962 8.47055   8
   2   5  -5 65.3417 2.86037  30
   2   5  -5 60.7155 2.69449  13
   2   5  -5 61.4973 2.77014  19
   2   5  -5 61.4543 2.94533   3
   2   5  -5 63.7663 3.13053  22
   2   5  -5 58.3423 3.06445  29
   2   5  -5 62.2425 3.15181  37
  -2  -5   5 61.5937 2.67423  15
  -2  -5   5 63.7105 3.03974   8
  -2  -5   5 63.8292 2.93624  16
  -2  -5   5 59.5213 3.62791   7
  -2  -5   5 58.7386 2.74936  17
  -2  -5   5 58.9218 2.69151  33
   1   5  -5 162.214 6.73775  22
   1   5  -5 153.722 6.57006  29
   1   5  -5 126.397 5.86668  13
   1   5  -5 154.199 6.66468  28
   1   5  -5 148.220 6.41968  37
   1   5  -5 151.593 6.14795  30
  -1  -5   5 139.963 5.57874  11
  -1  -5   5 153.723 6.04392  16
  -1  -5   5 151.009 5.53238  15
  -1  -5   5 147.378 7.70844   7
  -1  -5   5 135.954 7.51478  21
  -1  -5   5 150.609 6.24791   8
  -1  -5   5 149.401 7.17958   2
  -1  -5   5 144.084 5.75224  17
  -1  -5   5 154.394 5.57251  33
   0   5  -5 583.672 23.1579  28
   0   5  -5 570.173 22.7659  29
   0   5  -5 535.959 21.5562  30
   0   5  -5 581.998 23.4333  22
   0   5  -5 507.889 21.8876  37
   0  -5   5 549.327 18.7376  15
   0  -5   5 548.311 24.2391   2
   0  -5   5 544.901 18.8184  33
   0  -5   5 510.441 25.8942  21
   0  -5   5 530.640 19.1033  11
   0  -5   5 540.520 20.3209  16
   0  -5   5 542.671 26.2188   7
   0  -5   5 547.636 19.6229  17
  -1   5  -5 129.928 5.61199  29
  -1   5  -5 131.543 5.74333  22
  -1   5  -5 132.449 5.71200  28
   1  -5   5 121.757 6.74340  21
   1  -5   5 124.759 5.34504  16
   1  -5   5 131.409 4.85115  15
   1  -5   5 126.836 5.50349  31
   1  -5   5 134.238 6.35675   2
   1  -5   5 129.917 6.91880   7
   1  -5   5 133.188 4.90284  33
   1  -5   5 126.932 4.74095   1
   1  -5   5 133.765 4.99215  11
  -2   5  -5 1790.14 75.5569  29
  -2   5  -5 1792.11 76.8750  28
   2  -5   5 1874.00 68.8506  31
   2  -5   5 1836.70 85.2358  21
   2  -5   5 1955.53 79.6649   2
   2  -5   5 1728.84 66.6114  16
   2  -5   5 1867.04 62.8383  11
   2  -5   5 1888.39 61.8522  33
   2  -5   5 1760.22 58.4409   1
   2  -5   5 1819.34 86.0457   7
  -3   5  -5 3.25685 0.28243  28
   3  -5   5 4.24869 0.97962  21
   3  -5   5 2.89779 0.86376  10
   3  -5   5 2.28375 0.75947   1
   4  -5   5 392.021 19.3743  10
   4  -5   5 438.511 16.7708  38
   4  -5   5 422.578 16.7864  31
   4  -5   5 422.533 14.2515   1
   4  -5   5 454.489 19.3295   2
   4  -5   5 435.521 14.8591  33
   5  -5   5 185.220 7.70034  38
   5  -5   5 180.542 7.66674  31
   5  -5   5 188.355 8.80750  20
   5  -5   5 189.906 8.71514   2
   5  -5   5 170.202 8.90586  10
   5  -5   5 190.320 6.52500   1
   6  -5   5 201.290 9.41412  20
   6  -5   5 207.511 9.51296  10
   6  -5   5 190.226 8.10890  31
   6  -5   5 211.852 8.26060  38
   6   4  -5 370.099 15.4644   8
   6   4  -5 386.906 13.8401  19
   6   4  -5 381.647 12.5793   1
  -6  -4   5 410.784 16.5104  18
  -6  -4   5 363.198 15.4821   8
   5   4  -5 70.1341 3.27515   3
   5   4  -5 70.2919 3.28060  19
   5   4  -5 71.5377 3.32386  32
  -5  -4   5 68.9983 3.32328   3
  -5  -4   5 73.1149 3.69203  18
  -5  -4   5 69.5603 3.60013   8
   4   4  -5 65.5719 3.20809   3
   4   4  -5 71.4534 3.21116  19
   4   4  -5 63.9133 3.21161  32
   4   4  -5 61.7722 3.45036   8
  -4  -4   5 65.9083 3.44580   8
  -4  -4   5 66.9367 3.51098  18
   3   4  -5 612.038 25.1166  37
   3   4  -5 604.139 21.9636  19
   3   4  -5 642.804 23.6711   3
   3   4  -5 640.144 22.3276  32
  -3  -4   5 634.639 26.4294  18
  -3  -4   5 559.207 21.0965  15
  -3  -4   5 621.004 28.6481  36
  -3  -4   5 616.225 24.7452   8
   2   4  -5 384.114 19.5228  36
   2   4  -5 438.214 17.9825  22
   2   4  -5 411.856 15.9786   3
   2   4  -5 419.186 15.1037  32
   2   4  -5 408.037 15.7625  13
   2   4  -5 395.675 14.8043  19
   2   4  -5 428.353 16.9952  37
   2   4  -5 437.306 16.5434  30
  -2  -4   5 442.226 19.2902  36
  -2  -4   5 406.504 17.8498  18
  -2  -4   5 418.602 16.7034   8
  -2  -4   5 400.217 19.9348   7
  -2  -4   5 380.002 14.3312  33
  -2  -4   5 390.678 14.2954  15
  -2  -4   5 429.935 15.5877  16
   1   4  -5 38.8368 2.00101  29
   1   4  -5 36.9153 2.42582  35
   1   4  -5 38.6079 3.03063  27
   1   4  -5 38.5905 2.04694  37
   1   4  -5 36.1205 2.00539  28
   1   4  -5 40.7883 2.04008  22
   1   4  -5 37.3780 1.82570  30
  -1  -4   5 33.9577 3.09129   6
   0   4  -5 579.703 34.3145  27
   0   4  -5 548.137 22.3825  30
   0   4  -5 573.447 22.7778  37
   0   4  -5 537.485 26.3656  35
   0   4  -5 600.351 24.0183  28
   0   4  -5 602.321 23.6209  29
   0   4  -5 593.350 24.3134  22
   0  -4   5 503.030 34.9255   6
  -1   4  -5 89.6060 3.81497  29
  -1   4  -5 87.8896 3.88850  22
  -1   4  -5 88.1077 3.86990  28
  -1   4  -5 85.3829 4.55229  35
  -1   4  -5 88.8615 5.92373  27
   1  -4   5 77.0854 5.89131   6
  -2   4  -5 771.465 48.5649  27
  -2   4  -5 828.206 33.3788  29
  -2   4  -5 810.029 33.8514  28
   2  -4   5 836.622 27.5376  33
   2  -4   5 764.661 26.0387   1
   2  -4   5 862.602 35.5299   2
   2  -4   5 803.277 27.9411  11
   2  -4   5 782.241 37.9199  21
  -3   4  -5 122.706 5.20262  28
   3  -4   5 120.801 4.46184   1
   3  -4   5 126.800 6.01575   2
   3  -4   5 110.350 6.12302  10
   3  -4   5 123.058 4.58127  33
   3  -4   5 122.355 5.26901  31
   3  -4   5 121.796 4.61735  11
   3  -4   5 120.739 6.26944  21
  -4   4  -5 4.69635 0.38812  28
  -4   4  -5 5.98073 0.40580  29
   4  -4   5 5.21750 0.92913  38
   4  -4   5 6.17629 1.25620  10
   4  -4   5 4.98087 1.01918   2
   4  -4   5 5.27668 0.67500  11
  -5   4  -5 18.7243 1.00609  22
   5  -4   5 20.4286 1.71072  38
   5  -4   5 16.8160 1.60209   2
   5  -4   5 18.7793 1.73330  20
   5  -4   5 16.6342 2.04232  10
   5  -4   5 18.4025 1.14273  33
   6  -4   5 603.540 26.9315  20
   6  -4   5 614.964 26.7095   2
   6  -4   5 589.734 23.3487  38
   6  -4   5 600.551 23.1951  31
   6  -4   5 608.543 26.9201  10
   7  -4   5 71.9976 3.61290  10
   7  -4   5 73.2687 3.21454  38
   7  -4   5 62.4745 3.64695  20
   7  -4   5 68.6732 3.04517  31
   6   3  -5 105.633 4.40839  19
   6   3  -5 105.911 3.94782   1
   6   3  -5 103.534 4.80220   8
  -6  -3   5 111.165 4.51324   3
  -6  -3   5 114.869 5.10516  18
   5   3  -5 1.70220 0.76479  32
   5   3  -5 1.95779 0.73005  19
  -5  -3   5 0.96460 0.48350   3
  -5  -3   5 1.46808 0.60712   8
  -5  -3   5 1.01177 0.53808  18
   4   3  -5 41.1584 2.34856  19
   4   3  -5 37.6148 2.57536   8
   4   3  -5 50.0144 2.44681   3
   4   3  -5 40.3635 2.38251  32
  -4  -3   5 44.6731 2.30865   3
  -4  -3   5 40.7403 2.53450   8
  -4  -3   5 42.5816 2.53193  18
   3   3  -5 1008.80 33.2236  32
   3   3  -5 858.660 42.7681  36
   3   3  -5 980.763 35.1950   3
   3   3  -5 881.601 32.6442  19
   3   3  -5 933.282 37.3276  37
  -3  -3   5 969.585 39.3826  18
  -3  -3   5 917.622 35.1004   3
  -3  -3   5 898.736 42.6431  36
  -3  -3   5 884.605 36.7580   8
   2   3  -5 1342.30 49.6484   3
   2   3  -5 1278.31 60.2867  36
   2   3  -5 1347.78 46.7103  32
   2   3  -5 1138.33 55.0637   9
   2   3  -5 1360.83 52.6316  37
  -2  -3   5 1391.28 60.1351  36
  -2  -3   5 1386.42 55.7767  18
  -2  -3   5 1296.55 51.8199   8
   1   3  -5 1.30474 0.35213  22
   1   3  -5 0.76041 0.38156  37
   1   3  -5 1.19546 0.52224  36
   1   3  -5 0.82941 0.35332  29
   1   3  -5 1.32179 0.54945  27
   1   3  -5 0.93550 0.49839  35
  -1  -3   5 1.92909 0.73922   6
   0   3  -5 454.911 18.6236  28
   0   3  -5 450.212 17.7027  37
   0   3  -5 416.003 20.4647  35
   0   3  -5 412.429 17.3572  30
   0   3  -5 443.884 18.3040  29
   0   3  -5 455.694 18.8602  22
   0   3  -5 475.541 26.6322  27
   0  -3   5 399.185 27.0838   6
  -1   3  -5 19.8552 1.45506  35
  -1   3  -5 20.7645 1.88761  27
  -1   3  -5 21.1074 1.13750  28
  -1   3  -5 21.2692 1.13188  37
  -1   3  -5 20.2400 1.12237  22
  -1   3  -5 22.7421 1.13523  29
   1  -3   5 19.6072 1.87583   6
  -2   3  -5 7.67249 0.75951   4
  -2   3  -5 6.96484 0.50653  29
  -2   3  -5 7.24009 0.81536  35
  -3   3  -5 95.9321 7.04817  27
  -3   3  -5 114.508 4.69859  28
  -3   3  -5 102.129 5.01101   4
   3  -3   5 112.941 5.38009   2
   3  -3   5 116.353 4.15391  33
  -4   3  -5 91.9607 4.18115  29
  -4   3  -5 96.9228 4.26028  28
  -4   3  -5 96.3669 4.27715  22
   4  -3   5 96.1737 3.76468  11
   4  -3   5 98.1669 4.39431  31
   4  -3   5 100.211 3.78464  33
   4  -3   5 93.2399 4.42627  38
   4  -3   5 106.353 5.32408  10
   4  -3   5 98.9521 4.98848   2
  -5   3  -5 95.8085 4.45365  22
  -5   3  -5 91.5265 4.42548  28
   5  -3   5 104.311 5.30889  20
   5  -3   5 100.738 3.87598  33
   5  -3   5 104.348 4.62302  31
   5  -3   5 97.1181 4.69061  38
   5  -3   5 102.360 5.52608  10
   5  -3   5 103.994 5.18622   2
  -6   3  -5 1417.09 63.7738  22
   6  -3   5 1508.09 50.7395  33
   6  -3   5 1614.81 65.5106   2
   6  -3   5 1468.64 56.6291  31
   6  -3   5 1524.43 65.8905  20
   6  -3   5 1491.12 56.9711  38
   6  -3   5 1489.25 65.5459  10
  -7   3  -5 111.489 4.89058  30
   7  -3   5 120.819 5.05809  31
   7  -3   5 121.368 5.92558  10
   7  -3   5 120.576 5.23811  38
   7  -3   5 119.997 5.69875   2
   7  -3   5 115.085 5.93572  20
   6   2  -5 21.8018 1.21806   1
   6   2  -5 20.4816 1.39189   8
   6   2  -5 19.0829 1.45175  19
  -6  -2   5 22.0468 1.51390  18
  -6  -2   5 21.7751 1.28403   3
   5   2  -5 2.58719 0.65688   8
   5   2  -5 4.65626 0.95880   1
   5   2  -5 2.44807 0.81938  19
   5   2  -5 3.24386 0.79488  32
  -5  -2   5 1.51419 0.54073  18
  -5  -2   5 2.11879 0.56752   3
   4   2  -5 39.4817 2.37129   3
   4   2  -5 44.2820 2.52284  32
   4   2  -5 42.7810 2.47793  19
  -4  -2   5 43.5631 2.57066  18
  -4  -2   5 37.3834 2.46712   8
  -4  -2   5 44.1609 2.33740   3
   3   2  -5 343.731 17.2028  36
   3   2  -5 383.453 14.0691   3
   3   2  -5 361.608 14.7616   8
   3   2  -5 398.301 13.4756  32
   3   2  -5 342.893 13.1203  19
  -3  -2   5 372.978 15.7080  18
  -3  -2   5 326.006 14.7152   8
  -3  -2   5 351.602 13.9874   3
  -3  -2   5 358.662 17.1548  36
  -3  -2   5 345.679 14.8172  37
   2   2  -5 1192.30 42.3047  32
   2   2  -5 1158.63 54.5618  36
   2   2  -5 1262.90 47.6628  37
  -2  -2   5 1232.26 50.5602  18
  -2  -2   5 1227.22 54.4768  36
  -2  -2   5 1184.34 47.5031  37
  -2  -2   5 1082.56 72.6568   6
   1   2  -5 41.1233 1.95110  30
   1   2  -5 40.2726 2.11020  28
   1   2  -5 38.0918 3.02452  27
   1   2  -5 43.8879 2.59467  35
   1   2  -5 39.3704 2.12177  22
   1   2  -5 42.1025 2.14646  37
   1   2  -5 40.1222 2.09782  29
   1   2  -5 38.5718 2.50542  36
  -1  -2   5 40.7068 3.20156   6
  -1  -2   5 45.8162 2.43830  36
   0   2  -5 675.630 30.8590  24
   0   2  -5 675.329 31.0047  35
   0   2  -5 712.746 40.2390  27
   0   2  -5 660.833 35.3968  25
   0   2  -5 670.897 26.8482  37
   0   2  -5 653.036 30.7843  36
   0   2  -5 692.370 28.6846  22
   0   2  -5 649.845 28.2807  28
   0   2  -5 690.694 27.8252  29
   0   2  -5 628.744 26.4289  30
   0  -2   5 653.828 41.0529   6
   0  -2   5 688.636 30.6189  36
  -1   2  -5 136.320 6.88823  35
  -1   2  -5 139.858 6.14998  28
  -1   2  -5 143.364 6.06316  29
  -1   2  -5 142.130 6.22569  22
  -1   2  -5 144.363 8.96614  27
  -1   2  -5 148.058 5.91912  37
  -1   2  -5 134.862 6.75380  24
  -1   2  -5 142.745 7.76932  25
   1  -2   5 133.868 9.08579   6
  -2   2  -5 1250.55 71.1532  27
  -2   2  -5 1204.81 49.9436   4
  -2   2  -5 1269.35 50.0212  29
  -2   2  -5 1194.98 51.0778  22
  -2   2  -5 1189.44 50.5601  28
  -2   2  -5 1122.14 54.5946  35
   2  -2   5 1136.91 72.6484   6
  -3   2  -5 263.566 17.2501  27
  -3   2  -5 294.553 11.9597  28
  -3   2  -5 280.373 12.0725  22
  -3   2  -5 290.120 12.0954   4
  -4   2  -5 272.242 11.0397  29
  -4   2  -5 268.499 11.3342  22
  -4   2  -5 265.667 11.2174  28
   4  -2   5 246.409 12.2184  10
   4  -2   5 277.365 12.1016   2
   4  -2   5 265.774 9.28525  33
   4  -2   5 254.216 9.37652  11
   4  -2   5 246.300 10.5578  38
   4  -2   5 277.050 10.5216  31
  -5   2  -5 114.733 5.10831  28
  -5   2  -5 117.393 5.14400  22
  -5   2  -5 108.106 5.03329  29
   5  -2   5 112.274 4.35078  11
   5  -2   5 109.559 5.24334  38
   5  -2   5 116.109 4.38215  33
   5  -2   5 122.943 5.82688   2
   5  -2   5 115.871 5.08430  31
   5  -2   5 113.785 6.02643  10
   5  -2   5 123.633 5.97068  20
  -6   2  -5 582.298 25.5261  22
  -6   2  -5 558.765 23.5044  30
   6  -2   5 607.176 23.0060  31
   6  -2   5 618.700 26.8607  20
   6  -2   5 596.246 23.2625  38
   6  -2   5 612.646 20.4804  33
   6  -2   5 603.789 26.5077   2
   6  -2   5 587.823 26.6864  10
  -7   2  -5 19.7288 1.14120  30
   7  -2   5 18.7261 1.93547  20
   7  -2   5 21.5650 2.01226  10
   7  -2   5 20.5450 1.53478  31
   7  -2   5 19.9474 1.13483  33
   7  -2   5 21.4949 1.82990  38
   7  -2   5 21.6817 1.66247   2
  -8   2  -5 70.0806 2.90937  13
   8  -2   5 71.1425 3.11577  31
   8  -2   5 74.6747 3.27911  38
   8  -2   5 71.2167 3.65654  10
   8  -2   5 75.0179 3.81262  20
   6   1  -5 12.4170 1.13731  19
   6   1  -5 14.2683 1.03320   8
   6   1  -5 14.5067 0.99388   1
  -6  -1   5 15.6476 1.01473   3
  -6  -1   5 13.0947 1.07800  18
   5   1  -5 248.011 8.44746   1
   5   1  -5 236.983 10.1689   8
   5   1  -5 233.574 9.20520  19
   5   1  -5 234.528 9.23373  32
  -5  -1   5 253.455 10.8503  18
  -5  -1   5 245.437 9.70201   3
   4   1  -5 594.131 21.4010  32
   4   1  -5 574.620 23.6175   8
   4   1  -5 566.194 21.0930  19
  -4  -1   5 585.353 22.5373   3
  -4  -1   5 604.454 25.2407  18
   3   1  -5 238.983 8.91347  32
   3   1  -5 239.480 9.19090   3
   3   1  -5 225.892 8.68029  19
   3   1  -5 225.065 11.3325  36
  -3  -1   5 234.313 10.2874  18
  -3  -1   5 242.886 9.23597   3
  -3  -1   5 213.470 11.2768  36
  -3  -1   5 211.434 9.69615   8
  -3  -1   5 224.052 9.72503  37
   2   1  -5 82.2119 3.67953  32
   2   1  -5 86.3437 4.67018  36
   2   1  -5 84.5746 3.95874  37
  -2  -1   5 76.3098 4.05897  18
  -2  -1   5 85.2680 4.57334  36
  -2  -1   5 87.4554 3.88338  37
   1   1  -5 8.31190 1.00351  36
   1   1  -5 7.48812 1.08207  35
  -1  -1   5 8.91025 0.69531   5
  -1  -1   5 9.22113 0.94293  36
  -1  -1   5 8.18163 0.89606  24
   0   1  -5 993.628 54.1244  25
   0   1  -5 1038.76 42.5791  29
   0   1  -5 1036.07 47.0351  36
   0   1  -5 1021.05 47.3257  35
   0   1  -5 1093.83 61.4572  27
   0   1  -5 1075.97 41.4268  37
   0   1  -5 1026.48 43.8918  22
   0   1  -5 983.103 43.2965  28
   0   1  -5 1034.49 47.1929  24
   0  -1   5 1072.28 47.8865  36
   0  -1   5 1000.51 41.0190   5
   0  -1   5 1005.77 41.4701  37
   0  -1   5 1019.30 47.1573  24
   0  -1   5 1037.61 62.7175   6
  -1   1  -5 97.6267 4.50000  22
  -1   1  -5 99.0493 5.00148  36
  -1   1  -5 100.619 5.64701  25
  -1   1  -5 100.526 4.94157  24
  -1   1  -5 100.449 5.00568  35
  -1   1  -5 105.535 6.53351  27
  -1   1  -5 100.315 4.45885  28
  -1   1  -5 101.110 4.39403  29
  -1   1  -5 97.1827 4.30015  37
   1  -1   5 101.872 6.58294   6
   1  -1   5 97.6500 4.84172  36
  -2   1  -5 3.47433 0.77982  27
  -2   1  -5 3.79706 0.52403  35
  -2   1  -5 3.72214 0.37842  22
  -2   1  -5 3.07407 0.50682  25
   2  -1   5 4.22167 0.76278   6
  -3   1  -5 401.208 20.0575  24
  -3   1  -5 435.211 18.4269  28
  -3   1  -5 429.521 17.4904  37
  -3   1  -5 444.844 18.4124   4
  -3   1  -5 447.616 18.6587  22
  -3   1  -5 438.887 26.3776  27
  -3   1  -5 458.250 18.1362  29
  -4   1  -5 349.366 15.6403  37
  -4   1  -5 399.289 16.6960  22
  -4   1  -5 410.991 16.5098  28
  -4   1  -5 400.244 16.2329  29
  -5   1  -5 141.280 5.90959  28
  -5   1  -5 130.813 5.81118  29
  -5   1  -5 128.317 5.44800  30
  -5   1  -5 138.770 5.95130  22
   5  -1   5 138.222 6.68722  20
   5  -1   5 135.726 4.97311  33
   5  -1   5 138.062 5.71599  31
   5  -1   5 125.975 5.84047  38
   5  -1   5 127.121 4.95367  11
   5  -1   5 129.971 6.70323  10
   5  -1   5 139.127 6.52536   2
  -6   1  -5 21.1705 1.28593  22
  -6   1  -5 21.5102 1.35527  28
   6  -1   5 21.4847 1.78344   2
   6  -1   5 20.2013 1.57334  31
   6  -1   5 19.4979 1.77718  38
   6  -1   5 18.3959 1.96600  20
   6  -1   5 24.8534 2.13701  10
   6  -1   5 21.8943 1.24025  33
  -7   1  -5 94.1119 4.52303  22
  -7   1  -5 96.9520 4.14088  30
   7  -1   5 93.2393 5.30350  20
   7  -1   5 98.0748 4.63351  38
   7  -1   5 96.9561 4.38899  31
   7  -1   5 99.6018 3.74953  33
   7  -1   5 94.6078 5.15844  10
   7  -1   5 99.3927 4.98159   2
  -8   1  -5 57.9209 2.38511  13
   8  -1   5 57.8313 3.29930  20
   8  -1   5 56.9168 2.63520  31
   8  -1   5 56.9427 3.12021  10
   8  -1   5 48.8567 2.94216   2
   8  -1   5 58.9170 2.87033  38
   5   0  -5 477.251 19.2605   8
   5   0  -5 487.352 15.8599   1
   5   0  -5 461.200 17.2954  19
   5   0  -5 470.753 17.4181  32
  -5   0   5 488.767 18.4758   3
  -5   0   5 486.894 20.6551  18
   4   0  -5 485.321 19.5462   8
   4   0  -5 487.500 16.1153   1
   4   0  -5 474.808 17.7527  32
   4   0  -5 459.718 17.4816  19
  -4   0   5 485.544 18.6827   3
  -4   0   5 491.666 20.8816  18
   3   0  -5 112.791 4.77892  32
   3   0  -5 111.658 5.06267   8
   3   0  -5 106.324 4.56609  19
  -3   0   5 113.265 4.78816   3
  -3   0   5 111.560 5.30274  18
  -3   0   5 104.738 4.99967  37
  -3   0   5 96.9376 5.87070  36
   2   0  -5 268.129 10.9086  37
   2   0  -5 257.712 9.58526  19
   2   0  -5 266.165 12.5617  36
   2   0  -5 240.836 9.90371  14
   2   0  -5 262.366 9.82863  32
   2   0  -5 261.584 10.7819   8
  -2   0   5 259.991 10.2477   3
  -2   0   5 249.501 11.4428  18
  -2   0   5 257.342 12.5389  36
  -2   0   5 269.708 10.8389  37
   1   0  -5 161.313 7.62371  35
   1   0  -5 151.907 6.47207  37
   1   0  -5 148.498 7.47531  36
  -1   0   5 150.940 6.38945  37
  -1   0   5 149.474 7.42596  36
  -1   0   5 142.925 6.36003   5
   0   0  -5 11.5344 1.09755  36
   0   0  -5 13.5354 1.39066  27
   0   0  -5 11.9198 1.13993  35
   0   0  -5 14.2467 0.95195  37
   0   0   5 15.4043 0.90933   5
   0   0   5 11.4016 0.84075  37
   0   0   5 11.8062 0.98518  24
  -1   0  -5 43.3754 2.40078  24
  -1   0  -5 43.6312 2.11897  28
  -1   0  -5 46.4723 2.48254  35
  -1   0  -5 44.7126 2.47033  36
  -1   0  -5 46.8766 3.20482  27
  -1   0  -5 44.5466 2.10636  37
  -1   0  -5 43.7283 2.13909  22
  -1   0  -5 44.5115 2.09959  29
  -1   0  -5 42.0103 2.09487   4
  -1   0  -5 48.2383 2.76787  25
   1   0   5 43.9747 2.09482   5
   1   0   5 43.3556 2.36862  36
   1   0   5 45.0281 2.37197  24
   1   0   5 44.7992 3.09463   6
   1   0   5 42.1824 2.01843  37
  -2   0  -5 417.762 24.6362  27
  -2   0  -5 425.421 18.8650  24
  -2   0  -5 395.289 18.8064  36
  -2   0  -5 405.369 17.2464  28
  -2   0  -5 422.554 16.4038  37
  -2   0  -5 404.961 17.4687  22
  -2   0  -5 393.709 18.8430  35
  -2   0  -5 404.440 17.1143   4
  -2   0  -5 415.924 21.6127  25
   2   0   5 404.329 18.6844  36
   2   0   5 399.651 25.0378   6
  -3   0  -5 226.519 9.88938   4
  -3   0  -5 235.602 9.44130  37
  -3   0  -5 231.749 10.0036  22
  -3   0  -5 238.546 12.4340  25
  -3   0  -5 235.705 9.73429  29
  -3   0  -5 226.702 14.2312  27
  -3   0  -5 223.783 10.8287  24
  -4   0  -5 4264.94 199.608  28
  -4   0  -5 4090.61 171.731   4
  -4   0  -5 3993.55 161.205  30
  -4   0  -5 3932.17 245.296  27
  -4   0  -5 4130.17 175.034  22
  -4   0  -5 4026.95 163.797  37
  -4   0  -5 4347.31 170.214  29
  -5   0  -5 190.902 7.97058  29
  -5   0  -5 198.066 8.17006  22
  -5   0  -5 188.044 7.50387  30
  -5   0  -5 197.269 8.09305  28
  -5   0  -5 178.784 7.74460  37
   5   0   5 184.556 6.66824  33
   5   0   5 181.524 6.71975  11
   5   0   5 190.221 8.67870   2
   5   0   5 180.181 8.84697  20
   5   0   5 175.328 8.78484  10
   5   0   5 175.059 7.71271  38
   5   0   5 189.605 7.55984  31
  -6   0  -5 152.314 6.24152  30
  -6   0  -5 148.049 6.68652  29
  -6   0  -5 156.889 6.80871  22
  -6   0  -5 154.517 6.77921  28
   6   0   5 144.696 7.58249  20
   6   0   5 153.666 7.50038  10
   6   0   5 156.568 5.60751  33
   6   0   5 150.264 6.36592  31
   6   0   5 151.803 7.31321   2
   6   0   5 146.963 6.59453  38
  -7   0  -5 62.4402 3.16586  22
  -7   0  -5 64.6280 2.88195  30
   7   0   5 63.1658 3.14413  31
   7   0   5 62.8454 3.36790  38
   7   0   5 64.6041 3.56126   2
   7   0   5 65.8549 2.68502  33
   7   0   5 60.3502 3.69219  10
   7   0   5 64.7520 3.94793  20
  -8   0  -5 251.473 10.1559  30
  -8   0  -5 257.171 9.70659  13
   8   0   5 245.985 11.5023  10
   8   0   5 247.626 9.92183  31
   8   0   5 246.002 11.7622  20
   8   0   5 256.141 10.1256  38
   8   0   5 256.880 11.4882   2
   5  -1  -5 470.111 16.9837  19
   5  -1  -5 465.985 17.6302  16
   5  -1  -5 484.584 18.8117   8
   5  -1  -5 459.258 17.0776  32
   5  -1  -5 473.755 15.5325   1
  -5   1   5 470.500 18.1337   3
  -5   1   5 476.686 20.2775  18
   4  -1  -5 475.740 17.6978  32
   4  -1  -5 480.578 16.0572   1
   4  -1  -5 492.227 19.4341   8
   4  -1  -5 463.218 17.4331  19
  -4   1   5 476.445 18.6116   3
  -4   1   5 490.424 20.8107  18
   3  -1  -5 10.8166 1.18407   1
   3  -1  -5 8.42593 1.15312   8
   3  -1  -5 13.2832 1.39302  32
   3  -1  -5 13.5419 1.25328  19
  -3   1   5 8.69529 1.17968  18
  -3   1   5 13.1202 1.23385   3
   2  -1  -5 80.6105 4.46834  36
   2  -1  -5 80.6903 3.44858  19
   2  -1  -5 82.1928 3.83775   8
   2  -1  -5 80.2591 3.62198  32
   2  -1  -5 73.3146 3.54564  14
  -2   1   5 85.0508 3.66271   3
  -2   1   5 77.7694 4.00449  18
  -2   1   5 79.7487 3.78649  37
  -2   1   5 89.7873 3.33821  13
  -2   1   5 77.7944 4.49537  36
   1  -1  -5 651.974 29.4681  36
   1  -1  -5 619.719 29.7212  35
   1  -1  -5 655.429 25.7087  37
  -1   1   5 630.969 29.4384  36
  -1   1   5 636.407 25.6741   5
  -1   1   5 633.418 25.6147  37
   0  -1  -5 437.491 21.2966  24
   0  -1  -5 475.393 18.5608  37
   0  -1  -5 474.693 21.2974  36
   0  -1  -5 459.116 27.7092  27
   0  -1  -5 455.195 21.4340  35
   0   1   5 463.601 18.5289   5
   0   1   5 444.442 21.2724  24
   0   1   5 469.293 21.2400  36
   0   1   5 452.680 18.4610  37
  -1  -1  -5 107.501 5.99682  25
  -1  -1  -5 101.021 5.26809  35
  -1  -1  -5 102.469 6.82706  27
  -1  -1  -5 111.663 5.26609  24
  -1  -1  -5 102.665 4.59725   4
  -1  -1  -5 103.715 5.27053  36
   1   1   5 107.966 4.55833   5
   1   1   5 106.948 4.49709  37
   1   1   5 109.691 5.22963  36
   1   1   5 106.563 5.20822  24
  -2  -1  -5 60.6584 2.96816  22
  -2  -1  -5 70.4631 4.43597  27
  -2  -1  -5 61.0621 3.34979  36
  -2  -1  -5 60.2801 3.28669  35
  -2  -1  -5 65.9733 3.33823  24
  -2  -1  -5 60.1916 2.89550  29
  -2  -1  -5 61.4974 3.76319  25
  -2  -1  -5 62.7102 2.93236   4
  -2  -1  -5 64.6023 2.88134  37
   2   1   5 57.9437 4.22073   6
   2   1   5 61.7012 2.91418   5
   2   1   5 62.6573 3.27960  24
   2   1   5 66.6023 2.83365  37
   2   1   5 63.7099 3.27578  36
  -3  -1  -5 249.955 10.4762  30
  -3  -1  -5 272.650 14.1327  25
  -3  -1  -5 265.811 11.0485  29
  -3  -1  -5 263.953 11.1784   4
  -3  -1  -5 267.194 12.3385  24
  -3  -1  -5 272.376 10.7235  37
  -3  -1  -5 257.406 12.3284  36
  -3  -1  -5 256.958 16.1130  27
  -3  -1  -5 259.541 11.2247  28
  -3  -1  -5 262.359 11.3586  22
   3   1   5 263.645 12.2262  36
  -4  -1  -5 1196.82 72.3041  27
  -4  -1  -5 1186.73 48.0506  30
  -4  -1  -5 1223.43 53.1403  37
  -4  -1  -5 1196.75 50.4582   4
  -4  -1  -5 1258.90 50.7259  29
  -4  -1  -5 1228.55 56.5406  28
  -5  -1  -5 66.0430 2.98102  22
  -5  -1  -5 65.3243 2.94180  29
  -5  -1  -5 63.9882 2.93411  37
  -5  -1  -5 66.4489 2.96934  28
  -5  -1  -5 65.0148 2.73121  30
   5   1   5 60.2159 2.52774  11
   5   1   5 59.9514 3.05385  38
   5   1   5 53.2412 3.34106   2
   5   1   5 63.4888 3.58084  10
   5   1   5 62.1416 2.52783  33
  -6  -1  -5 457.933 17.8704  30
  -6  -1  -5 432.738 17.0832  13
  -6  -1  -5 471.509 19.4169  22
  -6  -1  -5 476.190 19.2281  28
  -6  -1  -5 424.958 18.2550  37
  -6  -1  -5 462.966 18.9305  29
   6   1   5 464.010 15.5709  33
   6   1   5 434.003 20.3937  20
   6   1   5 458.486 17.6623  38
   6   1   5 443.131 20.1681  10
   6   1   5 423.914 15.7027  11
   6   1   5 458.566 20.0905   2
   6   1   5 436.168 17.3499  31
  -7  -1  -5 77.7068 3.34740  30
  -7  -1  -5 74.4279 3.67298  22
   7   1   5 77.4470 3.06683  33
   7   1   5 73.4987 4.34805  20
   7   1   5 76.9517 4.03187   2
   7   1   5 73.6024 3.49879  31
   7   1   5 74.1889 3.74540  38
   7   1   5 72.7192 4.11677  10
  -8  -1  -5 574.400 19.4454  15
  -8  -1  -5 579.682 21.4756  13
  -8  -1  -5 566.453 22.4719  30
   8   1   5 575.877 25.0812   2
   8   1   5 584.755 25.5061  20
   8   1   5 526.597 21.5975  31
   8   1   5 559.852 21.8642  38
  -9  -1  -5 67.7593 2.76370  13
   9   1   5 69.9846 3.61411  20
   5  -2  -5 157.926 5.89226  19
   5  -2  -5 156.432 6.11569  16
   5  -2  -5 144.385 5.36406   1
  -5   2   5 155.377 6.20240   3
   4  -2  -5 108.803 4.72832  32
   4  -2  -5 103.766 4.25166   1
   4  -2  -5 105.624 4.62985  19
   4  -2  -5 117.570 4.91575   8
   4  -2  -5 112.572 4.90156  16
  -4   2   5 110.588 4.79230   3
  -4   2   5 104.665 5.22431  18
   3  -2  -5 33.8619 2.06011  19
   3  -2  -5 34.3654 2.21758  32
   3  -2  -5 33.1460 2.02429   8
   3  -2  -5 34.7697 1.98541   1
  -3   2   5 31.2401 1.95793   3
  -3   2   5 28.8025 2.05785  18
  -3   2   5 31.9916 1.55615  13
   2  -2  -5 238.657 11.4249  36
   2  -2  -5 242.090 8.88544  19
   2  -2  -5 226.628 9.10300  14
   2  -2  -5 251.723 9.91485   8
   2  -2  -5 237.777 9.10693  32
   2  -2  -5 238.442 8.23880   1
  -2   2   5 237.072 9.95621  37
  -2   2   5 220.681 11.5578  36
  -2   2   5 245.127 9.45391   3
  -2   2   5 223.139 10.4841  18
  -2   2   5 233.853 9.11269  13
   1  -2  -5 367.160 13.2836  32
   1  -2  -5 365.105 14.6024   8
   1  -2  -5 341.218 13.4109  14
   1  -2  -5 376.915 16.9785  36
  -1   2   5 359.615 17.0041  36
  -1   2   5 348.067 13.9132   3
  -1   2   5 363.923 14.7231  37
   0  -2  -5 2336.15 106.516  36
   0  -2  -5 2135.38 105.757  35
   0   2   5 2310.10 106.483  36
   0   2   5 2348.61 93.0171  37
   0   2   5 2394.07 93.0795   5
  -1  -2  -5 60.9102 3.19208  24
  -1  -2  -5 54.9405 3.21387  35
  -1  -2  -5 54.4595 4.13212  27
  -1  -2  -5 59.0091 2.73772  37
  -1  -2  -5 59.7190 3.23014  36
   1   2   5 60.4067 2.74763   5
   1   2   5 65.3687 3.21905  36
   1   2   5 59.3906 2.68824  37
   1   2   5 59.3916 3.14440  24
  -2  -2  -5 905.586 39.8061  24
  -2  -2  -5 900.725 44.0639  37
  -2  -2  -5 864.090 39.7891  35
  -2  -2  -5 820.145 51.7992  27
  -2  -2  -5 888.683 39.6221  36
  -2  -2  -5 854.493 37.5533   4
   2   2   5 893.887 39.5547  36
   2   2   5 872.739 34.6192   5
   2   2   5 846.970 34.6275  37
   2   2   5 858.020 39.7393  24
   2   2   5 843.712 38.6441  23
  -3  -2  -5 61.5104 2.71798  37
  -3  -2  -5 58.7248 2.60627  30
  -3  -2  -5 57.5681 2.70825  29
  -3  -2  -5 60.3057 3.56507  25
  -3  -2  -5 57.9818 3.16874  36
  -3  -2  -5 58.9033 2.76004  28
  -3  -2  -5 59.5392 2.77457   4
  -3  -2  -5 58.3418 4.15023  27
   3   2   5 58.0102 3.04208  23
   3   2   5 60.6366 3.11809  36
   3   2   5 57.1400 2.66442  37
   3   2   5 56.9853 3.11683  24
  -4  -2  -5 198.569 8.12308  37
  -4  -2  -5 200.623 8.46384  28
  -4  -2  -5 196.591 8.47236   4
  -4  -2  -5 190.962 9.38639  36
  -4  -2  -5 193.486 7.87494  30
  -4  -2  -5 199.511 8.55563  22
  -4  -2  -5 185.755 12.1994  27
  -4  -2  -5 196.101 8.32191  29
   4   2   5 196.810 9.28668  36
  -5  -2  -5 113.482 5.03017  28
  -5  -2  -5 115.798 5.07267  22
  -5  -2  -5 110.100 4.95398  29
  -5  -2  -5 114.905 4.91135  37
   5   2   5 108.841 4.18385  33
   5   2   5 106.721 4.20252  11
  -6  -2  -5 3.84612 0.53229  13
  -6  -2  -5 2.76134 0.57063  17
  -6  -2  -5 3.38928 0.62438  29
  -6  -2  -5 3.29233 0.69151  37
  -6  -2  -5 3.62363 0.77996   3
   6   2   5 4.03306 0.78265   8
   6   2   5 4.49754 0.90906   2
  -7  -2  -5 11.5856 0.89307  30
  -7  -2  -5 11.1979 1.08327  28
  -7  -2  -5 11.6715 1.14071   3
  -7  -2  -5 9.86787 0.90237  13
  -7  -2  -5 10.9155 0.98188  22
   7   2   5 9.70709 1.31935  38
   7   2   5 13.2607 0.93221  33
   7   2   5 12.2480 1.56537  20
   7   2   5 12.0274 1.03884   8
   7   2   5 10.6877 1.21514   2
  -8  -2  -5 828.312 31.1375  13
  -8  -2  -5 850.879 28.1467  15
  -8  -2  -5 833.655 31.3714   3
  -8  -2  -5 786.370 32.5728  30
   8   2   5 828.547 36.2291   2
   8   2   5 847.137 36.7184  20
   8   2   5 808.898 31.5162  38
  -9  -2  -5 53.5940 2.16936  13
  -9  -2  -5 48.6594 2.34596   3
   9   2   5 54.4019 3.00047  20
   4  -3  -5 41.8840 2.29840  16
   4  -3  -5 37.7037 1.97785   1
   4  -3  -5 40.5419 2.26155  32
   4  -3  -5 38.9988 2.16330  19
  -4   3   5 39.1605 2.11033   3
   3  -3  -5 110.785 4.93357  32
   3  -3  -5 116.982 5.06256   8
   3  -3  -5 111.941 4.41283   1
   3  -3  -5 109.448 4.74255  19
   3  -3  -5 112.541 5.09406  16
  -3   3   5 113.487 4.94324   3
  -3   3   5 116.522 4.57285  13
   2  -3  -5 24.3728 1.77089  14
   2  -3  -5 22.6449 1.53987   1
   2  -3  -5 25.6703 1.77498  32
   2  -3  -5 25.7655 1.63141  19
   2  -3  -5 24.9285 1.61918   8
   2  -3  -5 22.4015 1.67309  38
  -2   3   5 24.8176 1.29940  13
  -2   3   5 26.9536 1.62899   3
   1  -3  -5 578.773 26.2851  36
   1  -3  -5 569.326 20.5679  32
   1  -3  -5 576.688 22.6564   8
   1  -3  -5 543.268 21.8240  38
   1  -3  -5 582.290 20.1970  19
   1  -3  -5 562.787 20.8393  14
   1  -3  -5 555.454 18.5227   1
  -1   3   5 544.934 26.3874  36
  -1   3   5 571.996 21.6904   3
  -1   3   5 590.036 22.5030  30
  -1   3   5 546.515 21.4463  13
  -1   3   5 585.195 22.9523  37
   0  -3  -5 453.806 21.1357  36
   0   3   5 469.527 18.4039  37
   0   3   5 440.179 21.1498  36
  -1  -3  -5 560.178 24.6905  36
  -1  -3  -5 522.130 21.4837  37
  -1  -3  -5 516.664 32.2574  27
   1   3   5 530.933 24.6258  36
   1   3   5 541.049 23.9887  23
   1   3   5 542.932 21.4506  37
   1   3   5 523.314 21.5109   5
  -2  -3  -5 1221.36 54.3741  36
  -2  -3  -5 1070.33 69.9834  27
  -2  -3  -5 1223.95 47.4226  37
   2   3   5 1194.47 54.1140  36
   2   3   5 1182.66 52.2717  23
   2   3   5 1140.89 46.7537   5
   2   3   5 1189.71 47.2021  37
  -3  -3  -5 23.1896 1.29849  37
  -3  -3  -5 19.9118 2.02537  27
  -3  -3  -5 22.9574 1.27414   4
  -3  -3  -5 22.3518 1.55454  36
   3   3   5 22.8646 1.51161  36
   3   3   5 22.3104 1.26560  37
   3   3   5 21.6101 1.50187  24
  -4  -3  -5 175.048 8.38359  36
  -4  -3  -5 177.006 7.22473  37
  -4  -3  -5 170.063 7.50742   4
  -4  -3  -5 162.074 10.8737  27
   4   3   5 179.093 8.30076  36
   4   3   5 165.995 8.14458  23
  -5  -3  -5 118.902 5.22678  22
  -5  -3  -5 113.526 5.92065  36
  -5  -3  -5 110.822 4.54063  17
  -5  -3  -5 121.961 5.08441  37
  -5  -3  -5 109.930 4.56839  13
  -5  -3  -5 119.613 4.79646  30
  -5  -3  -5 101.750 7.50123  27
   5   3   5 120.438 5.79495  36
   5   3   5 117.363 4.31495  33
   5   3   5 112.338 5.05474   8
  -6  -3  -5 258.806 9.85546  17
  -6  -3  -5 268.183 11.1078  37
  -6  -3  -5 259.564 10.4653   3
  -6  -3  -5 271.285 11.6486  22
  -6  -3  -5 265.219 10.6925  30
   6   3   5 267.037 10.9788   8
   6   3   5 261.356 10.6321  38
   6   3   5 267.460 9.38397  33
  -7  -3  -5 46.1728 2.24897  30
  -7  -3  -5 48.4123 2.26857  15
  -7  -3  -5 46.1079 2.15624  13
  -7  -3  -5 47.3834 2.48133   3
   7   3   5 46.5552 2.11068  33
   7   3   5 47.2859 2.59154  38
   7   3   5 45.8508 3.03615  20
   7   3   5 48.2169 2.50449   8
   7   3   5 45.3645 2.70630   2
  -8  -3  -5 135.122 5.46807   3
  -8  -3  -5 127.540 5.08417  13
  -8  -3  -5 126.138 4.87881  15
   8   3   5 129.284 5.45285   8
   8   3   5 123.593 5.48801  38
   8   3   5 121.070 6.11012   2
   8   3   5 129.054 6.50782  20
  -9  -3  -5 16.6400 1.12036  15
  -9  -3  -5 18.3051 1.20543   3
   9   3   5 18.5023 1.60264  20
   4  -4  -5 3.87740 0.66441   1
   4  -4  -5 3.35590 0.57086  16
   4  -4  -5 4.96505 0.76656  32
   4  -4  -5 2.78858 0.66699  19
  -4   4   5 2.70649 0.52871   3
   3  -4  -5 203.861 8.40851  16
   3  -4  -5 206.803 8.16881  32
   3  -4  -5 196.461 7.91901  19
   3  -4  -5 220.202 8.58081   8
   3  -4  -5 203.160 7.30164   1
  -3   4   5 216.649 8.09638  13
  -3   4   5 210.173 8.40422   3
   2  -4  -5 148.297 5.64802   1
   2  -4  -5 157.557 6.64783  38
   2  -4  -5 160.939 6.19114  19
   2  -4  -5 163.386 6.64429  16
   2  -4  -5 155.260 6.45801  14
   2  -4  -5 168.236 6.74777   8
   2  -4  -5 155.200 6.38848  32
  -2   4   5 162.687 6.54514   3
  -2   4   5 137.453 6.60408  30
  -2   4   5 157.555 6.21737  13
   1  -4  -5 35.8989 2.07756   8
   1  -4  -5 40.8010 2.18521  32
   1  -4  -5 38.1023 2.24661  38
   1  -4  -5 41.6000 2.27221  14
   1  -4  -5 40.5323 2.03262  19
   1  -4  -5 41.0360 2.30006  16
  -1   4   5 34.8394 2.00293   3
  -1   4   5 36.5381 1.77354  13
  -1   4   5 36.1441 2.08483  37
  -1   4   5 36.9636 1.89252  30
   0  -4  -5 102.904 4.15489  32
   0  -4  -5 92.9766 4.20747  14
   0  -4  -5 99.2738 5.10261  36
   0  -4  -5 103.783 4.42939  38
   0  -4  -5 98.1975 4.39812   8
   0   4   5 91.1895 5.15403  36
   0   4   5 103.153 4.19479  30
   0   4   5 96.3583 4.17153   3
   0   4   5 99.3200 4.41693  37
   0   4   5 95.6953 3.96307  13
  -1  -4  -5 245.470 11.2118  36
  -1  -4  -5 209.482 14.6201  27
  -1  -4  -5 237.982 9.01869  14
   1   4   5 232.384 10.8249  23
   1   4   5 238.424 11.1952  36
   1   4   5 235.957 9.66473  37
  -2  -4  -5 1499.61 64.6707  36
  -2  -4  -5 1428.01 56.3046  37
  -2  -4  -5 1250.80 83.3372  27
   2   4   5 1410.37 62.2726  23
   2   4   5 1405.49 64.0946  36
   2   4   5 1359.47 55.6593   5
   2   4   5 1441.61 56.2145  37
  -3  -4  -5 40.0575 2.33258  36
  -3  -4  -5 31.9595 2.95032  27
  -3  -4  -5 38.8583 1.94101  37
   3   4   5 37.7007 1.91821  37
   3   4   5 35.1186 2.13511  23
   3   4   5 37.3422 1.92921   5
   3   4   5 38.7009 2.26879  36
  -4  -4  -5 811.542 36.6037  36
  -4  -4  -5 844.122 31.9125  37
  -4  -4  -5 778.324 33.2706   4
  -4  -4  -5 738.112 47.8274  27
   4   4   5 843.503 36.5542  36
   4   4   5 745.482 35.7403  23
   4   4   5 812.681 31.8957  37
  -5  -4  -5 174.785 8.78957  36
  -5  -4  -5 182.337 7.57456  37
  -5  -4  -5 180.092 6.81294  17
   5   4   5 178.756 7.56672   8
   5   4   5 167.358 6.35275  33
   5   4   5 178.955 8.69838  36
  -6  -4  -5 1129.82 40.5501  17
  -6  -4  -5 1102.90 43.1458   3
  -6  -4  -5 1094.23 52.4789  36
  -6  -4  -5 1190.56 38.7261  15
  -6  -4  -5 1152.79 42.9409  13
  -6  -4  -5 1185.76 45.7728  37
   6   4   5 1159.29 45.1278   8
   6   4   5 1128.83 52.1736  36
  -7  -4  -5 132.878 5.61914   3
  -7  -4  -5 132.337 5.05285  15
  -7  -4  -5 128.316 5.26186  17
  -7  -4  -5 131.201 5.23818  13
   7   4   5 125.144 5.63172  38
   7   4   5 137.089 5.86600   8
  -8  -4  -5 30.9218 1.92539   3
  -8  -4  -5 28.7896 1.47688  13
  -8  -4  -5 33.1304 1.76237  15
   8   4   5 29.9148 1.84849   8
   8   4   5 32.2139 2.36138  20
  -9  -4  -5 29.7264 1.65722   3
  -9  -4  -5 27.6505 1.50927  15
   9   4   5 31.0720 2.06342  20
   3  -5  -5 141.560 5.19038   1
   3  -5  -5 149.464 6.06086  16
   3  -5  -5 153.000 5.90034  32
  -3   5   5 139.528 5.95155   3
  -3   5   5 149.758 5.72844  13
   2  -5  -5 1198.42 42.4625  32
   2  -5  -5 1112.98 38.2006   1
   2  -5  -5 1205.14 41.7911  19
   2  -5  -5 1190.55 43.7792  16
   2  -5  -5 1233.23 46.7001   8
   2  -5  -5 1215.90 56.4936   7
   2  -5  -5 1175.89 45.0976  38
  -2   5   5 1197.02 44.9237   3
  -2   5   5 1183.72 44.7212  13
   1  -5  -5 293.553 11.0477  19
   1  -5  -5 299.391 11.3699  32
   1  -5  -5 304.006 11.5414  14
   1  -5  -5 297.871 11.9923  38
   1  -5  -5 298.994 12.2504   8
   1  -5  -5 303.812 11.6970  16
  -1   5   5 300.875 11.5524  13
  -1   5   5 300.166 12.1246  30
  -1   5   5 300.292 11.7995   3
   0  -5  -5 119.502 5.13726   8
   0  -5  -5 122.424 5.14192  38
   0  -5  -5 109.428 4.93077  16
   0  -5  -5 111.470 4.65995  19
   0  -5  -5 121.534 4.89042  32
   0  -5  -5 108.350 4.92354  14
   0   5   5 120.200 4.92585   3
   0   5   5 113.659 5.16285  37
   0   5   5 116.502 4.91197  30
   0   5   5 115.370 4.66192  13
  -1  -5  -5 4.79580 0.86166  14
  -1  -5  -5 2.84755 0.69041  36
  -1  -5  -5 3.10055 0.60705   8
  -1  -5  -5 2.25792 0.61801  20
  -1  -5  -5 4.65714 0.78710  32
  -1  -5  -5 4.77321 0.93543  26
   1   5   5 3.85278 0.69849   3
   1   5   5 2.62761 0.45849  13
   1   5   5 3.24367 0.49707  30
   1   5   5 2.97904 0.64873  37
  -2  -5  -5 529.864 19.4149  14
  -2  -5  -5 570.203 24.6406  36
  -2  -5  -5 506.581 23.5754  20
  -2  -5  -5 512.915 22.7062  26
  -2  -5  -5 540.267 21.1645   8
   2   5   5 512.491 20.0209  13
   2   5   5 540.317 24.5977  36
   2   5   5 540.766 21.4166  37
   2   5   5 515.975 20.1873   3
  -3  -5  -5 50.4800 2.97567  36
  -3  -5  -5 51.4782 2.50316  37
  -3  -5  -5 46.7325 2.82610  26
   3   5   5 50.1603 2.36113   3
   3   5   5 51.9380 2.51048  37
   3   5   5 49.0842 2.91358  36
  -4  -5  -5 160.302 7.22610   8
  -4  -5  -5 165.784 6.58440  17
  -4  -5  -5 183.354 8.54146  36
  -4  -5  -5 177.527 7.88383  26
  -4  -5  -5 174.921 7.30461  37
   4   5   5 163.647 6.86117   3
   4   5   5 171.693 8.43577  36
   4   5   5 171.323 7.30576  37
   4   5   5 169.572 7.32899   8
  -5  -5  -5 305.268 13.7832  26
  -5  -5  -5 305.004 11.0479  15
  -5  -5  -5 294.237 12.9155   8
  -5  -5  -5 341.831 13.1297  37
  -5  -5  -5 312.144 12.3271   3
  -5  -5  -5 325.897 15.1563  36
  -5  -5  -5 323.682 11.7337  17
   5   5   5 319.995 13.0182   8
   5   5   5 331.322 15.0795  36
   5   5   5 298.697 12.2635   3
  -6  -5  -5 1491.10 60.3247  37
  -6  -5  -5 1560.36 51.0490  15
  -6  -5  -5 1508.15 56.9285   3
  -6  -5  -5 1563.52 53.5274  17
   6   5   5 1426.77 68.8894  36
   6   5   5 1524.42 59.5060   8
  -7  -5  -5 272.720 10.4624  17
  -7  -5  -5 284.407 11.1366   3
  -7  -5  -5 281.508 9.98701  15
   7   5   5 279.570 11.6474   8
  -8  -5  -5 254.699 9.37785  15
  -8  -5  -5 270.161 10.4930   3
   8   5   5 266.780 12.2557  20
   8   5   5 260.662 10.8577   8
   9   5   5 2.19300 0.68785  20
   9   5   5 0.86383 0.32211   8
   2  -6  -5 500.385 17.9208  16
   2  -6  -5 471.709 22.9929   7
   2  -6  -5 469.989 17.3452  32
  -2   6   5 455.084 18.1638   3
  -2   6   5 476.351 17.9992  13
   1  -6  -5 421.387 16.1044  32
   1  -6  -5 439.044 17.4683   8
   1  -6  -5 445.578 16.3821  14
   1  -6  -5 447.900 21.6036   7
   1  -6  -5 430.073 16.5844  16
  -1   6   5 435.920 16.6626  13
  -1   6   5 447.542 16.9032   3
  -1   6   5 430.954 17.4709  30
   0  -6  -5 74.2218 3.27525   8
   0  -6  -5 65.5871 4.41044   7
   0  -6  -5 66.2823 3.21404  32
   0  -6  -5 66.2561 3.24608  16
   0  -6  -5 63.1146 3.29533  14
   0  -6  -5 69.1504 3.79796  20
   0   6   5 66.9839 2.89021  13
   0   6   5 67.1037 3.06278  30
   0   6   5 69.7303 3.16441   3
  -1  -6  -5 87.8349 3.74853  32
  -1  -6  -5 87.0344 4.50187  26
  -1  -6  -5 82.6270 4.49659  20
  -1  -6  -5 87.7585 3.94771   8
  -1  -6  -5 85.9134 3.86099  14
   1   6   5 80.4432 3.97108  37
   1   6   5 84.5319 3.74867   3
   1   6   5 83.3564 3.69580  30
   1   6   5 83.7538 3.50543  13
  -2  -6  -5 40.0266 2.10596   8
  -2  -6  -5 38.3436 2.41316  36
  -2  -6  -5 33.8731 2.40097  26
  -2  -6  -5 35.4918 2.06393  14
  -2  -6  -5 37.0970 2.38404  20
   2   6   5 38.7879 1.94605   3
   2   6   5 35.7710 2.43241  36
   2   6   5 37.6655 2.07972  37
   2   6   5 37.8583 1.73158  13
  -3  -6  -5 1.80011 0.53815  14
  -3  -6  -5 2.19251 0.70663  36
  -3  -6  -5 1.52488 0.69439  26
  -3  -6  -5 1.47384 0.44930   8
   3   6   5 1.74151 0.45483   3
   3   6   5 2.04613 0.57525  37
  -4  -6  -5 15.8525 1.49751  36
  -4  -6  -5 13.0394 1.12130   8
  -4  -6  -5 13.8000 1.07745   3
   4   6   5 13.5069 1.27084   8
   4   6   5 13.5222 1.36168  36
   4   6   5 12.1937 1.13394  37
   4   6   5 14.4517 1.15575   3
  -5  -6  -5 61.6374 3.16526   8
  -5  -6  -5 64.8192 3.50837  26
  -5  -6  -5 67.6821 3.03539  17
  -5  -6  -5 61.1971 2.96670   3
  -5  -6  -5 65.5865 3.83097  36
  -5  -6  -5 63.7563 3.18024  37
   5   6   5 61.6699 2.96413   3
   5   6   5 64.8472 3.75571  36
   5   6   5 61.0024 3.24986   8
  -6  -6  -5 1060.34 44.6553   8
  -6  -6  -5 1147.43 42.7750   3
  -6  -6  -5 1189.52 38.3507  15
  -6  -6  -5 1178.85 40.2813  17
   6   6   5 1102.29 44.7213   8
   6   6   5 1108.29 42.8300   3
  -7  -6  -5 125.402 4.86650  15
  -7  -6  -5 126.987 5.16596  17
  -7  -6  -5 126.296 5.39836   3
   7   6   5 124.729 5.69799   8
  -8  -6  -5 316.821 12.3964  17
  -8  -6  -5 344.336 11.9062  15
  -8  -6  -5 348.956 13.2715   3
   8   6   5 346.168 13.8535   8
  -9  -6  -5 57.7756 2.64611   3
  -9  -6  -5 59.4154 2.43309  15
   9   6   5 61.8612 3.17382  20
   9   6   5 53.4718 2.66071   8
   2  -7  -5 161.977 6.42179  16
   2  -7  -5 163.135 6.24529  32
   1  -7  -5 3.37832 0.69858  14
   1  -7  -5 4.40155 1.11761   7
   1  -7  -5 1.50808 0.53711  16
  -1   7   5 2.70937 0.38461  13
   0  -7  -5 435.104 21.4156   7
   0  -7  -5 438.307 17.3485   8
   0  -7  -5 422.698 16.4052  16
   0  -7  -5 426.169 19.5664  20
   0  -7  -5 428.587 15.9828  32
   0  -7  -5 427.945 16.2546  14
   0   7   5 450.281 16.5692  13
   0   7   5 433.608 17.3574  30
   0   7   5 447.938 16.7855   3
  -1  -7  -5 3.36673 0.75673   8
  -1  -7  -5 4.30458 0.97709  26
   1   7   5 4.51643 0.63188  30
   1   7   5 3.06453 0.56715  13
   1   7   5 2.35691 0.55289   3
  -2  -7  -5 494.262 22.0370  26
  -2  -7  -5 541.176 20.4691   8
  -2  -7  -5 489.063 24.7283   7
  -2  -7  -5 513.192 18.8731  14
  -2  -7  -5 527.571 22.9042  20
  -2  -7  -5 493.355 18.4623  32
   2   7   5 499.714 19.3128  13
   2   7   5 513.647 19.5591   3
  -3  -7  -5 118.952 6.11353  26
  -3  -7  -5 121.930 6.74465   7
  -3  -7  -5 129.186 5.54173   8
  -3  -7  -5 124.736 5.17645  14
   3   7   5 127.303 5.26309   3
   3   7   5 123.715 4.96851  13
  -4  -7  -5 597.470 26.5965  26
  -4  -7  -5 643.436 24.8331   8
  -4  -7  -5 601.409 22.3832  17
   4   7   5 639.442 23.7264   3
  -5  -7  -5 203.282 9.29265  26
  -5  -7  -5 206.337 7.85826  17
  -5  -7  -5 205.044 8.60424   8
   5   7   5 195.517 8.68410   8
   5   7   5 199.152 8.15128   3
  -6  -7  -5 161.912 7.51311  26
  -6  -7  -5 160.054 6.59682   3
  -6  -7  -5 149.708 6.92660   8
  -6  -7  -5 174.204 6.44576  17
   6   7   5 153.943 7.01513   8
   6   7   5 154.128 6.52756   3
   6   7   5 160.449 6.47350  12
  -7  -7  -5 63.3895 2.71645  15
  -7  -7  -5 60.6727 2.96433   3
  -7  -7  -5 60.9842 2.92160  17
  -7  -7  -5 60.4333 3.15023   8
   7   7   5 61.6647 3.19398   8
  -8  -7  -5 261.543 10.1184  17
  -8  -7  -5 287.010 9.71042  15
  -8  -7  -5 279.123 10.7749   3
   8   7   5 269.048 11.2813   8
  -9  -7  -5 48.8383 2.00643  15
  -9  -7  -5 44.7209 2.17186   3
   9   7   5 50.5701 2.64362  20
   9   7   5 47.6219 2.29068   8
   1  -8  -5 1.90781 0.47952  16
   1  -8  -5 3.60520 0.92884   7
   0  -8  -5 151.362 8.14512   7
   0  -8  -5 155.880 6.07144  32
   0  -8  -5 150.368 7.28186  20
   0  -8  -5 158.648 6.20936  14
   0  -8  -5 150.726 6.14597  16
   0   8   5 159.617 6.03895  13
   0   8   5 147.323 6.20258   3
  -1  -8  -5 10.2738 1.27247  20
  -1  -8  -5 10.4108 1.31078  14
  -1  -8  -5 9.58830 1.63316   7
  -1  -8  -5 9.63376 0.86911   8
  -1  -8  -5 8.80719 1.14968  32
  -1  -8  -5 9.78291 1.49058  21
   1   8   5 8.50731 1.02439   3
   1   8   5 10.0503 0.80283  13
  -2  -8  -5 398.401 19.3626   7
  -2  -8  -5 387.331 15.8198   8
  -2  -8  -5 388.471 17.2156  26
  -2  -8  -5 390.732 14.7566  14
  -2  -8  -5 370.079 19.1460  21
   2   8   5 404.365 14.9821  13
   2   8   5 406.654 15.2561   3
  -3  -8  -5 28.9314 1.78229   8
  -3  -8  -5 26.0906 2.31265   7
  -3  -8  -5 27.8706 2.28262  26
  -3  -8  -5 29.0979 1.90706  14
   3   8   5 28.7382 1.44289  13
   3   8   5 29.2195 1.77018   3
  -4  -8  -5 1046.99 39.6916   8
  -4  -8  -5 966.139 42.4281  26
  -4  -8  -5 995.557 36.2486  14
  -4  -8  -5 969.611 35.7139  17
   4   8   5 1033.57 36.5478  12
   4   8   5 1007.74 37.9804   3
  -5  -8  -5 112.654 5.76636  26
  -5  -8  -5 117.819 4.88744  17
  -5  -8  -5 115.710 5.28889   8
   5   8   5 120.289 5.05185   3
   5   8   5 119.365 4.81790  12
  -6  -8  -5 2.58362 0.78575  26
  -6  -8  -5 3.83974 0.76194  17
  -6  -8  -5 4.86402 0.91527   8
   6   8   5 5.00378 0.90227  12
   6   8   5 3.04451 0.77162   8
   6   8   5 3.19150 0.64470   3
  -7  -8  -5 24.3256 1.62540   8
  -7  -8  -5 24.0282 1.63963  17
   7   8   5 24.0348 1.49562  12
   7   8   5 23.6103 1.67508   8
   7   8   5 24.1333 1.48686   3
  -8  -8  -5 10.1761 0.96460   8
  -8  -8  -5 10.8057 1.03893  17
  -8  -8  -5 9.82639 0.90274  15
  -8  -8  -5 10.8035 0.92747   3
   8   8   5 9.83451 1.07418   8
   0  -9  -5 7.77927 1.24438   7
  -1  -9  -5 14.0965 1.30263  14
  -1  -9  -5 14.7444 1.65332   7
   1   9   5 15.6204 0.88364  13
   1   9   5 13.3173 1.12412   3
  -2  -9  -5 22.7191 1.85802  26
  -2  -9  -5 24.7939 1.69582  14
  -2  -9  -5 21.4775 2.04262  21
  -2  -9  -5 21.0476 2.01368   7
   2   9   5 23.0083 1.18986  13
   2   9   5 21.4932 1.51057   3
  -3  -9  -5 182.242 9.91358   7
  -3  -9  -5 201.054 8.99802  26
  -3  -9  -5 204.656 7.69624  14
  -3  -9  -5 188.407 8.07702   8
  -3  -9  -5 191.441 9.97352  21
   3   9   5 199.412 7.88631   3
  -4  -9  -5 737.526 26.9978  14
  -4  -9  -5 766.673 29.5013   8
  -4  -9  -5 757.171 31.6632  26
  -4  -9  -5 682.582 35.1832  21
   4   9   5 754.780 28.2829   3
   4   9   5 760.853 27.2019  12
  -5  -9  -5 100.162 4.20589  17
  -5  -9  -5 90.4829 5.51439  21
  -5  -9  -5 107.186 4.63462   8
  -5  -9  -5 98.5992 5.05595  26
   5   9   5 106.558 4.20781  12
   5   9   5 102.076 4.38361   3
  -6  -9  -5 146.344 5.68153  17
  -6  -9  -5 152.763 6.24340   8
  -6  -9  -5 128.456 6.60027  26
  -6  -9  -5 127.838 7.30660  21
   6   9   5 148.285 5.89780   3
   6   9   5 153.263 5.68460  12
  -7  -9  -5 4.31042 0.68666  17
  -7  -9  -5 4.63043 0.75107   8
   7   9   5 3.40860 0.53358  12
   7   9   5 3.48915 0.69612   3
   7   9   5 4.34187 0.82170   8
  -8  -9  -5 262.630 10.5520   8
  -8  -9  -5 257.646 9.47701  17
   8   9   5 258.122 10.5419   8
  -2 -10  -5 53.6467 2.45291  14
  -2 -10  -5 47.5854 3.10355   7
  -2 -10  -5 55.6807 3.14740  21
   2  10   5 54.5677 2.41358   3
  -3 -10  -5 42.2751 2.79786   7
  -3 -10  -5 43.6858 2.17498  14
  -3 -10  -5 47.7158 2.65671  26
  -3 -10  -5 46.8596 2.96926  21
   3  10   5 46.3006 2.12978  12
   3  10   5 46.0684 2.25105   3
  -4 -10  -5 219.204 9.14739   8
  -4 -10  -5 223.911 8.52587  14
  -4 -10  -5 204.543 11.1306  21
  -4 -10  -5 226.992 10.0583  26
   4  10   5 242.548 8.94610   3
   4  10   5 232.725 8.53598  12
  -5 -10  -5 95.0127 3.85952  17
  -5 -10  -5 91.3755 3.79934  11
  -5 -10  -5 99.5856 4.70991  26
  -5 -10  -5 97.2318 4.21454   8
  -5 -10  -5 84.1056 5.11932  21
   5  10   5 99.7758 4.10186   3
   5  10   5 101.010 3.90196  12
  -6 -10  -5 104.740 4.14010  17
  -6 -10  -5 108.489 4.52663   8
  -6 -10  -5 96.8687 4.84350  26
  -6 -10  -5 92.4054 5.36777  21
   6  10   5 106.006 4.12437  12
   6  10   5 108.802 4.31683   3
  -7 -10  -5 5.88414 0.72906  17
  -7 -10  -5 6.46233 0.71808   8
   7  10   5 8.55096 0.75190   3
   5  11   5 17.0577 1.10703   3
  -3 -10   6 409.270 14.1225  33
   2  10  -6 557.714 20.2003  13
   2  10  -6 540.888 19.1187  32
  -2 -10   6 531.605 18.5557  11
  -2 -10   6 507.468 18.3131  33
   1  10  -6 45.3886 1.92169  13
  -1 -10   6 43.7332 2.58052  21
  -1 -10   6 44.4706 1.94748  11
  -1 -10   6 42.4101 2.60046   7
  -1 -10   6 42.8682 2.08054  16
  -1 -10   6 41.4449 1.91982  33
   0  10  -6 15.1882 0.95359  13
   0 -10   6 16.7001 1.05539  11
   0 -10   6 17.0082 1.13595  16
   0 -10   6 20.4136 1.56976   7
   0 -10   6 20.6783 1.50702  21
   4   9  -6 12.9817 0.96692   3
   4   9  -6 14.8040 1.12466  32
  -4  -9   6 14.4370 0.96670  33
  -4  -9   6 13.8802 1.00939  15
  -4  -9   6 11.7696 1.24583   2
   3   9  -6 11.0634 0.93969   3
   3   9  -6 12.6092 0.81657  13
  -3  -9   6 11.1364 1.00010  33
  -3  -9   6 12.5605 1.06797  15
  -3  -9   6 10.6156 1.21152   2
   2   9  -6 10.8967 0.84978  30
  -2  -9   6 11.0819 1.29002   7
  -2  -9   6 10.4163 1.01429  11
  -2  -9   6 9.19288 1.03427  15
  -2  -9   6 9.67775 1.03207  33
  -2  -9   6 8.91099 1.21613   2
   1   9  -6 41.9998 1.90479  13
   1   9  -6 39.5836 1.97682  30
  -1  -9   6 39.7826 2.15079  16
  -1  -9   6 39.5580 2.01914  33
  -1  -9   6 39.5463 2.00158  11
  -1  -9   6 42.3527 2.67938  21
  -1  -9   6 40.3899 2.70614   7
   0   9  -6 27.0477 1.46526  30
   0  -9   6 27.6471 1.60458  33
   0  -9   6 28.4957 2.21297   7
   0  -9   6 28.5901 1.60946  11
   0  -9   6 32.4646 2.24318  21
   0  -9   6 31.1177 1.80649  16
   1  -9   6 375.397 14.4758  16
   1  -9   6 392.878 13.6779  11
   1  -9   6 390.076 18.5388  21
   1  -9   6 367.230 13.4117  33
   1  -9   6 407.588 18.7793   7
   2  -9   6 782.972 27.0610  11
   2  -9   6 785.971 36.7241  21
   5   8  -6 14.3345 0.98587   3
   4   8  -6 35.7578 1.97975   3
   4   8  -6 35.8855 1.86687  19
   4   8  -6 37.4968 1.99155  32
  -4  -8   6 39.0478 1.85864  15
  -4  -8   6 36.4732 2.35490   2
  -4  -8   6 38.2889 1.79009  33
  -4  -8   6 39.2920 1.90091   8
   3   8  -6 0.52345 0.59745  19
   2   8  -6 420.280 16.4857  30
   2   8  -6 374.330 15.8806   3
   2   8  -6 429.748 15.7377  13
   2   8  -6 364.587 17.9144  22
  -2  -8   6 435.338 14.4313  15
  -2  -8   6 419.429 15.5170  16
  -2  -8   6 426.698 14.4800  33
  -2  -8   6 414.656 18.6211   2
  -2  -8   6 416.823 14.5709  11
  -2  -8   6 406.422 19.8714   7
   1   8  -6 88.8327 4.43941  22
   1   8  -6 93.8738 4.09350  30
   1   8  -6 90.8510 3.88065  13
  -1  -8   6 96.1534 4.15003  16
  -1  -8   6 91.3304 4.98197   2
  -1  -8   6 89.3396 3.82339  33
  -1  -8   6 92.1571 3.82198  15
  -1  -8   6 96.4660 5.29242   7
  -1  -8   6 96.4575 3.87868  11
  -1  -8   6 97.7980 5.21240  21
   0   8  -6 455.861 18.9173  30
   0   8  -6 430.209 20.5083  22
   0  -8   6 484.028 23.0980   7
   0  -8   6 482.951 16.6333  33
   0  -8   6 489.159 17.9083  16
   0  -8   6 467.620 21.3981   2
   0  -8   6 507.315 22.9077  21
   0  -8   6 488.314 16.8847  11
  -1   8  -6 514.572 21.1898  30
   1  -8   6 546.622 18.5739  33
   1  -8   6 562.129 25.6270  21
   1  -8   6 554.883 18.8761  11
   1  -8   6 535.701 25.8499   7
   1  -8   6 546.979 20.0281  16
   1  -8   6 488.049 24.0294   2
   2  -8   6 833.528 29.1380  11
   2  -8   6 826.851 30.9336  16
   2  -8   6 859.659 39.5720  21
   2  -8   6 889.386 40.0105   7
   2  -8   6 797.238 28.6582  33
   3  -8   6 17.3529 1.37710  21
   3  -8   6 16.7105 0.98944  11
   5   7  -6 176.757 6.77256  19
   5   7  -6 172.509 7.21069   3
   5   7  -6 178.154 6.84529  32
  -5  -7   6 187.535 7.56778   8
  -5  -7   6 194.228 8.50723   2
   4   7  -6 63.2986 2.96681  19
   4   7  -6 64.8984 3.06637  32
   4   7  -6 68.0318 3.16781   3
  -4  -7   6 62.8699 2.80198  33
  -4  -7   6 66.9088 3.73338   2
  -4  -7   6 70.6736 2.89459  15
  -4  -7   6 73.2807 3.26347   8
   3   7  -6 113.469 5.11527   3
   3   7  -6 116.635 4.77872  19
   3   7  -6 118.082 4.83375  13
   3   7  -6 119.259 4.92827  32
  -3  -7   6 124.633 5.25698   8
  -3  -7   6 125.571 6.13298   2
  -3  -7   6 118.303 4.68712  33
  -3  -7   6 118.531 4.69181  15
   2   7  -6 17.2246 1.17932  30
   2   7  -6 15.5410 1.26853  22
   2   7  -6 18.3761 1.37350   3
   2   7  -6 16.0849 1.11960  13
  -2  -7   6 16.9362 1.69710   2
  -2  -7   6 20.4335 1.48971  16
  -2  -7   6 14.7064 1.33421  15
  -2  -7   6 21.2466 1.42980  33
  -2  -7   6 16.5271 1.71072   7
   1   7  -6 93.1613 4.02471  13
   1   7  -6 97.2024 4.24954  30
   1   7  -6 93.6429 4.62407  22
  -1  -7   6 99.3715 4.00395  15
  -1  -7   6 98.3581 4.30046  16
  -1  -7   6 93.8724 5.30146  21
  -1  -7   6 100.370 5.22528   2
  -1  -7   6 97.0501 4.01175  33
  -1  -7   6 94.6711 3.98478  11
  -1  -7   6 102.690 5.51874   7
   0   7  -6 51.3327 2.72187  22
   0  -7   6 51.4857 3.38504  21
   0  -7   6 52.2469 2.53168  11
   0  -7   6 57.7243 2.79998  16
   0  -7   6 54.5647 3.30252   2
   0  -7   6 50.2767 2.46472  15
   0  -7   6 56.9520 3.58255   7
   0  -7   6 52.1309 2.48986  33
  -1   7  -6 161.273 7.56569  22
  -1   7  -6 167.904 6.96742  30
   1  -7   6 173.260 6.50349  11
   1  -7   6 172.454 6.39747  33
   1  -7   6 169.920 8.28164   2
   1  -7   6 169.939 8.94697   7
   1  -7   6 171.850 6.93808  16
   1  -7   6 173.577 8.84544  21
  -2   7  -6 649.097 31.5884  22
   2  -7   6 794.818 35.1732  21
   2  -7   6 752.021 35.4755   7
   2  -7   6 780.145 25.8843  11
   2  -7   6 740.375 32.8281   2
   2  -7   6 725.851 27.4395  16
   2  -7   6 750.700 25.4524  33
   3  -7   6 2.14203 0.48627  33
   3  -7   6 1.17278 0.40546  11
   3  -7   6 1.15966 0.74491   7
   3  -7   6 1.16936 0.60793  21
   3  -7   6 1.24878 0.61005   2
   5   6  -6 40.8788 2.16514  32
   5   6  -6 43.4410 2.16714  19
   5   6  -6 40.2939 2.10436   3
  -5  -6   6 44.4703 2.28611   8
   4   6  -6 53.3851 2.69410   3
   4   6  -6 51.8665 2.57215  19
   4   6  -6 52.4061 2.70606  32
  -4  -6   6 58.5749 2.87548   8
  -4  -6   6 51.1427 2.43529  15
   3   6  -6 141.020 5.65382  32
   3   6  -6 138.460 5.87950   3
   3   6  -6 132.724 5.45657  19
   3   6  -6 136.627 5.52527  13
  -3  -6   6 133.250 5.29393  33
  -3  -6   6 142.250 6.11069   8
  -3  -6   6 140.135 5.33523  15
   2   6  -6 55.6789 3.00419  22
   2   6  -6 58.0094 2.83768  32
   2   6  -6 57.7953 2.60236  13
   2   6  -6 56.3660 2.72776  30
   2   6  -6 58.2633 2.86341   3
  -2  -6   6 55.0108 2.65147  15
  -2  -6   6 62.8286 2.91328   8
  -2  -6   6 54.6073 2.64101  33
  -2  -6   6 55.9793 3.53756   7
  -2  -6   6 55.2680 3.48027   2
  -2  -6   6 61.2775 2.90290  16
   1   6  -6 438.656 17.2330  13
   1   6  -6 472.829 18.0825  30
   1   6  -6 437.738 19.3926  28
   1   6  -6 466.946 19.6338  22
  -1  -6   6 454.241 21.9276   7
  -1  -6   6 466.003 17.0564  16
  -1  -6   6 455.255 15.7685  15
  -1  -6   6 464.669 20.4403   2
  -1  -6   6 455.334 15.8281  33
  -1  -6   6 418.815 15.9596  11
  -1  -6   6 435.764 21.6175  21
   0   6  -6 941.701 39.5254  22
   0   6  -6 889.993 39.0015  28
   0   6  -6 935.148 36.4210  30
   0   6  -6 873.135 38.3626  29
   0  -6   6 931.337 34.0490  16
   0  -6   6 939.827 40.7371   2
   0  -6   6 913.764 43.4991  21
   0  -6   6 956.587 43.9773   7
   0  -6   6 949.300 31.4930  15
   0  -6   6 911.198 31.6055  33
   0  -6   6 921.302 32.0947  11
  -1   6  -6 0.89716 0.33222  22
   1  -6   6 0.73859 0.69119   2
   1  -6   6 0.38943 0.73045   7
   1  -6   6 0.43218 0.61196  21
   1  -6   6 0.67272 0.57069  16
   1  -6   6 0.44413 0.48722  33
   1  -6   6 0.95826 0.44332  11
   1  -6   6 0.07940 0.28467  15
  -2   6  -6 5.05222 0.49109  28
   2  -6   6 4.05231 0.66004  33
   2  -6   6 3.72654 0.78210  31
   2  -6   6 5.80554 1.16035  21
   2  -6   6 3.14861 1.05589   7
   2  -6   6 4.52226 0.76014  11
   3  -6   6 123.709 4.66227   1
   3  -6   6 120.299 6.16751   2
   3  -6   6 125.484 4.76451  11
   3  -6   6 126.968 6.66846   7
   3  -6   6 120.030 5.41765  31
   3  -6   6 118.878 4.68460  33
   3  -6   6 122.616 6.48821  21
   4  -6   6 111.820 4.15530   1
   4  -6   6 106.833 4.14133  33
   4  -6   6 111.543 5.49966   2
   4  -6   6 108.322 4.15669  11
   4  -6   6 105.250 4.82745  31
   5  -6   6 5.83744 0.97170  31
   5   5  -6 9.24087 0.98711   3
   5   5  -6 8.01236 1.21950  19
  -5  -5   6 9.55810 1.06653   8
   4   5  -6 83.6060 3.85312   3
   4   5  -6 85.2656 3.81936  32
   4   5  -6 78.8911 3.64771  19
  -4  -5   6 83.0151 4.39447  18
  -4  -5   6 87.6589 4.10313   8
   3   5  -6 57.2725 2.87710  32
   3   5  -6 52.9699 2.68463  19
   3   5  -6 60.1148 2.91370   3
  -3  -5   6 54.8056 2.56893  15
  -3  -5   6 54.5804 2.96427   8
   2   5  -6 522.853 19.5045   3
   2   5  -6 503.673 19.2117  13
   2   5  -6 520.719 18.4062  32
   2   5  -6 511.405 20.1360  30
   2   5  -6 490.159 20.8596  37
  -2  -5   6 480.953 17.4504  15
  -2  -5   6 469.897 17.4905  33
  -2  -5   6 496.600 24.2701   7
  -2  -5   6 537.973 20.3225   8
   1   5  -6 770.734 31.2796  22
   1   5  -6 764.694 28.8152  30
   1   5  -6 704.636 27.4960  13
   1   5  -6 721.886 30.3681  29
   1   5  -6 685.044 27.6619   3
   1   5  -6 676.241 29.2950  37
   1   5  -6 734.389 30.8810  28
  -1  -5   6 728.122 24.9819  33
  -1  -5   6 724.047 32.1979   2
  -1  -5   6 752.500 34.7343   7
  -1  -5   6 757.671 28.7895   8
  -1  -5   6 671.033 34.2293  21
  -1  -5   6 718.088 24.8872  15
  -1  -5   6 767.524 26.9653  16
   0   5  -6 1358.22 52.2837  30
   0   5  -6 1336.81 55.9672  28
   0   5  -6 1329.28 55.0132  29
   0   5  -6 1374.47 56.7085  22
   0   5  -6 1176.74 52.9016  37
   0  -5   6 1289.85 62.1714  21
   0  -5   6 1351.73 50.2100  31
   0  -5   6 1288.22 45.8464  11
   0  -5   6 1364.41 45.1781  33
   0  -5   6 1338.48 44.9937  15
   0  -5   6 1366.72 62.8297   7
   0  -5   6 1368.96 48.6690  16
   0  -5   6 1357.67 58.1608   2
  -1   5  -6 10.7672 0.83027  28
  -1   5  -6 10.7186 0.81869  22
  -1   5  -6 9.34556 0.77432  29
  -1   5  -6 8.26671 0.68076  30
   1  -5   6 9.27428 0.90436  33
   1  -5   6 8.41752 0.90963  15
   1  -5   6 9.70994 0.91319  11
   1  -5   6 7.80406 1.13042  31
   1  -5   6 9.84365 1.21002   2
   1  -5   6 8.85610 1.36138   7
   1  -5   6 9.62168 1.31794  21
  -2   5  -6 49.1598 2.31388  28
  -2   5  -6 48.6221 2.33697  22
  -2   5  -6 45.8852 2.24555  29
   2  -5   6 48.0024 3.19321   7
   2  -5   6 47.1194 2.61601  31
   2  -5   6 50.4127 2.97596   2
   2  -5   6 48.1453 2.21977  33
   2  -5   6 47.0230 2.24751  11
  -3   5  -6 75.4025 3.61175  22
  -3   5  -6 71.9759 3.53485  28
   3  -5   6 83.8765 4.69995   7
   3  -5   6 84.8407 3.32713  33
   3  -5   6 82.3798 4.36595   2
   3  -5   6 80.9657 3.88390  31
   3  -5   6 81.0839 4.56641  21
   3  -5   6 80.6094 3.28850   1
   3  -5   6 82.5494 3.34961  11
   4  -5   6 2.70419 0.78580   2
   4  -5   6 2.51272 0.72088   1
   4  -5   6 1.29491 0.95949  10
   4  -5   6 2.85155 0.52639  33
   5  -5   6 2.03519 0.71528   2
   5  -5   6 1.45420 0.84728  10
   5  -5   6 1.99810 0.41779  33
   5  -5   6 1.12097 0.67472  31
   5  -5   6 3.00361 0.78282  38
   6  -5   6 32.6782 1.76895  31
   6  -5   6 30.5356 1.75508  38
   6  -5   6 28.9086 2.08765  10
   6  -5   6 24.9069 1.76708   2
   5   4  -6 240.403 10.4324   8
   5   4  -6 251.754 9.43641  32
   5   4  -6 243.938 9.31429  19
  -5  -4   6 270.714 11.1145  18
  -5  -4   6 246.653 10.4643   8
   4   4  -6 30.7218 1.87974   3
   4   4  -6 31.1213 2.03792  32
   4   4  -6 26.9715 1.86769  19
  -4  -4   6 31.0021 2.02426   8
  -4  -4   6 29.7128 2.03620  18
   3   4  -6 5.79207 1.13804  19
   3   4  -6 3.73344 0.83697  32
   3   4  -6 3.06211 0.66021  14
   3   4  -6 3.83968 0.76652   3
  -3  -4   6 4.35804 0.96454   8
  -3  -4   6 5.13439 1.03744  18
   2   4  -6 4.30163 0.83683  32
   2   4  -6 4.00571 1.00740  36
  -2  -4   6 3.85024 0.94415   7
  -2  -4   6 3.19432 0.64981   8
   1   4  -6 399.108 16.2262  13
   1   4  -6 432.202 18.2791  28
   1   4  -6 430.079 17.4601  37
   1   4  -6 426.889 15.5430  32
   1   4  -6 439.922 18.5040  22
   1   4  -6 449.209 17.0447  30
   1   4  -6 419.903 17.9808  29
   1   4  -6 417.791 16.4368   3
  -1  -4   6 398.565 18.4024  18
  -1  -4   6 417.424 14.7584  15
  -1  -4   6 435.272 20.6600   7
  -1  -4   6 416.377 14.7942  33
  -1  -4   6 449.680 16.0758  16
  -1  -4   6 418.142 17.0926   8
   0   4  -6 1277.32 52.0725  37
   0   4  -6 1323.87 51.3792  30
   0   4  -6 1376.26 55.0078  28
   0   4  -6 1380.22 55.7331  22
   0   4  -6 1344.75 54.0664  29
   0  -4   6 1256.98 55.2586  18
   0  -4   6 1343.92 49.3087  31
   0  -4   6 1306.16 44.3166  33
   0  -4   6 1295.82 57.0558   2
   0  -4   6 1373.98 47.8096  16
   0  -4   6 1231.38 44.9768  11
   0  -4   6 1297.22 44.1584  15
   0  -4   6 1276.92 51.1890   8
   0  -4   6 1216.84 61.0111  21
   0  -4   6 1317.11 61.6880   7
  -1   4  -6 9.31526 0.73137  22
  -1   4  -6 7.46797 0.69490  29
  -1   4  -6 8.97218 0.74643  28
   1  -4   6 6.43724 0.91638  31
   1  -4   6 7.70845 1.09668  21
   1  -4   6 10.1152 1.12189   2
   1  -4   6 9.30136 0.84054  11
   1  -4   6 7.16817 0.80893  15
   1  -4   6 6.53149 1.03655  18
   1  -4   6 9.47339 1.34761   7
   1  -4   6 6.13104 0.98215  16
   1  -4   6 8.11967 0.84374  33
  -2   4  -6 165.386 7.24865  22
  -2   4  -6 166.546 7.17129  28
  -2   4  -6 171.592 7.06705  29
   2  -4   6 153.988 7.61046  18
   2  -4   6 166.238 8.53244   7
   2  -4   6 164.536 6.07147  33
   2  -4   6 170.105 7.90187   2
   2  -4   6 160.839 6.84731  31
   2  -4   6 164.435 6.14507  11
   2  -4   6 163.918 8.37582  21
  -3   4  -6 320.218 13.8827  22
  -3   4  -6 316.155 13.7091  28
   3  -4   6 332.412 15.8757   7
   3  -4   6 332.486 11.5635  11
   3  -4   6 291.669 14.8112  10
   3  -4   6 333.886 14.7795   2
   3  -4   6 340.191 11.4194  33
   3  -4   6 311.209 14.3235  18
   3  -4   6 323.695 15.6651  21
   3  -4   6 329.437 12.8475  31
  -4   4  -6 637.036 28.8841  28
  -4   4  -6 670.410 29.2898  22
   4  -4   6 709.299 32.4577  21
   4  -4   6 714.287 30.5484   2
   4  -4   6 729.233 23.6382  33
   4  -4   6 628.632 30.5972  10
   4  -4   6 696.757 22.5361   1
   4  -4   6 672.417 26.4304  38
   4  -4   6 716.072 26.4971  31
   4  -4   6 709.606 23.9605  11
  -5   4  -6 2.50958 0.34693  22
   5  -4   6 2.91456 0.82629  38
   5  -4   6 2.18393 0.75651   2
   5  -4   6 3.75285 0.61707  11
   5  -4   6 1.80904 0.44815  33
   5  -4   6 2.28764 0.69975  31
   5  -4   6 4.54366 1.18309  10
   6  -4   6 124.193 5.40541  38
   6  -4   6 121.655 6.28243  10
   6  -4   6 123.192 5.32296  31
   6  -4   6 119.049 4.51752  33
   6  -4   6 125.193 6.01269   2
   7  -4   6 6.71840 1.18110  10
   5   3  -6 342.077 12.5318  32
   5   3  -6 329.964 12.3652  19
   5   3  -6 331.842 13.8634   8
  -5  -3   6 333.163 13.1199   3
  -5  -3   6 364.123 14.8190  18
  -5  -3   6 331.966 13.9082   8
   4   3  -6 224.051 8.91932  19
   4   3  -6 221.291 10.0000   8
   4   3  -6 240.866 9.14620  32
   4   3  -6 242.022 9.46612   3
  -4  -3   6 224.482 10.0155   8
  -4  -3   6 257.242 10.6532  18
   3   3  -6 203.361 8.35495  19
   3   3  -6 229.806 8.97498   3
   3   3  -6 225.361 8.62043  32
  -3  -3   6 212.522 9.42490   8
  -3  -3   6 228.254 9.99938  18
   2   3  -6 134.177 7.74882  36
   2   3  -6 153.082 5.98022  13
   2   3  -6 151.902 6.28347   3
   2   3  -6 148.046 6.07364  32
   2   3  -6 170.234 6.81891  37
  -2  -3   6 148.306 7.54820  36
  -2  -3   6 145.637 6.56156   8
  -2  -3   6 143.933 6.94531  18
   1   3  -6 23.9062 1.53752   3
   1   3  -6 23.5864 1.93264  36
   1   3  -6 25.0974 1.69757  32
   1   3  -6 25.8619 1.65887  37
   1   3  -6 23.7655 1.32795  13
  -1  -3   6 24.4951 1.71605  36
  -1  -3   6 25.7024 1.37617  15
  -1  -3   6 24.3811 1.55085   8
  -1  -3   6 25.5202 2.04896   7
  -1  -3   6 25.4052 1.71001  18
   0   3  -6 12.4518 0.89297  30
   0   3  -6 13.8136 1.00622  29
   0   3  -6 14.3351 1.66551  27
   0   3  -6 15.6269 1.05037  22
   0   3  -6 11.2579 1.35671  35
   0   3  -6 14.4464 1.09075  37
  -1   3  -6 37.7986 3.09756  27
  -1   3  -6 38.9987 1.95130  37
  -1   3  -6 34.6016 2.37020  35
  -1   3  -6 43.0897 1.98653  29
  -1   3  -6 37.5523 1.80945  30
  -1   3  -6 42.6033 2.01995  22
  -1   3  -6 41.0815 1.98958  28
   1  -3   6 33.7327 3.03414   6
  -2   3  -6 15.9619 0.98709  28
  -2   3  -6 17.5638 1.00507  22
  -2   3  -6 16.8345 0.98683  29
   2  -3   6 18.0791 1.40480   2
   2  -3   6 15.6453 1.20910  31
   2  -3   6 16.0862 1.42785  21
  -3   3  -6 388.912 16.6292  22
  -3   3  -6 392.807 16.4383  28
   3  -3   6 358.698 17.5579  10
   3  -3   6 402.036 13.5235  33
   3  -3   6 390.023 18.5814  21
   3  -3   6 382.530 16.9589  18
   3  -3   6 399.493 13.7103  11
   3  -3   6 397.990 17.4723   2
   3  -3   6 378.704 15.1223  31
  -4   3  -6 1582.56 67.5158  22
  -4   3  -6 1534.67 75.4060  28
  -4   3  -6 1473.39 65.4643  29
   4  -3   6 1699.93 68.9947   2
   4  -3   6 1612.61 73.6128  21
   4  -3   6 1637.28 53.5084  33
   4  -3   6 1598.32 54.3225  11
   4  -3   6 1562.69 59.7391  38
   4  -3   6 1630.82 59.6300  31
   4  -3   6 1485.58 68.9468  10
  -5   3  -6 45.8443 2.36573  28
   5  -3   6 49.8835 2.82328  38
   5  -3   6 50.5470 2.21804  11
   5  -3   6 50.9659 2.24009  33
   5  -3   6 53.8789 2.76413  31
   5  -3   6 54.1202 3.05685   2
   5  -3   6 48.9276 3.31112  10
  -6   3  -6 225.584 10.8139  22
   6  -3   6 260.624 11.7150  20
   6  -3   6 257.243 11.5648   2
   6  -3   6 251.986 11.8254  10
   6  -3   6 253.478 10.0999  31
   6  -3   6 248.379 8.84557  33
   6  -3   6 248.613 10.2495  38
   7  -3   6 16.3203 1.30527   2
   7  -3   6 16.3415 1.45938  38
   7  -3   6 15.0310 1.55802  20
   7  -3   6 16.6416 1.61208  10
   7  -3   6 16.2997 1.25585  31
   5   2  -6 519.970 20.7997   8
   5   2  -6 526.561 17.0088   1
   5   2  -6 517.709 18.5534  19
   5   2  -6 498.341 18.7317  32
  -5  -2   6 506.539 19.7785   3
  -5  -2   6 539.103 22.2668  18
   4   2  -6 69.1888 3.41164  32
   4   2  -6 65.8859 3.52900   8
   4   2  -6 64.2079 3.25976  19
  -4  -2   6 70.8618 3.25272   3
  -4  -2   6 63.4817 3.54893   8
  -4  -2   6 75.7124 3.72601  18
   3   2  -6 378.860 14.0225   3
   3   2  -6 384.730 13.4537  32
   3   2  -6 334.907 13.0544  19
   3   2  -6 333.809 14.6959   8
  -3  -2   6 352.189 13.9025   3
  -3  -2   6 333.661 14.6925   8
  -3  -2   6 369.322 15.6742  18
   2   2  -6 828.867 41.7561  36
   2   2  -6 899.868 32.4103  32
   2   2  -6 930.349 32.8151  14
   2   2  -6 959.914 34.3732   3
   2   2  -6 914.293 36.4632  37
  -2  -2   6 902.018 38.4871  18
  -2  -2   6 891.607 35.8998   8
  -2  -2   6 906.387 41.6442  36
   1   2  -6 27.4997 1.55041  30
   1   2  -6 26.6215 1.68805  32
   1   2  -6 29.5241 1.47439  13
   1   2  -6 28.0370 1.65915   3
   1   2  -6 26.2835 2.08586  36
   1   2  -6 28.1047 1.76208  37
  -1  -2   6 27.7767 1.69598   8
  -1  -2   6 29.0077 2.19351   7
  -1  -2   6 28.3912 1.93069  36
  -1  -2   6 27.0263 1.81251  18
   0   2  -6 180.601 7.52981  30
   0   2  -6 193.165 7.81452  37
   0   2  -6 191.222 7.98660  29
   0   2  -6 181.757 9.02879  36
   0   2  -6 189.919 8.19472  22
   0   2  -6 191.518 8.10592  28
   0   2  -6 167.163 9.01893  35
   0  -2   6 190.358 8.78177  36
   0  -2   6 168.975 11.8129   6
  -1   2  -6 385.594 19.0079  35
  -1   2  -6 400.296 16.1280  30
  -1   2  -6 411.605 16.4537  37
  -1   2  -6 427.233 17.2879  28
  -1   2  -6 421.756 17.5043  22
  -1   2  -6 400.554 24.7242  27
  -1   2  -6 423.252 17.0034  29
   1  -2   6 377.174 25.1384   6
  -2   2  -6 80.4520 3.42668  28
  -2   2  -6 72.1100 5.15262  27
  -2   2  -6 81.2054 3.38291  29
  -2   2  -6 73.8053 3.55879   4
  -2   2  -6 69.7842 3.13657  30
   2  -2   6 69.0209 5.17245   6
  -3   2  -6 253.014 10.7621  22
  -3   2  -6 265.173 10.6591  28
  -3   2  -6 234.773 15.4870  27
   3  -2   6 238.728 11.1289  18
   3  -2   6 257.837 9.89532  31
   3  -2   6 220.325 11.6377  10
   3  -2   6 255.689 8.81602  33
   3  -2   6 245.048 8.89621  11
   3  -2   6 265.890 11.4266   2
  -4   2  -6 345.874 14.4813  28
  -4   2  -6 347.434 14.2402  29
  -4   2  -6 350.128 14.6527  22
   4  -2   6 316.529 13.4316  38
   4  -2   6 333.471 14.9945  18
   4  -2   6 341.750 12.0544  11
   4  -2   6 332.657 16.2900  21
   4  -2   6 325.055 15.5812  10
   4  -2   6 351.785 11.9088  33
   4  -2   6 346.438 13.3853  31
   4  -2   6 352.551 15.4440   2
  -5   2  -6 25.5081 1.40753  28
  -5   2  -6 29.4067 1.42604  29
   5  -2   6 26.0258 1.86186  38
   5  -2   6 25.1838 1.89511   2
   5  -2   6 26.1462 1.39269  33
   5  -2   6 23.9966 2.23813  10
   5  -2   6 25.6289 1.37363  11
  -6   2  -6 1274.93 55.1485  22
   6  -2   6 1298.11 43.9476  33
   6  -2   6 1317.27 49.0410  31
   6  -2   6 1271.80 49.3451  38
   6  -2   6 1304.06 56.7807  10
   6  -2   6 1275.34 56.6613   2
   6  -2   6 1338.75 57.0454  20
  -7   2  -6 13.0234 0.84131  30
   7  -2   6 12.9538 1.31236   2
   7  -2   6 12.3412 1.23434  31
   7  -2   6 14.1098 1.54932  38
   7  -2   6 13.4120 1.63069  20
   7  -2   6 11.9978 0.90694  33
   7  -2   6 14.5478 1.73932  10
   8  -2   6 288.844 11.2339  31
   8  -2   6 289.146 11.3038  38
   5   1  -6 26.5848 1.67155  19
   5   1  -6 25.2625 1.68838  32
   5   1  -6 26.5118 1.51318   1
   5   1  -6 25.8339 1.65034   8
  -5  -1   6 26.6477 1.73405  18
  -5  -1   6 24.1252 1.47349   3
   4   1  -6 201.678 7.85208  32
   4   1  -6 196.055 8.51073   8
   4   1  -6 188.611 7.62302  19
  -4  -1   6 202.501 9.00854  18
  -4  -1   6 194.172 8.00670   3
   3   1  -6 426.171 16.3727   3
   3   1  -6 401.131 15.3367  19
   3   1  -6 417.961 17.2740   8
   3   1  -6 442.788 15.7592  32
  -3  -1   6 433.336 18.4166  18
  -3  -1   6 437.561 16.4168   3
  -3  -1   6 387.846 17.2595   8
   2   1  -6 629.339 25.2899  37
   2   1  -6 604.246 24.9182   8
   2   1  -6 658.263 23.8053   3
   2   1  -6 650.861 22.8082  14
   2   1  -6 605.800 29.0183  36
   2   1  -6 643.838 22.5805  32
  -2  -1   6 606.590 26.6402  18
  -2  -1   6 582.358 25.1017  37
  -2  -1   6 613.655 24.9351   8
  -2  -1   6 625.388 23.7300   3
  -2  -1   6 606.086 28.9051  36
   1   1  -6 158.460 8.00416  36
   1   1  -6 159.666 6.22296  32
   1   1  -6 161.788 6.89228  37
   1   1  -6 157.431 6.43647   3
   1   1  -6 156.041 6.28514  14
  -1  -1   6 153.685 7.21703  18
  -1  -1   6 154.091 6.78109   8
  -1  -1   6 159.418 7.85410  36
   0   1  -6 217.454 8.89901  30
   0   1  -6 227.966 9.19714  37
   0   1  -6 220.851 13.7080  27
   0   1  -6 223.402 9.67394  22
   0   1  -6 217.361 10.5982  36
   0   1  -6 208.019 10.6476  35
   0  -1   6 198.730 13.8325   6
   0  -1   6 238.693 10.4786  36
  -1   1  -6 660.852 25.1350  37
  -1   1  -6 631.704 37.6432  27
  -1   1  -6 607.206 28.7918  36
  -1   1  -6 631.193 26.4254  28
  -1   1  -6 649.069 26.7830  22
  -1   1  -6 637.048 25.9864  29
  -1   1  -6 581.024 28.9218  35
  -1   1  -6 623.560 24.6970  30
   1  -1   6 589.930 38.2884   6
   1  -1   6 642.806 28.5928  36
  -2   1  -6 1850.38 76.5219  22
  -2   1  -6 1696.57 81.3420  35
  -2   1  -6 1754.29 74.1092   4
  -2   1  -6 1878.44 74.4948  29
  -2   1  -6 1823.88 75.5161  28
  -2   1  -6 1789.23 105.931  27
  -2   1  -6 1769.89 70.3722  30
   2  -1   6 1704.68 109.108   6
  -3   1  -6 82.0864 3.58200  37
  -3   1  -6 84.1077 3.74205  22
  -3   1  -6 84.8677 3.66687  29
  -3   1  -6 89.7605 3.73038  28
  -3   1  -6 80.5875 3.84400   4
  -3   1  -6 76.7532 3.41989  30
  -3   1  -6 79.0093 5.54956  27
   3  -1   6 77.7963 5.60865   6
  -4   1  -6 74.0853 3.26135  30
  -4   1  -6 82.9751 3.55776  28
  -4   1  -6 70.0503 3.36816  37
  -4   1  -6 83.0387 3.57971  22
  -4   1  -6 82.1984 3.50775  29
   4  -1   6 81.2504 4.03514   2
   4  -1   6 78.1343 3.52073  31
   4  -1   6 73.7956 4.20914  10
   4  -1   6 76.9280 3.93950  18
   4  -1   6 77.7391 3.07474  11
   4  -1   6 78.5841 3.06124  33
   4  -1   6 76.4996 4.14824  21
   4  -1   6 72.1895 3.62681  38
  -5   1  -6 4.73915 0.52715  29
  -5   1  -6 5.86350 0.53542  30
  -5   1  -6 5.10912 0.55998  28
   5  -1   6 5.32380 1.01337  38
   5  -1   6 4.56582 1.05296  20
   5  -1   6 4.92016 0.89409  31
   5  -1   6 4.59015 1.01035  10
   5  -1   6 4.61560 0.66350  33
   5  -1   6 4.90460 0.95896   2
  -6   1  -6 323.106 13.6104  22
  -6   1  -6 311.021 13.4528  28
   6  -1   6 325.866 14.5751  20
   6  -1   6 303.604 14.4641  10
   6  -1   6 303.158 11.0850  11
   6  -1   6 317.478 12.4310  31
   6  -1   6 321.445 14.3161   2
   6  -1   6 296.360 12.6386  38
   6  -1   6 311.802 11.0095  33
  -7   1  -6 95.0855 4.05575  30
  -7   1  -6 91.6734 4.42450  22
   7  -1   6 95.4649 4.29149  31
   7  -1   6 97.1142 4.88652   2
   7  -1   6 94.3211 5.07918  10
   7  -1   6 94.1834 3.68483  33
   7  -1   6 93.5042 5.13696  20
   7  -1   6 97.4301 4.54728  38
  -8   1  -6 86.3766 3.51960  13
   8  -1   6 90.1128 4.55725  20
   8  -1   6 85.8786 4.42422  10
   8  -1   6 91.0064 3.97952  38
   8  -1   6 84.6265 4.28778   2
   8  -1   6 84.6887 3.74026  31
   5   0  -6 2.44925 0.67773   1
   5   0  -6 2.35771 0.61942  19
   5   0  -6 2.16905 0.52220  16
   5   0  -6 3.78411 0.68568   8
   5   0  -6 2.80398 0.60382  32
  -5   0   6 3.62793 0.67127   3
   4   0  -6 18.9075 1.55292   1
   4   0  -6 16.5903 1.46914   8
   4   0  -6 19.1543 1.76166  32
   4   0  -6 17.5332 1.56840  19
  -4   0   6 18.6882 1.56893  18
  -4   0   6 18.6349 1.39988   3
   3   0  -6 7.56934 1.18803  19
   3   0  -6 4.98115 1.04960   8
   3   0  -6 7.86982 1.45338  32
  -3   0   6 4.83529 0.98164   3
  -3   0   6 5.23574 0.89100  18
   2   0  -6 369.236 17.4726  36
   2   0  -6 379.661 14.2075   3
   2   0  -6 367.973 13.6302  32
   2   0  -6 358.731 14.9528   8
   2   0  -6 375.344 13.7386  14
  -2   0   6 353.684 14.9930   8
  -2   0   6 352.716 15.9346  18
  -2   0   6 356.754 17.3993  36
  -2   0   6 375.860 14.2310   3
  -2   0   6 348.838 15.0186  37
   1   0  -6 7.46902 0.90786   8
   1   0  -6 7.82580 1.09896  32
   1   0  -6 6.84766 0.92191  37
   1   0  -6 7.53143 0.85699   3
   1   0  -6 6.79294 0.99462  14
   1   0  -6 7.46667 1.12078  36
  -1   0   6 7.85396 0.84373   3
  -1   0   6 7.17500 0.77714  37
  -1   0   6 6.83418 0.97909  18
  -1   0   6 7.17158 1.00150  36
  -1   0   6 6.64354 0.87426   8
   0   0  -6 137.930 5.90966  37
   0   0  -6 129.965 6.88366  35
   0   0  -6 141.982 8.81909  27
   0   0  -6 133.549 6.83610  36
   0   0   6 132.193 5.77187  37
   0   0   6 128.899 5.81364   5
   0   0   6 144.177 6.76664  36
  -1   0  -6 1220.90 51.3409  22
  -1   0  -6 1190.78 50.6572  28
  -1   0  -6 1188.73 71.9109  27
  -1   0  -6 1177.72 47.3504  30
  -1   0  -6 1227.46 49.8158  29
  -1   0  -6 1183.86 50.0496   4
  -1   0  -6 1215.42 55.3442  35
  -1   0  -6 1186.97 55.0025  36
  -1   0  -6 1255.08 48.4755  37
   1   0   6 1193.96 48.0620   5
   1   0   6 1233.76 55.8348  36
  -2   0  -6 2508.60 113.647  36
  -2   0  -6 2466.55 103.377   4
  -2   0  -6 2578.47 105.761  22
  -2   0  -6 2429.48 97.8000  30
  -2   0  -6 2536.18 104.913  28
  -2   0  -6 2519.60 148.482  27
  -2   0  -6 2571.80 99.5248  37
  -2   0  -6 2328.65 112.756  35
   2   0   6 2317.97 150.807   6
   2   0   6 2500.42 113.051  36
  -3   0  -6 13.3610 0.79587  30
  -3   0  -6 14.9594 0.97549   4
  -3   0  -6 13.1999 0.91144  37
  -3   0  -6 12.3861 1.46347  27
  -3   0  -6 11.9062 0.82793  29
  -3   0  -6 13.6434 0.87953  22
  -4   0  -6 490.664 19.6111  29
  -4   0  -6 492.160 19.9381  28
  -4   0  -6 435.332 28.4741  27
  -4   0  -6 472.284 18.6066  30
  -4   0  -6 488.507 20.1728  22
  -4   0  -6 479.227 18.9445  37
   4   0   6 465.167 16.4218  11
   4   0   6 439.718 20.3442  18
   4   0   6 468.286 20.9864  10
  -5   0  -6 7.70525 0.69680  37
  -5   0  -6 8.47056 0.67550  29
  -5   0  -6 6.78668 0.60971  30
  -5   0  -6 6.97835 0.63861  22
  -5   0  -6 7.96926 0.67592  28
   5   0   6 8.34807 1.22184  10
   5   0   6 7.01121 0.86666  31
   5   0   6 6.71029 1.07919  20
   5   0   6 5.96018 0.98834  38
   5   0   6 6.48143 0.92361   2
   5   0   6 6.25765 0.63321  11
   5   0   6 7.42115 0.67403  33
  -6   0  -6 21.3182 1.29518  22
  -6   0  -6 23.1205 1.36281  28
   6   0   6 19.6177 1.17060  11
   6   0   6 19.5972 1.75332  38
   6   0   6 23.7041 1.56830  31
   6   0   6 19.7955 1.60707   2
   6   0   6 19.9196 1.20294  33
   6   0   6 18.4007 1.83019  20
   6   0   6 18.7382 1.93374  10
  -7   0  -6 9.94081 0.81231  30
  -7   0  -6 10.1571 0.78741  13
  -7   0  -6 9.99956 0.90004  22
   7   0   6 9.89504 1.18630  31
   7   0   6 11.8275 1.36947  38
   7   0   6 11.4404 1.32241   2
   7   0   6 9.58607 1.49843  10
   7   0   6 11.1259 1.58379  20
   7   0   6 9.64234 0.85403  33
  -8   0  -6 28.3920 1.52370  30
  -8   0  -6 31.2681 1.49368  13
   8   0   6 32.9156 1.99224   2
   8   0   6 30.2147 2.27391  20
   8   0   6 31.9233 1.98437  38
   8   0   6 27.6532 2.09034  10
   4  -1  -6 93.2098 4.31629  32
   4  -1  -6 94.8544 4.17786  19
   4  -1  -6 101.980 4.53295   8
   4  -1  -6 97.1878 3.91494   1
  -4   1   6 98.9089 4.33175   3
  -4   1   6 105.613 4.84100  18
   3  -1  -6 3.24658 0.84234  32
   3  -1  -6 3.98632 0.76245  19
   3  -1  -6 5.46816 1.11729   1
   3  -1  -6 2.29790 0.62361   8
  -3   1   6 2.84888 0.63172   3
  -3   1   6 2.07799 0.59702  18
   2  -1  -6 86.8563 3.97473  14
   2  -1  -6 87.2258 4.22588   8
   2  -1  -6 88.2818 3.77344  19
   2  -1  -6 85.4236 4.03023  32
  -2   1   6 88.0068 4.45383  18
  -2   1   6 91.5451 4.00155   3
   1  -1  -6 5.50614 0.84208   8
   1  -1  -6 5.21372 0.84018  37
   1  -1  -6 5.17007 0.98567  14
   1  -1  -6 4.72635 1.02634  36
   1  -1  -6 5.05567 0.76764   3
  -1   1   6 4.26373 0.95553  36
  -1   1   6 4.73568 0.69471  37
  -1   1   6 4.16058 0.78549   8
   0  -1  -6 5.28548 0.91923  36
   0  -1  -6 3.38445 0.65395  37
   0   1   6 4.29218 0.61525   5
   0   1   6 4.23294 0.60192  37
   0   1   6 5.61609 0.87028  36
  -1  -1  -6 707.884 42.7992  27
  -1  -1  -6 741.633 32.7863  36
  -1  -1  -6 692.780 32.9352  35
   1   1   6 697.610 28.5816   5
   1   1   6 736.184 32.6745  36
   1   1   6 697.934 28.4693  37
  -2  -1  -6 2172.89 87.9213  30
  -2  -1  -6 2265.81 116.369  25
  -2  -1  -6 2228.24 133.056  27
  -2  -1  -6 2187.39 94.8354  22
  -2  -1  -6 2329.30 90.0564  37
  -2  -1  -6 2186.52 92.6923  29
  -2  -1  -6 2162.08 92.9939   4
  -2  -1  -6 2142.44 101.463  35
  -2  -1  -6 2310.31 102.704  36
   2   1   6 2283.33 102.563  36
   2   1   6 2221.76 88.9187   5
  -3  -1  -6 1.07634 0.33297  37
  -3  -1  -6 1.14039 0.28432  29
  -3  -1  -6 1.72835 0.33707  22
  -3  -1  -6 1.01988 0.42351  36
  -3  -1  -6 1.63253 0.62739  27
   3   1   6 1.39991 0.44230  36
  -4  -1  -6 674.878 44.7457  27
  -4  -1  -6 763.995 30.9245  29
  -4  -1  -6 730.927 31.2068   4
  -4  -1  -6 759.467 29.3805  30
  -4  -1  -6 764.246 29.8682  37
  -4  -1  -6 782.785 31.4642  28
  -5  -1  -6 5.89615 0.60058  28
  -5  -1  -6 5.79074 0.55408  13
  -5  -1  -6 4.97878 0.56232  22
  -5  -1  -6 4.71964 0.63099  37
  -5  -1  -6 6.24152 0.59559  29
  -5  -1  -6 5.10868 0.55476  30
   5   1   6 4.66996 0.57473  11
   5   1   6 4.70646 0.67645   8
   5   1   6 5.45934 0.78471  31
   5   1   6 5.57002 1.03726  10
   5   1   6 4.93570 0.61929  33
   5   1   6 5.14450 0.80247   2
  -6  -1  -6 606.107 24.2590  28
  -6  -1  -6 525.157 23.8243  29
  -6  -1  -6 543.387 23.0098  37
  -6  -1  -6 550.896 21.8133   3
  -6  -1  -6 576.056 20.5035  17
  -6  -1  -6 593.714 24.5276  22
  -6  -1  -6 569.161 21.6015  13
   6   1   6 575.615 19.8715  11
   6   1   6 561.290 25.2549   2
   6   1   6 568.515 21.8527  31
   6   1   6 565.723 25.3785  10
   6   1   6 567.343 22.1486  38
   6   1   6 572.725 25.6141  20
   6   1   6 605.338 19.6371  33
  -7  -1  -6 5.60608 0.64733  30
  -7  -1  -6 4.48772 0.69052  22
   7   1   6 3.29438 0.67147  31
   7   1   6 6.52397 1.06256   2
   7   1   6 3.37780 0.96495  20
   7   1   6 5.35653 0.68510  33
   7   1   6 5.09169 1.08525  38
  -8  -1  -6 65.4638 2.94416  30
  -8  -1  -6 70.9338 2.83683  13
  -8  -1  -6 67.4151 2.80369  15
   8   1   6 64.1844 3.61388  10
   8   1   6 70.8124 3.90274  20
   8   1   6 59.6934 2.99157  31
   8   1   6 59.7641 3.45963   2
   8   1   6 68.3788 3.31776  38
  -9  -1  -6 55.8054 2.24247  13
   9   1   6 52.8887 2.98948  20
   4  -2  -6 218.794 8.34454  32
   4  -2  -6 196.339 8.10437  19
   4  -2  -6 217.110 7.53335   1
   4  -2  -6 232.609 8.64797  16
   4  -2  -6 234.401 8.99500   8
  -4   2   6 224.375 8.70112   3
  -4   2   6 202.146 9.61315  18
   3  -2  -6 224.673 8.07018   1
   3  -2  -6 234.346 9.65259   8
   3  -2  -6 237.449 9.02240  32
   3  -2  -6 226.246 8.70237  19
  -3   2   6 240.603 9.29511   3
  -3   2   6 211.799 10.2421  18
   2  -2  -6 132.946 5.34282  32
   2  -2  -6 123.725 5.59477   8
   2  -2  -6 118.187 4.70827   1
   2  -2  -6 125.070 5.04680  19
   2  -2  -6 122.024 5.25177  14
  -2   2   6 117.876 5.88613  18
  -2   2   6 126.017 5.33824   3
   1  -2  -6 187.533 7.72537  14
   1  -2  -6 198.758 9.72074  36
   1  -2  -6 205.158 8.35861   8
   1  -2  -6 198.118 7.65383  32
  -1   2   6 186.277 8.31763  37
  -1   2   6 205.947 7.93370   3
  -1   2   6 188.441 9.70616  36
  -1   2   6 193.517 8.81563  18
   0  -2  -6 162.175 6.58841  32
   0  -2  -6 186.166 6.98396   3
   0  -2  -6 161.399 6.71378  14
   0  -2  -6 167.807 7.25710   8
   0  -2  -6 171.640 8.48261  36
   0   2   6 166.247 7.68374  18
   0   2   6 171.900 8.45399  36
   0   2   6 173.152 7.26757  37
   0   2   6 176.007 6.88941   3
  -1  -2  -6 317.315 14.3302  36
  -1  -2  -6 282.654 18.5968  27
  -1  -2  -6 288.974 14.3615  35
  -1  -2  -6 309.406 12.4205  37
   1   2   6 309.555 14.2282  36
   1   2   6 295.334 12.4196   5
   1   2   6 306.815 12.3377  37
  -2  -2  -6 757.904 47.8248  27
  -2  -2  -6 823.552 31.9191  37
  -2  -2  -6 797.344 36.7460  35
  -2  -2  -6 810.862 36.5962  36
   2   2   6 820.515 36.4960  36
   2   2   6 787.539 31.9500   5
   2   2   6 783.748 31.8232  37
  -3  -2  -6 1.74919 0.52553  36
  -3  -2  -6 1.84179 0.71967  27
  -3  -2  -6 1.87164 0.42324   4
  -3  -2  -6 2.22639 0.37560  30
   3   2   6 1.59030 0.48762  36
  -4  -2  -6 518.555 21.8132  22
  -4  -2  -6 517.097 21.1836  29
  -4  -2  -6 518.687 20.1056  30
  -4  -2  -6 524.113 21.5481  28
  -4  -2  -6 500.510 21.3868   4
  -4  -2  -6 533.996 20.5285  37
  -4  -2  -6 497.411 23.5679  36
  -4  -2  -6 460.898 30.7415  27
   4   2   6 498.184 23.3804  36
  -5  -2  -6 12.4276 0.90321  29
  -5  -2  -6 12.7070 0.90139  22
  -5  -2  -6 13.7850 0.93121  28
  -5  -2  -6 11.3133 0.93078   3
  -5  -2  -6 11.7546 0.80009  13
  -5  -2  -6 14.1920 1.01866  37
   5   2   6 12.9727 1.03339   8
   5   2   6 11.5014 0.84172  33
   5   2   6 13.1350 1.35510  10
   5   2   6 11.0985 0.86610  11
  -6  -2  -6 367.499 15.6641  28
  -6  -2  -6 358.593 13.3255  17
  -6  -2  -6 367.216 15.8211  22
  -6  -2  -6 356.680 14.1471   3
  -6  -2  -6 357.143 13.9237  13
  -6  -2  -6 383.705 14.5784  30
  -6  -2  -6 329.077 15.3964  29
  -6  -2  -6 363.925 14.9828  37
   6   2   6 369.468 14.4320  38
   6   2   6 352.192 16.3254   2
   6   2   6 382.256 16.5127  10
   6   2   6 370.454 12.7128  33
   6   2   6 375.805 12.8945  11
   6   2   6 362.108 14.7421   8
  -7  -2  -6 5.83974 0.91421   3
  -7  -2  -6 5.49903 0.74853  22
  -7  -2  -6 8.25318 0.74060  30
   7   2   6 7.50958 1.03219   2
   7   2   6 8.23470 1.41520  20
   7   2   6 5.71771 1.18069  38
   7   2   6 6.71641 0.78326  33
   7   2   6 7.32738 0.84638   8
  -8  -2  -6 579.542 21.2942  13
  -8  -2  -6 569.321 21.5104   3
  -8  -2  -6 544.964 22.2704  30
  -8  -2  -6 574.977 19.3343  15
   8   2   6 588.909 25.2653  20
   8   2   6 570.780 21.7057  38
   8   2   6 505.046 24.7612   2
  -9  -2  -6 56.3941 2.35190  13
  -9  -2  -6 56.5232 2.33329  15
   9   2   6 58.9367 3.14948  20
   9   2   6 57.5495 2.67329  38
   4  -3  -6 171.180 6.82022  16
  -4   3   6 171.372 6.82226   3
   3  -3  -6 21.0917 1.39323   8
   3  -3  -6 19.7067 1.37967   1
   3  -3  -6 19.3200 1.68066  32
   3  -3  -6 19.3196 1.65219  16
   3  -3  -6 19.0843 1.46705  19
  -3   3   6 16.8393 1.36280   3
   2  -3  -6 179.685 7.34719   8
   2  -3  -6 171.572 6.90097  32
   2  -3  -6 162.307 6.10361   1
   2  -3  -6 160.993 6.55430  19
   2  -3  -6 166.024 6.84609  14
  -2   3   6 173.976 7.03750   3
   1  -3  -6 616.043 22.3688  32
   1  -3  -6 587.219 22.6497  14
   1  -3  -6 628.408 24.6528   8
  -1   3   6 632.655 23.6070   3
   0  -3  -6 1011.83 39.6531   8
   0  -3  -6 989.667 46.0530  36
   0  -3  -6 974.907 36.3127  14
   0  -3  -6 1030.55 35.7986  32
   0   3   6 981.426 46.0856  36
   0   3   6 1038.97 37.9627   3
   0   3   6 1003.52 40.1706  37
  -1  -3  -6 57.7163 3.26929  36
  -1  -3  -6 54.3137 3.08840  26
  -1  -3  -6 53.1167 2.72223   8
  -1  -3  -6 54.9387 2.73707  37
  -1  -3  -6 53.2149 2.58887  14
   1   3   6 55.3180 3.19084  36
   1   3   6 56.3995 2.56578   3
   1   3   6 57.0033 2.68642  37
  -2  -3  -6 17.5495 1.15793  37
  -2  -3  -6 15.6238 1.37076  36
  -2  -3  -6 13.8645 1.77760  27
   2   3   6 17.2363 1.10108  37
   2   3   6 16.9342 1.35838  36
   2   3   6 16.4478 1.19785   5
  -3  -3  -6 26.8616 1.54814  37
  -3  -3  -6 23.9154 2.40227  27
  -3  -3  -6 27.4186 1.89796  36
   3   3   6 24.7218 1.47466  37
   3   3   6 29.8325 1.83492  36
  -4  -3  -6 31.1874 1.71873  37
  -4  -3  -6 30.9460 1.63162  17
  -4  -3  -6 28.5902 1.71876   4
  -4  -3  -6 34.0813 2.14225  36
  -4  -3  -6 30.3911 1.61226   3
  -4  -3  -6 31.9468 1.99861  26
   4   3   6 29.5102 1.77916   8
   4   3   6 31.6315 2.00274  36
   4   3   6 30.1180 1.50991  11
  -5  -3  -6 0.67455 0.38088  17
  -5  -3  -6 1.84243 0.36589  30
  -5  -3  -6 1.17536 0.27561  13
  -5  -3  -6 0.71123 0.38804  37
  -5  -3  -6 1.52447 0.44044   3
  -5  -3  -6 1.51083 0.63123  36
   5   3   6 0.54422 0.37660   8
   5   3   6 2.09053 0.38763  33
   5   3   6 0.45565 0.49101  36
  -6  -3  -6 520.294 20.2977  30
  -6  -3  -6 517.097 20.8208  37
  -6  -3  -6 503.119 19.6295   3
  -6  -3  -6 516.458 18.4922  17
  -6  -3  -6 510.194 19.3936  13
   6   3   6 503.163 20.5137   8
   6   3   6 525.647 17.6289  33
   6   3   6 489.498 19.8088  38
  -7  -3  -6 99.5331 4.33772  17
  -7  -3  -6 104.196 4.62793   3
  -7  -3  -6 102.700 4.30915  13
  -7  -3  -6 102.613 4.50524  30
   7   3   6 106.591 4.07373  33
   7   3   6 107.187 4.73929   8
   7   3   6 108.144 4.79607  38
   7   3   6 110.973 5.58374  20
  -8  -3  -6 798.986 30.2012   3
  -8  -3  -6 774.977 29.8985  13
  -8  -3  -6 814.462 27.0812  15
   8   3   6 790.573 31.3521   8
   8   3   6 816.926 30.3356  38
   8   3   6 833.912 35.2592  20
   8   3   6 727.699 34.7079   2
  -9  -3  -6 166.984 6.73057   3
  -9  -3  -6 168.055 6.09719  15
   9   3   6 172.808 8.00596  20
   3  -4  -6 333.678 12.3596  19
   3  -4  -6 368.459 12.7283  32
   3  -4  -6 330.273 11.3422   1
   3  -4  -6 333.092 13.0527  16
  -3   4   6 344.850 13.2678   3
   2  -4  -6 8.07892 1.28198  16
   2  -4  -6 10.4960 1.13629  19
   2  -4  -6 11.8657 1.37363  32
   2  -4  -6 10.4495 1.05175   1
   2  -4  -6 10.2288 1.02532   8
  -2   4   6 7.63235 0.98398   3
   1  -4  -6 377.342 15.5012   8
   1  -4  -6 394.314 14.6689  16
   1  -4  -6 383.750 14.4266  14
   1  -4  -6 386.375 14.2282  32
  -1   4   6 376.463 14.5567  13
  -1   4   6 371.887 14.8560   3
   0  -4  -6 1481.07 54.3604  16
   0  -4  -6 1418.29 53.5133  14
   0  -4  -6 1511.16 52.7499  32
   0  -4  -6 1482.80 58.4482   8
   0   4   6 1544.29 56.0164   3
   0   4   6 1502.90 55.7989  13
   0   4   6 1478.15 59.2947  37
  -1  -4  -6 42.5851 2.24881   8
  -1  -4  -6 40.0160 2.16631  14
  -1  -4  -6 43.1372 2.68049  36
  -1  -4  -6 39.9417 2.59984  26
  -1  -4  -6 41.6658 2.07734  32
   1   4   6 39.1230 2.62169  36
   1   4   6 41.7715 2.09653   3
   1   4   6 41.1845 2.18629  37
  -2  -4  -6 111.418 5.01377  37
  -2  -4  -6 113.652 5.85608  36
  -2  -4  -6 106.067 5.47455  26
  -2  -4  -6 107.631 4.61901  14
  -2  -4  -6 112.572 4.67044   3
  -2  -4  -6 114.444 5.00504   8
   2   4   6 119.792 4.72007   3
   2   4   6 117.898 5.82008  36
   2   4   6 113.083 4.97868  37
   2   4   6 110.307 5.04046   8
  -3  -4  -6 323.927 14.4086  26
  -3  -4  -6 325.460 12.7255   3
  -3  -4  -6 362.660 12.4380  14
  -3  -4  -6 336.223 13.5630  37
  -3  -4  -6 320.495 13.4015   8
  -3  -4  -6 299.042 12.0209  17
  -3  -4  -6 339.119 15.6504  36
   3   4   6 321.776 13.4251   8
   3   4   6 339.395 15.5539  36
   3   4   6 323.307 12.7337   3
   3   4   6 333.213 13.5195  37
  -4  -4  -6 255.043 9.72071  17
  -4  -4  -6 263.376 12.5809  36
  -4  -4  -6 254.479 11.5565  26
  -4  -4  -6 276.808 10.9016  37
  -4  -4  -6 259.139 10.2096   3
   4   4   6 267.160 12.4931  36
   4   4   6 270.982 10.8414   8
   4   4   6 242.492 10.1787   3
  -5  -4  -6 35.8570 2.16738  26
  -5  -4  -6 30.6507 2.28125  36
  -5  -4  -6 31.9998 1.81049  17
  -5  -4  -6 30.6045 1.84906  37
   5   4   6 32.0222 1.96004   8
   5   4   6 32.1891 2.22107  36
  -6  -4  -6 8.14407 1.01472  17
  -6  -4  -6 10.4035 1.04214   3
  -6  -4  -6 8.67849 0.97311  37
  -6  -4  -6 9.70608 1.33646  36
   6   4   6 7.67859 1.02964   8
   6   4   6 8.11478 0.78944  33
  -7  -4  -6 2.39260 0.68486  17
  -7  -4  -6 2.63748 0.50833  15
  -7  -4  -6 2.14813 0.38635  13
  -7  -4  -6 2.48759 0.65740   3
   7   4   6 1.49465 0.56969   8
   7   4   6 2.01408 0.76619  38
  -8  -4  -6 1613.37 55.5981  15
  -8  -4  -6 1685.06 62.0927   3
   8   4   6 1618.51 62.1545  38
   8   4   6 1643.72 64.5810   8
   8   4   6 1690.91 72.1769  20
  -9  -4  -6 406.591 13.9745  15
  -9  -4  -6 401.214 15.5734   3
   9   4   6 409.169 18.1872  20
   2  -5  -6 23.0163 2.07981   7
   2  -5  -6 20.6384 1.25824   8
   2  -5  -6 21.4163 1.67043  16
   2  -5  -6 21.2509 1.62523  32
  -2   5   6 20.4579 1.41335   3
   1  -5  -6 61.4037 3.11975  16
   1  -5  -6 62.4459 3.08849  32
   1  -5  -6 63.9392 3.05609   8
   1  -5  -6 60.5537 3.13675  14
  -1   5   6 62.5788 2.67499  13
  -1   5   6 63.2061 2.99482   3
   0  -5  -6 701.413 25.8787  32
   0  -5  -6 750.358 28.5917   8
   0  -5  -6 702.633 26.3118  14
   0  -5  -6 696.323 26.6326  16
   0   5   6 736.897 27.3809   3
   0   5   6 720.613 27.1049  13
  -1  -5  -6 1.98129 0.65245  36
  -1  -5  -6 2.13897 0.57511  32
  -1  -5  -6 1.46318 0.48094   8
  -1  -5  -6 1.55295 0.75718  26
   1   5   6 1.68152 0.67923  36
   1   5   6 1.68546 0.50041   3
   1   5   6 1.42591 0.53667  37
   1   5   6 2.31510 0.49587  13
  -2  -5  -6 225.449 10.5503  26
  -2  -5  -6 229.447 8.97229  14
  -2  -5  -6 236.146 9.72234   8
  -2  -5  -6 235.730 11.3321  36
   2   5   6 236.532 9.80085  37
   2   5   6 225.637 11.2916  36
   2   5   6 240.415 9.23234   3
  -3  -5  -6 78.0203 3.46365  14
  -3  -5  -6 75.0110 3.44431   3
  -3  -5  -6 82.1770 4.44053  36
  -3  -5  -6 77.6197 4.18719  26
  -3  -5  -6 79.3517 3.74029   8
   3   5   6 75.0732 3.69699  37
   3   5   6 78.7071 3.81812   8
   3   5   6 78.1061 3.49797   3
   3   5   6 91.0408 4.45939  36
  -4  -5  -6 1027.04 40.8987  37
  -4  -5  -6 1013.29 40.3517   8
  -4  -5  -6 1063.31 38.5605   3
  -4  -5  -6 1041.91 43.1131  26
  -4  -5  -6 1029.22 46.9253  36
  -4  -5  -6 979.397 36.3093  17
   4   5   6 1057.60 40.4407   8
   4   5   6 1005.25 38.5614   3
   4   5   6 969.674 40.8619  37
   4   5   6 1030.23 46.8452  36
  -5  -5  -6 3.07876 0.73372  26
  -5  -5  -6 3.72521 0.74056  37
  -5  -5  -6 3.28032 0.68330  17
  -5  -5  -6 4.02334 0.91682  36
   5   5   6 2.79227 0.82957  36
   5   5   6 4.17909 0.91424   8
  -6  -5  -6 152.738 5.76764  15
  -6  -5  -6 158.799 6.43111   3
  -6  -5  -6 153.355 6.16901  17
   6   5   6 152.099 6.79961   8
  -7  -5  -6 33.4612 2.03190  17
  -7  -5  -6 36.1515 1.89355  15
  -7  -5  -6 36.6156 2.08461   3
   7   5   6 35.1786 2.11443  38
   7   5   6 37.2460 2.19099   8
  -8  -5  -6 2.38908 0.58323   3
  -8  -5  -6 2.01539 0.45884  15
  -8  -5  -6 3.46057 0.65959  17
   8   5   6 3.18056 0.64247   8
   8   5   6 1.48783 0.76731  20
  -9  -5  -6 19.5754 1.25912   3
  -9  -5  -6 18.4707 1.19245  15
   9   5   6 22.2628 1.63234  20
   9   5   6 20.1230 1.13883   8
   2  -6  -6 130.466 5.08034  32
   2  -6  -6 131.430 5.22367  16
  -2   6   6 121.738 5.15499   3
   1  -6  -6 2.48803 0.99330   7
   1  -6  -6 2.79929 0.71409  14
   1  -6  -6 2.05902 0.43903   8
  -1   6   6 2.11607 0.53074   3
   0  -6  -6 16.7416 1.26843   8
   0  -6  -6 17.5559 2.19864   7
   0  -6  -6 17.4471 1.66108  14
   0  -6  -6 16.1258 1.44683  32
   0  -6  -6 16.0141 1.41748  16
   0   6   6 16.1464 1.01141  13
  -1  -6  -6 140.666 5.87511   8
  -1  -6  -6 125.127 5.54378  14
  -1  -6  -6 133.941 6.61134  26
  -1  -6  -6 124.791 5.37347  32
   1   6   6 130.563 5.28631  13
   1   6   6 140.924 5.60543   3
  -2  -6  -6 3.58818 0.91275  26
  -2  -6  -6 2.84680 0.58041   8
  -2  -6  -6 4.91358 0.83017  14
   2   6   6 4.43589 0.69169   3
  -3  -6  -6 207.826 9.52521  26
  -3  -6  -6 213.371 8.74534   8
  -3  -6  -6 215.273 8.07808  14
  -3  -6  -6 206.162 10.2092  36
   3   6   6 190.230 10.1092  36
   3   6   6 210.944 8.28757   3
   3   6   6 199.563 8.78615  37
  -4  -6  -6 721.036 27.9911   8
  -4  -6  -6 707.042 32.6135  36
  -4  -6  -6 718.870 25.2515  17
  -4  -6  -6 714.963 29.9827  26
   4   6   6 714.622 28.0865   8
   4   6   6 666.773 32.4693  36
   4   6   6 676.545 28.3227  37
   4   6   6 693.341 26.7041   3
  -5  -6  -6 2.19273 0.66733  26
  -5  -6  -6 1.97293 0.52085   3
  -5  -6  -6 2.39479 0.56394   8
  -5  -6  -6 1.87602 0.58355  17
   5   6   6 2.65856 0.60272   3
   5   6   6 2.77352 0.67011   8
  -6  -6  -6 834.583 30.0287  15
  -6  -6  -6 858.896 34.9849   8
  -6  -6  -6 936.851 31.5935  17
  -6  -6  -6 909.187 33.4774   3
  -6  -6  -6 858.368 37.2778  26
   6   6   6 889.057 35.0467   8
  -7  -6  -6 61.0940 3.00850   3
  -7  -6  -6 62.1037 2.72565  15
  -7  -6  -6 60.0847 2.96081  17
   7   6   6 63.7540 3.21757   8
   7   6   6 62.1067 3.04812  38
  -8  -6  -6 22.9376 1.51249   3
  -8  -6  -6 22.2680 1.51300  17
  -8  -6  -6 21.6871 1.41939  15
   8   6   6 26.9103 1.62955   8
  -9  -6  -6 42.1703 1.97921   3
  -9  -6  -6 37.8683 1.74117  15
   9   6   6 40.9232 1.96014   8
   9   6   6 39.8698 2.36363  20
   1  -7  -6 3.20958 0.86182   7
   1  -7  -6 1.94066 0.45733  16
   1  -7  -6 3.28680 0.65754  32
   1  -7  -6 3.31031 0.68710  14
  -1   7   6 2.99034 0.50756   3
   0  -7  -6 44.1949 2.43778  14
   0  -7  -6 45.3651 2.14864   8
   0  -7  -6 39.0278 2.20343  16
   0  -7  -6 44.2919 3.21187   7
   0  -7  -6 43.6311 2.28165  32
   0   7   6 45.8084 2.21418   3
  -1  -7  -6 65.7636 3.04805  32
  -1  -7  -6 61.9469 4.14214   7
  -1  -7  -6 66.8542 3.12818   8
  -1  -7  -6 60.8929 3.13057  14
   1   7   6 68.3713 3.06593   3
   1   7   6 63.4218 2.77006  13
  -2  -7  -6 162.066 6.52433   8
  -2  -7  -6 139.106 7.99444   7
  -2  -7  -6 141.802 7.16601  26
  -2  -7  -6 143.551 6.10432  14
   2   7   6 158.240 6.22183   3
  -3  -7  -6 61.5658 2.90950  14
  -3  -7  -6 52.3917 3.65554   7
  -3  -7  -6 62.8477 3.53103  26
  -3  -7  -6 55.8338 2.93692   8
   3   7   6 55.7927 2.78906   3
  -4  -7  -6 221.521 10.2484  26
  -4  -7  -6 222.857 8.55884  17
  -4  -7  -6 223.748 9.41703   8
   4   7   6 225.177 8.95628   3
  -5  -7  -6 4.49074 0.89446   8
  -5  -7  -6 7.35951 1.13236  17
  -5  -7  -6 6.45796 1.17722  26
   5   7   6 5.46300 1.03535   8
   5   7   6 5.58880 0.84413   3
  -6  -7  -6 633.868 22.0135  17
  -6  -7  -6 602.507 25.9339  26
  -6  -7  -6 600.332 24.3470   8
  -6  -7  -6 619.336 23.2621   3
   6   7   6 588.503 23.1540   3
   6   7   6 599.155 24.4023   8
  -7  -7  -6 87.2702 4.22735   8
  -7  -7  -6 92.1007 4.00081   3
  -7  -7  -6 89.8903 3.56966  15
  -7  -7  -6 90.5893 3.89561  17
   7   7   6 90.1323 4.26693   8
  -8  -7  -6 217.812 7.78860  15
  -8  -7  -6 210.321 8.20094  17
  -8  -7  -6 224.762 8.69944   3
   8   7   6 223.983 9.12822   8
   9   7   6 8.05985 0.95759  20
   9   7   6 8.18318 0.74536   8
   0  -8  -6 38.9161 2.63874   7
   0  -8  -6 41.9031 2.02102  14
   0   8   6 36.5787 1.89359   3
  -1  -8  -6 286.307 10.5546  14
  -1  -8  -6 281.887 11.1531   8
  -1  -8  -6 254.423 13.7648   7
  -1  -8  -6 267.190 10.2479  32
   1   8   6 292.247 10.8595   3
  -2  -8  -6 453.470 23.4465  21
  -2  -8  -6 476.057 23.6912   7
  -2  -8  -6 488.948 18.0726  14
  -2  -8  -6 506.251 19.5169   8
  -2  -8  -6 499.333 21.0882  26
   2   8   6 503.084 18.7805   3
  -3  -8  -6 11.7582 1.61272  26
  -3  -8  -6 12.3737 1.36188  14
  -3  -8  -6 11.5081 1.11512   8
  -3  -8  -6 12.7471 1.64706   7
   3   8   6 13.4378 1.22915   3
  -4  -8  -6 12.6288 1.15627   8
  -4  -8  -6 9.73960 1.20309  14
   4   8   6 12.8537 1.18877   3
  -5  -8  -6 0.09970 0.42943   8
  -5  -8  -6 1.35211 0.72690  26
  -5  -8  -6 0.62968 0.56236  17
   5   8   6 -0.4524 0.47905   3
  -6  -8  -6 90.4850 3.87196  17
  -6  -8  -6 86.6029 4.14545   8
  -6  -8  -6 86.8456 4.49576  26
   6   8   6 87.2823 4.23589   8
   6   8   6 91.9777 3.89895   3
  -7  -8  -6 13.3122 1.27875  17
  -7  -8  -6 14.9995 1.23724   8
   7   8   6 17.3758 1.35527   8
  -8  -8  -6 27.3355 1.44786  17
  -8  -8  -6 23.5145 1.47664   8
  -8  -8  -6 20.2545 1.38536   3
   8   8   6 24.4414 1.51062   8
  -1  -9  -6 279.513 12.8823   7
  -1  -9  -6 268.949 9.80609  14
   1   9   6 233.463 10.1161   3
  -2  -9  -6 710.890 25.5576  14
  -2  -9  -6 704.632 33.1928  21
  -2  -9  -6 663.572 33.4607   7
   2   9   6 735.131 26.6796   3
  -3  -9  -6 5.01637 0.74268   8
  -3  -9  -6 7.38736 1.28375  26
  -3  -9  -6 3.30390 0.89781  21
  -3  -9  -6 5.24122 0.91188  14
  -3  -9  -6 5.75354 1.11357   7
   3   9   6 4.72201 0.91212   3
  -4  -9  -6 235.789 10.8588  26
  -4  -9  -6 208.339 11.9905  21
  -4  -9  -6 274.100 10.0668   8
  -4  -9  -6 235.573 9.19861  14
   4   9   6 259.304 9.64152   3
  -5  -9  -6 1.20610 0.47293  17
  -5  -9  -6 0.56872 0.72369  21
  -5  -9  -6 0.51675 0.41752   8
  -5  -9  -6 1.22420 0.58487  26
   5   9   6 0.14803 0.43818   3
  -6  -9  -6 64.8930 2.70545  17
  -6  -9  -6 60.3511 2.87105   8
  -6  -9  -6 56.2492 3.12875  26
  -6  -9  -6 49.1646 3.33723  21
   6   9   6 58.9585 2.67093   3
  -7  -9  -6 26.8558 1.54656   8
  -7  -9  -6 28.5021 1.51522  17
   7   9   6 22.5746 1.55162   8
  -8  -9  -6 1.56105 0.48652  17
  -3 -10  -6 16.2778 1.24711  14
  -3 -10  -6 18.6406 1.65570  21
   3  10   6 18.6702 1.15414   3
  -4 -10  -6 220.185 9.94864  26
  -4 -10  -6 229.065 9.12705   8
  -4 -10  -6 213.391 11.0763  21
   4  10   6 243.090 8.90427   3
  -5 -10  -6 98.8535 5.38411  21
  -5 -10  -6 96.6902 4.85711  26
  -5 -10  -6 108.712 4.43135   8
   5  10   6 105.282 4.26555   3
  -6 -10  -6 213.927 8.83623   8
  -6 -10  -6 228.280 8.12694  17
  -6 -10  -6 199.796 9.43642  26
   6  10   6 225.062 8.46117   3
   3   9  -7 82.0725 3.45620  32
  -3  -9   7 87.2533 3.28738  15
   2   9  -7 96.2098 3.76172  13
  -2  -9   7 91.6986 4.82822   7
  -2  -9   7 96.1588 3.61884  33
  -2  -9   7 87.8851 4.58869   2
   1   9  -7 412.597 14.9619  32
   1   9  -7 425.327 15.7521  13
  -1  -9   7 409.803 14.3706  33
  -1  -9   7 397.186 19.6110  21
  -1  -9   7 409.286 19.8558   7
  -1  -9   7 390.905 18.3962   2
  -1  -9   7 439.574 15.4675  16
  -1  -9   7 427.270 14.5464  11
   0   9  -7 79.8292 3.30690  13
   0  -9   7 82.0298 3.43194  16
   0  -9   7 80.5490 3.21402  11
   0  -9   7 86.4977 4.39460  21
   0  -9   7 73.0320 3.19081  33
   0  -9   7 81.7714 4.45371   7
   1  -9   7 5.26468 0.69871  11
   1  -9   7 5.57226 0.96260   7
   1  -9   7 5.01018 0.60851  33
   1  -9   7 5.04168 0.70463  16
   1  -9   7 5.46334 0.94092  21
   4   8  -7 146.901 6.07069   3
   4   8  -7 152.502 5.80949  32
  -4  -8   7 158.826 7.26830   2
   3   8  -7 24.3760 1.35002   3
   3   8  -7 23.7486 1.50429  32
  -3  -8   7 21.6470 1.29286  15
  -3  -8   7 21.8228 1.29163  33
  -3  -8   7 20.0295 1.66968   2
   2   8  -7 87.9913 4.07408  30
   2   8  -7 98.2618 4.00831  32
   2   8  -7 97.1605 3.90124  13
   2   8  -7 87.4835 4.01337   3
  -2  -8   7 96.0777 5.06614   7
  -2  -8   7 100.477 3.83263  15
  -2  -8   7 95.1678 4.91037   2
  -2  -8   7 95.3822 3.78693  33
   1   8  -7 464.801 17.2377  13
   1   8  -7 450.512 18.0464  30
   1   8  -7 469.075 16.4492  32
  -1  -8   7 449.327 20.3069   2
  -1  -8   7 440.687 21.5061  21
  -1  -8   7 442.842 15.9127  11
  -1  -8   7 447.618 15.7055  15
  -1  -8   7 444.445 21.7706   7
  -1  -8   7 471.544 16.9553  16
  -1  -8   7 436.867 15.7466  33
   0   8  -7 668.268 27.0925  30
   0   8  -7 672.602 25.8878  13
   0  -8   7 730.970 32.7450   7
   0  -8   7 681.269 30.3287   2
   0  -8   7 685.668 23.5645  33
   0  -8   7 671.218 25.3127  16
   0  -8   7 700.446 32.3638  21
   0  -8   7 668.077 23.8663  11
  -1   8  -7 109.880 4.87427  30
   1  -8   7 116.476 4.51205  33
   1  -8   7 120.429 6.20331  21
   1  -8   7 123.768 6.32997   7
   1  -8   7 116.686 4.82707  16
   1  -8   7 116.367 4.54421  11
   1  -8   7 113.567 5.78991   2
   2  -8   7 141.396 7.14692  21
   2  -8   7 127.671 6.71299   2
   2  -8   7 137.410 5.15802  33
   2  -8   7 144.200 5.25824  11
   2  -8   7 145.571 7.25544   7
   3  -8   7 1.95801 0.37419  11
   3  -8   7 2.96978 0.66689  21
   4   7  -7 112.945 4.74496   3
   4   7  -7 118.627 4.58405  32
  -4  -7   7 112.050 4.85488   8
  -4  -7   7 113.711 4.23871  15
   3   7  -7 60.4762 2.88703   3
   3   7  -7 62.5056 2.88206  32
  -3  -7   7 62.0928 2.66554  15
  -3  -7   7 62.4857 2.83095   8
  -3  -7   7 54.7625 2.55642  33
  -3  -7   7 61.3490 3.44754   2
   2   7  -7 34.8176 1.73624  13
   2   7  -7 34.0375 2.03242  32
   2   7  -7 31.4331 1.89066   3
  -2  -7   7 33.0479 1.91287  15
  -2  -7   7 36.6028 2.48962   2
  -2  -7   7 34.4666 2.43021   7
  -2  -7   7 38.5521 1.91289  33
   1   7  -7 109.368 5.50070  22
   1   7  -7 124.086 4.83871  13
   1   7  -7 124.905 4.92831  32
   1   7  -7 121.132 5.07719  30
  -1  -7   7 117.691 4.65612  15
  -1  -7   7 122.658 5.00865  16
  -1  -7   7 116.396 6.34186   7
  -1  -7   7 114.553 4.63481  33
  -1  -7   7 110.253 4.57016  11
  -1  -7   7 114.030 6.18473  21
  -1  -7   7 115.260 6.03582   2
   0   7  -7 56.2928 2.62869  13
   0   7  -7 58.5881 3.02989  22
   0   7  -7 59.9370 2.77331  30
   0  -7   7 63.2780 2.96478  16
   0  -7   7 57.9298 2.68368  11
   0  -7   7 58.1512 3.53332   2
   0  -7   7 57.1360 2.70324  33
   0  -7   7 62.4064 3.69940  21
   0  -7   7 58.7454 2.71690  15
   0  -7   7 58.7557 3.74885   7
  -1   7  -7 79.2780 3.96725  22
  -1   7  -7 85.7823 3.66995  30
   1  -7   7 82.7675 3.73900  16
   1  -7   7 84.4970 4.56122   2
   1  -7   7 81.7573 3.48979  11
   1  -7   7 83.1521 4.79383  21
   1  -7   7 87.3846 4.93249   7
   1  -7   7 83.2358 3.49226  33
   2  -7   7 414.427 19.4172   2
   2  -7   7 440.527 20.7542  21
   2  -7   7 444.356 20.9916   7
   2  -7   7 431.852 15.2834  11
   2  -7   7 425.435 15.0395  33
   3  -7   7 24.3583 1.88053   2
   3  -7   7 27.1135 1.99189  21
   3  -7   7 26.0820 2.02037   7
   3  -7   7 25.8634 1.42468  11
   3  -7   7 27.2628 1.40961  33
   4  -7   7 77.4957 2.99426  11
   4  -7   7 78.7027 2.98006  33
   4   6  -7 18.0136 1.43264  32
   4   6  -7 17.2083 1.30786   3
  -4  -6   7 17.7865 1.53895   2
  -4  -6   7 18.5780 1.30258   8
   3   6  -7 469.791 18.2094   3
   3   6  -7 464.829 17.3186  14
   3   6  -7 470.229 17.2025  32
  -3  -6   7 462.755 16.3092  15
  -3  -6   7 474.051 18.9423   8
  -3  -6   7 484.846 21.2062   2
   2   6  -7 197.587 8.32783   3
   2   6  -7 205.399 7.97080  32
   2   6  -7 215.890 8.08298  13
   2   6  -7 190.236 8.44157  30
  -2  -6   7 205.495 7.56200  15
  -2  -6   7 207.584 9.83559   2
  -2  -6   7 227.650 8.61742   8
  -2  -6   7 201.071 10.3430   7
  -2  -6   7 193.566 7.49742  33
   1   6  -7 29.2374 1.83260  22
   1   6  -7 31.0119 1.59839  13
   1   6  -7 26.3278 1.74068   3
   1   6  -7 29.5512 1.87333  32
   1   6  -7 30.2000 1.66522  30
  -1  -6   7 27.8681 2.17469  21
  -1  -6   7 31.3750 1.91665  16
  -1  -6   7 28.7308 2.26866   7
  -1  -6   7 29.5835 1.72938  33
  -1  -6   7 27.7115 2.21600   2
  -1  -6   7 28.5523 1.74793  15
   0   6  -7 165.464 7.73449  22
   0   6  -7 164.291 6.76414  13
   0   6  -7 176.000 7.12047  30
   0  -6   7 161.244 7.24965  31
   0  -6   7 185.402 9.00442   7
   0  -6   7 179.087 6.92623  16
   0  -6   7 171.428 6.41332  33
   0  -6   7 165.756 8.29912   2
   0  -6   7 168.333 6.40112  15
   0  -6   7 167.923 8.73567  21
   0  -6   7 165.422 6.43548  11
  -1   6  -7 144.282 6.82628  22
  -1   6  -7 148.888 6.27975  30
   1  -6   7 157.847 6.20274  16
   1  -6   7 150.729 5.80150  11
   1  -6   7 158.495 8.08621   7
   1  -6   7 154.248 5.75836  33
   1  -6   7 141.423 6.39776  31
   1  -6   7 146.505 7.44485   2
   1  -6   7 150.470 7.89695  21
  -2   6  -7 563.262 25.3208  22
  -2   6  -7 565.145 23.3581  30
   2  -6   7 604.592 20.7557  11
   2  -6   7 612.863 28.4705   7
   2  -6   7 584.453 26.3464   2
   2  -6   7 612.886 20.4489  33
   2  -6   7 625.823 28.2072  21
   2  -6   7 554.271 22.7562  31
  -3   6  -7 10.4831 0.74890  22
   3  -6   7 10.7336 1.32680   2
   3  -6   7 10.7121 1.32467  31
   3  -6   7 11.7000 1.00364  33
   3  -6   7 11.7527 1.47617  21
   3  -6   7 11.6453 1.00263  11
   4  -6   7 163.193 5.97916  11
   4  -6   7 164.486 7.76102   2
   4  -6   7 162.805 8.10625  21
   4  -6   7 162.996 5.93173  33
   4  -6   7 158.468 6.78159  31
   5  -6   7 152.120 6.12665  31
   5  -6   7 141.805 6.99393   2
   5  -6   7 156.397 5.37516  33
  -5  -5   7 111.981 4.82142   8
   4   5  -7 21.6671 1.44905   3
   4   5  -7 21.4270 1.60725  32
  -4  -5   7 20.7183 1.72386   2
  -4  -5   7 22.5581 1.70770  18
  -4  -5   7 22.9247 1.56739   8
   3   5  -7 821.555 30.7488  14
   3   5  -7 874.013 30.4976  32
   3   5  -7 863.317 32.3461   3
  -3  -5   7 840.169 37.4874   2
  -3  -5   7 830.314 36.1506  18
  -3  -5   7 867.651 33.7629   8
   2   5  -7 1063.71 39.8178   3
   2   5  -7 1047.23 39.5271  13
   2   5  -7 1046.76 37.4545  32
  -2  -5   7 1122.57 41.5187   8
  -2  -5   7 1054.19 44.5845  18
  -2  -5   7 993.608 35.6321  15
  -2  -5   7 1005.32 46.1208   2
  -2  -5   7 1061.16 49.6537   7
   1   5  -7 3.98879 0.84153   3
   1   5  -7 4.59094 0.97443  32
   1   5  -7 5.71533 0.98276  28
   1   5  -7 5.03636 0.80826  22
   1   5  -7 4.74223 0.73046  30
   1   5  -7 4.58411 0.72782  13
  -1  -5   7 5.81831 1.27155   7
  -1  -5   7 5.99822 1.19154  18
  -1  -5   7 6.04267 0.96605  15
  -1  -5   7 5.16031 0.93444  31
  -1  -5   7 5.07646 0.80395   8
  -1  -5   7 5.36654 1.28034   2
   0   5  -7 9.99010 0.91551  30
   0   5  -7 12.4783 1.10219  28
   0   5  -7 9.62186 0.86624  13
   0   5  -7 11.0956 1.04517  22
   0  -5   7 11.4190 1.08802  15
   0  -5   7 13.5441 1.06202  11
   0  -5   7 9.70086 1.34664   2
   0  -5   7 10.9097 1.48131   7
   0  -5   7 9.69158 1.38015  21
   0  -5   7 10.0592 1.24913  31
   0  -5   7 11.0024 1.15316  16
  -1   5  -7 8.06875 0.75608  30
  -1   5  -7 8.33301 0.83763  28
   1  -5   7 8.42297 1.27086  21
   1  -5   7 5.70070 0.90705  33
   1  -5   7 7.57364 1.18124   2
   1  -5   7 7.50556 0.92080  11
   1  -5   7 7.15563 1.47766   7
   1  -5   7 6.69129 0.99677  16
   1  -5   7 7.87514 1.14259  31
  -2   5  -7 92.9009 4.12449  30
  -2   5  -7 96.3649 4.43956  28
  -2   5  -7 94.4559 4.49792  22
   2  -5   7 100.938 5.56242   7
   2  -5   7 100.218 5.41343  21
   2  -5   7 90.0581 4.43061  31
   2  -5   7 97.1461 3.91100  33
   2  -5   7 101.124 5.13807   2
   2  -5   7 98.5208 3.95845  11
  -3   5  -7 5.91557 0.57596  22
   3  -5   7 5.00800 0.82215  11
   3  -5   7 5.11804 0.79172  33
   3  -5   7 4.65885 0.98814  31
   3  -5   7 4.54822 1.19761  21
   3  -5   7 4.30399 1.07100   2
   3  -5   7 5.84980 1.33217   7
  -4   5  -7 12.9666 0.85729  22
   4  -5   7 14.4170 1.04677  11
   4  -5   7 17.9069 1.55986   2
   4  -5   7 13.7269 1.06626  33
   4  -5   7 12.7538 1.77077  10
   4  -5   7 16.5903 1.42712  31
   5  -5   7 180.118 8.76486  10
   5  -5   7 170.834 8.56280   2
   5  -5   7 191.312 6.59882  33
   5  -5   7 182.079 6.62093  11
   5  -5   7 190.024 7.56956  31
   6  -5   7 888.744 35.6773   2
   6  -5   7 732.197 35.6310  10
   6  -5   7 823.588 30.7846  31
   5   4  -7 1.67415 0.54978   1
   5   4  -7 0.78463 0.56586  32
  -5  -4   7 1.12069 0.36665   8
   4   4  -7 0.85207 0.69281  32
   4   4  -7 0.69221 0.43823   3
  -4  -4   7 1.30941 0.55948  18
  -4  -4   7 0.34514 0.46788   8
   3   4  -7 677.902 25.1526   3
   3   4  -7 630.662 23.8849  14
   3   4  -7 642.819 23.7253  32
  -3  -4   7 670.504 28.1369  18
  -3  -4   7 653.562 26.2874   8
   2   4  -7 154.226 6.36433  32
   2   4  -7 157.935 6.35563  14
   2   4  -7 166.952 6.25760  13
   2   4  -7 154.487 6.58483   3
  -2  -4   7 156.511 6.03742  15
  -2  -4   7 145.407 7.28392  18
  -2  -4   7 157.124 6.88849   8
   1   4  -7 155.761 7.27936  22
   1   4  -7 156.295 6.23336  32
   1   4  -7 153.524 6.47662   3
   1   4  -7 161.125 6.56441  30
   1   4  -7 152.114 6.22057  13
   1   4  -7 145.669 7.04991  37
  -1  -4   7 152.398 5.80936  15
  -1  -4   7 166.181 8.19813   7
  -1  -4   7 145.529 7.21137  18
  -1  -4   7 155.101 7.61486   2
  -1  -4   7 156.599 6.70732   8
   0   4  -7 112.059 5.29313  29
   0   4  -7 107.389 4.73173  32
   0   4  -7 109.736 5.34588  28
   0   4  -7 109.548 4.70843  13
   0   4  -7 115.421 5.40986  22
   0   4  -7 109.692 4.88789   3
   0   4  -7 104.963 5.15683  37
   0   4  -7 117.868 4.96827  30
   0  -4   7 121.340 4.92471  16
   0  -4   7 128.809 5.68025  18
   0  -4   7 112.573 6.11807  21
   0  -4   7 115.946 4.48408  15
   0  -4   7 119.907 6.34185   7
   0  -4   7 117.282 5.09653  31
   0  -4   7 119.258 5.86776   2
   0  -4   7 114.219 4.44862  33
   0  -4   7 117.416 5.00605   8
  -1   4  -7 175.151 7.77168  28
  -1   4  -7 174.655 7.23123  30
  -1   4  -7 173.951 7.85860  22
  -1   4  -7 173.268 7.64899  29
   1  -4   7 177.604 6.46484  33
   1  -4   7 178.142 7.00189  16
   1  -4   7 171.180 6.52725  11
   1  -4   7 171.414 7.27010  31
   1  -4   7 176.041 8.39544   2
   1  -4   7 180.099 9.09827   7
   1  -4   7 170.143 8.89149  21
   1  -4   7 170.736 8.08955  18
   1  -4   7 177.395 6.47507  15
  -2   4  -7 302.277 13.2495  22
  -2   4  -7 295.365 12.8537  29
  -2   4  -7 295.969 12.2023  30
  -2   4  -7 305.200 13.0912  28
   2  -4   7 322.636 15.1314   7
   2  -4   7 308.993 14.8953  21
   2  -4   7 307.558 10.9446  11
   2  -4   7 300.490 12.1017  31
   2  -4   7 309.798 13.9764   2
   2  -4   7 309.833 10.8001  33
   2  -4   7 286.231 13.4984  18
  -3   4  -7 73.6161 3.43356  22
  -3   4  -7 70.6431 3.37818  28
   3  -4   7 69.4226 3.91277  18
   3  -4   7 72.8864 3.54976  31
   3  -4   7 74.1405 4.03120   2
   3  -4   7 74.6660 3.08199  11
   3  -4   7 77.1273 3.08731  33
   3  -4   7 74.2041 4.28201   7
   3  -4   7 68.3691 4.12744  10
   3  -4   7 74.4328 4.22214  21
  -4   4  -7 17.1568 0.98044  22
   4  -4   7 14.7798 1.08628  11
   4  -4   7 12.1011 1.77870  10
   4  -4   7 18.1607 1.17707  33
   4  -4   7 14.5650 1.43918  21
   4  -4   7 13.2216 1.42705  31
   4  -4   7 14.3830 1.44677   2
  -5   4  -7 189.258 9.14203  22
   5  -4   7 212.630 7.66830  11
   5  -4   7 209.233 10.1638  10
   5  -4   7 221.182 9.94083   2
   5  -4   7 208.419 8.67054  31
   5  -4   7 219.144 7.61618  33
   5  -4   7 217.331 8.67607  38
   6  -4   7 611.905 22.8396  38
   6  -4   7 585.516 26.2060   2
   6  -4   7 591.933 26.3148  10
   6  -4   7 601.659 20.2883  33
   6  -4   7 578.531 22.7300  31
   5   3  -7 50.0875 2.33302   1
   5   3  -7 57.4507 2.73642   8
  -5  -3   7 63.7707 2.93971  18
   4   3  -7 102.383 4.96096   8
   4   3  -7 110.303 4.65614  32
   4   3  -7 112.549 4.64472   3
   4   3  -7 102.114 4.43776  19
  -4  -3   7 115.189 5.27467  18
  -4  -3   7 109.535 5.00768   8
   3   3  -7 240.355 9.83716   3
   3   3  -7 258.053 9.53012  32
  -3  -3   7 249.794 11.0362  18
  -3  -3   7 230.084 10.3538   8
   2   3  -7 631.879 23.4084  14
   2   3  -7 640.046 23.1811  32
   2   3  -7 654.221 24.5234   3
  -2  -3   7 624.734 25.6098   8
  -2  -3   7 637.273 27.4476  18
   1   3  -7 62.4770 3.38599  37
   1   3  -7 68.6985 3.19891  32
   1   3  -7 69.7867 2.95625  13
   1   3  -7 57.2538 3.97066  36
   1   3  -7 69.6711 3.13541  30
   1   3  -7 65.2209 3.17587   3
  -1  -3   7 67.5819 3.32182   8
  -1  -3   7 72.3221 4.09682   7
  -1  -3   7 61.8818 3.51863  18
  -1  -3   7 65.4104 3.74842   2
   0   3  -7 860.721 34.9188  28
   0   3  -7 762.612 29.3997  32
   0   3  -7 794.491 31.1066  13
   0   3  -7 841.351 32.5865  30
   0   3  -7 882.662 35.3706  22
   0   3  -7 812.130 33.1437  37
   0   3  -7 805.527 31.2563   3
   0   3  -7 796.223 34.2931  29
   0  -3   7 787.389 38.7192  21
   0  -3   7 808.397 28.0261  15
   0  -3   7 839.179 32.5691   8
   0  -3   7 850.132 36.2941   2
   0  -3   7 880.550 39.3093   7
   0  -3   7 807.641 35.1295  18
  -1   3  -7 374.613 16.0123  37
  -1   3  -7 404.449 16.8593  28
  -1   3  -7 355.530 14.9842  13
  -1   3  -7 400.203 17.0560  22
  -1   3  -7 397.052 15.7190  30
  -1   3  -7 392.208 16.5669  29
  -1   3  -7 377.514 15.2111   3
   1  -3   7 397.442 13.6858  33
   1  -3   7 383.188 15.6810   8
   1  -3   7 391.523 15.3077  31
   1  -3   7 406.763 13.6812  15
   1  -3   7 374.659 17.1006  18
   1  -3   7 407.718 17.7158   2
   1  -3   7 397.333 18.9197  21
   1  -3   7 378.952 13.8685  11
   1  -3   7 425.455 19.2492   7
   1  -3   7 409.110 14.8130  16
  -2   3  -7 335.249 14.5108  22
  -2   3  -7 327.153 14.0968  29
  -2   3  -7 331.724 13.3724  30
  -2   3  -7 333.035 14.3369  28
   2  -3   7 315.662 14.6771  18
   2  -3   7 315.009 13.1035  31
   2  -3   7 333.726 11.7303  33
   2  -3   7 346.107 16.4268   7
   2  -3   7 345.502 11.9263  11
   2  -3   7 343.001 15.1966   2
   2  -3   7 341.431 16.2183  21
   2  -3   7 340.650 15.2940  10
  -3   3  -7 249.679 10.4221  30
  -3   3  -7 261.097 11.3311  22
  -3   3  -7 261.851 11.1989  28
   3  -3   7 242.643 12.1315  10
   3  -3   7 268.697 12.9108   7
   3  -3   7 269.411 12.7833  21
   3  -3   7 264.704 9.27750  33
   3  -3   7 267.555 12.0389   2
   3  -3   7 250.358 11.6565  18
   3  -3   7 260.720 10.4376  31
   3  -3   7 260.549 9.39174  11
  -4   3  -7 1231.11 51.8614  22
  -4   3  -7 1173.05 51.1534  28
   4  -3   7 1137.94 53.4013  10
   4  -3   7 1184.39 56.9291  21
   4  -3   7 1254.07 42.0443  11
   4  -3   7 1272.90 53.3958   2
   4  -3   7 1256.55 41.4063  33
   4  -3   7 1246.66 46.1737  31
  -5   3  -7 52.8294 2.49390  30
   5  -3   7 57.4828 2.99432  38
   5  -3   7 55.1655 3.59953  10
   5  -3   7 56.5712 2.43530  33
   5  -3   7 56.1481 2.41667  11
   5  -3   7 54.4558 2.92247  31
   5  -3   7 54.4552 3.24842   2
   6  -3   7 4.79350 1.12170  10
   6  -3   7 6.59686 1.28782  38
   6  -3   7 5.64591 1.00585   2
   6  -3   7 4.02121 0.67261  33
   6  -3   7 5.41693 0.66772  11
   7  -3   7 13.1164 1.27436  38
   7  -3   7 13.8149 1.13927  31
   7  -3   7 13.0458 0.84271  33
   7  -3   7 13.9425 1.52130  10
   4   2  -7 249.596 9.27866  32
   4   2  -7 234.255 10.1344   8
   4   2  -7 230.143 8.98533  19
  -4  -2   7 230.971 10.1599   8
  -4  -2   7 264.989 10.8566  18
   3   2  -7 0.74135 0.55202   8
   3   2  -7 0.84868 0.54129   3
   3   2  -7 1.02871 0.77919  32
  -3  -2   7 2.20763 0.73295   8
  -3  -2   7 0.72054 0.59278  18
   2   2  -7 47.5655 2.50693   3
   2   2  -7 49.8184 2.60980  14
   2   2  -7 46.7987 2.59200  32
  -2  -2   7 42.9924 2.61944   8
  -2  -2   7 42.8145 2.74430  18
   1   2  -7 1.60089 0.67008  14
   1   2  -7 1.03711 0.34810  13
   1   2  -7 0.46888 0.71722  32
   1   2  -7 1.42008 0.63851  37
   1   2  -7 2.18218 0.84007  36
   1   2  -7 1.21761 0.49488   3
  -1  -2   7 1.00281 0.60066  36
  -1  -2   7 1.70096 0.61412  18
  -1  -2   7 0.79095 0.45923   8
   0   2  -7 49.9354 2.37429  30
   0   2  -7 49.8426 2.59506  22
   0   2  -7 49.5148 2.62283  37
   0   2  -7 44.0309 3.04070  36
   0   2  -7 45.6176 2.23339  13
   0   2  -7 44.5604 2.43131  32
   0   2  -7 47.1353 2.39528   3
   0  -2   7 46.5644 2.72367  18
   0  -2   7 48.7764 2.89344  36
   0  -2   7 51.2984 2.53279   8
   0  -2   7 48.4880 3.00257  21
   0  -2   7 55.5844 2.93965   2
   0  -2   7 53.8469 3.27438   7
  -1   2  -7 102.117 4.59460  22
  -1   2  -7 101.416 4.23131  30
  -1   2  -7 90.6952 4.12272   3
  -1   2  -7 99.4199 4.44627  37
  -1   2  -7 92.2585 4.00386  13
  -1   2  -7 98.0347 4.47660  29
  -1   2  -7 101.184 4.55169  28
   1  -2   7 94.7789 4.88868   2
   1  -2   7 94.1306 4.28458   8
   1  -2   7 94.2243 4.73785  18
   1  -2   7 96.6121 5.25404  21
   1  -2   7 106.010 5.46656   7
  -2   2  -7 698.107 28.5021  30
  -2   2  -7 751.533 30.5284  28
  -2   2  -7 748.157 30.9261  22
  -2   2  -7 694.455 28.9252  37
  -2   2  -7 722.385 30.0121  29
   2  -2   7 776.299 34.4425   7
   2  -2   7 729.264 31.8081   2
   2  -2   7 729.827 24.6618  33
   2  -2   7 705.502 28.4414   8
   2  -2   7 675.295 30.8113  18
   2  -2   7 737.709 27.5077  31
   2  -2   7 689.159 25.0345  11
   2  -2   7 716.741 31.8853  10
   2  -2   7 736.870 34.0652  21
  -3   2  -7 380.220 15.9082  22
  -3   2  -7 365.395 15.7012  28
  -3   2  -7 368.385 14.6567  30
   3  -2   7 373.087 17.8338   7
   3  -2   7 367.461 17.6776  21
   3  -2   7 362.693 14.3549  31
   3  -2   7 358.698 16.7278  10
   3  -2   7 385.733 16.6190   2
   3  -2   7 351.309 16.0780  18
   3  -2   7 368.754 13.0221  11
   3  -2   7 362.438 12.8137  33
  -4   2  -7 1369.05 59.1275  29
  -4   2  -7 1416.62 55.8693  30
  -4   2  -7 1451.58 61.2469  22
  -4   2  -7 1423.54 67.1464  28
   4  -2   7 1437.81 66.4022  21
   4  -2   7 1464.76 49.0066  11
   4  -2   7 1446.61 53.9349  38
   4  -2   7 1350.40 62.1744  10
   4  -2   7 1476.74 62.1783   2
   4  -2   7 1435.50 53.7323  31
   4  -2   7 1361.84 60.3025  18
   4  -2   7 1467.08 48.2464  33
  -5   2  -7 78.9029 3.78327  28
  -5   2  -7 81.2199 3.53370  30
   5  -2   7 81.7161 3.86631  31
   5  -2   7 83.3620 3.33208  11
   5  -2   7 85.1457 3.33929  33
   5  -2   7 82.0723 4.71319  10
   5  -2   7 80.2370 3.98384  38
   5  -2   7 85.3040 4.42245   2
  -6   2  -7 25.5079 1.45577  22
   6  -2   7 24.8723 2.33617  10
   6  -2   7 26.4063 1.36698  11
   6  -2   7 26.7676 1.83249  31
   6  -2   7 25.8417 1.40208  33
   6  -2   7 26.7199 1.94668   2
   6  -2   7 23.4752 1.93299  38
  -7   2  -7 41.7264 1.98343  30
   7  -2   7 42.4448 2.49306  38
   7  -2   7 45.8167 2.32645  31
   7  -2   7 43.6577 2.81268  10
   7  -2   7 43.6721 2.56158   2
   7  -2   7 43.7089 1.90678  33
   4   1  -7 608.626 24.2953   8
   4   1  -7 553.296 21.5209  19
   4   1  -7 615.765 21.9788  32
   4   1  -7 606.596 19.8793   1
  -4  -1   7 631.833 26.0318  18
  -4  -1   7 628.322 23.1447   3
   3   1  -7 2.80616 0.72395   8
   3   1  -7 1.89003 0.88738  32
  -3  -1   7 1.84302 0.59676  18
   2   1  -7 26.3871 2.05243  32
   2   1  -7 28.7442 1.79641   3
   2   1  -7 26.8147 1.99387  14
   2   1  -7 24.5767 1.90267   8
  -2  -1   7 26.1355 1.92439   8
  -2  -1   7 29.5280 1.73648   3
  -2  -1   7 25.5402 1.98580  18
   1   1  -7 249.553 11.0063  37
   1   1  -7 260.003 9.89221  32
   1   1  -7 268.296 10.0572  14
   1   1  -7 245.475 12.7097  36
   1   1  -7 268.151 10.3341   3
  -1  -1   7 254.515 12.5365  36
  -1  -1   7 264.014 10.8790   8
  -1  -1   7 261.822 11.6085  18
   0   1  -7 90.1995 4.00975  14
   0   1  -7 90.7753 4.31936  37
   0   1  -7 85.7567 3.89345  32
   0   1  -7 102.202 4.07633   3
   0   1  -7 90.8461 5.06269  36
   0   1  -7 90.0717 3.83115  13
   0  -1   7 98.1384 4.58509  18
   0  -1   7 89.3414 4.82215  36
   0  -1   7 91.8079 4.23375   8
  -1   1  -7 39.3866 1.87668  13
  -1   1  -7 41.2761 2.19370  37
  -1   1  -7 40.3465 2.12009  29
  -1   1  -7 38.5882 2.56314  36
  -1   1  -7 42.7028 1.98600  30
  -1   1  -7 39.9235 2.10338  14
  -1   1  -7 40.6082 2.13637  28
  -1   1  -7 37.5938 1.99166   3
  -1   1  -7 43.0798 2.17816  22
   1  -1   7 39.5852 2.33621  18
   1  -1   7 43.1045 2.74295   7
   1  -1   7 38.4851 2.31191  36
   1  -1   7 39.4489 2.56177  21
   1  -1   7 38.6246 2.08730   8
  -2   1  -7 76.0134 3.46344  37
  -2   1  -7 75.9208 3.56098  22
  -2   1  -7 73.8566 3.26328  30
  -2   1  -7 76.4325 3.53648  28
  -2   1  -7 67.0664 3.16062  13
   2  -1   7 75.2983 3.38547  31
   2  -1   7 77.3942 4.17431  21
   2  -1   7 74.0073 3.07462  11
   2  -1   7 74.0540 3.77358  18
   2  -1   7 71.8510 3.39890   8
   2  -1   7 79.6850 4.29628   7
  -3   1  -7 297.095 12.5635  37
  -3   1  -7 321.934 13.3784  22
  -3   1  -7 309.020 13.0008  29
  -3   1  -7 306.574 12.3163  30
   3  -1   7 307.265 12.0583  31
   3  -1   7 304.167 10.7463  33
   3  -1   7 306.449 13.5361  18
   3  -1   7 309.267 14.9720   7
   3  -1   7 300.495 14.0699  10
   3  -1   7 311.007 10.9403  11
   3  -1   7 291.003 12.3338   8
   3  -1   7 314.509 13.9273   2
   3  -1   7 318.964 14.8927  21
  -4   1  -7 1981.04 95.8037  28
  -4   1  -7 2032.92 83.7042  22
  -4   1  -7 1959.79 81.1269  29
  -4   1  -7 1750.86 77.0747  37
  -4   1  -7 1987.41 77.0621  30
   4  -1   7 1960.69 82.0112  18
   4  -1   7 2007.37 73.0273  31
   4  -1   7 2033.65 84.5068   2
   4  -1   7 1989.85 67.4913  11
   4  -1   7 1836.68 84.4071  10
   4  -1   7 1910.93 65.5972  33
   4  -1   7 1802.50 73.2535  38
   4  -1   7 2044.75 90.3948  21
  -5   1  -7 45.6036 2.33248  28
  -5   1  -7 46.1927 2.40853  29
  -5   1  -7 47.5675 2.16241  30
   5  -1   7 43.6482 2.98474  10
   5  -1   7 47.1788 2.08818  11
   5  -1   7 48.9693 2.82224   2
   5  -1   7 46.1898 2.09625  33
   5  -1   7 47.9669 2.48800  31
   5  -1   7 42.3187 2.60323  38
  -6   1  -7 150.234 6.01581  30
  -6   1  -7 142.047 6.52092  22
   6  -1   7 146.706 6.17682  31
   6  -1   7 143.630 5.41804  11
   6  -1   7 142.042 6.39719  38
   6  -1   7 139.458 7.28393  10
   6  -1   7 147.944 7.07210   2
   6  -1   7 145.430 5.40405  33
  -7   1  -7 42.1855 1.98459  13
  -7   1  -7 45.3765 2.08097  30
   7  -1   7 44.5930 2.89150  10
   7  -1   7 43.8036 2.82729  20
   7  -1   7 44.4809 2.37520  31
   7  -1   7 44.5529 2.00677  33
   7  -1   7 45.4301 2.62553  38
   7  -1   7 43.2087 2.63888   2
  -8   1  -7 142.640 5.75039  13
   8  -1   7 152.484 6.14129  38
   8  -1   7 150.841 7.02009  20
   8  -1   7 139.532 5.93925  31
   8  -1   7 152.889 5.29443  33
   4   0  -7 148.075 6.11078  19
   4   0  -7 164.014 6.80427   8
   4   0  -7 162.055 5.68625   1
   4   0  -7 155.466 6.26487  32
  -4   0   7 162.995 7.24364  18
  -4   0   7 160.492 6.42180   3
   3   0  -7 51.3123 2.50835   1
   3   0  -7 54.4338 2.90230  32
   3   0  -7 50.0501 2.81529   8
  -3   0   7 49.8245 2.92887  18
  -3   0   7 47.7378 2.55024   3
   2   0  -7 39.6282 2.33792  14
   2   0  -7 40.7205 2.18969   3
   2   0  -7 39.3994 2.39055   8
   2   0  -7 37.5385 2.44678  32
  -2   0   7 38.1478 2.39603   8
  -2   0   7 38.5314 2.15033   3
  -2   0   7 36.7754 2.46285  18
   1   0  -7 481.432 23.3333  36
   1   0  -7 481.490 20.0156   8
   1   0  -7 453.540 20.2485  37
   1   0  -7 516.002 18.1663  32
   1   0  -7 520.131 18.4387  14
   1   0  -7 521.570 19.0956   3
  -1   0   7 469.635 23.1746  36
  -1   0   7 502.267 19.0221   3
  -1   0   7 502.857 21.4289  18
  -1   0   7 493.076 20.0328   8
   0   0  -7 636.698 25.3945  37
   0   0  -7 631.278 22.9329  14
   0   0  -7 604.974 22.5282  32
   0   0  -7 612.660 29.1309  36
   0   0  -7 632.688 23.8870   3
   0   0   7 625.227 26.8252  18
   0   0   7 643.249 25.0253   8
   0   0   7 619.657 28.9655  36
  -1   0  -7 19.9561 1.38426  14
  -1   0  -7 20.2801 1.16806  13
  -1   0  -7 20.4857 1.20589  30
  -1   0  -7 20.2215 1.29682   3
  -1   0  -7 20.2519 1.67561  36
   1   0   7 22.2054 1.51078  18
   1   0   7 23.1774 1.57721  36
   1   0   7 20.4362 1.65265  21
   1   0   7 20.7009 1.37862   8
  -2   0  -7 176.146 7.39144  37
  -2   0  -7 176.865 7.74606  22
  -2   0  -7 162.534 7.58922   4
  -2   0  -7 169.726 7.12254  30
  -2   0  -7 163.372 8.54271  36
  -2   0  -7 174.654 6.81526  13
  -2   0  -7 166.453 7.52886  29
   2   0   7 174.538 8.30967  36
   2   0   7 178.030 7.30844   8
   2   0   7 189.494 7.15037  31
   2   0   7 179.181 8.73505  21
   2   0   7 173.358 7.87445  18
  -3   0  -7 180.632 7.74408  22
  -3   0  -7 162.484 6.80162  13
  -3   0  -7 178.238 7.13382  30
  -3   0  -7 174.905 7.54216  29
  -3   0  -7 172.672 7.35844  37
   3   0   7 174.796 7.91943  18
   3   0   7 182.967 8.72947  21
   3   0   7 168.962 6.36064  11
   3   0   7 178.109 7.05649  31
   3   0   7 166.101 7.22410   8
  -4   0  -7 166.490 7.12318  28
  -4   0  -7 163.843 7.01412  29
  -4   0  -7 148.950 6.30788  13
  -4   0  -7 160.658 6.82764  37
  -4   0  -7 152.844 6.44713   3
  -4   0  -7 168.266 6.63175  30
   4   0   7 152.668 6.70765   8
   4   0   7 163.697 5.86234  33
   4   0   7 162.465 7.80745  10
   4   0   7 167.158 6.63585  31
   4   0   7 166.954 8.10673  21
   4   0   7 164.611 7.60549   2
   4   0   7 148.012 6.73537  38
   4   0   7 156.277 5.94052  11
   4   0   7 170.957 7.48378  18
  -5   0  -7 51.7163 2.50527  22
  -5   0  -7 44.4441 2.37903  37
  -5   0  -7 53.1274 2.30629  30
  -5   0  -7 47.7681 2.43980  29
  -5   0  -7 45.3497 2.17997  13
  -5   0  -7 50.2894 2.49600  28
   5   0   7 48.4750 2.90113  21
   5   0   7 49.2870 2.15195  33
   5   0   7 49.3441 2.52188  31
   5   0   7 51.2401 2.19232  11
   5   0   7 47.8419 3.06590  10
   5   0   7 50.1152 2.86941   2
   5   0   7 52.0756 2.74627  38
  -6   0  -7 189.799 8.38675  28
  -6   0  -7 190.895 8.46060  22
  -6   0  -7 182.315 7.43208  13
   6   0   7 206.351 7.85730  31
   6   0   7 184.657 9.16179  10
   6   0   7 188.435 8.05699  38
   6   0   7 187.794 6.89692  33
   6   0   7 195.995 9.18838  20
   6   0   7 184.791 8.93170   2
   6   0   7 186.604 6.95776  11
  -7   0  -7 70.3020 3.47978  22
  -7   0  -7 73.5852 3.19243  30
  -7   0  -7 71.5823 3.05598  13
   7   0   7 73.1289 3.86579   2
   7   0   7 71.2606 4.09184  20
   7   0   7 71.6981 2.93383  33
   7   0   7 73.5834 3.41225  31
   7   0   7 72.0084 3.64313  38
   7   0   7 69.2287 4.05275  10
  -8   0  -7 1175.52 40.2711  15
  -8   0  -7 1160.10 46.8822  30
  -8   0  -7 1196.69 44.8191  13
   8   0   7 1222.64 51.9968   2
   8   0   7 1213.14 45.1926  38
   8   0   7 1200.80 52.3424  20
   8   0   7 1196.67 51.9021  10
   8   0   7 1181.59 44.8848  31
   8   0   7 1202.08 40.3653  33
   4  -1  -7 55.0087 2.59156  32
   4  -1  -7 53.6813 2.62451   8
   4  -1  -7 56.1058 2.33122   1
   4  -1  -7 55.9759 2.63200  16
  -4   1   7 60.1901 2.56254   3
  -4   1   7 53.5124 2.82805  18
   3  -1  -7 11.0515 1.19765   8
   3  -1  -7 12.2326 1.52620  32
  -3   1   7 9.72294 1.21359  18
  -3   1   7 10.4065 1.11787   3
   2  -1  -7 75.0189 3.49204  14
   2  -1  -7 70.3161 3.13192   1
   2  -1  -7 71.1000 3.64026   8
   2  -1  -7 74.2270 3.58506  32
  -2   1   7 73.3513 3.41550   3
  -2   1   7 66.5780 3.76720  18
   1  -1  -7 456.134 18.5316   8
   1  -1  -7 465.180 16.8133  32
   1  -1  -7 470.097 17.0711  14
   1  -1  -7 459.463 17.5904   3
  -1   1   7 461.742 17.6182   3
  -1   1   7 438.677 19.7562  18
  -1   1   7 436.790 18.5271   8
   0  -1  -7 927.714 35.2346   3
   0  -1  -7 917.979 36.8829   8
   0  -1  -7 938.273 33.2349  32
   0  -1  -7 937.650 33.7774  14
   0  -1  -7 890.557 42.8576  36
   0   1   7 931.971 35.2042   3
   0   1   7 942.881 42.8077  36
   0   1   7 908.136 37.2838  37
   0   1   7 942.685 39.5652  18
   0   1   7 972.182 36.9364   8
  -1  -1  -7 110.882 4.74272  14
  -1  -1  -7 115.536 5.14296  37
  -1  -1  -7 110.634 5.98280  36
  -1  -1  -7 111.404 4.78501   3
  -1  -1  -7 116.994 5.55190  26
   1   1   7 113.812 5.10037   8
   1   1   7 124.051 5.90534  36
   1   1   7 113.534 5.41001  18
  -2  -1  -7 667.477 24.5423  14
  -2  -1  -7 662.925 31.2452  36
  -2  -1  -7 717.873 27.2543  37
  -2  -1  -7 656.853 26.7015  30
  -2  -1  -7 636.759 25.5163  13
  -2  -1  -7 642.924 25.6317   3
   2   1   7 697.448 31.0634  36
   2   1   7 701.999 31.9088  21
   2   1   7 703.516 26.8644   8
   2   1   7 674.286 28.8236  18
  -3  -1  -7 1.95883 0.45543  37
  -3  -1  -7 0.81738 0.47932  36
  -3  -1  -7 2.03735 0.43025  29
  -3  -1  -7 1.61669 0.30700  13
  -3  -1  -7 1.38030 0.40149   3
   3   1   7 0.91370 0.29322  11
   3   1   7 0.72834 0.37858  18
   3   1   7 1.13975 0.38391   8
   3   1   7 1.48431 0.46740  36
   3   1   7 0.67506 0.47971  21
  -4  -1  -7 29.2939 1.61121  37
  -4  -1  -7 25.7583 1.46844   3
  -4  -1  -7 25.6817 1.81006  26
  -4  -1  -7 26.7887 1.54440  28
  -4  -1  -7 25.7687 1.35101  13
  -4  -1  -7 26.6581 1.51199  29
  -4  -1  -7 27.5364 1.41242  30
   4   1   7 28.6600 1.58718  31
   4   1   7 28.0214 2.02796  10
   4   1   7 26.2917 1.30816  33
   4   1   7 26.5130 1.91711  21
   4   1   7 28.9822 1.39779  11
   4   1   7 25.8925 1.57651   8
   4   1   7 27.4957 1.78843  18
  -5  -1  -7 102.770 4.76843  29
  -5  -1  -7 103.979 4.43126   3
  -5  -1  -7 109.487 4.88659  22
  -5  -1  -7 102.566 4.28036  13
  -5  -1  -7 105.623 4.84413  28
  -5  -1  -7 108.986 4.48707  30
  -5  -1  -7 104.591 4.69461  37
   5   1   7 95.9170 4.72098  38
   5   1   7 106.407 4.65287   8
   5   1   7 108.190 4.57450  31
   5   1   7 105.257 4.10245  11
   5   1   7 106.196 5.42050  10
   5   1   7 105.945 5.17027  18
   5   1   7 108.979 4.04137  33
  -6  -1  -7 7.83160 0.81326  28
  -6  -1  -7 7.49828 0.76892  22
  -6  -1  -7 7.90328 0.70309  13
  -6  -1  -7 7.20932 0.89379   3
   6   1   7 9.06224 1.03773  31
   6   1   7 5.06619 1.18209  20
   6   1   7 5.68572 1.19967  10
   6   1   7 8.10491 0.81222  33
   6   1   7 8.64430 1.06685   2
   6   1   7 6.60700 0.79603  11
   6   1   7 7.32402 1.27673  38
  -7  -1  -7 22.8881 1.44892  22
  -7  -1  -7 23.8914 1.28828  13
  -7  -1  -7 24.5160 1.33487  30
   7   1   7 22.3256 1.93644  10
   7   1   7 23.0445 2.05936  20
   7   1   7 23.4325 1.80821  38
   7   1   7 22.7348 1.55738  31
   7   1   7 21.6251 1.72222   2
   7   1   7 23.8694 1.34321  33
  -8  -1  -7 437.516 15.2219  15
  -8  -1  -7 419.435 17.5086  30
  -8  -1  -7 439.986 16.7433  13
   8   1   7 461.541 19.9043  20
   8   1   7 415.313 19.5475  10
   8   1   7 455.009 17.1625  38
   8   1   7 454.143 15.1960  33
   3  -2  -7 126.636 5.70868  16
   3  -2  -7 140.776 5.61726  32
   3  -2  -7 140.391 5.94084   8
   3  -2  -7 133.730 4.97925   1
  -3   2   7 146.787 5.71190   3
  -3   2   7 130.298 6.28682  18
   2  -2  -7 14.7764 1.29445   8
   2  -2  -7 11.1963 1.19879   1
   2  -2  -7 11.7289 1.47914  32
  -2   2   7 10.9828 1.21764  18
  -2   2   7 11.8502 1.19128   3
   1  -2  -7 104.108 4.62768  14
   1  -2  -7 107.905 4.57658  32
   1  -2  -7 103.535 4.81411   8
  -1   2   7 98.0536 5.01798  18
  -1   2   7 102.691 4.53003   3
   0  -2  -7 238.643 9.04947  14
   0  -2  -7 231.391 9.15961   3
   0  -2  -7 232.876 9.69484   8
   0  -2  -7 221.175 11.2961  36
   0  -2  -7 241.118 8.84945  32
   0   2   7 230.749 10.2819  18
   0   2   7 218.083 11.2399  36
   0   2   7 218.012 9.68538  37
   0   2   7 234.385 9.17770   3
   0   2   7 235.513 9.77908   8
  -1  -2  -7 174.769 8.76983  36
  -1  -2  -7 169.526 7.46682   8
  -1  -2  -7 184.361 8.14196  26
  -1  -2  -7 174.946 7.06018   3
  -1  -2  -7 170.670 7.53683  37
  -1  -2  -7 181.298 6.95647  14
   1   2   7 163.495 7.42008  37
   1   2   7 175.269 8.65210  36
   1   2   7 176.189 7.51559   8
   1   2   7 180.346 7.93271  18
   1   2   7 173.868 7.03652   3
  -2  -2  -7 951.096 44.4106  36
  -2  -2  -7 944.038 40.7432  26
  -2  -2  -7 1001.89 38.7601  37
  -2  -2  -7 964.537 36.5239   3
  -2  -2  -7 935.697 34.8784  14
   2   2   7 1001.97 38.2361   8
   2   2   7 993.135 44.2856  36
   2   2   7 948.392 40.9600  18
  -3  -2  -7 16.1253 1.43954  26
  -3  -2  -7 16.4606 0.95307  13
  -3  -2  -7 17.0455 1.08925   3
  -3  -2  -7 14.2374 1.37482  36
  -3  -2  -7 15.7133 1.15271  37
   3   2   7 14.5643 0.98350  11
   3   2   7 17.1354 1.20133   8
   3   2   7 14.5435 1.22410  18
   3   2   7 15.1510 1.30287  36
  -4  -2  -7 100.411 4.29674  13
  -4  -2  -7 105.834 5.14511  26
  -4  -2  -7 104.092 5.59911  36
  -4  -2  -7 108.783 4.92115  22
  -4  -2  -7 106.497 4.46187   3
  -4  -2  -7 110.633 4.79577  37
  -4  -2  -7 107.838 4.51319  30
   4   2   7 106.479 5.35860  36
   4   2   7 106.836 4.75470   8
   4   2   7 103.776 5.06636  18
   4   2   7 110.326 4.12630  11
  -5  -2  -7 481.847 18.2699   3
  -5  -2  -7 462.603 18.1078  13
  -5  -2  -7 498.263 20.5876  22
  -5  -2  -7 446.987 20.3797  28
  -5  -2  -7 466.030 20.3934  26
  -5  -2  -7 490.926 19.4036  37
   5   2   7 486.093 16.7357  11
   5   2   7 464.117 20.5709  18
   5   2   7 476.667 16.4299  33
   5   2   7 482.952 19.1388   8
   5   2   7 483.815 21.2920  10
  -6  -2  -7 71.7985 2.85898  30
  -6  -2  -7 61.1453 2.69268  13
  -6  -2  -7 63.2462 3.08607  22
  -6  -2  -7 61.7804 2.90004  17
  -6  -2  -7 55.9666 3.09377  28
   6   2   7 58.7104 3.15031  38
   6   2   7 62.7929 2.65469  11
   6   2   7 58.6486 3.54064  10
   6   2   7 60.8927 2.59049  33
  -7  -2  -7 11.8721 1.19405  17
  -7  -2  -7 11.8955 0.89971  30
  -7  -2  -7 12.5950 1.16513   3
  -7  -2  -7 11.9291 1.00914  22
   7   2   7 11.9198 1.22769   2
   7   2   7 11.8187 1.38911  38
   7   2   7 12.4299 1.60350  20
   7   2   7 13.5631 1.50256  10
   7   2   7 14.6323 1.01961  33
  -8  -2  -7 72.3165 2.96483  15
  -8  -2  -7 65.5891 3.15400   3
  -8  -2  -7 71.6288 2.95931  13
  -8  -2  -7 64.5652 3.07464  30
   8   2   7 75.4844 3.98667  20
   8   2   7 71.8628 3.41344  38
   8   2   7 67.9892 3.59141   2
  -9  -2  -7 3.14687 0.41282  13
   9   2   7 2.02274 0.55087  20
   3  -3  -7 361.324 13.5347   8
   3  -3  -7 353.601 12.8433  16
   3  -3  -7 349.512 12.4667  32
   3  -3  -7 287.174 11.1743   1
  -3   3   7 331.611 13.0180   3
   2  -3  -7 274.397 11.1969   8
   2  -3  -7 261.133 10.6101  16
   2  -3  -7 270.060 10.3359  32
   2  -3  -7 277.781 10.3890  14
  -2   3   7 269.382 10.7229   3
   1  -3  -7 14.2494 1.38383  32
   1  -3  -7 13.7475 1.52829  14
   1  -3  -7 11.4039 1.19210   8
  -1   3   7 12.4982 1.17694   3
   0  -3  -7 29.2625 1.97854  14
   0  -3  -7 30.3517 1.87592  32
   0  -3  -7 28.4852 1.86041   8
   0   3   7 29.7271 1.75676   3
  -1  -3  -7 4.36549 0.79561   8
  -1  -3  -7 4.52646 0.74589   3
   1   3   7 4.19216 0.66615   3
   1   3   7 4.15547 0.95855  36
   1   3   7 5.78662 0.75053  37
   1   3   7 5.01645 0.85079   8
  -2  -3  -7 349.837 15.3538  26
  -2  -3  -7 349.255 13.5831   3
  -2  -3  -7 350.309 16.6754  36
  -2  -3  -7 351.283 13.1058  14
  -2  -3  -7 347.761 14.2995   8
  -2  -3  -7 350.656 14.4667  37
   2   3   7 340.545 13.5437   3
   2   3   7 363.571 16.5866  36
   2   3   7 340.683 14.3766  37
   2   3   7 362.367 14.3548   8
  -3  -3  -7 15.4345 1.51399  36
  -3  -3  -7 17.5112 1.57898  26
  -3  -3  -7 18.0141 1.26502  37
  -3  -3  -7 14.5488 1.09547   3
  -3  -3  -7 17.1832 1.20791  14
  -3  -3  -7 20.2851 1.25483  17
   3   3   7 16.2338 1.25814   8
   3   3   7 15.4615 1.41937  36
  -4  -3  -7 144.881 7.46993  36
  -4  -3  -7 141.699 6.84102  26
  -4  -3  -7 147.292 6.40129  37
  -4  -3  -7 146.393 5.74949  17
  -4  -3  -7 141.230 5.77998  13
  -4  -3  -7 143.705 5.95915   3
   4   3   7 152.190 7.31200  36
   4   3   7 154.985 6.41091   8
  -5  -3  -7 170.673 7.93017  26
  -5  -3  -7 176.934 6.73168  17
  -5  -3  -7 173.687 6.80329  13
  -5  -3  -7 175.116 6.99576   3
  -5  -3  -7 163.131 8.67707  36
  -5  -3  -7 174.425 7.46792  37
   5   3   7 172.925 8.22633  10
   5   3   7 175.398 7.42880   8
  -6  -3  -7 2922.73 116.127  30
  -6  -3  -7 2962.88 111.112  13
  -6  -3  -7 3027.06 104.297  17
   6   3   7 2988.87 115.913   8
   6   3   7 2925.70 111.449  38
   6   3   7 2985.58 100.774  33
  -7  -3  -7 293.837 11.4847   3
  -7  -3  -7 291.882 10.8270  17
  -7  -3  -7 269.775 11.6783  30
   7   3   7 295.355 11.6551  38
   7   3   7 289.649 11.8592   8
   7   3   7 304.677 13.5186  20
   7   3   7 284.609 10.2249  33
  -8  -3  -7 403.091 15.5981  13
  -8  -3  -7 425.190 15.9213   3
  -8  -3  -7 409.880 14.2653  15
   8   3   7 423.268 18.6099  20
   8   3   7 391.455 15.9809  38
  -9  -3  -7 2.07276 0.41923   3
   9   3   7 1.36040 0.57012  20
   2  -4  -7 545.179 21.0013  16
   2  -4  -7 571.720 22.3770   8
   2  -4  -7 567.412 20.4165  32
   2  -4  -7 558.792 27.0272   7
  -2   4   7 571.898 21.5270   3
   1  -4  -7 68.9252 3.34857  16
   1  -4  -7 71.4190 3.44792  14
   1  -4  -7 66.1095 3.28796  32
   1  -4  -7 70.1610 3.39460   8
  -1   4   7 71.6498 3.27153   3
   0  -4  -7 87.9479 3.94712  32
   0  -4  -7 91.8929 4.23414   8
   0  -4  -7 86.7730 4.00419  16
   0  -4  -7 87.6130 4.09219  14
   0   4   7 93.4454 4.02821   3
  -1  -4  -7 4.54406 0.81572   8
  -1  -4  -7 4.37466 0.82080  14
  -1  -4  -7 5.45512 0.89441  32
  -1  -4  -7 5.51782 1.05994  26
   1   4   7 3.58942 0.61638   3
   2   4   7 9.65084 1.07467   8
   2   4   7 11.5370 1.30102  36
  -3  -4  -7 71.3818 3.93888  26
  -3  -4  -7 72.4021 3.55022   8
  -3  -4  -7 74.3458 3.29479   3
  -3  -4  -7 68.3127 3.25358  14
  -3  -4  -7 76.2441 3.57990  37
  -3  -4  -7 75.9421 4.24284  36
   3   4   7 70.9937 3.50117  37
   3   4   7 75.2710 3.30114   3
   3   4   7 72.6241 4.10782  36
   3   4   7 79.3818 3.63633   8
  -4  -4  -7 29.5184 1.74582  17
  -4  -4  -7 28.2183 1.78158  37
  -4  -4  -7 30.1958 2.13131  26
  -4  -4  -7 31.1383 2.21047  36
  -4  -4  -7 29.2350 1.66730   3
   4   4   7 28.3970 1.87112   8
   4   4   7 31.1580 2.15356  36
  -5  -4  -7 195.102 10.1645  36
  -5  -4  -7 209.724 7.89179  17
  -5  -4  -7 210.464 8.20378   3
  -5  -4  -7 205.372 9.31956  26
  -5  -4  -7 206.114 8.76176  37
   5   4   7 209.679 8.73563   8
   5   4   7 196.402 9.97210  36
  -6  -4  -7 771.281 27.0775  17
  -6  -4  -7 740.019 28.4562  13
  -6  -4  -7 754.618 28.7312   3
   6   4   7 750.292 30.0324   8
  -7  -4  -7 1.40022 0.59109  17
  -7  -4  -7 2.83525 0.67075   3
  -7  -4  -7 1.61441 0.43128  15
   7   4   7 2.61898 0.65684   8
   7   4   7 2.49487 0.79913  38
  -8  -4  -7 71.7935 3.31579   3
  -8  -4  -7 69.7553 2.96701  15
  -8  -4  -7 67.8510 3.09815  17
   8   4   7 67.3726 3.23590   8
   8   4   7 77.9824 3.99162  20
   8   4   7 72.5648 3.40849  38
  -9  -4  -7 13.8239 0.96533  15
  -9  -4  -7 15.9388 1.07555   3
   9   4   7 15.9411 1.35514  20
   2  -5  -7 159.468 6.56852  16
   2  -5  -7 174.262 6.40920  32
  -2   5   7 162.355 6.58719   3
   1  -5  -7 4.67923 0.78418   8
   1  -5  -7 5.03360 1.02072  32
   1  -5  -7 4.63762 0.79756  14
   1  -5  -7 3.97485 1.06850   7
   1  -5  -7 5.46702 0.92591  16
  -1   5   7 4.98804 0.88717   3
   0  -5  -7 159.283 6.65357  16
   0  -5  -7 161.458 6.72349  14
   0  -5  -7 163.997 6.55202  32
   0  -5  -7 169.722 7.07620   8
   0   5   7 165.746 6.75762   3
  -1  -5  -7 173.739 6.97316  14
  -1  -5  -7 171.737 7.40300   8
  -1  -5  -7 170.191 6.74846  32
   1   5   7 171.143 7.02699   3
  -2  -5  -7 187.821 8.02482   8
  -2  -5  -7 184.775 8.78061  26
  -2  -5  -7 185.959 7.44705  14
   2   5   7 191.139 7.59082   3
  -3  -5  -7 129.770 6.52250  26
  -3  -5  -7 128.690 5.44343  14
  -3  -5  -7 136.143 5.94012   8
  -3  -5  -7 137.012 5.53381   3
   3   5   7 136.088 6.01078   8
   3   5   7 132.937 5.56461   3
  -4  -5  -7 243.145 9.91101  17
  -4  -5  -7 253.552 11.8787  26
  -4  -5  -7 279.077 10.4374   3
  -4  -5  -7 268.853 11.0441   8
   4   5   7 265.536 10.4309   3
   4   5   7 275.844 11.1149   8
  -5  -5  -7 123.286 5.96823  26
  -5  -5  -7 121.429 5.02671  17
   5   5   7 119.759 5.53583   8
  -6  -5  -7 358.107 12.9450  15
  -6  -5  -7 363.905 16.1537  26
  -6  -5  -7 376.519 13.7572  17
  -6  -5  -7 374.635 14.4950   3
   6   5   7 383.052 15.2473   8
  -7  -5  -7 23.2927 1.47347  15
  -7  -5  -7 23.5373 1.61876   3
  -7  -5  -7 22.8084 1.66146  17
   7   5   7 22.9034 1.70407   8
   7   5   7 22.9231 1.67553  38
  -8  -5  -7 119.492 4.88000  17
  -8  -5  -7 125.246 5.20493   3
  -8  -5  -7 125.042 4.66768  15
   8   5   7 113.910 5.28301   8
   8   5   7 122.460 5.19465  38
   8   5   7 129.655 6.12480  20
  -9  -5  -7 1.83673 0.45175   3
   9   5   7 1.73198 0.52925  20
   1  -6  -7 28.3072 1.63747  14
   1  -6  -7 28.4451 2.17648   7
   1  -6  -7 25.3022 1.54342  16
   1  -6  -7 27.2599 1.60798  32
   0  -6  -7 68.8745 3.39974  16
   0  -6  -7 76.0319 4.72476   7
   0  -6  -7 80.8932 3.62132  14
   0  -6  -7 77.0287 3.43087  32
   0  -6  -7 79.7769 3.55843   8
   0   6   7 78.4179 3.46468   3
  -1  -6  -7 143.261 5.90687  14
  -1  -6  -7 138.733 5.68384  32
  -1  -6  -7 144.172 6.21234   8
   1   6   7 143.307 5.93027   3
  -2  -6  -7 302.691 12.0986  14
  -2  -6  -7 321.743 14.2475  26
  -2  -6  -7 324.113 13.1299   8
   2   6   7 327.285 12.5105   3
  -3  -6  -7 279.071 10.6893  14
  -3  -6  -7 269.054 12.5818  26
  -3  -6  -7 286.503 11.6458   8
   3   6   7 284.993 11.0546   3
  -4  -6  -7 949.999 41.4507  26
  -4  -6  -7 980.249 38.7897   8
  -4  -6  -7 958.928 34.8929  17
   4   6   7 993.743 37.0624   3
   4   6   7 1013.66 38.9098   8
  -5  -6  -7 127.530 5.79308   8
  -5  -6  -7 135.602 6.36771  26
  -5  -6  -7 125.567 5.28912  17
  -5  -6  -7 130.934 5.48261   3
   5   6   7 132.681 5.88442   8
   5   6   7 123.712 5.39913   3
  -6  -6  -7 24.5276 1.71254  17
  -6  -6  -7 25.4637 1.68573   8
  -6  -6  -7 20.4145 1.88927  26
   6   6   7 25.5961 1.75600   8
  -7  -6  -7 4.87738 0.78555  17
  -7  -6  -7 7.42780 1.02747   3
  -7  -6  -7 5.43384 0.89851  15
   7   6   7 5.15071 1.01702  38
   7   6   7 5.88947 1.06546   8
  -8  -6  -7 26.9522 1.66847   3
  -8  -6  -7 28.9478 1.66485  17
  -8  -6  -7 28.9760 1.52878  15
   8   6   7 30.9083 1.74919   8
  -9  -6  -7 11.3058 0.85666  15
  -9  -6  -7 11.7858 0.87171   3
   9   6   7 11.8828 1.11410  20
   0  -7  -7 2.96115 0.82616   7
   0  -7  -7 4.88307 0.81697  32
   0  -7  -7 3.25963 0.61634  14
   0   7   7 4.61808 0.68749   3
  -1  -7  -7 42.2998 3.05554   7
  -1  -7  -7 40.1812 2.10191  32
  -1  -7  -7 41.0119 2.12143   8
  -1  -7  -7 41.7158 2.30384  14
   1   7   7 39.8310 2.10659   3
  -2  -7  -7 120.376 6.70394   7
  -2  -7  -7 126.435 6.06382  26
  -2  -7  -7 123.133 5.13627  14
  -2  -7  -7 117.803 5.35132   8
   2   7   7 120.450 5.14076   3
  -3  -7  -7 240.487 9.08418  14
  -3  -7  -7 240.726 9.82003   8
  -3  -7  -7 219.080 11.8264   7
  -3  -7  -7 229.287 10.6693  26
   3   7   7 240.252 9.35404   3
  -4  -7  -7 1068.01 41.1251   8
  -4  -7  -7 1044.79 37.5578  14
  -4  -7  -7 962.909 43.8938  26
   4   7   7 1083.79 39.3343   3
  -5  -7  -7 12.8192 1.19185   8
  -5  -7  -7 13.5057 1.57005  26
   5   7   7 11.6910 1.16773   3
   5   7   7 12.7656 1.31867   8
  -6  -7  -7 97.6599 4.47107   8
  -6  -7  -7 96.7269 4.12672  17
  -6  -7  -7 92.5846 4.80421  26
  -6  -7  -7 99.1315 4.20624   3
   6   7   7 93.3265 4.50700   8
  -7  -7  -7 67.3180 3.04277   3
  -7  -7  -7 66.6482 3.03318  17
  -7  -7  -7 64.2682 3.24363   8
   7   7   7 66.8766 3.28521   8
   7   7   7 64.0825 3.09089  38
  -8  -7  -7 150.344 5.70953  15
  -8  -7  -7 159.926 6.10481  17
  -8  -7  -7 164.199 6.42747   3
   8   7   7 163.451 6.73817   8
  -1  -8  -7 12.7858 1.44060   7
  -1  -8  -7 12.6902 1.14917  14
   1   8   7 13.4242 1.01502   3
  -2  -8  -7 20.4407 1.84271  21
  -2  -8  -7 20.8164 1.49782  14
  -2  -8  -7 18.7244 1.84665   7
  -2  -8  -7 23.3313 1.33868   8
   2   8   7 23.3280 1.42325   3
  -3  -8  -7 185.282 8.47029  26
  -3  -8  -7 172.931 9.35842   7
  -3  -8  -7 181.974 7.19117  14
  -3  -8  -7 191.436 7.74128   8
   3   8   7 186.004 7.40179   3
  -4  -8  -7 421.839 17.1102   8
  -4  -8  -7 417.298 15.6492  14
  -4  -8  -7 423.240 18.4418  26
   4   8   7 434.176 16.3721   3
  -5  -8  -7 38.4637 2.12070   8
  -5  -8  -7 35.6176 1.94623  17
  -5  -8  -7 37.5713 2.46351  26
   5   8   7 36.6055 1.97666   3
  -6  -8  -7 178.966 8.42478  26
  -6  -8  -7 189.175 7.89217   8
  -6  -8  -7 182.519 7.11495  17
   6   8   7 187.335 7.95870   8
   6   8   7 191.954 7.42865   3
  -7  -8  -7 107.059 4.35167  17
  -7  -8  -7 103.786 4.74448   8
   7   8   7 111.202 4.80227   8
  -8  -8  -7 432.792 15.6622  17
   8   8   7 440.475 17.4008   8
  -3  -9  -7 18.9312 1.70121  21
  -3  -9  -7 22.1344 1.62323  26
  -3  -9  -7 20.3830 1.28209  14
  -3  -9  -7 22.4104 1.23356   8
  -3  -9  -7 19.8956 1.56527   7
   3   9   7 20.8821 1.26929   3
  -4  -9  -7 45.8684 2.24990  14
  -4  -9  -7 53.6835 2.89485  26
  -4  -9  -7 48.7640 3.10484  21
  -4  -9  -7 47.7614 2.39543   8
   4   9   7 51.0874 2.36358   3
  -5  -9  -7 2.02891 0.71526  21
  -5  -9  -7 2.67087 0.63632  26
  -5  -9  -7 3.95115 0.74840   8
   5   9   7 3.41913 0.72710   3
  -6  -9  -7 33.7972 1.80096   8
  -6  -9  -7 28.1169 2.14493  21
  -6  -9  -7 34.7810 2.04657  26
  -6  -9  -7 33.1176 1.66402  17
   6   9   7 32.4425 1.62442   3
  -7  -9  -7 13.5146 0.97540  17
  -7  -9  -7 10.9577 0.91688   8
   7   9   7 14.6734 1.16305   8
   2   8  -8 4.15364 0.63037   3
   2   8  -8 2.97833 0.64128  32
   2   8  -8 4.94358 0.50857  13
  -2  -8   8 3.50425 0.84854   2
  -2  -8   8 5.27382 0.68815  33
   1   8  -8 129.039 4.93812  13
  -1  -8   8 122.696 6.01522   2
  -1  -8   8 120.345 4.63492  33
  -1  -8   8 121.782 6.34679   7
   0   8  -8 110.676 4.48041  13
   0  -8   8 108.995 4.24403  11
   0  -8   8 107.842 5.49788   2
   0  -8   8 107.335 4.24637  33
   0  -8   8 111.090 5.73321  21
   0  -8   8 121.472 5.92862   7
  -1   8  -8 32.1591 1.48715  13
   1  -8   8 32.0866 2.17114   7
   1  -8   8 31.2890 1.66128  16
   1  -8   8 34.5151 2.18042  21
   1  -8   8 27.3074 1.95870   2
   1  -8   8 29.2062 1.55933  33
   1  -8   8 30.6024 1.54288  11
   2  -8   8 93.2910 3.69391  33
   2  -8   8 92.2447 3.75777  11
   2  -8   8 102.533 5.16087  21
   2  -8   8 106.728 5.23279   7
   3   7  -8 169.149 6.19609  32
   3   7  -8 162.042 6.45366   3
  -3  -7   8 152.461 7.52848   2
   2   7  -8 70.9671 3.14038  32
   2   7  -8 66.9109 3.12089   3
   2   7  -8 73.7431 2.91546  13
  -2  -7   8 67.4097 3.76639   2
  -2  -7   8 70.7861 2.91261  15
  -2  -7   8 67.4323 2.82840  33
   1   7  -8 709.674 29.3344  30
   1   7  -8 781.069 26.5863  32
   1   7  -8 743.084 28.0238  13
  -1  -7   8 738.758 35.2155   7
  -1  -7   8 745.957 32.7855   2
  -1  -7   8 731.552 25.4022  33
   0   7  -8 551.921 22.0123  30
   0   7  -8 554.888 21.0214  13
   0  -7   8 529.625 19.1212  33
   0  -7   8 593.968 20.6094  16
   0  -7   8 565.340 26.5650   7
   0  -7   8 528.212 19.3378  11
   0  -7   8 521.676 24.6695   2
   0  -7   8 579.761 26.2777  21
  -1   7  -8 8.46504 0.76170  13
  -1   7  -8 8.76691 0.77388  30
   1  -7   8 6.33123 0.91525  33
   1  -7   8 8.16742 0.93477  11
   1  -7   8 5.99906 1.22194   2
   1  -7   8 6.96425 1.28029   7
   1  -7   8 9.62806 1.35042  21
   1  -7   8 6.05779 0.97709  16
  -2   7  -8 5.75278 0.57667  30
   2  -7   8 6.25936 1.23308   7
   2  -7   8 6.08687 1.07754   2
   2  -7   8 4.45142 0.78983  11
   2  -7   8 4.53393 0.66505  33
   2  -7   8 3.94406 1.05306  21
   3  -7   8 29.3634 1.45293  33
   3  -7   8 34.2874 2.12799   7
   3  -7   8 30.7857 1.47951  11
   3  -7   8 26.6407 1.93547   2
   3   6  -8 98.0224 3.90646  32
   3   6  -8 87.3772 3.76333  14
   3   6  -8 91.3411 3.97910   3
  -3  -6   8 86.2321 4.01180   8
  -3  -6   8 98.0738 4.73273   2
   2   6  -8 32.1400 1.87519   3
   2   6  -8 29.5669 1.50980  13
   2   6  -8 30.4814 1.93197  32
   2   6  -8 32.6047 1.87973  14
  -2  -6   8 30.5942 2.24811   2
  -2  -6   8 32.0857 1.70222   8
  -2  -6   8 31.8351 1.76418  15
   1   6  -8 441.002 16.5521  13
   1   6  -8 412.536 16.7241   3
   1   6  -8 434.014 15.8483  32
   1   6  -8 427.372 17.3450  30
  -1  -6   8 428.609 15.1086  15
  -1  -6   8 418.685 15.0904  33
  -1  -6   8 460.869 16.8276  31
  -1  -6   8 434.133 19.5905   2
  -1  -6   8 435.577 20.9688   7
   0   6  -8 848.419 31.3301  13
   0   6  -8 818.348 29.6382  32
   0   6  -8 822.642 32.7830  30
   0   6  -8 784.666 35.5499  22
   0  -6   8 891.290 39.5007   7
   0  -6   8 866.534 31.5886  31
   0  -6   8 835.692 28.3983  33
   0  -6   8 829.040 36.6416   2
   0  -6   8 744.377 28.6998  11
   0  -6   8 842.725 38.9980  21
  -1   6  -8 2.84950 0.65187  22
  -1   6  -8 3.34375 0.65144  13
   1  -6   8 3.27517 0.58927  11
   1  -6   8 2.21021 0.56698  33
   1  -6   8 3.37594 1.00350   7
   1  -6   8 2.90351 0.92708  21
   1  -6   8 1.94581 0.84970   2
   1  -6   8 4.65851 0.96125  16
   1  -6   8 2.87236 0.74421  31
  -2   6  -8 12.6881 0.93415  30
  -2   6  -8 13.0153 0.99167  22
   2  -6   8 13.3909 1.63135  21
   2  -6   8 13.1551 1.10404  33
   2  -6   8 13.6040 1.39791  31
   2  -6   8 13.9279 1.54369   2
   2  -6   8 14.7410 1.71540   7
   2  -6   8 13.9637 1.11069  11
  -3   6  -8 162.345 7.16979  30
   3  -6   8 182.701 6.57663  11
   3  -6   8 187.862 8.95169  21
   3  -6   8 192.266 9.04360   7
   3  -6   8 165.787 7.29186  31
   3  -6   8 172.592 6.44994  33
   3  -6   8 170.151 8.38971   2
   4  -6   8 279.269 11.5267  31
   4  -6   8 301.560 10.4102  11
   4  -6   8 303.207 14.1074  21
   4  -6   8 299.906 10.2839  33
   4  -6   8 282.617 13.2731   2
   4   5  -8 6.49580 0.66650   3
  -4  -5   8 7.33868 0.73644   8
   3   5  -8 19.1216 1.37032   3
   3   5  -8 18.1869 1.46654  32
   3   5  -8 16.7169 1.34621  14
  -3  -5   8 19.4254 1.47063  18
  -3  -5   8 19.5239 1.35119   8
  -3  -5   8 17.3239 1.57873   2
   2   5  -8 1.12534 0.72176  32
   2   5  -8 0.92840 0.59712  14
   2   5  -8 0.73348 0.52971   3
  -2  -5   8 0.71636 0.34377  15
  -2  -5   8 1.85314 0.64391  18
  -2  -5   8 1.21898 0.51888   8
  -2  -5   8 2.47153 0.74529  31
  -2  -5   8 2.20192 0.84844   2
   1   5  -8 158.499 6.25888  13
   1   5  -8 153.555 6.57438  30
   1   5  -8 157.747 6.28420  32
   1   5  -8 148.924 6.50335   3
  -1  -5   8 158.974 8.16702   7
  -1  -5   8 154.213 7.30692  18
  -1  -5   8 150.516 7.66880   2
  -1  -5   8 168.064 6.64745  31
  -1  -5   8 155.505 5.90856  15
  -1  -5   8 150.128 6.59647   8
   0   5  -8 281.368 13.1684  22
   0   5  -8 299.748 12.1438  30
   0   5  -8 282.203 11.7288   3
   0   5  -8 305.029 11.5887  13
   0   5  -8 289.470 11.1605  32
   0  -5   8 295.182 13.2954  18
   0  -5   8 328.575 14.9378   7
   0  -5   8 299.729 13.8357   2
   0  -5   8 297.786 11.9055  31
   0  -5   8 298.438 10.6458  33
   0  -5   8 299.500 14.5653  21
  -1   5  -8 4.24157 0.74244  22
  -1   5  -8 3.71284 0.67755  13
   1  -5   8 4.58873 0.82820  11
   1  -5   8 4.51798 0.94115  16
   1  -5   8 4.32420 1.04507  21
   1  -5   8 3.85205 0.65416  33
   1  -5   8 4.28380 0.99164   2
   1  -5   8 3.25224 0.76446  31
   1  -5   8 4.65939 0.93368  18
   1  -5   8 3.83919 1.05806   7
  -2   5  -8 558.156 22.7794  30
  -2   5  -8 563.540 24.7053  22
   2  -5   8 561.149 25.6070   2
   2  -5   8 602.287 19.8830  33
   2  -5   8 525.575 22.1145  31
   2  -5   8 532.254 24.7722  18
   2  -5   8 612.298 27.6864   7
   2  -5   8 613.591 27.4115  21
   2  -5   8 590.801 20.1610  11
  -3   5  -8 418.820 19.8024  22
  -3   5  -8 442.288 18.3009  30
   3  -5   8 466.831 16.0299  33
   3  -5   8 502.926 22.3416   7
   3  -5   8 469.835 16.2689  11
   3  -5   8 480.094 22.0967  21
   3  -5   8 458.565 20.7100   2
   3  -5   8 442.298 17.9357  31
  -4   5  -8 850.676 34.4100  30
   4  -5   8 914.867 40.9681  21
   4  -5   8 849.147 38.3665   2
   4  -5   8 903.850 29.7750  33
   4  -5   8 896.617 30.2232  11
   4  -5   8 822.566 33.1905  31
   5  -5   8 4.24607 0.85030   2
   5  -5   8 3.66222 0.85703  10
   5  -5   8 3.80243 0.57192  33
   5  -5   8 4.01565 0.55657  11
   5  -5   8 4.24217 0.88167  31
   4   4  -8 189.485 7.71589   3
   4   4  -8 196.687 7.37038  32
  -4  -4   8 203.491 8.11038   8
  -4  -4   8 190.109 8.63037  18
   3   4  -8 216.510 8.53939  32
   3   4  -8 225.206 8.93264   3
  -3  -4   8 233.671 10.0250  18
  -3  -4   8 218.886 10.3567   2
  -3  -4   8 221.567 9.36720   8
   2   4  -8 289.666 11.3961   3
   2   4  -8 286.559 10.9064  14
   2   4  -8 271.984 10.8046  32
  -2  -4   8 293.749 12.7465  18
  -2  -4   8 273.315 13.1832   2
  -2  -4   8 298.897 11.8967   8
   1   4  -8 26.3650 1.82951  14
   1   4  -8 25.2004 1.45543  13
   1   4  -8 29.3326 1.80863   3
   1   4  -8 23.9957 1.87128  32
  -1  -4   8 26.1865 1.71091   8
  -1  -4   8 23.9701 1.59228  15
  -1  -4   8 24.0127 2.05978   2
  -1  -4   8 25.3848 1.97528  18
   0   4  -8 113.891 5.02487  32
   0   4  -8 123.481 5.78076  22
   0   4  -8 124.764 5.30982  30
   0   4  -8 122.059 5.03966  13
   0   4  -8 117.087 5.23236   3
   0  -4   8 119.725 6.21829   2
   0  -4   8 122.114 5.31232   8
   0  -4   8 119.939 6.46325  21
   0  -4   8 120.645 5.97258  18
   0  -4   8 130.379 6.75100   7
   0  -4   8 126.993 5.41027  31
  -1   4  -8 29.7216 1.85776  22
  -1   4  -8 31.3087 1.71897  30
  -1   4  -8 31.3099 1.63566  13
  -1   4  -8 29.6645 1.87038  28
   1  -4   8 31.8364 2.28341   2
   1  -4   8 29.0564 2.13812  18
   1  -4   8 30.5975 2.49468   7
   1  -4   8 29.7783 2.00548  31
   1  -4   8 29.9613 1.61693  11
   1  -4   8 33.5616 2.35739  21
   1  -4   8 29.6762 1.65266  33
  -2   4  -8 19.3844 1.17740  30
  -2   4  -8 15.6784 1.20985  22
  -2   4  -8 18.8827 1.26949  28
   2  -4   8 20.2819 1.54260  31
   2  -4   8 17.2834 1.62313   2
   2  -4   8 16.7717 1.22550  11
   2  -4   8 14.7846 1.63043  18
   2  -4   8 16.5995 1.81495   7
   2  -4   8 17.1948 1.21117  33
   2  -4   8 16.9869 1.74662  21
  -3   4  -8 250.938 11.0888  22
  -3   4  -8 254.775 10.2393  30
   3  -4   8 250.483 11.7679   2
   3  -4   8 270.445 12.6553   7
   3  -4   8 262.817 9.22703  11
   3  -4   8 231.886 11.3805  18
   3  -4   8 248.378 10.2379  31
   3  -4   8 238.331 11.8144  10
   3  -4   8 263.276 12.5287  21
   3  -4   8 249.152 9.05538  33
  -4   4  -8 415.557 16.5240  30
  -4   4  -8 405.624 17.8884  22
   4  -4   8 407.460 18.7268   2
   4  -4   8 395.484 16.2380  31
   4  -4   8 435.355 19.9266  21
   4  -4   8 379.093 18.7961  10
   4  -4   8 437.744 14.5086  33
   4  -4   8 443.116 14.7231  11
  -5   4  -8 19.2208 1.06099  30
   5  -4   8 18.1060 1.59649   2
   5  -4   8 19.8510 1.19318  33
   5  -4   8 21.7229 1.19519  11
   5  -4   8 18.4361 1.52788  31
   5  -4   8 20.4399 1.98727  10
   6  -4   8 476.761 19.0869  31
   6  -4   8 499.942 17.0587  33
   6  -4   8 458.890 17.2848  11
   6  -4   8 521.115 22.1789  10
   6  -4   8 535.621 22.0934   2
   4   3  -8 116.894 4.72112  32
   4   3  -8 110.637 5.14895   8
   4   3  -8 116.474 4.25463   1
  -4  -3   8 121.036 5.17909   8
  -4  -3   8 129.497 5.52153  18
   3   3  -8 270.836 10.3746  32
   3   3  -8 269.054 10.8013   3
  -3  -3   8 257.708 11.3679   8
  -3  -3   8 275.399 12.7105   2
  -3  -3   8 297.864 12.2119  18
   2   3  -8 304.301 11.4574  14
   2   3  -8 307.163 11.9376   3
   2   3  -8 302.181 11.4001  32
  -2  -3   8 277.194 13.7479   2
  -2  -3   8 308.488 13.3964  18
  -2  -3   8 302.434 12.5094   8
   1   3  -8 5.83213 1.10967   3
   1   3  -8 6.79588 1.27586  32
   1   3  -8 8.72799 0.85015  13
  -1  -3   8 6.38913 1.22203  18
  -1  -3   8 8.08523 1.29169   2
   0   3  -8 32.9632 1.81628  30
   0   3  -8 32.3171 1.94151   3
   0   3  -8 33.5411 2.04562  14
   0   3  -8 30.5347 1.72579  13
   0   3  -8 28.5164 1.97234  32
   0  -3   8 36.4500 1.99210   8
   0  -3   8 31.4850 2.31130  21
   0  -3   8 34.8605 2.36913   2
   0  -3   8 32.0479 2.26464  18
   0  -3   8 35.5575 2.60177   7
  -1   3  -8 255.264 11.2303  22
  -1   3  -8 243.576 9.84832  13
  -1   3  -8 234.333 10.9169  29
  -1   3  -8 257.365 10.3482  30
  -1   3  -8 238.469 9.98597   3
  -1   3  -8 242.737 11.0848  28
   1  -3   8 261.622 11.7655   2
   1  -3   8 258.542 10.3385   8
   1  -3   8 272.803 12.8022   7
   1  -3   8 246.464 11.3640  18
   1  -3   8 255.190 12.5196  21
   1  -3   8 259.498 10.2131  31
  -2   3  -8 182.771 8.04152  22
  -2   3  -8 179.902 7.40553  30
  -2   3  -8 167.365 7.03921  13
  -2   3  -8 177.426 7.94214  28
   2  -3   8 166.705 7.38156  31
   2  -3   8 184.303 8.57134   2
   2  -3   8 179.756 6.64813  11
   2  -3   8 175.608 8.63309  10
   2  -3   8 179.602 9.09461  21
   2  -3   8 172.742 8.26552  18
   2  -3   8 175.582 6.53578  33
   2  -3   8 193.460 9.30256   7
  -3   3  -8 77.2980 3.67755  22
  -3   3  -8 77.7760 3.38802  30
  -3   3  -8 76.2253 3.64223  28
   3  -3   8 78.0587 3.15093  33
   3  -3   8 76.8183 4.14605   2
   3  -3   8 78.7899 3.20947  11
   3  -3   8 71.6780 4.05114  18
   3  -3   8 73.7019 3.66327  31
   3  -3   8 78.7786 4.41514   7
   3  -3   8 69.6838 4.30572  10
   3  -3   8 77.4077 4.39331  21
  -4   3  -8 167.770 6.88430  30
  -4   3  -8 160.587 7.44301  22
   4  -3   8 167.859 6.18019  33
   4  -3   8 165.397 7.04367  31
   4  -3   8 173.841 6.27469  11
   4  -3   8 159.478 8.24212  10
   4  -3   8 171.569 8.08687   2
   4  -3   8 178.497 8.51623  21
   4  -3   8 155.576 7.83529  18
  -5   3  -8 3.60734 0.53468  30
   5  -3   8 4.94905 0.72109  11
   5  -3   8 2.66151 0.76828  31
   5  -3   8 3.51138 0.93131  21
   5  -3   8 4.11934 1.18496  10
   5  -3   8 5.06048 1.05173   2
   6  -3   8 343.889 11.7583  33
   6  -3   8 325.840 11.8540  11
   6  -3   8 338.193 13.2935  38
   6  -3   8 334.700 15.3818  10
   6  -3   8 333.831 13.2103  31
   6  -3   8 345.623 15.2369   2
   7  -3   8 9.40172 0.90129  31
   7  -3   8 9.54788 0.67649  33
   7  -3   8 9.27463 0.89802   2
   7  -3   8 10.4907 1.28226  10
   4   2  -8 13.9551 1.17529  32
   4   2  -8 11.4456 0.92864   1
   4   2  -8 12.7356 1.04606   8
  -4  -2   8 15.4951 1.18014  18
  -4  -2   8 13.5304 1.08088   8
   3   2  -8 52.5317 2.54232   3
   3   2  -8 49.9046 2.79371   8
   3   2  -8 56.3201 2.82453  32
  -3  -2   8 54.8161 2.98998  18
  -3  -2   8 50.1069 2.80513   8
   2   2  -8 281.438 11.0140  32
   2   2  -8 302.287 11.5210   3
   2   2  -8 292.529 11.0948  14
  -2  -2   8 292.393 12.9151  18
  -2  -2   8 274.453 12.0550   8
   1   2  -8 35.1183 2.10148   3
   1   2  -8 37.0194 2.26239  14
   1   2  -8 36.8839 2.26230  32
  -1  -2   8 34.8376 2.20839   8
  -1  -2   8 36.3135 2.42542  18
   0   2  -8 164.851 6.87483  32
   0   2  -8 176.789 7.10233  14
   0   2  -8 173.817 7.23686   3
   0   2  -8 178.071 7.01225  13
   0  -2   8 176.134 8.19881  18
   0  -2   8 175.980 8.40080   2
   0  -2   8 183.395 7.58797   8
  -1   2  -8 599.802 26.2137  22
  -1   2  -8 584.539 23.0731  13
  -1   2  -8 587.139 23.2160   3
  -1   2  -8 611.937 24.1735  30
  -1   2  -8 598.829 22.2969  14
   1  -2   8 599.016 28.8461  21
   1  -2   8 620.943 24.2128   8
   1  -2   8 613.563 26.9584   2
   1  -2   8 592.594 26.1597  18
   1  -2   8 611.968 23.3562  31
   1  -2   8 659.847 29.3200   7
  -2   2  -8 1444.99 59.3550  28
  -2   2  -8 1450.12 55.4812  30
  -2   2  -8 1251.99 56.1448  37
  -2   2  -8 1310.55 53.0493   3
  -2   2  -8 1448.10 60.1432  22
  -2   2  -8 1366.03 53.0092  13
  -2   2  -8 1384.07 50.6755  14
   2  -2   8 1503.60 65.9739  21
   2  -2   8 1399.54 61.5331   2
   2  -2   8 1574.41 66.6288   7
   2  -2   8 1423.30 55.2640   8
   2  -2   8 1415.03 47.7736  33
   2  -2   8 1374.39 59.7098  18
   2  -2   8 1416.50 53.1983  31
   2  -2   8 1412.56 48.5453  11
   2  -2   8 1403.91 61.5405  10
  -3   2  -8 5.57581 0.66680  29
  -3   2  -8 8.15079 0.73586  30
  -3   2  -8 5.68934 0.73616  22
  -3   2  -8 7.98161 0.72671  13
   3  -2   8 7.62523 0.80514  11
   3  -2   8 5.36725 1.01127  31
   3  -2   8 7.76907 1.21768  21
   3  -2   8 6.59097 1.18521   7
   3  -2   8 5.52410 1.06570   2
   3  -2   8 6.03583 1.09806  18
   3  -2   8 6.49648 1.29518  10
   3  -2   8 6.56599 0.74293  33
  -4   2  -8 33.7530 1.89347  22
  -4   2  -8 35.1809 1.90078  28
  -4   2  -8 35.2883 1.76315  30
   4  -2   8 31.9540 2.27144  18
   4  -2   8 34.0031 1.69532  33
   4  -2   8 35.3918 2.42640  21
   4  -2   8 32.9869 1.74626  11
   4  -2   8 33.3295 2.30049   2
   4  -2   8 33.1871 2.56348  10
   4  -2   8 40.8509 2.16160  31
  -5   2  -8 4.85388 0.61081  30
   5  -2   8 4.32443 0.69743  33
   5  -2   8 5.31373 0.99250  21
   5  -2   8 4.19367 1.13611  10
   5  -2   8 4.64550 0.76108  11
   5  -2   8 3.12922 0.70936  31
   5  -2   8 4.30284 0.90619  38
   5  -2   8 5.13471 1.03021   2
  -6   2  -8 372.400 14.8779  30
   6  -2   8 377.846 14.7770  38
   6  -2   8 371.353 13.1521  11
   6  -2   8 368.151 14.5895  31
   6  -2   8 350.564 16.9353  10
   6  -2   8 386.473 13.0186  33
   6  -2   8 383.745 16.8455   2
  -7   2  -8 16.2461 0.89561  13
   7  -2   8 15.8476 1.41967  38
   7  -2   8 16.8651 1.35236   2
   7  -2   8 15.1808 0.98503  33
   7  -2   8 14.9186 1.21723  31
   7  -2   8 16.1962 1.61467  10
   3   1  -8 12.4041 1.39360  32
   3   1  -8 12.7388 1.24837   8
   3   1  -8 14.7785 1.23779   1
  -3  -1   8 14.6131 1.38378  18
  -3  -1   8 12.0976 1.24338   8
   2   1  -8 43.3551 2.54338  32
   2   1  -8 42.7310 2.47388  14
   2   1  -8 40.4885 2.50822   8
   2   1  -8 43.3690 2.31804   3
  -2  -1   8 39.4093 2.61525  18
  -2  -1   8 44.8442 2.56246   8
   1   1  -8 2.32865 0.60940   3
   1   1  -8 3.74027 0.85616  32
   1   1  -8 4.13455 0.95185  14
  -1  -1   8 4.28417 0.83345  18
  -1  -1   8 3.58474 0.75296   8
   0   1  -8 4.12081 0.84566  14
   0   1  -8 5.12189 1.16956  36
   0   1  -8 6.81327 1.14556  32
   0  -1   8 3.96449 0.78781  18
   0  -1   8 5.48263 0.86185   8
  -1   1  -8 964.106 35.9994   3
  -1   1  -8 933.947 34.4151  14
  -1   1  -8 953.303 35.8377  13
  -1   1  -8 956.111 37.5138  30
   1  -1   8 944.250 40.4464  18
   1  -1   8 970.551 37.5673   8
   1  -1   8 926.597 44.6197  21
  -2   1  -8 724.038 30.2170  22
  -2   1  -8 691.277 25.5896  14
  -2   1  -8 675.406 26.6045  13
  -2   1  -8 679.166 28.3358  37
  -2   1  -8 689.424 26.7372   3
  -2   1  -8 702.578 29.8279  28
  -2   1  -8 717.536 27.8676  30
   2  -1   8 690.129 30.1175  18
   2  -1   8 740.325 27.9061   8
   2  -1   8 680.820 24.4208  11
   2  -1   8 750.373 33.3086  21
   2  -1   8 695.598 26.8283  31
  -3   1  -8 8.85777 0.78477  13
  -3   1  -8 8.98378 0.89798   3
  -3   1  -8 7.87620 0.77587  30
  -3   1  -8 7.12293 0.84424  37
  -3   1  -8 7.95707 0.78880  29
  -3   1  -8 7.52652 0.86953  22
   3  -1   8 9.50307 1.19809  21
   3  -1   8 10.7703 1.28028   7
   3  -1   8 7.51339 0.75812  33
   3  -1   8 9.72905 0.81975  11
   3  -1   8 8.89063 1.06465  31
   3  -1   8 7.86147 1.35971  10
   3  -1   8 8.49826 0.83933   8
   3  -1   8 8.32096 1.12665  18
  -4   1  -8 194.018 8.56739  22
  -4   1  -8 182.135 7.53450  13
  -4   1  -8 188.558 8.48246  28
  -4   1  -8 196.945 7.91451  30
  -4   1  -8 188.107 8.46685  29
   4  -1   8 188.607 6.95984  33
   4  -1   8 205.901 9.67560  21
   4  -1   8 190.876 8.86567  18
   4  -1   8 192.361 9.05613   2
   4  -1   8 189.483 7.98414  38
   4  -1   8 191.120 7.89085  31
   4  -1   8 192.102 9.31247  10
   4  -1   8 199.784 7.11296  11
  -5   1  -8 71.3830 3.43091  28
  -5   1  -8 71.1337 3.14467  30
  -5   1  -8 66.0280 2.99949  13
   5  -1   8 71.0045 3.95174  21
   5  -1   8 69.5939 4.08436  10
   5  -1   8 71.0309 3.84225   2
   5  -1   8 71.7220 3.41699  31
   5  -1   8 71.1064 2.94050  11
   5  -1   8 73.0839 2.92550  33
   5  -1   8 67.4027 3.51415  38
  -6   1  -8 220.744 9.05047  30
  -6   1  -8 216.657 9.82165  22
  -6   1  -8 210.038 8.64792  13
   6  -1   8 210.718 10.3222   2
   6  -1   8 223.413 9.02468  31
   6  -1   8 223.405 8.07302  11
   6  -1   8 218.463 7.98079  33
   6  -1   8 235.971 10.6420  10
   6  -1   8 243.885 9.27207  38
  -7   1  -8 20.5420 1.13324  30
  -7   1  -8 21.3162 1.11578  13
   7  -1   8 18.8296 1.08426  11
   7  -1   8 21.2876 1.18796  33
   7  -1   8 19.7762 1.44327  31
   7  -1   8 20.4085 1.78796  10
   7  -1   8 17.3145 1.54915   2
   7  -1   8 21.3660 1.63931  38
  -8   1  -8 42.5655 1.75149  13
   8  -1   8 35.3230 2.17339   2
   8  -1   8 37.9937 1.65920  33
   8  -1   8 44.4143 2.14586  38
   3   0  -8 172.673 6.57889  32
   3   0  -8 175.511 5.92795   1
   3   0  -8 156.708 7.06032   8
  -3   0   8 172.876 7.58319  18
  -3   0   8 145.705 7.09616   8
  -3   0   8 170.139 6.66040   3
   2   0  -8 30.9616 2.17419  32
   2   0  -8 32.1495 2.07276   8
   2   0  -8 33.4777 2.08828  14
  -2   0   8 34.0538 1.87055   3
  -2   0   8 30.0100 2.06587   8
  -2   0   8 32.0873 2.19793  18
   1   0  -8 103.231 4.72154  32
   1   0  -8 105.525 5.08444   8
   1   0  -8 114.068 4.77827   3
   1   0  -8 110.048 4.84335  14
  -1   0   8 111.554 5.13897   8
  -1   0   8 104.974 5.36282  18
   0   0  -8 73.5979 3.37521   3
   0   0  -8 70.6735 3.93248  26
   0   0  -8 72.1161 3.48850  14
   0   0  -8 68.7648 3.30956  32
   0   0   8 70.5282 3.79524  18
   0   0   8 71.6301 3.58534   8
  -1   0  -8 118.792 4.92455  14
  -1   0  -8 109.246 5.27177  37
  -1   0  -8 112.732 4.93606   3
  -1   0  -8 121.364 4.75348  13
   1   0   8 120.437 5.25391   8
   1   0   8 118.283 5.63657  18
   1   0   8 111.141 5.93273  36
  -2   0  -8 402.122 16.0056   3
  -2   0  -8 406.290 15.3663  14
  -2   0  -8 409.059 15.8596  13
  -2   0  -8 417.689 16.6068  30
  -2   0  -8 409.979 17.0177  37
   2   0   8 410.158 18.0505  18
   2   0   8 414.454 16.0904  31
   2   0   8 444.177 20.0285  21
   2   0   8 418.738 16.7603   8
  -3   0  -8 7.71386 0.77249  30
  -3   0  -8 5.94837 0.83224  37
  -3   0  -8 6.73147 0.79264  28
  -3   0  -8 6.71060 0.85009   3
  -3   0  -8 7.03227 0.74316  29
  -3   0  -8 7.36003 0.79216  22
  -3   0  -8 5.79224 0.69279  13
   3   0   8 6.27402 0.83365   8
   3   0   8 6.51204 0.74656  11
   3   0   8 6.68014 1.16058  21
   3   0   8 7.68534 1.09454  18
   3   0   8 7.50480 0.94114  31
  -4   0  -8 117.422 5.43297  28
  -4   0  -8 111.748 5.22533  37
  -4   0  -8 108.637 5.32516  29
  -4   0  -8 116.331 4.81442  13
  -4   0  -8 117.000 4.95629   3
  -4   0  -8 121.515 5.04135  30
   4   0   8 137.077 6.33234  21
   4   0   8 115.553 4.45264  33
   4   0   8 120.542 5.14507   8
   4   0   8 119.151 5.77054  18
   4   0   8 110.547 5.21828  38
   4   0   8 121.079 4.58655  11
   4   0   8 123.999 5.14454  31
   4   0   8 121.387 6.08831  10
  -5   0  -8 100.177 4.72101  22
  -5   0  -8 103.967 4.35172  30
  -5   0  -8 99.5532 4.69365  28
  -5   0  -8 97.6964 4.15019  13
   5   0   8 96.7889 5.31536  10
   5   0   8 102.813 3.90765  33
   5   0   8 103.041 5.37618  21
   5   0   8 101.819 5.08510  18
   5   0   8 100.131 4.67767  38
   5   0   8 101.911 4.48240  31
   5   0   8 100.212 5.08118   2
   5   0   8 102.324 3.98926  11
  -6   0  -8 527.053 20.4556  13
  -6   0  -8 525.677 23.2123  22
   6   0   8 534.014 23.9244   2
   6   0   8 552.335 21.0403  38
   6   0   8 558.937 18.8570  11
   6   0   8 524.808 24.0884  10
   6   0   8 540.065 18.5646  33
   6   0   8 545.475 20.7431  31
  -7   0  -8 61.0790 2.57978  13
  -7   0  -8 58.4155 2.67180  30
   7   0   8 60.1671 3.47694  10
   7   0   8 57.3743 3.05337  38
   7   0   8 56.7001 3.20964   2
   7   0   8 59.2420 2.85014  31
   7   0   8 59.5316 2.47616  33
  -8   0  -8 291.619 10.5949  13
  -8   0  -8 275.100 9.64827  15
   8   0   8 253.316 10.6750  31
   8   0   8 273.129 12.4472  10
   8   0   8 295.494 10.9368  38
   8   0   8 270.184 9.60868  33
   8   0   8 275.661 12.3785   2
   3  -1  -8 143.954 5.98405   8
   3  -1  -8 131.636 4.90162   1
   3  -1  -8 146.331 5.57428  32
  -3   1   8 139.799 5.62140   3
  -3   1   8 134.793 6.32898  18
   2  -1  -8 62.3121 3.15838   8
   2  -1  -8 58.6820 2.65684   1
   2  -1  -8 63.3153 3.11983  32
   2  -1  -8 61.8964 2.98173  14
  -2   1   8 59.0397 3.26732  18
  -2   1   8 62.1266 2.89110   3
  -2   1   8 55.0756 3.14293   8
   1  -1  -8 468.094 19.2084   8
   1  -1  -8 488.367 17.4524  32
   1  -1  -8 472.682 18.2403   3
   1  -1  -8 484.044 17.7163  14
  -1   1   8 450.327 20.5109  18
  -1   1   8 470.019 18.2400   3
  -1   1   8 476.415 19.2991   8
   0  -1  -8 564.328 20.2338  14
   0  -1  -8 548.768 20.9201   3
   0  -1  -8 513.841 21.9320   8
   0  -1  -8 536.745 19.8029  32
   0   1   8 537.515 20.8560   3
   0   1   8 560.527 22.0347   8
   0   1   8 548.685 23.5236  18
  -1  -1  -8 55.0272 3.11357  26
  -1  -1  -8 51.6779 2.53804   3
  -1  -1  -8 50.1944 2.75518  37
  -1  -1  -8 52.4638 2.65377  14
  -1  -1  -8 48.6641 3.27155  36
   1   1   8 49.7293 2.72518   8
   1   1   8 52.6776 2.89120  18
   1   1   8 47.8050 3.06559  36
  -2  -1  -8 157.938 6.69680   3
  -2  -1  -8 165.159 6.51179  13
  -2  -1  -8 156.500 8.34280  36
  -2  -1  -8 159.848 7.16758  37
  -2  -1  -8 167.444 7.72118  26
  -2  -1  -8 161.811 6.55076  14
   2   1   8 156.342 8.07207  36
   2   1   8 184.913 7.67181  18
   2   1   8 168.198 6.78881  31
   2   1   8 168.277 7.11488   8
  -3  -1  -8 191.837 7.71866  13
  -3  -1  -8 199.962 8.43493  37
  -3  -1  -8 198.617 7.73971  14
  -3  -1  -8 199.830 7.91323   3
  -3  -1  -8 196.974 8.08156  30
  -3  -1  -8 177.932 9.82891  36
  -3  -1  -8 199.926 9.03388  26
   3   1   8 200.830 7.96352  31
   3   1   8 208.336 8.32780   8
   3   1   8 199.582 8.95845  18
   3   1   8 193.060 7.20507  11
  -4  -1  -8 887.399 34.7753  13
  -4  -1  -8 914.129 34.9080   3
  -4  -1  -8 907.229 38.9520  26
  -4  -1  -8 934.421 36.3915  30
  -4  -1  -8 891.820 36.9994  37
   4   1   8 920.299 39.2888  18
   4   1   8 960.356 31.9533  11
   4   1   8 932.421 40.5342  10
   4   1   8 939.387 34.9493  31
   4   1   8 942.910 36.4566   8
  -5  -1  -8 2.78967 0.52676   3
  -5  -1  -8 1.74182 0.43473  30
  -5  -1  -8 2.72715 0.53415  22
   5   1   8 3.00996 0.65195   8
   5   1   8 1.83686 0.41500  33
   5   1   8 2.16672 0.43791  11
   5   1   8 2.68979 0.86990  38
   5   1   8 2.55017 0.90991  10
  -6  -1  -8 584.933 22.3949  13
  -6  -1  -8 574.552 25.4203  22
   6   1   8 590.292 20.2874  33
   6   1   8 588.261 22.6718  31
   6   1   8 592.650 22.9100  38
   6   1   8 619.122 20.6409  11
   6   1   8 582.909 26.2781  10
  -7  -1  -8 127.089 5.07255  13
  -7  -1  -8 127.659 5.06419  17
  -7  -1  -8 121.905 5.28789  30
   7   1   8 129.544 5.58564  38
   7   1   8 119.063 6.03997   2
   7   1   8 128.237 6.30301  10
   7   1   8 127.362 4.72045  33
  -8  -1  -8 416.087 15.8347  13
  -8  -1  -8 415.711 14.3985  15
   8   1   8 423.328 16.2025  38
   8   1   8 397.764 18.4743  10
   8   1   8 431.247 14.3637  33
   8   1   8 416.342 18.6709  20
   2  -2  -8 50.6119 2.48775  14
   2  -2  -8 46.4731 2.52067  32
   2  -2  -8 50.8300 2.56874   8
  -2   2   8 47.3280 2.36062   3
  -2   2   8 43.7446 2.60726  18
   1  -2  -8 379.376 14.2581  32
   1  -2  -8 390.174 15.7142   8
   1  -2  -8 404.156 14.5235  14
  -1   2   8 366.477 16.7020  18
  -1   2   8 393.564 14.9315   3
  -1   2   8 367.088 15.7626   8
   0  -2  -8 736.001 27.0232  32
   0  -2  -8 739.047 29.9881   8
   0  -2  -8 772.172 27.5647  14
   0  -2  -8 765.963 28.6004   3
   0   2   8 740.177 32.0974  18
   0   2   8 741.205 30.0532   8
   0   2   8 765.215 28.6101   3
  -1  -2  -8 78.5472 4.20809  26
  -1  -2  -8 78.1870 3.64638  14
  -1  -2  -8 77.0283 3.51997   3
  -1  -2  -8 76.7189 3.78821   8
   1   2   8 78.9265 3.84680   8
   1   2   8 76.9426 3.47826   3
   1   2   8 77.1305 3.93844  18
  -2  -2  -8 13.0383 1.08916   3
  -2  -2  -8 12.6058 1.15568  37
  -2  -2  -8 13.0328 1.56178  26
  -2  -2  -8 10.5966 1.40927  36
  -2  -2  -8 11.6845 1.25634  14
   2   2   8 13.3250 1.20007   8
   2   2   8 12.0451 1.19648  18
   2   2   8 14.0330 1.40100  36
  -3  -2  -8 121.308 5.11920  14
  -3  -2  -8 128.555 6.14639  26
  -3  -2  -8 119.306 6.58823  36
  -3  -2  -8 122.795 5.64309  37
  -3  -2  -8 128.893 5.28715   3
  -3  -2  -8 126.017 5.05543  13
   3   2   8 124.257 6.36476  36
   3   2   8 133.986 5.63947   8
   3   2   8 129.388 5.96146  18
  -4  -2  -8 799.925 30.3889  30
  -4  -2  -8 774.774 29.1574   3
  -4  -2  -8 787.324 30.9738  37
  -4  -2  -8 681.594 35.5665  36
  -4  -2  -8 759.223 28.9915  13
  -4  -2  -8 745.503 32.5675  26
   4   2   8 803.101 26.6881  11
   4   2   8 740.640 32.7442  18
   4   2   8 819.622 30.5451   8
  -5  -2  -8 223.950 8.84926  13
  -5  -2  -8 226.742 9.04289   3
  -5  -2  -8 223.454 10.2119  26
   5   2   8 221.324 10.2112  18
   5   2   8 234.004 8.30252  11
   5   2   8 236.217 10.7010  10
   5   2   8 224.153 9.48279   8
  -6  -2  -8 48.0665 2.42562  17
  -6  -2  -8 48.0629 2.23360  30
  -6  -2  -8 44.9020 2.12896  13
   6   2   8 46.5951 2.42294   8
   6   2   8 44.5788 2.06745  33
   6   2   8 45.6261 2.59291  38
   6   2   8 48.3561 2.15394  11
   6   2   8 45.3891 2.88634  10
  -7  -2  -8 112.248 4.54268  17
  -7  -2  -8 106.373 4.65119  30
  -7  -2  -8 104.842 4.67844   3
   7   2   8 102.171 5.49406  10
   7   2   8 107.921 4.15357  33
   7   2   8 115.562 4.97357  38
   7   2   8 115.318 5.62912  20
  -8  -2  -8 771.940 30.9310   3
  -8  -2  -8 816.868 30.8128  13
  -8  -2  -8 842.794 27.8422  15
   8   2   8 848.020 36.1087  20
   8   2   8 814.471 31.1754  38
   2  -3  -8 1.27555 0.65850  32
   2  -3  -8 1.91352 0.49714   8
   2  -3  -8 0.41906 0.50881  16
  -2   3   8 1.03695 0.42347   3
   1  -3  -8 320.615 11.6770  32
   1  -3  -8 299.520 12.7386   8
   1  -3  -8 293.238 11.9398  16
   1  -3  -8 321.614 11.8558  14
  -1   3   8 316.372 12.1749   3
   0  -3  -8 360.624 14.8439   8
   0  -3  -8 361.101 13.7357  14
   0  -3  -8 360.634 13.4387  32
   0   3   8 376.182 14.1362   3
   0   3   8 351.293 14.9380   8
  -1  -3  -8 10.6661 1.49927  26
  -1  -3  -8 8.23787 0.96905   3
  -1  -3  -8 7.86239 1.07348   8
   1   3   8 9.31771 1.18178   8
   1   3   8 7.39628 0.95775   3
  -2  -3  -8 170.804 7.78371  26
  -2  -3  -8 161.927 6.56814  14
  -2  -3  -8 160.142 6.67508   3
  -2  -3  -8 155.804 7.09321   8
   2   3   8 165.173 6.64168   3
   2   3   8 165.717 7.15537   8
  -3  -3  -8 378.949 14.2512  14
  -3  -3  -8 392.158 14.8603   3
  -3  -3  -8 397.113 14.0965  17
  -3  -3  -8 398.713 16.8323  26
  -3  -3  -8 363.947 15.8195  37
  -3  -3  -8 350.092 18.2738  36
   3   3   8 396.080 15.6522   8
   3   3   8 387.194 18.0750  36
  -4  -3  -8 714.354 32.2369  26
  -4  -3  -8 749.183 28.8278   3
  -4  -3  -8 758.119 27.1834  17
   4   3   8 815.364 30.2782   8
  -5  -3  -8 15.2026 1.62336  26
  -5  -3  -8 16.0069 1.04627  13
  -5  -3  -8 17.5597 1.37906  17
  -5  -3  -8 17.0459 1.25958   3
   5   3   8 15.0817 1.54559  10
   5   3   8 18.1079 1.41386   8
  -6  -3  -8 78.3142 3.39649  13
  -6  -3  -8 81.0932 3.61669  17
   6   3   8 87.4575 3.96654  38
   6   3   8 79.3709 4.33772  10
   6   3   8 80.4253 3.84701   8
  -7  -3  -8 29.8216 1.92137   3
  -7  -3  -8 31.8009 1.93643  17
   7   3   8 33.4650 1.61750  33
   7   3   8 38.2047 2.37504  20
   7   3   8 29.5530 1.82460   8
   7   3   8 32.2405 2.04844  38
  -8  -3  -8 175.584 7.06702   3
  -8  -3  -8 167.449 6.76904  13
  -8  -3  -8 173.338 6.67532  17
  -8  -3  -8 173.186 6.37012  15
   8   3   8 182.167 8.33026  20
   8   3   8 177.368 7.19075  38
   1  -4  -8 28.1656 1.71903  32
   1  -4  -8 26.9023 1.77727  14
   1  -4  -8 26.8070 1.68470  16
   1  -4  -8 25.3350 1.61155   8
  -1   4   8 22.7152 1.49248   3
   0  -4  -8 89.0084 3.93049  32
   0  -4  -8 93.1127 4.17038  14
   0  -4  -8 88.9128 4.22093   8
   0   4   8 90.2459 3.98505   3
  -1  -4  -8 2.42676 0.74450  14
  -1  -4  -8 1.66837 0.54929   8
   1   4   8 1.92020 0.52058   3
   1   4   8 1.76299 0.58396   8
  -2  -4  -8 85.1253 4.08899   8
  -2  -4  -8 91.7587 4.64285  26
  -2  -4  -8 82.2044 3.71979   3
  -2  -4  -8 83.3089 3.83701  14
   2   4   8 83.5887 3.77030   3
   2   4   8 85.0374 4.15035   8
  -3  -4  -8 300.162 11.7498   3
  -3  -4  -8 296.596 12.4382   8
  -3  -4  -8 312.301 13.4493  26
  -3  -4  -8 295.298 11.3541  14
   3   4   8 294.739 11.7379   3
   3   4   8 301.409 12.4662   8
  -4  -4  -8 1164.21 43.4478   3
  -4  -4  -8 1094.29 40.8575  17
  -4  -4  -8 1149.12 48.5432  26
   4   4   8 1198.30 45.5309   8
  -5  -4  -8 39.4812 2.12340  17
  -5  -4  -8 35.9981 2.44927  26
  -5  -4  -8 36.9413 2.01555   3
   5   4   8 37.8422 2.27001   8
  -6  -4  -8 229.206 11.3510  26
  -6  -4  -8 268.936 9.75678  17
   6   4   8 271.358 10.7482   8
  -7  -4  -8 0.83458 0.37783  15
  -7  -4  -8 1.48015 0.60986  17
   7   4   8 1.12445 0.66431  38
   7   4   8 1.11932 0.53738   8
  -8  -4  -8 46.0542 2.09971  15
  -8  -4  -8 44.1778 2.31417   3
  -8  -4  -8 45.7573 2.24884  17
   8   4   8 46.7222 2.40806  38
   8   4   8 48.4929 2.79414  20
   8   4   8 45.8887 2.19600   8
   1  -5  -8 17.0125 1.09326   8
   1  -5  -8 17.8543 1.16321  32
  -1   5   8 16.5694 1.10709   3
   0  -5  -8 5.48862 1.04364  32
   0  -5  -8 5.96286 0.85533   8
   0  -5  -8 7.05294 0.97070  14
   0   5   8 7.99988 0.88211   3
  -1  -5  -8 69.8406 3.44534   8
  -1  -5  -8 67.6198 3.39470  14
   1   5   8 75.1002 3.28102   3
  -2  -5  -8 48.4087 2.63209  14
  -2  -5  -8 49.7644 3.14617  26
  -2  -5  -8 48.6873 2.67126   8
   2   5   8 50.6931 2.49717   3
   2   5   8 51.5779 2.86307   8
  -3  -5  -8 372.946 15.8799  26
  -3  -5  -8 365.232 13.4412  14
  -3  -5  -8 347.714 13.8552   3
  -3  -5  -8 356.133 14.6673   8
   3   5   8 352.086 14.7243   8
   3   5   8 351.709 13.9019   3
  -4  -5  -8 279.068 10.7832   3
  -4  -5  -8 265.809 11.4115   8
  -4  -5  -8 267.604 12.3088  26
  -4  -5  -8 271.309 10.2877  17
   4   5   8 282.362 11.4994   8
   4   5   8 276.738 10.8428   3
  -5  -5  -8 108.955 4.63265  17
  -5  -5  -8 110.665 5.54987  26
   5   5   8 112.101 5.13601   8
  -6  -5  -8 723.486 27.1871  17
  -6  -5  -8 724.128 32.1307  26
  -6  -5  -8 779.726 28.8914   3
   6   5   8 805.579 30.2531   8
  -7  -5  -8 53.2363 2.42411  15
  -7  -5  -8 55.6770 2.74302   3
  -7  -5  -8 54.3142 2.69975  17
   7   5   8 57.0369 2.87737   8
   7   5   8 59.4305 2.87626  38
  -8  -5  -8 410.814 14.8124  15
  -8  -5  -8 451.310 16.6190   3
  -8  -5  -8 413.767 15.5926  17
   8   5   8 450.103 19.3118  20
   8   5   8 437.801 17.2011   8
   8   5   8 423.415 16.6362  38
   0  -6  -8 78.7186 3.37400  32
   0  -6  -8 83.3688 3.58838   8
   0  -6  -8 82.3714 3.52017  14
   0  -6  -8 82.3405 4.64521   7
   0   6   8 80.3624 3.48713   3
  -1  -6  -8 218.121 8.50780  14
  -1  -6  -8 219.455 9.07272   8
  -1  -6  -8 217.193 11.2236   7
   1   6   8 219.600 8.67947   3
  -2  -6  -8 442.560 18.0647   8
  -2  -6  -8 434.262 16.6211  14
  -2  -6  -8 460.227 19.4839  26
   2   6   8 454.952 17.2659   3
  -3  -6  -8 39.2287 2.20262  14
  -3  -6  -8 38.5065 2.63840  26
  -3  -6  -8 36.8856 2.19200   8
   3   6   8 37.5267 2.05361   3
   3   6   8 36.1637 2.34313   8
  -4  -6  -8 19.7189 1.50763   8
  -4  -6  -8 21.2225 1.95381  26
   4   6   8 21.5512 1.67904   8
   4   6   8 20.6345 1.43011   3
  -5  -6  -8 18.5599 1.34583   3
  -5  -6  -8 17.9777 1.77220  26
  -5  -6  -8 17.3463 1.37365   8
  -5  -6  -8 17.7449 1.45210  17
   5   6   8 17.1359 1.47476   8
  -6  -6  -8 309.070 11.9534   3
  -6  -6  -8 298.563 13.3941  26
  -6  -6  -8 294.775 11.3310  17
   6   6   8 314.056 12.6000   8
  -7  -6  -8 16.7262 1.28278   3
  -7  -6  -8 14.6732 1.28256  17
   7   6   8 16.4694 1.30953   8
   7   6   8 17.2356 1.38416  38
  -8  -6  -8 253.730 10.0637   3
  -8  -6  -8 240.837 8.94217  15
  -8  -6  -8 256.461 9.50640  17
   8   6   8 284.892 11.7883  20
   8   6   8 251.470 10.0675  38
   8   6   8 256.715 10.4599   8
  -1  -7  -8 429.384 20.7331   7
  -1  -7  -8 437.679 15.7895  14
  -1  -7  -8 418.362 17.0231   8
   1   7   8 430.856 16.4016   3
  -2  -7  -8 627.003 22.7981  14
  -2  -7  -8 643.627 24.7915   8
  -2  -7  -8 593.643 29.8641   7
   2   7   8 634.496 23.7658   3
  -3  -7  -8 21.7070 1.94841   7
  -3  -7  -8 19.0437 1.39618   8
  -3  -7  -8 21.7072 1.83995  26
  -3  -7  -8 19.7766 1.46274  14
   3   7   8 19.0566 1.33755   3
  -4  -7  -8 50.8426 3.22600  26
  -4  -7  -8 57.3026 2.86254   8
   4   7   8 60.0400 2.71257   3
  -5  -7  -8 57.1655 2.65764  17
  -5  -7  -8 57.9679 2.91246   8
  -5  -7  -8 54.8350 3.25057  26
   5   7   8 58.7388 3.01114   8
   5   7   8 56.5097 2.67156   3
  -6  -7  -8 32.5680 1.84124   3
  -6  -7  -8 40.4661 2.33577  26
  -6  -7  -8 32.7687 1.97839   8
  -6  -7  -8 34.9051 1.89906  17
   6   7   8 32.5520 2.04483   8
  -7  -7  -8 35.7184 1.84988  17
  -7  -7  -8 35.8527 1.82956   3
   7   7   8 33.5088 1.94998   8
   7   7   8 34.1432 1.91761  38
  -8  -7  -8 34.0428 1.72024   3
  -8  -7  -8 37.4457 1.76190  17
   8   7   8 33.3640 1.78357   8
  -2  -8  -8 432.550 16.8081  14
   2   8   8 484.862 17.4833   3
  -3  -8  -8 7.17188 0.86319  14
  -3  -8  -8 6.36730 0.73963   8
  -3  -8  -8 6.04693 1.01551   7
  -3  -8  -8 5.60395 1.02620  21
  -3  -8  -8 6.55220 1.13761  26
   3   8   8 6.62020 0.77947   3
  -4  -8  -8 221.014 9.79974  26
  -4  -8  -8 210.392 9.00057   8
   4   8   8 223.647 8.59963   3
  -5  -8  -8 4.06433 0.70949   8
  -5  -8  -8 3.07074 0.72185  26
   5   8   8 3.57864 0.61105   3
  -6  -8  -8 227.183 9.02492   8
  -6  -8  -8 212.331 8.08138  17
  -6  -8  -8 203.983 9.58738  26
   6   8   8 225.768 9.07440   8
  -7  -8  -8 28.1632 1.74173   8
  -7  -8  -8 35.9161 1.71068  17
   7   8   8 37.3432 1.86369   8
  -5  -9  -8 6.74166 0.65322   8
  -5  -9  -8 6.68073 0.97044  26
  -5  -9  -8 5.80101 1.02046  21
   0   8  -9 94.3490 3.79837  13
   1   7  -9 16.6551 1.24554  14
   1   7  -9 15.2346 1.15979  32
   1   7  -9 15.0959 0.87752  13
  -1  -7   9 12.9558 1.30429   2
   0   7  -9 147.378 5.67788  13
   0  -7   9 139.740 5.25532  33
   0  -7   9 144.846 7.14829  21
   0  -7   9 148.615 7.32473   7
   0  -7   9 134.627 6.83826   2
  -1   7  -9 18.4034 1.02139  13
   1  -7   9 17.3149 1.49400   7
   1  -7   9 15.5754 1.07146  33
   1  -7   9 15.1797 0.98672  11
   1  -7   9 14.0207 1.42909   2
   1  -7   9 20.1488 1.56308  21
  -2   7  -9 98.8816 4.25843  13
   2  -7   9 115.870 5.57389  21
   2  -7   9 114.922 5.62506   7
   2  -7   9 102.168 5.20680   2
   2  -7   9 104.121 4.00762  33
   2  -7   9 105.156 4.06045  11
   3  -7   9 1.04742 0.35341  11
   3  -7   9 1.64037 0.41177  33
   2   6  -9 269.686 10.4630   3
   2   6  -9 264.724 10.0033  14
   2   6  -9 263.110 9.91575  32
  -2  -6   9 276.457 12.2137   2
   1   6  -9 16.0105 1.34358  32
   1   6  -9 13.9266 1.13233   3
   1   6  -9 14.5905 1.32554  14
   1   6  -9 15.1358 0.94569  13
  -1  -6   9 16.7611 1.25500  31
  -1  -6   9 15.2663 1.46600   2
   0   6  -9 211.922 9.03976  30
   0   6  -9 231.002 8.64629  13
   0  -6   9 218.166 10.8095  21
   0  -6   9 234.093 11.0836   7
   0  -6   9 214.236 7.91728  33
   0  -6   9 209.960 10.3163   2
   0  -6   9 225.934 8.86755  31
  -1   6  -9 94.7756 3.88082  13
  -1   6  -9 90.7683 4.06977  30
   1  -6   9 88.6584 4.15216  31
   1  -6   9 87.9895 4.83128   2
   1  -6   9 99.5667 5.11038  21
   1  -6   9 87.1798 3.65931  11
   1  -6   9 90.9673 3.66916  33
   1  -6   9 101.626 5.21055   7
  -2   6  -9 13.4525 0.91412  13
  -2   6  -9 13.8949 0.95953  30
   2  -6   9 13.7217 1.31361  31
   2  -6   9 15.1009 1.48947   7
   2  -6   9 13.0555 1.04867  11
   2  -6   9 10.6878 1.35986   2
   2  -6   9 12.4672 0.97256  33
   3  -6   9 16.3616 1.43326  21
   3  -6   9 15.8298 1.03930  33
   3  -6   9 13.2173 1.35949   2
   3  -6   9 14.4469 1.29769  31
   3  -6   9 16.2581 1.04175  11
   3  -6   9 17.6016 1.44402   7
   4  -6   9 15.4998 1.31172   2
   4  -6   9 19.9183 1.43276  21
   4  -6   9 18.8030 1.02290  11
   4  -6   9 18.2528 1.00127  33
   3   5  -9 58.5483 2.82476   3
   3   5  -9 71.0847 2.97979  32
   2   5  -9 345.888 13.2462   3
   2   5  -9 324.206 12.5061  32
   2   5  -9 336.257 12.6313  14
  -2  -5   9 351.774 13.6994   8
  -2  -5   9 352.695 13.2471  31
  -2  -5   9 330.483 15.3641   2
  -2  -5   9 345.250 14.8064  18
   1   5  -9 62.3690 2.76318  13
   1   5  -9 65.5306 3.08693  14
   1   5  -9 64.3103 3.07843   3
   1   5  -9 62.5645 3.05671  32
  -1  -5   9 65.1354 3.66535   2
  -1  -5   9 71.0047 3.17965  31
  -1  -5   9 64.9452 3.43459  18
   0   5  -9 58.5707 2.80521  30
   0   5  -9 60.3711 2.66761  13
   0   5  -9 57.6419 2.84329   3
   0   5  -9 64.3557 2.98093  14
   0  -5   9 59.6032 3.02257  31
   0  -5   9 58.6763 3.28882  18
   0  -5   9 56.9075 3.45033  21
   0  -5   9 55.1917 3.41770   2
   0  -5   9 61.0877 3.65506   7
  -1   5  -9 277.842 10.6905  13
  -1   5  -9 277.865 11.2112  30
   1  -5   9 278.471 13.4682  21
   1  -5   9 265.091 9.77479  33
   1  -5   9 268.958 9.88692  11
   1  -5   9 270.146 10.9977  31
   1  -5   9 261.255 12.2513  18
   1  -5   9 275.140 12.7454   2
   1  -5   9 294.435 13.7547   7
  -2   5  -9 82.8517 3.60530  13
  -2   5  -9 82.7567 3.78246  30
   2  -5   9 85.6343 3.49160  11
   2  -5   9 84.4418 4.74162  21
   2  -5   9 78.0754 4.35450  18
   2  -5   9 92.2554 4.64480   2
   2  -5   9 78.3321 3.95664  31
   2  -5   9 92.7264 4.93583   7
   2  -5   9 88.3455 3.45366  33
  -3   5  -9 118.909 5.17012  30
   3  -5   9 122.128 6.09991   2
   3  -5   9 126.937 6.46293  21
   3  -5   9 126.292 4.74539  11
   3  -5   9 117.704 4.65091  33
   3  -5   9 128.675 6.49842   7
   3  -5   9 116.944 5.33844  31
  -4   5  -9 133.110 5.83478  30
   4  -5   9 136.586 6.81778   2
   4  -5   9 134.048 5.95492  31
   4  -5   9 145.012 5.24430  33
   4  -5   9 150.344 7.19927  21
   4  -5   9 153.881 5.34689  11
   5  -5   9 36.4334 1.96365  31
   5  -5   9 37.0836 1.62151  11
   5  -5   9 40.2330 1.66844  33
   3   4  -9 33.4258 1.79033  32
   3   4  -9 34.7630 1.72428   3
  -3  -4   9 32.4768 1.77723   8
  -3  -4   9 36.6666 1.91016  31
   2   4  -9 157.756 6.42724  32
   2   4  -9 157.367 6.40589  14
   2   4  -9 164.646 6.69110   3
  -2  -4   9 181.021 6.78287  31
  -2  -4   9 164.210 6.94015   8
  -2  -4   9 166.243 7.49501  18
  -2  -4   9 152.610 7.71436   2
   1   4  -9 4.82471 0.97761   3
   1   4  -9 3.08952 0.74230  14
   1   4  -9 4.77348 0.98648  32
  -1  -4   9 4.14630 0.73787   8
  -1  -4   9 5.29049 1.14194  18
  -1  -4   9 5.11103 1.09671  31
  -1  -4   9 5.49900 1.11896   2
   0   4  -9 64.6067 2.85024  13
   0   4  -9 66.6388 3.11941   3
   0   4  -9 60.2065 3.13425  14
   0   4  -9 61.6792 2.99093  30
   0  -4   9 60.6928 3.53492  18
   0  -4   9 63.4923 3.69934   2
   0  -4   9 66.9057 3.03538   8
   0  -4   9 64.3945 3.23309  31
  -1   4  -9 162.883 6.79774  30
  -1   4  -9 152.713 7.36856  22
  -1   4  -9 168.423 6.58620  14
  -1   4  -9 144.563 6.56510   3
  -1   4  -9 161.042 6.47104  13
   1  -4   9 161.467 8.27551  21
   1  -4   9 161.676 7.86618   2
   1  -4   9 161.237 6.83664  31
   1  -4   9 158.688 7.61329  18
   1  -4   9 172.401 8.51758   7
  -2   4  -9 56.3885 3.08176  22
  -2   4  -9 61.2052 2.86808  30
  -2   4  -9 56.4424 2.70816  13
   2  -4   9 60.3159 3.68370  21
   2  -4   9 54.6661 3.47351   2
   2  -4   9 66.3917 3.84929   7
   2  -4   9 57.4197 3.41165  18
   2  -4   9 63.9962 3.13743  31
   2  -4   9 65.7206 2.71327  11
   2  -4   9 59.7987 2.62541  33
  -3   4  -9 275.625 11.1498  30
  -3   4  -9 266.169 10.6384  13
  -3   4  -9 258.804 12.0488  22
   3  -4   9 296.794 13.5653  21
   3  -4   9 277.367 9.77428  33
   3  -4   9 251.183 12.2800  18
   3  -4   9 273.538 9.91598  11
   3  -4   9 303.367 13.6787   7
   3  -4   9 264.978 11.0143  31
   3  -4   9 275.039 12.6931   2
  -4   4  -9 305.184 12.4820  30
   4  -4   9 289.891 12.2740  31
   4  -4   9 309.419 14.1808   2
   4  -4   9 335.739 15.0901  21
   4  -4   9 325.272 11.1155  11
   4  -4   9 292.943 14.2087  10
   4  -4   9 315.070 10.9394  33
  -5   4  -9 1.62697 0.34870  30
   5  -4   9 2.73933 0.64483   2
   5  -4   9 1.65141 0.36706  11
   5  -4   9 0.76666 0.71130  10
   5  -4   9 1.20868 0.57848  31
   5  -4   9 1.03268 0.34733  33
   5  -4   9 1.72604 0.56020  21
   6  -4   9 4.94947 0.82922  31
   6  -4   9 4.18250 0.55018  33
   3   3  -9 0.47662 0.41135   3
   3   3  -9 -0.1961 0.51692  32
  -3  -3   9 1.26164 0.48240  18
  -3  -3   9 0.95290 0.42203   8
   2   3  -9 2.93071 0.75439  32
   2   3  -9 2.48487 0.63589  14
   2   3  -9 2.93670 0.58698   3
  -2  -3   9 2.53119 0.64143  18
   1   3  -9 49.0369 2.86587  32
   1   3  -9 60.4491 2.89967   3
   1   3  -9 57.0315 2.89829  14
  -1  -3   9 61.1021 2.98150   8
  -1  -3   9 58.5276 3.28156  18
  -1  -3   9 54.3041 3.28484   2
   0   3  -9 110.694 4.49409  13
   0   3  -9 108.299 4.74201  14
   0   3  -9 107.013 4.76598   3
   0  -3   9 107.804 4.90089  31
   0  -3   9 105.484 5.41820  18
   0  -3   9 109.025 5.57547   2
   0  -3   9 110.098 4.89593   8
  -1   3  -9 30.6697 2.03537  22
  -1   3  -9 30.6410 1.91514   3
  -1   3  -9 34.3687 1.77936  13
  -1   3  -9 31.8525 2.12268  14
  -1   3  -9 34.9235 1.86671  30
   1  -3   9 38.1555 2.23639  31
   1  -3   9 33.8539 2.35491   2
   1  -3   9 30.7498 2.43677  21
   1  -3   9 33.1780 1.84343   8
   1  -3   9 35.1641 2.38393  18
  -2   3  -9 198.005 8.16992  30
  -2   3  -9 194.341 8.85851  22
  -2   3  -9 194.692 7.78841  13
  -2   3  -9 192.806 7.75983  14
  -2   3  -9 174.665 7.86044   3
   2  -3   9 187.662 7.11202  33
   2  -3   9 202.823 9.43689  10
   2  -3   9 216.503 10.1964   7
   2  -3   9 202.243 9.36956   2
   2  -3   9 194.668 8.13318  31
   2  -3   9 193.990 9.09963  18
   2  -3   9 205.046 9.98580  21
   2  -3   9 191.451 7.23818  11
  -3   3  -9 285.321 11.3335  13
  -3   3  -9 297.722 11.8834  30
  -3   3  -9 288.215 12.8652  22
   3  -3   9 289.309 13.4532   2
   3  -3   9 287.597 13.5862  10
   3  -3   9 316.229 14.5099   7
   3  -3   9 278.240 13.0749  18
   3  -3   9 304.180 14.3774  21
   3  -3   9 290.890 10.3591  33
   3  -3   9 287.629 11.6910  31
   3  -3   9 289.497 10.5255  11
  -4   3  -9 1322.49 59.6534  22
  -4   3  -9 1354.02 52.6400  13
  -4   3  -9 1473.98 55.1043  30
   4  -3   9 1399.50 52.9037  31
   4  -3   9 1540.89 65.4782  21
   4  -3   9 1348.82 59.3739  18
   4  -3   9 1429.90 47.4846  33
   4  -3   9 1417.67 48.2470  11
   4  -3   9 1453.23 61.2113   2
   4  -3   9 1279.16 61.0870  10
   5  -3   9 1.17466 0.58597  21
   5  -3   9 0.59926 0.54078   2
   5  -3   9 0.23120 0.56045  31
   5  -3   9 0.68942 0.35178  11
   5  -3   9 1.46000 0.83400  10
  -6   3  -9 92.4308 3.90846  13
   6  -3   9 98.3872 4.83094   2
   6  -3   9 105.399 3.72918  33
   6  -3   9 100.591 3.72205  11
   6  -3   9 94.5721 5.01466  10
   6  -3   9 96.0722 4.22344  31
   3   2  -9 81.4838 3.47601  32
  -3  -2   9 85.3377 3.98446  18
  -3  -2   9 80.9567 3.74443   8
   2   2  -9 7.42209 1.30563  32
   2   2  -9 5.95540 1.14250  14
   2   2  -9 6.80866 0.98972   3
  -2  -2   9 7.42428 1.02043   8
  -2  -2   9 7.67832 1.14598  18
   1   2  -9 871.109 31.1016  14
   1   2  -9 895.237 32.5362   3
   1   2  -9 810.797 30.6135  32
  -1  -2   9 860.969 33.9514   8
  -1  -2   9 830.912 36.4664  18
   0   2  -9 215.658 8.43531  14
   0   2  -9 194.822 8.38533  32
   0   2  -9 209.984 8.64151   3
   0  -2   9 221.207 9.02909   8
   0  -2   9 217.462 9.77616  18
  -1   2  -9 25.5627 1.67158   3
  -1   2  -9 25.2789 1.48503  13
  -1   2  -9 25.1911 1.55555  30
  -1   2  -9 25.4272 1.90519  14
   1  -2   9 29.2991 1.71255   8
   1  -2   9 27.1474 1.96116   2
   1  -2   9 24.6489 2.00036  18
   1  -2   9 24.6372 2.10126  21
   1  -2   9 23.1682 1.83362  31
  -2   2  -9 11.5568 1.10519  22
  -2   2  -9 12.0953 1.11416   3
  -2   2  -9 10.8450 1.00927  30
   2  -2   9 10.8850 1.33389  31
   2  -2   9 12.2376 1.01032   8
   2  -2   9 14.1558 1.39768   2
   2  -2   9 10.5798 1.54302  21
   2  -2   9 9.96388 1.60024  10
   2  -2   9 10.7286 1.44204  18
  -3   2  -9 107.068 5.17659  22
  -3   2  -9 115.727 4.80071  30
  -3   2  -9 110.642 4.55950  13
   3  -2   9 108.917 4.91369  31
   3  -2   9 101.260 4.18521  33
   3  -2   9 106.682 5.54540   2
   3  -2   9 114.674 5.97591  21
   3  -2   9 110.082 5.51460  18
   3  -2   9 116.101 5.87895  10
   3  -2   9 108.405 4.32064  11
  -4   2  -9 324.158 12.5191  13
  -4   2  -9 315.574 14.1749  22
  -4   2  -9 337.182 13.1168  30
   4  -2   9 305.589 14.3919  18
   4  -2   9 316.364 15.0003  10
   4  -2   9 317.727 11.4040  33
   4  -2   9 320.007 12.8491  31
   4  -2   9 344.842 15.8200  21
   4  -2   9 329.162 14.8109   2
   4  -2   9 333.922 11.6267  11
  -5   2  -9 2.54476 0.57183  30
  -5   2  -9 1.55804 0.34849  13
   5  -2   9 2.86441 0.99445  10
   5  -2   9 2.07434 0.45969  11
   5  -2   9 1.16113 0.40239  33
   5  -2   9 1.44637 0.63248  31
   5  -2   9 1.76401 0.64972  21
   5  -2   9 0.98156 0.58208   2
  -6   2  -9 47.9125 2.10584  13
   6  -2   9 46.5980 2.05226  33
   6  -2   9 45.8522 2.70376   2
   6  -2   9 49.7594 2.56218  38
   6  -2   9 44.8002 2.42798  31
   6  -2   9 45.4273 2.98904  10
   6  -2   9 50.0783 2.08770  11
  -7   2  -9 158.205 6.07921  13
   7  -2   9 163.078 7.37219  10
   7  -2   9 144.750 6.26712  31
   7  -2   9 159.988 5.59110  33
   2   1  -9 2.61662 0.77582  32
   2   1  -9 3.75966 0.61400   3
   2   1  -9 2.90587 0.61514  14
  -2  -1   9 2.22821 0.61141  18
   1   1  -9 497.927 18.6322   3
   1   1  -9 515.667 17.9875  14
   1   1  -9 454.329 17.6233  32
  -1  -1   9 470.643 19.5273   8
  -1  -1   9 469.773 20.9276  18
   0   1  -9 123.105 5.39257  32
   0   1  -9 123.272 5.52644  14
   0   1  -9 133.723 6.38820  26
   0   1  -9 144.799 5.65787   3
   0  -1   9 130.854 5.89068   8
   0  -1   9 125.391 6.31404  18
  -1   1  -9 316.876 12.1903  13
  -1   1  -9 317.960 12.0655  14
  -1   1  -9 299.971 12.4137   3
   1  -1   9 321.403 12.5616  31
   1  -1   9 320.438 13.0039   8
   1  -1   9 315.741 14.0600  18
  -2   1  -9 17.0943 1.26540   3
  -2   1  -9 13.0279 1.08075  30
  -2   1  -9 14.0727 1.43615  14
  -2   1  -9 13.0872 1.06246  13
   2  -1   9 14.7100 1.43342  31
   2  -1   9 14.8634 1.22434   8
   2  -1   9 12.7863 1.62444  21
   2  -1   9 13.0347 1.48430  18
  -3   1  -9 9.71594 0.99644  28
  -3   1  -9 10.8484 1.00402  22
  -3   1  -9 9.59289 1.00981   3
  -3   1  -9 9.57862 0.89292  13
  -3   1  -9 9.78316 0.92478  30
   3  -1   9 10.9884 1.44066  21
   3  -1   9 10.9450 1.52772  10
   3  -1   9 10.9677 0.95905   8
   3  -1   9 10.2409 1.38082  18
   3  -1   9 10.1417 0.92836  11
   3  -1   9 8.52671 1.20592  31
  -4   1  -9 3.46007 0.63536  13
  -4   1  -9 2.09917 0.48109  30
  -4   1  -9 1.85580 0.54337  22
   4  -1   9 1.41621 0.39624  33
   4  -1   9 3.54725 0.86745   2
   4  -1   9 2.72053 0.49650  11
   4  -1   9 0.83852 0.53882  18
   4  -1   9 2.10851 0.60283  31
   4  -1   9 2.06446 0.93351  10
  -5   1  -9 19.0536 1.90217  26
  -5   1  -9 23.3677 1.30206  13
  -5   1  -9 23.6175 1.44835  22
  -5   1  -9 23.2671 1.34645  30
   5  -1   9 22.8435 1.36568  11
   5  -1   9 25.4724 1.89887  21
   5  -1   9 24.4551 1.75223  38
   5  -1   9 24.9045 1.64536  31
   5  -1   9 22.4686 1.73676   2
   5  -1   9 20.5965 2.00891  10
   5  -1   9 24.4706 1.32294  33
   6  -1   9 5.14588 0.94415   2
   6  -1   9 4.81426 0.70557  33
   6  -1   9 6.42466 0.74897  11
   6  -1   9 6.00447 1.40992  10
   6  -1   9 6.69517 0.98733  31
  -7   1  -9 89.7070 3.59308  13
   7  -1   9 86.0768 4.54138  10
   7  -1   9 90.1909 3.37149  33
   7  -1   9 91.3885 3.98860  38
   7  -1   9 85.3923 3.81209  31
   7  -1   9 85.7865 4.33781   2
   2   0  -9 31.0458 1.89936   8
   2   0  -9 36.6074 1.88394  14
   2   0  -9 32.9260 2.00301  32
  -2   0   9 31.0273 2.05785  18
  -2   0   9 31.4251 1.96221   8
   1   0  -9 390.929 14.3315  32
   1   0  -9 400.889 15.0321   3
   1   0  -9 363.754 15.7712   8
   1   0  -9 402.950 14.5651  14
  -1   0   9 379.643 15.8364   8
  -1   0   9 378.860 16.9101  18
   0   0  -9 400.406 14.6736  14
   0   0  -9 365.655 14.2776  32
   0   0  -9 393.819 15.1071   3
   0   0   9 386.613 17.0078  18
   0   0   9 388.098 15.8847   8
  -1   0  -9 62.0611 3.10474  14
  -1   0  -9 60.1214 2.94991   3
  -1   0  -9 60.4612 3.54654  26
   1   0   9 57.3876 3.36036  18
   1   0   9 61.0981 3.13611   8
  -2   0  -9 2110.67 76.7108  14
  -2   0  -9 2107.87 80.4305   3
  -2   0  -9 2144.74 89.5548  26
  -2   0  -9 2142.40 80.3262  13
   2   0   9 2171.01 84.4807   8
   2   0   9 2220.09 80.4368  31
   2   0   9 2111.37 90.3252  18
  -3   0  -9 5.36863 0.85433   3
  -3   0  -9 3.85435 0.75624  14
  -3   0  -9 4.28593 0.73417  13
  -3   0  -9 6.78975 0.76705  30
  -3   0  -9 4.67249 1.12338  26
   3   0   9 8.49978 1.37789  10
   3   0   9 5.71685 0.77831  11
   3   0   9 7.84413 1.26080  18
   3   0   9 7.00032 1.12940  31
   3   0   9 6.43152 0.88383   8
  -4   0  -9 368.821 14.4151  13
  -4   0  -9 353.201 14.5343   3
  -4   0  -9 368.280 16.4169  26
  -4   0  -9 374.114 15.0773  30
   4   0   9 378.673 16.5352  18
   4   0   9 371.510 13.3272  11
   4   0   9 405.152 18.1951  21
   4   0   9 386.159 15.1410   8
   4   0   9 383.088 17.1783  10
   4   0   9 371.916 14.8035  38
   4   0   9 368.847 14.6683  31
  -5   0  -9 235.944 9.20267  13
  -5   0  -9 246.612 9.64086  30
  -5   0  -9 222.728 10.4360  22
  -5   0  -9 228.478 9.30882   3
  -5   0  -9 228.298 10.5705  26
   5   0   9 229.911 11.1153  10
   5   0   9 240.516 10.7099  18
   5   0   9 249.196 8.60870  11
   5   0   9 238.607 9.63811  38
   5   0   9 228.529 8.39526  33
   5   0   9 244.958 9.50632  31
  -6   0  -9 57.7828 2.59364  13
  -6   0  -9 57.0114 3.01113  22
   6   0   9 59.0638 3.11124  38
   6   0   9 59.6067 3.55816  10
   6   0   9 61.7863 2.55286  11
   6   0   9 58.3403 2.48431  33
   6   0   9 59.6803 3.22061   2
  -7   0  -9 77.1794 3.29663  17
  -7   0  -9 79.4054 3.23182  13
  -7   0  -9 76.5620 3.36692  30
   7   0   9 79.0288 3.03327  33
   7   0   9 71.8907 3.89319   2
   7   0   9 82.5356 3.68443  38
   7   0   9 78.4704 4.13703  10
   7   0   9 74.0196 3.42434  31
  -8   0  -9 104.804 4.21914  13
   8   0   9 96.2355 3.91788  33
   8   0   9 120.620 4.71287  38
   2  -1  -9 168.586 6.89922   8
   2  -1  -9 165.898 6.32961  32
  -2   1   9 154.335 6.92454   8
  -2   1   9 160.285 7.30027  18
   1  -1  -9 9.52409 1.38233  32
   1  -1  -9 9.43286 1.12821   8
   1  -1  -9 10.6342 1.34462  14
  -1   1   9 8.78130 1.15231   8
  -1   1   9 10.2115 1.18756  18
   0  -1  -9 87.9121 4.51242   8
   0  -1  -9 99.2614 4.40219  14
   0  -1  -9 93.5184 4.15699  32
   0  -1  -9 94.3658 4.24351   3
   0   1   9 104.750 4.66753   8
   0   1   9 97.4230 4.83226  18
  -1  -1  -9 171.524 7.81498  26
  -1  -1  -9 162.612 6.70682  14
  -1  -1  -9 159.963 6.73742   3
   1   1   9 158.636 7.14173   8
   1   1   9 162.785 7.61386  18
  -2  -1  -9 178.302 8.28203  26
  -2  -1  -9 170.637 6.99902  14
  -2  -1  -9 180.898 7.18397   3
   2   1   9 169.570 8.06846  18
   2   1   9 176.436 7.56332   8
   2   1   9 171.888 7.19207  31
  -3  -1  -9 243.793 10.1254   3
  -3  -1  -9 257.495 11.5451  26
  -3  -1  -9 250.720 9.76269  14
  -3  -1  -9 257.575 9.93160  13
   3   1   9 254.595 10.6324   8
   3   1   9 260.898 11.4838  18
   3   1   9 264.263 10.2051  31
  -4  -1  -9 35.1337 1.85224  30
  -4  -1  -9 35.6122 1.96720   3
  -4  -1  -9 35.2390 2.50331  26
  -4  -1  -9 35.4629 1.79031  13
   4   1   9 37.0998 1.81475  11
   4   1   9 36.0927 2.33712  18
   4   1   9 39.0969 2.10352   8
   4   1   9 36.1165 2.04892  31
   4   1   9 35.5756 2.56923  10
  -5  -1  -9 341.405 15.2462  26
  -5  -1  -9 344.795 13.3878  13
  -5  -1  -9 346.469 14.0061  30
  -5  -1  -9 349.097 13.5584   3
   5   1   9 353.130 12.4186  11
   5   1   9 347.076 15.9395  10
   5   1   9 358.859 13.8998  38
   5   1   9 348.723 15.3595  18
   5   1   9 346.303 14.0783   8
  -6  -1  -9 914.265 34.7473  13
  -6  -1  -9 957.648 32.9004  17
  -6  -1  -9 838.152 39.4055  22
   6   1   9 924.170 40.4891  10
   6   1   9 937.377 31.8872  11
   6   1   9 913.055 31.3291  33
   6   1   9 969.786 35.2662  38
  -7  -1  -9 57.5114 2.48488  13
  -7  -1  -9 56.9513 2.67043  17
  -7  -1  -9 54.4343 2.57361  30
   7   1   9 55.0365 2.35041  33
   7   1   9 58.4973 3.31534  10
   7   1   9 59.7997 2.95531  38
  -8  -1  -9 4.13706 0.51373  13
   8   1   9 2.33664 0.69391  38
   1  -2  -9 8.54436 1.25127  14
   1  -2  -9 9.15560 1.05927   8
   1  -2  -9 8.33309 1.17259  32
  -1   2   9 7.74332 1.08265   8
  -1   2   9 9.87967 0.88059   3
   0  -2  -9 3.49166 0.90501  14
   0  -2  -9 3.69985 0.79608  32
   0  -2  -9 4.72002 0.87427   8
   0   2   9 4.10195 0.90521   8
  -1  -2  -9 1.04092 0.48622   3
  -1  -2  -9 1.87320 0.55877   8
  -1  -2  -9 1.39195 0.69951  14
  -1  -2  -9 0.67559 0.81764  26
   1   2   9 1.51135 0.54649  18
  -2  -2  -9 10.8611 1.50266  26
  -2  -2  -9 10.4589 1.05347   3
  -2  -2  -9 10.6785 1.36440  14
   2   2   9 9.44138 1.11814   8
   2   2   9 9.42324 1.17083  18
  -3  -2  -9 18.1345 1.90245  26
  -3  -2  -9 16.7950 1.45119  14
  -3  -2  -9 16.0460 1.29000   3
   3   2   9 17.1807 1.39791   8
   3   2   9 18.6446 1.48967  18
  -4  -2  -9 5.84958 1.37804  26
  -4  -2  -9 6.97187 0.74233  13
  -4  -2  -9 7.98698 0.97437   3
   4   2   9 9.18550 1.14992  18
   4   2   9 6.12471 0.94923   8
  -5  -2  -9 555.614 20.8880  13
  -5  -2  -9 564.391 21.1023   3
  -5  -2  -9 563.760 19.9479  17
  -5  -2  -9 533.083 23.5986  26
   5   2   9 527.641 23.6890  18
   5   2   9 551.722 22.0214   8
   5   2   9 554.886 24.5545  10
  -6  -2  -9 940.363 34.1427  13
  -6  -2  -9 920.527 32.3381  17
  -6  -2  -9 804.687 35.7479  30
   6   2   9 921.495 35.7009   8
   6   2   9 942.855 39.7896  10
  -7  -2  -9 15.3265 1.24573   3
  -7  -2  -9 17.3590 1.33202  17
   7   2   9 17.0827 1.49624  38
   7   2   9 16.4226 1.01542  33
   7   2   9 15.8802 1.54216  10
  -8  -2  -9 262.898 9.88527  13
  -8  -2  -9 260.875 9.08950  15
  -8  -2  -9 248.375 9.48380  17
  -8  -2  -9 251.865 10.0360   3
   8   2   9 269.768 10.2417  38
   1  -3  -9 29.2277 1.70605   8
   1  -3  -9 32.7129 1.79734  14
   1  -3  -9 28.0866 1.66724  32
   1  -3  -9 27.5509 1.67072  16
  -1   3   9 31.7242 1.59206   3
   0  -3  -9 177.880 7.60833   8
   0  -3  -9 169.106 6.86025  32
   0  -3  -9 189.874 7.18728  14
   0   3   9 168.021 7.65578   8
   0   3   9 183.501 7.16372   3
  -1  -3  -9 27.6129 1.91636  14
  -1  -3  -9 31.4460 1.71329   3
  -1  -3  -9 25.1212 1.78254   8
   1   3   9 26.0134 1.61835   3
   1   3   9 27.8632 1.88965   8
  -2  -3  -9 171.303 7.84589   8
  -2  -3  -9 182.736 7.38664   3
  -2  -3  -9 181.931 7.28027  14
  -2  -3  -9 192.797 8.65078  26
   2   3   9 182.981 7.89750   8
  -3  -3  -9 25.4297 1.54388   3
  -3  -3  -9 21.3521 1.63350  14
  -3  -3  -9 20.3273 2.08109  26
   3   3   9 26.7417 1.71779   8
  -4  -3  -9 2.20510 0.67307  17
  -4  -3  -9 2.37776 0.55937   3
  -4  -3  -9 1.48040 0.85078  26
   4   3   9 2.17842 0.57957   8
  -5  -3  -9 50.2417 2.52109   3
  -5  -3  -9 51.0808 2.54481  17
  -5  -3  -9 51.7906 3.06791  26
   5   3   9 48.2769 2.66658   8
   5   3   9 48.9837 3.04372  10
  -6  -3  -9 1213.22 53.6698  26
  -6  -3  -9 1301.37 45.4227  17
   6   3   9 1314.71 48.5810  38
   6   3   9 1291.03 55.7854  10
   6   3   9 1284.52 50.3426   8
  -7  -3  -9 37.0750 2.05624   3
  -7  -3  -9 40.3080 2.06804  17
  -7  -3  -9 37.3051 1.76360  13
   7   3   9 36.4804 1.91677   8
   7   3   9 39.6829 2.25241  38
  -8  -3  -9 272.214 9.68429  15
  -8  -3  -9 270.012 10.7731   3
  -8  -3  -9 269.146 10.1630  17
   8   3   9 296.804 10.9481  38
   0  -4  -9 146.037 6.19147   8
   0  -4  -9 148.832 5.85084  14
   0  -4  -9 136.533 5.63177  32
   0   4   9 144.054 5.84276   3
  -1  -4  -9 253.275 10.7728   8
  -1  -4  -9 277.443 10.0734  14
   1   4   9 260.437 10.2124   3
   1   4   9 247.485 10.8261   8
  -2  -4  -9 205.219 8.28214  14
  -2  -4  -9 218.175 9.78701  26
  -2  -4  -9 214.588 8.46956   3
  -2  -4  -9 211.718 8.97683   8
   2   4   9 214.381 9.02836   8
   2   4   9 204.360 8.41056   3
  -3  -4  -9 205.852 9.13091   8
  -3  -4  -9 226.332 9.98989  26
  -3  -4  -9 211.374 8.59048   3
  -3  -4  -9 211.244 8.37344  14
   3   4   9 223.091 9.20918   8
  -4  -4  -9 374.271 14.2128   3
  -4  -4  -9 352.771 16.0612  26
  -4  -4  -9 351.896 13.4347  17
   4   4   9 382.583 15.0271   8
  -5  -4  -9 109.201 4.54349  17
  -5  -4  -9 102.576 5.37217  26
   5   4   9 109.179 4.98881   8
   5   4   9 112.194 5.52936  10
  -6  -4  -9 41.0348 2.58046  26
  -6  -4  -9 41.2433 2.22461  17
   6   4   9 39.3764 2.26798   8
  -7  -4  -9 0.31110 0.46387   3
  -7  -4  -9 0.13081 0.34182  15
  -7  -4  -9 0.34507 0.47181  17
   7   4   9 0.71324 0.76289  38
   7   4   9 0.37547 0.40696   8
  -8  -4  -9 40.7460 2.05679   3
  -8  -4  -9 40.0603 1.82946  15
  -8  -4  -9 41.7555 2.04327  17
   8   4   9 44.0698 2.19609  38
   0  -5  -9 4.69802 0.91033  14
   0  -5  -9 5.16237 1.15380   7
   0  -5  -9 6.22166 0.71372   8
   0   5   9 5.18357 0.68416   3
  -1  -5  -9 67.1699 2.98673  14
  -1  -5  -9 56.6701 2.95484   8
   1   5   9 63.3519 2.84316   3
  -2  -5  -9 95.2084 4.19204  14
  -2  -5  -9 97.2079 4.46108   8
  -2  -5  -9 102.214 5.00144  26
   2   5   9 93.8687 4.53470   8
   2   5   9 98.6833 4.19515   3
  -3  -5  -9 356.412 14.9303   8
  -3  -5  -9 382.674 16.1474  26
  -3  -5  -9 362.003 13.6695  14
   3   5   9 362.605 14.1584   3
   3   5   9 366.726 15.0105   8
  -4  -5  -9 605.542 25.3337   8
  -4  -5  -9 644.240 27.1694  26
   4   5   9 651.593 25.4214   8
  -5  -5  -9 20.7730 1.54280  17
  -5  -5  -9 20.5596 1.85418  26
   5   5   9 21.5267 1.60915   8
  -6  -5  -9 61.6619 2.91014  17
  -6  -5  -9 65.8434 2.98972   3
  -6  -5  -9 61.0327 3.40602  26
   6   5   9 63.0203 3.15377   8
  -7  -5  -9 28.2545 1.73212  17
  -7  -5  -9 31.6163 1.72267   3
   7   5   9 28.0424 1.71948   8
   7   5   9 30.2712 1.84342  38
  -8  -5  -9 68.9074 2.80425   3
  -8  -5  -9 57.2062 2.63019  17
   8   5   9 61.6700 2.80298  38
   8   5   9 58.3666 2.70278   8
  -1  -6  -9 22.7737 1.88253   7
  -1  -6  -9 24.8316 1.45738  14
  -1  -6  -9 21.1365 1.28921   8
   1   6   9 24.2354 1.32756   3
  -2  -6  -9 24.0626 1.53599   8
  -2  -6  -9 27.0295 1.68555  14
  -2  -6  -9 28.7979 2.26225   7
   2   6   9 24.8306 1.48553   3
  -3  -6  -9 18.5818 1.73703  26
  -3  -6  -9 19.1677 1.37936  14
  -3  -6  -9 17.4385 1.30130   8
   3   6   9 18.3768 1.26856   3
   3   6   9 17.2405 1.38688   8
  -4  -6  -9 757.001 29.9281   8
  -4  -6  -9 734.633 31.9984  26
   4   6   9 768.559 29.9996   8
  -5  -6  -9 85.2532 3.69536   3
  -5  -6  -9 81.6001 3.94089   8
  -5  -6  -9 83.8757 4.35825  26
  -5  -6  -9 82.8443 3.59383  17
   5   6   9 87.9553 4.04056   8
  -6  -6  -9 151.581 5.82100  17
  -6  -6  -9 151.730 6.07978   3
  -6  -6  -9 140.465 6.86450  26
   6   6   9 151.508 6.45425   8
  -7  -6  -9 173.482 7.05330   3
  -7  -6  -9 176.910 6.73559  17
   7   6   9 183.292 7.16578  38
   7   6   9 172.449 7.38142   8
   8   6   9 258.536 10.4474   8
  -2  -7  -9 49.7273 2.36518   8
  -3  -7  -9 17.8108 1.55801   7
  -3  -7  -9 17.3129 1.19644   8
  -3  -7  -9 20.8767 1.60069  26
  -3  -7  -9 18.6354 1.22025  14
   3   7   9 18.7568 1.14815   3
  -4  -7  -9 82.9670 3.78893   8
  -4  -7  -9 89.5233 4.31267  26
   4   7   9 80.6636 3.86925   8
   4   7   9 80.3025 3.51030   3
  -5  -7  -9 13.8218 1.10825   8
  -5  -7  -9 15.9321 1.48521  26
   5   7   9 12.6293 1.17876   8
  -6  -7  -9 24.9623 1.38987  17
  -6  -7  -9 21.0113 1.57655  26
  -6  -7  -9 17.9814 1.31408   8
   6   7   9 23.0796 1.49764   8
  -7  -7  -9 83.7974 3.47576  17
   7   7   9 88.7944 3.86395   8
   7   7   9 86.9381 3.69892  38
  -5  -8  -9 53.8657 2.36294   8
  -5  -8  -9 42.6428 2.58913  26
   0   6 -10 19.6232 0.99159  13
   0   6 -10 18.1720 1.29779  14
   0  -6  10 16.7492 1.42546   2
  -1   6 -10 0.33778 0.46681  14
  -1   6 -10 0.78965 0.24790  13
   1  -6  10 0.96948 0.55050  21
   1  -6  10 0.55972 0.44463  31
   1  -6  10 1.10187 0.31994  33
   1  -6  10 0.74346 0.47245   2
   2  -6  10 0.72571 0.29968  33
   2  -6  10 0.92813 0.49986  31
   2  -6  10 0.47181 0.53180  21
   2  -6  10 0.38420 0.52313   2
   2  -6  10 1.06439 0.32540  11
   3  -6  10 313.875 10.3828  33
   3  -6  10 276.535 14.1009  21
   1   5 -10 74.1062 3.08227  14
   1   5 -10 69.8232 3.07397   3
  -1  -5  10 65.9284 3.56985   2
  -1  -5  10 71.4032 3.14106  31
   0   5 -10 46.9246 2.10678  13
   0   5 -10 53.6067 2.49774  14
   0  -5  10 51.8816 2.48135  31
   0  -5  10 43.6213 2.76904   2
   0  -5  10 47.5012 2.64340  18
  -1   5 -10 129.686 5.36647  14
  -1   5 -10 137.220 5.31905  13
   1  -5  10 133.537 5.58348  31
   1  -5  10 128.364 6.16532  18
   1  -5  10 129.466 6.42371   2
   1  -5  10 135.173 6.74121  21
  -2   5 -10 1.05891 0.53292  14
  -2   5 -10 1.31501 0.43832  30
   2  -5  10 0.59794 0.52897  18
   2  -5  10 0.38245 0.51564   2
   2  -5  10 1.45895 0.36320  33
   2  -5  10 1.19926 0.59293  21
   2  -5  10 0.43123 0.54254  31
  -3   5 -10 103.797 4.18678  13
   3  -5  10 102.857 4.48820  31
   3  -5  10 99.3068 5.08455   2
   3  -5  10 108.790 3.97500  11
   3  -5  10 93.8294 3.85185  33
   3  -5  10 108.838 5.40829  21
  -4   5 -10 120.399 4.76238  13
   4  -5  10 132.014 6.08616  21
   4  -5  10 108.211 4.98031  31
   4  -5  10 117.778 4.40594  33
   4  -5  10 121.934 4.47395  11
   4  -5  10 122.474 5.74797   2
   1   4 -10 105.017 4.43330  14
   1   4 -10 111.966 4.57660   3
   1   4 -10 103.725 4.39513  32
  -1  -4  10 117.444 4.62735  31
  -1  -4  10 104.292 4.55750   8
  -1  -4  10 108.431 5.09427  18
  -1  -4  10 103.805 5.23399   2
   0   4 -10 44.4243 2.31355  14
   0   4 -10 40.1737 2.12384   3
   0  -4  10 41.0814 2.57567   2
   0  -4  10 41.7257 2.31090  31
   0  -4  10 41.5807 2.51064  18
  -1   4 -10 472.301 16.8793  14
  -1   4 -10 443.310 17.4722   3
  -1   4 -10 454.458 18.1863  30
  -1   4 -10 492.434 17.3814  13
   1  -4  10 437.924 19.7313  18
   1  -4  10 452.915 21.6404  21
   1  -4  10 463.523 17.6628  31
   1  -4  10 421.469 20.3220   2
  -2   4 -10 718.065 25.1553  14
  -2   4 -10 688.414 27.3493  30
  -2   4 -10 718.141 26.1418  13
   2  -4  10 643.997 29.5263  18
   2  -4  10 687.686 30.4635   2
   2  -4  10 696.093 26.3928  31
   2  -4  10 669.569 23.9148  11
   2  -4  10 693.637 32.5378  21
  -3   4 -10 1.09924 0.33223  13
   3  -4  10 1.27602 0.68741  21
   3  -4  10 0.42615 0.60634  31
   3  -4  10 0.39228 0.59236  18
   3  -4  10 0.83874 0.37515  11
   3  -4  10 1.62144 0.65344   2
  -4   4 -10 0.59154 0.26784  13
  -4   4 -10 0.59695 0.34013  30
   4  -4  10 0.41541 0.32450  33
   4  -4  10 0.91033 0.54199  31
   4  -4  10 0.54195 0.48192   2
   4  -4  10 0.64381 0.35712  11
  -5   4 -10 3.17837 0.44002  13
   5  -4  10 2.69321 0.47455  33
   5  -4  10 4.02546 0.72471   2
   5  -4  10 3.22076 0.55004  11
  -2  -3  10 1.18356 0.33718   8
   1   3 -10 71.3628 3.13799   3
   1   3 -10 67.6131 3.08110  14
   1   3 -10 68.2908 3.03429  32
  -1  -3  10 72.0509 3.19401  31
  -1  -3  10 60.3931 3.11203   8
  -1  -3  10 67.3229 3.52225  18
   0   3 -10 2.78348 0.84011  26
   0   3 -10 2.54136 0.57817   3
   0   3 -10 1.68315 0.74232  14
   0  -3  10 2.49773 0.76791  31
   0  -3  10 3.63265 0.69775   8
   0  -3  10 1.83698 0.66908  18
  -1   3 -10 708.447 27.5478   3
  -1   3 -10 753.559 27.3862  13
  -1   3 -10 756.649 26.4600  14
   1  -3  10 725.094 27.6691  31
   1  -3  10 692.844 31.8883   2
   1  -3  10 725.914 31.0420  18
   1  -3  10 702.320 34.0489  21
  -2   3 -10 806.103 33.1671   3
  -2   3 -10 913.346 33.1489  13
  -2   3 -10 891.463 31.8161  14
  -2   3 -10 889.505 34.6880  30
   2  -3  10 922.604 41.2788  21
   2  -3  10 880.607 33.3899  31
   2  -3  10 831.208 37.4283  18
   2  -3  10 880.445 38.5497   2
  -3   3 -10 8.02750 0.82573  13
  -3   3 -10 7.15811 0.85637  30
   3  -3  10 5.90112 0.72306  33
   3  -3  10 8.93148 1.33430  21
   3  -3  10 6.36095 1.22396  18
   3  -3  10 7.68505 1.17403  31
   3  -3  10 7.27206 1.49017  10
   3  -3  10 7.39022 0.84140  11
   3  -3  10 8.77831 1.16785   2
  -4   3 -10 49.8688 2.21575  13
  -4   3 -10 47.6854 2.29522  30
   4  -3  10 44.7532 2.79259   2
   4  -3  10 47.4692 2.99551  10
   4  -3  10 48.8822 2.14893  11
   4  -3  10 46.0316 2.08460  33
   4  -3  10 45.9772 2.51411  31
   4  -3  10 53.1667 3.02309  21
  -5   3 -10 33.1083 1.81695  30
  -5   3 -10 36.8179 1.69718  13
   5  -3  10 38.1411 1.70813  11
   5  -3  10 35.8399 2.17866   2
   5  -3  10 36.1432 1.65339  33
   5  -3  10 37.1412 2.43997  10
   5  -3  10 37.7875 2.25977  21
   5  -3  10 36.3626 2.02558  31
   6  -3  10 0.94718 0.30764  33
   6  -3  10 0.64741 0.41005  31
  -2  -2  10 33.0785 1.82799   8
   1   2 -10 75.3925 3.21329   3
   1   2 -10 62.2631 3.08965  32
   1   2 -10 69.9134 3.21669  14
  -1  -2  10 70.3735 3.32951   8
  -1  -2  10 71.4905 3.63224  18
  -1  -2  10 69.9587 3.25775  31
   0   2 -10 165.732 6.75612  14
   0   2 -10 170.106 6.91281   3
   0  -2  10 167.582 6.99276  31
   0  -2  10 166.393 7.82699  18
   0  -2  10 169.421 7.17601   8
  -1   2 -10 232.481 9.80528   3
  -1   2 -10 240.504 9.59615  13
  -1   2 -10 232.122 9.53565  14
  -1   2 -10 266.195 11.2224  26
   1  -2  10 271.212 11.5337  10
   1  -2  10 239.151 11.1247  18
   1  -2  10 239.580 9.91950  31
   1  -2  10 248.620 10.1683   8
  -2   2 -10 460.224 18.3090   3
  -2   2 -10 471.377 17.6141  14
  -2   2 -10 486.813 18.1638  13
  -2   2 -10 466.848 19.0017  30
   2  -2  10 489.136 18.9692   8
   2  -2  10 464.009 20.7034  18
   2  -2  10 494.309 21.3364  10
   2  -2  10 455.258 18.4269  31
   2  -2  10 488.075 22.7828  21
  -3   2 -10 74.7180 3.12151  13
  -3   2 -10 64.3629 3.16781   3
  -3   2 -10 72.5019 3.25516  30
   3  -2  10 67.4389 4.04992  10
   3  -2  10 68.8192 2.93352  11
   3  -2  10 70.2118 3.43613  31
   3  -2  10 69.3185 3.77441   2
   3  -2  10 67.7821 3.84143  18
   3  -2  10 76.9534 4.17257  21
  -4   2 -10 101.068 4.90737  26
  -4   2 -10 96.1131 3.99108  13
  -4   2 -10 94.9275 4.15812  30
   4  -2  10 96.8092 3.78685  11
   4  -2  10 93.1968 4.84461   2
   4  -2  10 92.3946 5.07656  10
   4  -2  10 101.432 5.22106  21
   4  -2  10 91.2046 4.27928  31
   4  -2  10 90.1179 3.65297  33
   4  -2  10 95.5471 4.85052  18
  -5   2 -10 105.906 4.21474  13
  -5   2 -10 101.659 4.39181  30
   5  -2  10 107.658 4.01188  11
   5  -2  10 103.046 3.89664  33
   5  -2  10 99.4577 4.48034  31
   5  -2  10 97.1416 5.31849  10
   5  -2  10 104.649 5.11045   2
  -6   2 -10 391.617 14.6137  13
   6  -2  10 378.589 14.8065  31
   6  -2  10 381.750 13.4433  11
   6  -2  10 378.139 17.1833  10
   6  -2  10 390.379 13.2305  33
   1   1 -10 43.4686 2.27604  14
   1   1 -10 38.6091 2.18876  32
   1   1 -10 44.3427 2.15637   3
  -1  -1  10 45.0783 2.34646   8
  -1  -1  10 42.3560 2.50076  18
  -1  -1  10 46.2562 2.29664  31
   0   1 -10 708.231 26.0117   3
   0   1 -10 676.953 24.9196  14
   0  -1  10 682.202 29.2337  18
   0  -1  10 670.722 27.1441   8
   0  -1  10 667.543 26.0154  31
  -1   1 -10 270.521 10.1707  14
  -1   1 -10 258.718 10.4291   3
  -1   1 -10 278.702 11.8567  26
   1  -1  10 272.780 10.5448  31
   1  -1  10 233.508 10.7965   8
   1  -1  10 257.540 11.7855  18
  -2   1 -10 12.4052 0.98420  13
  -2   1 -10 11.6933 1.48381  14
  -2   1 -10 13.7559 1.79965  26
  -2   1 -10 12.1077 1.18326   3
   2  -1  10 13.9843 1.81117  10
   2  -1  10 14.5169 1.19523   8
   2  -1  10 14.2325 1.57960  18
   2  -1  10 16.6075 1.46112  31
  -3   1 -10 2.36369 0.92336  26
  -3   1 -10 3.44356 0.50425  13
  -3   1 -10 2.93912 0.55409  30
  -3   1 -10 2.51298 0.58963   3
   3  -1  10 3.48916 1.06262  10
   3  -1  10 2.50366 0.71859  18
   3  -1  10 2.55852 0.67091  31
   3  -1  10 2.53241 0.52619   8
  -4   1 -10 252.656 10.0234  30
  -4   1 -10 255.488 9.59087  13
  -4   1 -10 223.172 9.62882   3
  -4   1 -10 250.017 11.0716  26
   4  -1  10 249.864 11.5767  10
   4  -1  10 236.071 11.0648  18
   4  -1  10 252.454 8.90413  11
   4  -1  10 242.960 9.84557  31
  -5   1 -10 145.355 5.77964  13
  -5   1 -10 137.395 6.73389  26
  -5   1 -10 146.363 6.04803  30
   5  -1  10 150.954 7.21809  10
   5  -1  10 140.914 5.29495  33
   5  -1  10 142.762 5.42287  11
   5  -1  10 147.426 6.07000  31
  -6   1 -10 344.450 12.2864  13
   6  -1  10 314.638 14.5333  10
   6  -1  10 347.758 11.3544  11
   6  -1  10 312.547 11.1136  33
   6  -1  10 323.853 12.4721  31
   6  -1  10 277.574 14.2600   2
  -7   1 -10 75.0170 3.04389  13
   7  -1  10 74.5558 3.80776  10
   1   0 -10 371.819 12.4944  14
   1   0 -10 308.195 13.5288   8
   1   0 -10 331.676 12.2324  32
   1   0 -10 333.940 12.9770   3
  -1   0  10 315.515 13.5640   8
  -1   0  10 342.542 14.5553  18
   0   0 -10 466.031 17.0712   3
   0   0 -10 444.167 16.4415  14
   0   0  10 427.427 19.1598  18
   0   0  10 442.042 17.0930  31
   0   0  10 429.468 17.8757   8
  -1   0 -10 4.96281 1.00704   3
  -1   0 -10 6.55895 1.43465  26
  -1   0 -10 4.91466 0.93537  14
   1   0  10 5.52896 1.16439  18
   1   0  10 5.75282 0.96018   8
   1   0  10 5.93885 1.11116  31
  -2   0 -10 7.80785 1.55590  26
   2   0  10 8.07790 1.12319  31
   2   0  10 6.21090 0.95806   8
   2   0  10 9.65812 1.27878  18
  -3   0 -10 15.1306 1.85620  26
  -3   0 -10 16.0719 1.06138  13
  -3   0 -10 13.9251 1.42778  14
  -3   0 -10 16.4843 1.31353   3
   3   0  10 17.6633 1.92015  10
   3   0  10 14.5187 1.33078  31
   3   0  10 17.0890 1.57980  18
   3   0  10 16.5303 1.26656   8
  -4   0 -10 1.84287 0.39403  13
  -4   0 -10 3.24951 0.95682  26
  -4   0 -10 3.93469 0.65502  30
   4   0  10 2.99736 0.54069   8
   4   0  10 2.75768 0.60840  31
   4   0  10 2.64542 0.75090  18
   4   0  10 2.51376 0.50454  11
   4   0  10 4.31203 1.05878  10
  -5   0 -10 80.6881 3.33416  13
  -5   0 -10 77.9003 3.48029  30
  -5   0 -10 73.8028 3.43380   3
  -5   0 -10 79.1082 4.10996  26
   5   0  10 81.8129 3.60813  31
   5   0  10 77.5608 4.35464  10
   5   0  10 80.0838 3.68312  38
   5   0  10 76.0928 3.19071  11
  -6   0 -10 266.161 10.1502  13
  -6   0 -10 246.209 10.5907  30
  -6   0 -10 292.765 9.88435  17
   6   0  10 245.270 10.3021  31
   6   0  10 272.499 10.5046  38
   6   0  10 259.344 9.39253  11
   6   0  10 261.049 9.21430  33
   6   0  10 260.485 12.1093  10
  -7   0 -10 67.6990 2.72788  13
  -7   0 -10 65.7912 2.78383  17
   7   0  10 67.9780 3.02844  38
   7   0  10 63.6053 2.51345  33
   7   0  10 61.0273 3.39071  10
   1  -1 -10 172.886 7.20386   8
   1  -1 -10 175.925 6.65344  14
  -1   1  10 165.541 7.22249   8
   0  -1 -10 353.320 12.8785   3
   0  -1 -10 348.620 12.5261  14
   0  -1 -10 307.162 13.5339   8
   0   1  10 336.986 13.6137   8
   0   1  10 329.710 14.4978  18
   0   1  10 313.719 12.8683  31
  -1  -1 -10 44.1283 2.46017  14
  -1  -1 -10 44.8694 2.31016   3
  -1  -1 -10 44.2749 2.79080  26
   1   1  10 43.3699 2.34018  31
   1   1  10 42.9588 2.45796   8
   1   1  10 42.9642 2.57929  18
  -2  -1 -10 4.08413 0.82255  14
  -2  -1 -10 3.98393 0.67967   3
  -2  -1 -10 4.56686 1.01457  26
   2   1  10 3.23856 0.76441  31
   2   1  10 3.46565 0.70299   8
   2   1  10 2.42704 0.62008  18
  -3  -1 -10 533.856 20.4099  14
  -3  -1 -10 557.679 21.3713   3
  -3  -1 -10 585.684 24.0539  26
   3   1  10 563.651 22.3173   8
   3   1  10 544.230 24.0212  18
  -4  -1 -10 112.299 5.73520  26
  -4  -1 -10 118.749 4.70914  13
  -4  -1 -10 116.933 4.94309   3
   4   1  10 120.810 6.05695  10
   4   1  10 112.205 5.61408  18
   4   1  10 115.858 5.13595   8
  -5  -1 -10 1.51181 0.48310   3
  -5  -1 -10 1.97622 0.82344  26
   5   1  10 0.87131 0.39319  11
   5   1  10 0.71500 0.36156   8
   5   1  10 0.75270 0.71777  38
   5   1  10 1.55869 0.59603  18
   5   1  10 0.02945 0.77537  10
  -6  -1 -10 5.08722 1.00696  17
  -6  -1 -10 5.20595 0.59369  13
  -6  -1 -10 5.18918 0.61857  30
   6   1  10 6.90463 1.33420  10
   6   1  10 4.27734 0.90732  38
  -7  -1 -10 48.5369 2.24892  17
   7   1  10 41.5656 1.89070  33
   7   1  10 46.3886 2.71138  10
   7   1  10 51.8809 2.48122  38
   0  -2 -10 63.9745 3.32239   8
   0  -2 -10 77.0822 3.27664  14
   0   2  10 71.7027 3.41477   8
  -1  -2 -10 11.8941 1.07396   3
  -1  -2 -10 11.5617 1.40356  14
  -1  -2 -10 11.7608 1.16705   8
   1   2  10 11.3562 1.17152   8
  -2  -2 -10 88.5595 4.64241  26
  -2  -2 -10 87.2579 3.91837  14
  -2  -2 -10 90.4704 3.88045   3
   2   2  10 85.1263 4.48902  18
   2   2  10 85.5328 4.12994   8
  -3  -2 -10 200.805 7.99634   3
  -3  -2 -10 201.582 9.21239  26
  -3  -2 -10 194.547 7.72318  14
   3   2  10 193.338 8.96326  18
   3   2  10 200.190 8.42623   8
  -4  -2 -10 1000.43 43.9180  26
  -4  -2 -10 1036.12 36.9994  17
  -4  -2 -10 1046.52 39.3447   3
   4   2  10 1069.10 41.1162   8
   4   2  10 1001.06 44.1376  18
   4   2  10 1093.98 45.6687  10
  -5  -2 -10 2.48207 0.59015   3
  -5  -2 -10 1.77792 0.63271  17
  -5  -2 -10 1.57639 0.76961  26
   5   2  10 2.93265 0.61604   8
   5   2  10 1.34634 0.84291  10
   5   2  10 2.59707 0.81819  38
  -6  -2 -10 169.485 8.33540  26
  -6  -2 -10 187.396 7.14161  17
   6   2  10 185.740 8.75882  10
   6   2  10 199.087 7.72528  38
  -7  -2 -10 1.50669 0.51611  17
  -7  -2 -10 0.70291 0.26851  13
  -7  -2 -10 1.05553 0.42217   3
   7   2  10 1.88163 0.69581  38
   7   2  10 0.21700 0.58070  10
   0  -3 -10 4.95704 0.96400  14
  -1  -3 -10 24.1432 1.57376   8
  -1  -3 -10 22.4129 1.63356  14
   1   3  10 23.5739 1.60118   8
  -2  -3 -10 0.62528 0.43360   3
  -2  -3 -10 0.48277 0.40859   8
  -2  -3 -10 0.62858 0.77418  26
  -2  -3 -10 -0.0091 0.57145  14
   2   3  10 0.50868 0.48147   8
  -3  -3 -10 203.339 8.88871  26
  -3  -3 -10 193.223 7.63896   3
  -3  -3 -10 184.289 7.40930  14
   3   3  10 178.164 8.05942   8
  -4  -3 -10 452.402 16.5272  17
  -4  -3 -10 451.707 17.4706   3
  -4  -3 -10 453.879 19.7171  26
   4   3  10 449.862 18.3397   8
   4   3  10 462.056 20.3861  10
  -5  -3 -10 41.0507 2.20361  17
  -5  -3 -10 42.0283 2.20205   3
  -5  -3 -10 43.5310 2.67995  26
   5   3  10 45.0397 2.76382  10
   5   3  10 40.4885 2.29577   8
  -6  -3 -10 316.228 12.0146  17
   6   3  10 331.083 13.1900   8
   6   3  10 335.770 12.9120  38
   6   3  10 321.784 14.7154  10
  -7  -3 -10 7.32612 1.01986  17
  -7  -3 -10 7.91394 0.90198   3
  -7  -3 -10 5.67939 0.81586  15
   7   3  10 9.01191 1.11776  38
  -1  -4 -10 425.172 14.9441  14
  -1  -4 -10 382.910 16.2010   8
  -2  -4 -10 93.5276 3.83698  14
  -2  -4 -10 96.5259 4.52820  26
  -2  -4 -10 79.8867 3.99071   8
   2   4  10 81.2325 4.04016   8
  -3  -4 -10 25.3451 1.46908   3
  -3  -4 -10 27.6415 2.09444  26
  -3  -4 -10 20.1074 1.50174   8
  -3  -4 -10 24.4131 1.60877  14
   3   4  10 22.6426 1.59034   8
  -4  -4 -10 60.0144 2.78719   3
  -4  -4 -10 58.8988 3.43487  26
   4   4  10 56.6292 3.01677   8
   4   4  10 64.0105 3.47791  10
  -5  -4 -10 62.3335 3.36743  26
  -5  -4 -10 59.3489 2.75695  17
   5   4  10 59.0327 3.31975  10
   5   4  10 56.8919 2.95414   8
  -6  -4 -10 234.399 8.87646  17
  -6  -4 -10 216.182 10.4613  26
  -6  -4 -10 240.494 9.39014   3
   6   4  10 238.887 9.75989   8
   6   4  10 254.105 9.56627  38
  -7  -4 -10 11.7084 0.99237   3
   7   4  10 9.73492 1.13077  38
   7   4  10 10.6777 0.81643   8
  -2  -5 -10 481.445 17.5226  14
  -2  -5 -10 486.294 19.1256   8
   2   5  10 469.813 19.1888   8
  -3  -5 -10 39.0278 2.18860   8
  -3  -5 -10 44.7501 2.14273  14
  -3  -5 -10 43.2909 2.57934  26
   3   5  10 39.9947 2.25891   8
  -4  -5 -10 28.5691 2.07441  26
   4   5  10 25.6876 1.67996   8
   4   5  10 24.7394 1.87697  10
  -5  -5 -10 23.5757 1.87208  26
  -5  -5 -10 24.8621 1.43979   3
   5   5  10 25.1461 1.60448   8
  -6  -5 -10 8.94009 0.88895   3
  -6  -5 -10 9.85604 1.19899  26
   6   5  10 8.70132 0.96224   8
  -7  -5 -10 24.0380 1.41898  17
  -7  -5 -10 22.0163 1.34695   3
   7   5  10 26.7274 1.53337  38
   7   5  10 23.3448 1.33369   8
  -3  -6 -10 50.0313 2.43236   8
  -4  -6 -10 78.9689 3.56297   8
  -4  -6 -10 78.1617 3.94935  26
   4   6  10 77.8756 3.59848   8
  -5  -6 -10 38.7308 2.09617   8
  -5  -6 -10 42.4960 2.44877  26
   5   6  10 40.7889 2.15694   8
  -6  -6 -10 66.2129 3.57549  26
  -6  -6 -10 77.7237 3.15129   3
   6   6  10 73.8876 3.32936   8
  -1   4 -11 28.6632 1.60649  14
  -1   4 -11 25.4382 1.45855   3
  -1   4 -11 30.2777 1.90746  26
   1  -4  11 30.9306 1.85739  18
   1  -4  11 27.5101 1.64943  31
  -2   4 -11 11.3431 0.78359  13
  -2   4 -11 10.3946 1.08947  14
  -2   4 -11 12.8043 1.38553  26
   2  -4  11 11.4499 1.23987  18
   2  -4  11 9.69661 1.04298  31
   2  -4  11 9.24013 1.02571   2
  -3   4 -11 134.027 6.37017  26
  -3   4 -11 147.076 5.47515  13
   3  -4  11 131.906 6.50303   2
   3  -4  11 125.263 5.63817  31
   3  -4  11 151.972 6.97666  21
  -4   4 -11 467.687 17.6959  13
   0   3 -11 232.487 8.92710  14
   0   3 -11 246.294 9.30694   3
   0  -3  11 230.832 10.4562  18
   0  -3  11 240.531 9.34919  31
  -1   3 -11 57.6035 2.67944   3
  -1   3 -11 58.4032 3.10722  26
  -1   3 -11 60.5371 2.75855  14
   1  -3  11 57.3752 2.77962  31
   1  -3  11 58.2688 3.11663  18
  -2   3 -11 1.34462 0.26100  13
  -2   3 -11 1.53194 0.39405   3
  -2   3 -11 1.97452 0.61262  14
  -2   3 -11 2.09642 0.85839  26
   2  -3  11 1.98864 0.60675  31
   2  -3  11 1.32567 0.51283  18
  -3   3 -11 21.2140 1.72154  26
  -3   3 -11 18.8358 1.05333  13
   3  -3  11 14.6013 1.37863  18
   3  -3  11 17.9180 1.33670  31
   3  -3  11 15.2085 1.32509   2
  -4   3 -11 40.8477 2.38634  26
  -4   3 -11 40.7467 1.78997  13
   4  -3  11 39.9998 1.75509  11
   4  -3  11 38.0864 2.35599  10
   4  -3  11 34.0348 1.99004  31
  -5   3 -11 3.12576 0.40618  13
   0   2 -11 68.8807 3.08543  14
   0   2 -11 75.0090 3.13854   3
   0  -2  11 67.3043 3.52948  18
   0  -2  11 73.0463 3.15177   8
   0  -2  11 69.2689 3.16045  31
  -1   2 -11 54.5348 2.61792  14
  -1   2 -11 53.5205 2.54250   3
  -1   2 -11 52.9034 2.94020  26
   1  -2  11 50.1201 2.57366  31
   1  -2  11 54.3964 2.94863  18
   1  -2  11 51.7784 2.42815   8
  -2   2 -11 213.124 8.62330   3
  -2   2 -11 225.293 9.84123  26
  -2   2 -11 217.288 8.38596  14
   2  -2  11 227.094 10.0959  10
   2  -2  11 211.577 9.79681  18
   2  -2  11 212.008 8.73305  31
  -3   2 -11 29.6993 1.65325   3
  -3   2 -11 32.1433 1.53861  13
  -3   2 -11 31.7713 2.23659  26
   3  -2  11 31.7372 2.16105  10
   3  -2  11 29.4863 1.85302  31
   3  -2  11 30.0183 2.07263  18
  -4   2 -11 0.99696 0.31282  13
  -4   2 -11 0.15482 0.65189  26
   4  -2  11 0.67547 0.67376  10
   4  -2  11 -0.0955 0.28693  11
   4  -2  11 0.35778 0.49393  18
  -5   2 -11 88.2605 3.39738  13
   5  -2  11 82.3095 3.17941  11
   5  -2  11 86.5879 4.29263  10
   5  -2  11 72.6810 3.55315  31
   0   1 -11 44.8651 2.14654  14
   0   1 -11 46.3301 2.09443   3
   0  -1  11 40.6322 2.13560  31
   0  -1  11 41.3601 2.12323   8
   0  -1  11 43.0486 2.37919  18
  -1   1 -11 238.239 10.4953  26
  -1   1 -11 233.512 9.34673   3
  -1   1 -11 232.348 9.04959  14
   1  -1  11 226.234 9.67860   8
   1  -1  11 225.773 9.37537  31
   1  -1  11 265.132 10.9233  10
   1  -1  11 237.480 10.5887  18
  -2   1 -11 178.854 8.26991  26
  -2   1 -11 181.777 7.05694  14
  -2   1 -11 180.345 7.23715   3
   2  -1  11 170.739 7.29072  31
   2  -1  11 170.340 8.19105  18
   2  -1  11 189.856 8.52403  10
   2  -1  11 182.254 7.41711   8
  -3   1 -11 79.4308 4.16191  26
  -3   1 -11 80.0386 3.23991  13
  -3   1 -11 75.0403 3.44589   3
   3  -1  11 76.5092 3.57119  31
   3  -1  11 78.3544 4.05020  18
   3  -1  11 77.4515 4.23828  10
  -4   1 -11 123.300 4.63974  13
  -4   1 -11 119.920 5.60233  26
  -4   1 -11 107.969 4.70288   3
   4  -1  11 111.296 4.86726  31
   4  -1  11 108.318 5.49073  18
   4  -1  11 108.803 4.30453  11
   4  -1  11 122.524 5.84991  10
  -5   1 -11 208.396 7.56331  13
  -5   1 -11 188.225 8.66508  26
   5  -1  11 184.994 7.71247  31
   5  -1  11 186.049 9.05885  10
   5  -1  11 201.485 7.02045  11
  -6   1 -11 228.253 8.12664  17
  -6   1 -11 226.958 8.38650  13
   6  -1  11 198.796 9.86498  10
   0   0 -11 60.0348 2.72590  14
   0   0  11 53.5325 2.65199   8
  -1   0 -11 27.4519 1.58488   3
  -1   0 -11 28.2837 1.75136  14
   1   0  11 27.6240 1.67044  31
   1   0  11 28.7273 1.86666  18
   1   0  11 32.2385 1.72674   8
  -2   0 -11 170.143 7.83726  26
  -2   0 -11 174.292 6.86272   3
  -2   0 -11 161.742 6.65352  14
   2   0  11 158.373 7.69602  18
   2   0  11 188.506 8.18366  10
   2   0  11 162.931 6.84481  31
   2   0  11 164.663 7.08338   8
  -3   0 -11 7.45105 1.33842  26
  -3   0 -11 8.80233 0.94783   3
  -3   0 -11 9.56355 1.22363  14
   3   0  11 7.28312 1.35338  10
   3   0  11 8.03917 1.04957  31
   3   0  11 6.57274 0.82214   8
   3   0  11 8.86712 1.18965  18
  -4   0 -11 31.5181 1.53206  13
  -4   0 -11 32.5211 1.73849   3
  -4   0 -11 34.8493 2.27656  26
   4   0  11 30.3929 1.78721  31
   4   0  11 31.7134 2.32634  10
   4   0  11 31.7696 2.10943  18
  -5   0 -11 353.185 13.1315  13
  -5   0 -11 373.019 12.6442  17
  -5   0 -11 319.760 13.2179   3
  -5   0 -11 348.970 14.9580  26
   5   0  11 315.625 13.2784  31
   5   0  11 354.208 15.5740  10
  -6   0 -11 550.828 20.5748  13
  -6   0 -11 539.956 19.5341  17
   6   0  11 544.904 24.0584  10
  -1  -1 -11 97.0411 3.90558   3
  -1  -1 -11 91.0019 3.90243  14
   1   1  11 93.9582 4.14681   8
   1   1  11 85.7930 4.35874  18
  -2  -1 -11 64.3027 3.01394  14
  -2  -1 -11 66.9319 3.54189  26
  -2  -1 -11 66.3119 2.98163   3
   2   1  11 64.0942 3.36382  18
   2   1  11 63.8868 3.10547   8
  -3  -1 -11 9.54637 1.43807  26
  -3  -1 -11 12.7450 1.20008  14
  -3  -1 -11 13.1612 1.07598   3
   3   1  11 13.3350 1.59481  10
   3   1  11 11.7661 1.25642  18
   3   1  11 12.6513 1.07388   8
  -4  -1 -11 9.68643 1.02643  17
  -4  -1 -11 7.85297 1.31823  26
  -4  -1 -11 8.01208 0.94150   3
   4   1  11 9.06249 0.86398   8
   4   1  11 8.69891 1.12767  18
   4   1  11 9.61075 1.44747  10
  -5  -1 -11 189.367 7.70794   3
  -5  -1 -11 197.118 7.39362  17
  -5  -1 -11 199.063 8.81384  26
   5   1  11 191.563 9.12331  10
  -6  -1 -11 504.042 17.2926  17
  -6  -1 -11 458.490 18.2576   3
   6   1  11 486.964 18.3984  38
   6   1  11 467.494 21.2001  10
  -1  -2 -11 184.563 6.94195  14
   1   2  11 176.259 7.50819   8
  -2  -2 -11 115.308 4.83902  14
  -2  -2 -11 123.362 4.92892   3
  -2  -2 -11 125.004 5.73385  26
   2   2  11 115.790 5.21605   8
  -3  -2 -11 73.9166 3.18801   3
  -3  -2 -11 66.5092 3.10517  14
  -3  -2 -11 71.1546 3.84733  26
   3   2  11 65.3733 3.31072   8
   3   2  11 78.3021 4.01540  10
  -4  -2 -11 100.118 5.05453  26
  -4  -2 -11 103.861 4.33217   3
   4   2  11 104.747 5.22974  10
   4   2  11 98.9794 4.49537   8
  -5  -2 -11 26.7245 1.52877   3
  -5  -2 -11 26.6247 1.94897  26
  -5  -2 -11 28.2219 1.61321  17
   5   2  11 25.8081 1.70486  38
   5   2  11 27.4994 2.09979  10
   5   2  11 26.6759 1.47850   8
  -6  -2 -11 152.699 6.12024   3
  -6  -2 -11 152.689 5.84297  17
  -6  -2 -11 136.853 6.81312  26
   6   2  11 153.746 7.16888  10
   6   2  11 161.105 6.21831  38
  -2  -3 -11 95.0848 3.97349  14
  -2  -3 -11 99.0534 4.46938   8
   2   3  11 96.7082 4.30425   8
  -3  -3 -11 351.176 15.1051  26
  -3  -3 -11 343.693 12.8102  14
  -3  -3 -11 341.678 13.3321   3
   3   3  11 367.696 15.6017  10
   3   3  11 329.415 14.0109   8
  -4  -3 -11 514.638 22.3935  26
  -4  -3 -11 519.822 19.9361   3
   4   3  11 510.768 20.8566   8
   4   3  11 548.383 23.2155  10
  -5  -3 -11 41.8056 2.01257  17
   5   3  11 43.8834 2.20283  38
   5   3  11 38.9230 2.52390  10
   5   3  11 38.9132 2.05940   8
  -6  -3 -11 50.2793 2.86436  26
  -6  -3 -11 54.9401 2.49996  17
  -6  -3 -11 59.5838 2.59402   3
   6   3  11 55.1019 3.00578  10
   6   3  11 54.7295 2.53103   8
   6   3  11 61.9614 2.72230  38
   3   4  11 134.543 6.26470   8
   3   4  11 163.567 7.05931  10
  -4  -4 -11 411.254 17.4331  26
   4   4  11 392.593 16.2185   8
   4   4  11 409.286 17.9646  10
  -5  -4 -11 73.0452 3.73775  26
   5   4  11 71.4752 3.76574  10
   5   4  11 77.0818 3.34154  38
   5   4  11 71.6827 3.34122   8
  -6  -4 -11 16.9172 1.06844   3
   6   4  11 15.3624 1.01178   8
   6   4  11 18.7096 1.24407  38
  -3   0 -12 392.740 13.5333   3
  -3   0 -12 310.774 15.2525  26
  -4   0 -12 313.955 12.8882  26
  -4   0 -12 272.849 11.3423   3
  -4  -1 -12 366.806 17.4369  26
  -4  -1 -12 445.534 15.5439   3
   0   0   0    0.00    0.00   0
;
_shelx_hkl_checksum              98857
_shelx_res_file
;
TITL Prosp14mz005_0m in P-1
    Prosp14mz005_III.res
    created by SHELXL-2018/1 at 08:42:29 on 22-Feb-2018
CELL 1.54178   8.0586   10.1383   10.1842   89.6438   68.0189   67.7878
ZERR    2.00   0.0004    0.0004    0.0004    0.0013    0.0012    0.0012
LATT  1
SFAC C H N O F ZN BR
UNIT 16 20 12 6 4 2 4
LIST 6 ! automatically inserted. Change 6 to 4 for CHECKCIF!!
TEMP -173.180
SIZE 0.13 0.16 0.18
L.S. 10
BOND $H
CONF
HTAB
FMAP 2
PLAN 20
ACTA
DFIX 0.84 O1 H1O1 O1 H2O1
EQIV $1 -x+1, -y+2, -z+2
HTAB O1 O2A_$1
EQIV $2 -x, -y+2, -z+2
HTAB O1 O2B_$2
EQIV $3 -x, -y+3, -z+2
HTAB N3A N3B_$3
HTAB N4A O2B_$3
EQIV $4 x-1, y+1, z
HTAB N4A Br2_$4
HTAB N1B Br1
EQIV $5 x-1, y, z
HTAB N1B Br2_$5
EQIV $6 -x, -y+2, -z+1
HTAB C6B Br1_$6
HTAB N4B O2A_$3
HTAB N4B Br1_$4
WGHT    0.009600    1.657000
FVAR       0.42315
ZN1   6    0.440739    0.999876    0.758996    11.00000    0.01118    0.00910 =
         0.01210    0.00354   -0.00632   -0.00530
BR1   7    0.313454    0.883448    0.643345    11.00000    0.01221    0.01155 =
         0.01430    0.00104   -0.00757   -0.00509
O1    4    0.317235    0.971295    0.963770    11.00000    0.02114    0.01777 =
         0.01348    0.00761   -0.00942   -0.01294
H1O1  2    0.389561    0.927316    1.003955    11.00000   -1.50000
H2O1  2    0.238030    0.935243    0.975829    11.00000   -1.50000
BR2   7    0.787387    0.882033    0.671068    11.00000    0.01005    0.01136 =
         0.01919    0.00576   -0.00721   -0.00465
N1A   3    0.335864    1.213746    0.764906    11.00000    0.00946    0.01027 =
         0.00956    0.00292   -0.00338   -0.00512
C2A   1    0.342707    1.292249    0.868865    11.00000    0.00486    0.00897 =
         0.01106    0.00320    0.00029   -0.00378
N3A   3    0.250979    1.441145    0.886839    11.00000    0.00997    0.00932 =
         0.01114    0.00290   -0.00430   -0.00474
AFIX  43
H3A   2    0.254614    1.491478    0.955025    11.00000   -1.20000
AFIX   0
C4A   1    0.155888    1.514835    0.806638    11.00000    0.00628    0.01188 =
         0.01357    0.00628   -0.00098   -0.00405
C5A   1    0.157814    1.428247    0.697450    11.00000    0.00996    0.01901 =
         0.01132    0.00848   -0.00615   -0.00724
C6A   1    0.245446    1.283346    0.679938    11.00000    0.00845    0.01796 =
         0.00971    0.00434   -0.00264   -0.00989
AFIX  43
H6A   2    0.244129    1.227833    0.605816    11.00000   -1.20000
AFIX   0
N4A   3    0.068654    1.655116    0.832608    11.00000    0.01942    0.01288 =
         0.01899    0.00454   -0.01106   -0.00666
AFIX  93
H4AA  2    0.070883    1.703404    0.902989    11.00000   -1.20000
H4AB  2    0.007487    1.701608    0.779774    11.00000   -1.20000
AFIX   0
O2A   4    0.426449    1.236701    0.948242    11.00000    0.01179    0.01002 =
         0.01333    0.00407   -0.00647   -0.00375
F1A   5    0.064281    1.496125    0.614904    11.00000    0.01755    0.01906 =
         0.01898    0.01042   -0.01324   -0.00723
N1B   3   -0.137969    1.180904    0.744548    11.00000    0.01254    0.00781 =
         0.01283    0.00012   -0.00341   -0.00338
AFIX  43
H1B   2   -0.070081    1.087047    0.730207    11.00000   -1.20000
AFIX   0
C2B   1   -0.164801    1.262061    0.864056    11.00000    0.00627    0.00973 =
         0.01190    0.00204   -0.00033   -0.00486
N3B   3   -0.254575    1.408145    0.880247    11.00000    0.00972    0.00996 =
         0.01136    0.00370   -0.00259   -0.00605
C4B   1   -0.325187    1.470253    0.784911    11.00000    0.00784    0.01270 =
         0.01222    0.00371   -0.00162   -0.00747
C5B   1   -0.305994    1.382841    0.666076    11.00000    0.01008    0.01537 =
         0.01008    0.00496   -0.00412   -0.00701
C6B   1   -0.211876    1.239370    0.647224    11.00000    0.01169    0.01447 =
         0.00909   -0.00033   -0.00166   -0.00797
AFIX  43
H6B   2   -0.196986    1.179962    0.568293    11.00000   -1.20000
AFIX   0
N4B   3   -0.415702    1.612434    0.803376    11.00000    0.01740    0.00969 =
         0.01433    0.00414   -0.00738   -0.00374
AFIX  93
H4BA  2   -0.429178    1.665471    0.877779    11.00000   -1.20000
H4BB  2   -0.462422    1.653952    0.741252    11.00000   -1.20000
AFIX   0
O2B   4   -0.105708    1.199454    0.954095    11.00000    0.01589    0.00920 =
         0.01486    0.00331   -0.00749   -0.00489
F1B   5   -0.388495    1.450355    0.577252    11.00000    0.01950    0.01830 =
         0.01642    0.00747   -0.01145   -0.00801
HKLF 4
REM  Prosp14mz005_0m in P-1
REM R1 =  0.0198 for    2443 Fo > 4sig(Fo)  and  0.0199 for all    2450 data
REM    205 parameters refined using      2 restraints
END
WGHT      0.0096      1.6569
REM Instructions for potential hydrogen bonds
HTAB O1 O2A_$1
HTAB O1 O2B_$2
HTAB N3A N3B_$3
HTAB N4A O2B_$3
HTAB N4A Br2_$4
HTAB N1B Br1
HTAB N1B Br2_$5
HTAB C6B Br1_$6
HTAB N4B O2A_$3
HTAB N4B Br1_$4
REM Highest difference peak  0.659,  deepest hole -0.444,  1-sigma level  0.080
Q1    1   0.2088  1.2394  0.5940  11.00000  0.05    0.66
Q2    1   0.7458  0.9082  0.7593  11.00000  0.05    0.60
Q3    1  -0.2217  1.3106  0.6382  11.00000  0.05    0.35
Q4    1   0.1505  0.9693  0.6104  11.00000  0.05    0.34
Q5    1   0.4113  1.0575  0.4799  11.00000  0.05    0.32
Q6    1  -0.3378  1.4217  0.7376  11.00000  0.05    0.32
Q7    1  -0.2327  1.4610  0.9050  11.00000  0.05    0.30
Q8    1   0.4727  1.0170  0.6452  11.00000  0.05    0.29
Q9    1   0.0818  1.5679  0.6457  11.00000  0.05    0.28
Q10   1   0.4160  0.9503  0.5600  11.00000  0.05    0.28
Q11   1   0.6017  0.9944  0.6956  11.00000  0.05    0.27
Q12   1   0.3296  1.2489  0.8117  11.00000  0.05    0.27
Q13   1   0.2449  0.9981  0.5497  11.00000  0.05    0.27
Q14   1   0.6230  0.8609  0.7114  11.00000  0.05    0.26
Q15   1  -0.1621  1.0554  0.5419  11.00000  0.05    0.26
Q16   1  -0.2706  1.4322  0.8201  11.00000  0.05    0.26
Q17   1   0.1761  1.4777  0.7326  11.00000  0.05    0.26
Q18   1  -0.2370  1.3458  0.8808  11.00000  0.05    0.25
Q19   1   0.7170  0.9424  0.5772  11.00000  0.05    0.25
Q20   1   0.2240  0.8945  0.7722  11.00000  0.05    0.24
;
_shelx_res_checksum              31986
loop_
_space_group_symop_operation_xyz
'x, y, z'
'-x, -y, -z'
loop_
_atom_site_type_symbol
_atom_site_label
_atom_site_fract_x
_atom_site_fract_y
_atom_site_fract_z
_atom_site_U_iso_or_equiv
_atom_site_adp_type
_atom_site_calc_flag
_atom_site_occupancy
Zn Zn1 0.44074(5) 0.99988(4) 0.75900(4) 0.00989(9) Uani d 1
Br Br1 0.31345(4) 0.88345(3) 0.64335(3) 0.01187(8) Uani d 1
O O1 0.3172(3) 0.9713(2) 0.9638(2) 0.0150(4) Uani d 1
H H1O1 0.390(4) 0.927(3) 1.004(3) 0.023 Uiso d 1
H H2O1 0.238(4) 0.935(4) 0.976(4) 0.023 Uiso d 1
Br Br2 0.78739(4) 0.88203(3) 0.67107(3) 0.01302(8) Uani d 1
N N1A 0.3359(3) 1.2137(2) 0.7649(2) 0.0095(4) Uani d 1
C C2A 0.3427(4) 1.2922(3) 0.8689(3) 0.0091(5) Uani d 1
N N3A 0.2510(3) 1.4411(2) 0.8868(2) 0.0099(4) Uani d 1
H H3A 0.254614 1.491478 0.955025 0.012 Uiso calc 1
C C4A 0.1559(4) 1.5148(3) 0.8066(3) 0.0114(5) Uani d 1
C C5A 0.1578(4) 1.4282(3) 0.6974(3) 0.0124(5) Uani d 1
C C6A 0.2454(4) 1.2833(3) 0.6799(3) 0.0109(5) Uani d 1
H H6A 0.244129 1.227833 0.605816 0.013 Uiso calc 1
N N4A 0.0687(3) 1.6551(2) 0.8326(3) 0.0160(5) Uani d 1
H H4AA 0.070883 1.703404 0.902989 0.019 Uiso calc 1
H H4AB 0.007487 1.701608 0.779774 0.019 Uiso calc 1
O O2A 0.4264(3) 1.23670(19) 0.94824(19) 0.0115(4) Uani d 1
F F1A 0.0643(2) 1.49613(17) 0.61490(17) 0.0167(3) Uani d 1
N N1B -0.1380(3) 1.1809(2) 0.7445(2) 0.0118(4) Uani d 1
H H1B -0.070081 1.087047 0.730207 0.014 Uiso calc 1
C C2B -0.1648(4) 1.2621(3) 0.8641(3) 0.0098(5) Uani d 1
N N3B -0.2546(3) 1.4081(2) 0.8802(2) 0.0102(4) Uani d 1
C C4B -0.3252(4) 1.4703(3) 0.7849(3) 0.0106(5) Uani d 1
C C5B -0.3060(4) 1.3828(3) 0.6661(3) 0.0112(5) Uani d 1
C C6B -0.2119(4) 1.2394(3) 0.6472(3) 0.0117(5) Uani d 1
H H6B -0.196986 1.179962 0.568293 0.014 Uiso calc 1
N N4B -0.4157(3) 1.6124(2) 0.8034(2) 0.0141(5) Uani d 1
H H4BA -0.429178 1.665471 0.877779 0.017 Uiso calc 1
H H4BB -0.462422 1.653952 0.741252 0.017 Uiso calc 1
O O2B -0.1057(3) 1.19945(19) 0.9541(2) 0.0130(4) Uani d 1
F F1B -0.3885(2) 1.45036(17) 0.57725(17) 0.0166(3) Uani d 1
loop_
_atom_site_aniso_label
_atom_site_aniso_U_11
_atom_site_aniso_U_22
_atom_site_aniso_U_33
_atom_site_aniso_U_12
_atom_site_aniso_U_13
_atom_site_aniso_U_23
Zn1 0.01118(18) 0.00910(18) 0.01210(18) -0.00530(14) -0.00632(14) 0.00354(13)
Br1 0.01221(14) 0.01155(14) 0.01430(15) -0.00509(11) -0.00757(11) 0.00104(10)
O1 0.0211(10) 0.0178(10) 0.0135(10) -0.0129(8) -0.0094(8) 0.0076(8)
Br2 0.01005(14) 0.01136(14) 0.01919(15) -0.00465(11) -0.00721(11) 0.00576(11)
N1A 0.0095(10) 0.0103(11) 0.0096(10) -0.0051(9) -0.0034(9) 0.0029(8)
C2A 0.0049(11) 0.0090(12) 0.0111(12) -0.0038(10) 0.0003(10) 0.0032(10)
N3A 0.0100(11) 0.0093(11) 0.0111(11) -0.0047(9) -0.0043(9) 0.0029(8)
C4A 0.0063(12) 0.0119(13) 0.0136(13) -0.0040(10) -0.0010(10) 0.0063(10)
C5A 0.0100(12) 0.0190(14) 0.0113(13) -0.0072(11) -0.0062(10) 0.0085(11)
C6A 0.0084(12) 0.0180(14) 0.0097(12) -0.0099(11) -0.0026(10) 0.0043(10)
N4A 0.0194(12) 0.0129(12) 0.0190(12) -0.0067(10) -0.0111(10) 0.0045(9)
O2A 0.0118(9) 0.0100(9) 0.0133(9) -0.0038(7) -0.0065(8) 0.0041(7)
F1A 0.0176(8) 0.0191(8) 0.0190(8) -0.0072(7) -0.0132(7) 0.0104(7)
N1B 0.0125(11) 0.0078(11) 0.0128(11) -0.0034(9) -0.0034(9) 0.0001(8)
C2B 0.0063(12) 0.0097(13) 0.0119(13) -0.0049(10) -0.0003(10) 0.0020(10)
N3B 0.0097(10) 0.0100(11) 0.0114(11) -0.0061(9) -0.0026(9) 0.0037(8)
C4B 0.0078(12) 0.0127(13) 0.0122(13) -0.0075(10) -0.0016(10) 0.0037(10)
C5B 0.0101(12) 0.0154(14) 0.0101(12) -0.0070(11) -0.0041(10) 0.0050(10)
C6B 0.0117(13) 0.0145(14) 0.0091(12) -0.0080(11) -0.0017(10) -0.0003(10)
N4B 0.0174(12) 0.0097(11) 0.0143(11) -0.0037(9) -0.0074(10) 0.0041(9)
O2B 0.0159(9) 0.0092(9) 0.0149(9) -0.0049(8) -0.0075(8) 0.0033(7)
F1B 0.0195(8) 0.0183(8) 0.0164(8) -0.0080(7) -0.0114(7) 0.0075(6)
loop_
_atom_type_symbol
_atom_type_description
_atom_type_scat_dispersion_real
_atom_type_scat_dispersion_imag
_atom_type_scat_source
C C 0.0181 0.0091 'International Tables Vol C Tables 4.2.6.8 and 6.1.1.4'
H H 0.0000 0.0000 'International Tables Vol C Tables 4.2.6.8 and 6.1.1.4'
N N 0.0311 0.0180 'International Tables Vol C Tables 4.2.6.8 and 6.1.1.4'
O O 0.0492 0.0322 'International Tables Vol C Tables 4.2.6.8 and 6.1.1.4'
F F 0.0727 0.0534 'International Tables Vol C Tables 4.2.6.8 and 6.1.1.4'
Zn Zn -1.5491 0.6778 'International Tables Vol C Tables 4.2.6.8 and 6.1.1.4'
Br Br -0.6763 1.2805 'International Tables Vol C Tables 4.2.6.8 and 6.1.1.4'
loop_
_geom_angle_atom_site_label_1
_geom_angle_atom_site_label_2
_geom_angle_atom_site_label_3
_geom_angle
N1A Zn1 O1 104.91(8)
N1A Zn1 Br2 114.89(6)
O1 Zn1 Br2 110.20(6)
N1A Zn1 Br1 113.44(6)
O1 Zn1 Br1 100.93(6)
Br2 Zn1 Br1 111.302(16)
Zn1 O1 H1O1 119(2)
Zn1 O1 H2O1 113(2)
H1O1 O1 H2O1 107(3)
C2A N1A C6A 119.3(2)
C2A N1A Zn1 116.57(17)
C6A N1A Zn1 123.87(18)
O2A C2A N1A 123.1(2)
O2A C2A N3A 118.8(2)
N1A C2A N3A 118.1(2)
C4A N3A C2A 124.5(2)
C4A N3A H3A 117.7
C2A N3A H3A 117.7
N4A C4A N3A 120.9(2)
N4A C4A C5A 124.0(2)
N3A C4A C5A 115.1(2)
C6A C5A F1A 121.7(2)
C6A C5A C4A 120.7(2)
F1A C5A C4A 117.5(2)
C5A C6A N1A 122.2(2)
C5A C6A H6A 118.9
N1A C6A H6A 118.9
C4A N4A H4AA 120.0
C4A N4A H4AB 120.0
H4AA N4A H4AB 120.0
C6B N1B C2B 122.9(2)
C6B N1B H1B 118.6
C2B N1B H1B 118.6
O2B C2B N3B 122.2(2)
O2B C2B N1B 119.1(2)
N3B C2B N1B 118.8(2)
C4B N3B C2B 120.1(2)
N4B C4B N3B 119.5(2)
N4B C4B C5B 120.5(2)
N3B C4B C5B 120.0(2)
C6B C5B F1B 122.3(2)
C6B C5B C4B 120.0(2)
F1B C5B C4B 117.6(2)
C5B C6B N1B 118.0(2)
C5B C6B H6B 121.0
N1B C6B H6B 121.0
C4B N4B H4BA 120.0
C4B N4B H4BB 120.0
H4BA N4B H4BB 120.0
loop_
_geom_bond_atom_site_label_1
_geom_bond_atom_site_label_2
_geom_bond_distance
Zn1 N1A 1.999(2)
Zn1 O1 2.0200(19)
Zn1 Br2 2.3770(4)
Zn1 Br1 2.3811(4)
O1 H1O1 0.828(18)
O1 H2O1 0.820(18)
N1A C2A 1.358(3)
N1A C6A 1.361(3)
C2A O2A 1.242(3)
C2A N3A 1.385(3)
N3A C4A 1.357(3)
N3A H3A 0.8800
C4A N4A 1.302(4)
C4A C5A 1.413(4)
C5A C6A 1.347(4)
C5A F1A 1.350(3)
C6A H6A 0.9500
N4A H4AA 0.8800
N4A H4AB 0.8800
N1B C6B 1.362(4)
N1B C2B 1.373(3)
N1B H1B 0.8800
C2B O2B 1.250(3)
C2B N3B 1.359(3)
N3B C4B 1.341(3)
C4B N4B 1.323(4)
C4B C5B 1.430(4)
C5B C6B 1.337(4)
C5B F1B 1.352(3)
C6B H6B 0.9500
N4B H4BA 0.8800
N4B H4BB 0.8800
loop_
_geom_hbond_atom_site_label_D
_geom_hbond_atom_site_label_H
_geom_hbond_atom_site_label_A
_geom_hbond_site_symmetry_A
_geom_hbond_distance_DH
_geom_hbond_distance_HA
_geom_hbond_distance_DA
_geom_hbond_angle_DHA
_geom_hbond_publ_flag
O1 H1O1 O2A 2_677 0.828(18) 1.97(2) 2.754(3) 159(3) yes
O1 H2O1 O2B 2_577 0.820(18) 2.01(2) 2.783(3) 158(3) yes
N3A H3A N3B 2_587 0.88 1.97 2.845(3) 174.6 yes
N4A H4AA O2B 2_587 0.88 1.92 2.800(3) 173.9 yes
N4A H4AB Br2 1_465 0.88 2.59 3.455(2) 167.7 yes
N1B H1B Br1 . 0.88 2.78 3.511(2) 141.0 yes
N1B H1B Br2 1_455 0.88 2.89 3.442(2) 122.5 yes
C6B H6B Br1 2_576 0.95 2.82 3.689(3) 153.3 yes
N4B H4BA O2A 2_587 0.88 2.05 2.921(3) 171.6 yes
N4B H4BB Br1 1_465 0.88 2.79 3.611(2) 154.9 yes
loop_
_geom_torsion_atom_site_label_1
_geom_torsion_atom_site_label_2
_geom_torsion_atom_site_label_3
_geom_torsion_atom_site_label_4
_geom_torsion
C6A N1A C2A O2A -178.2(2)
Zn1 N1A C2A O2A 7.1(3)
C6A N1A C2A N3A 2.0(3)
Zn1 N1A C2A N3A -172.60(17)
O2A C2A N3A C4A 179.5(2)
N1A C2A N3A C4A -0.7(4)
C2A N3A C4A N4A 178.2(2)
C2A N3A C4A C5A -1.0(4)
N4A C4A C5A C6A -177.7(3)
N3A C4A C5A C6A 1.4(4)
N4A C4A C5A F1A 0.5(4)
N3A C4A C5A F1A 179.6(2)
F1A C5A C6A N1A -178.3(2)
C4A C5A C6A N1A -0.2(4)
C2A N1A C6A C5A -1.6(4)
Zn1 N1A C6A C5A 172.59(19)
C6B N1B C2B O2B 174.4(2)
C6B N1B C2B N3B -5.7(4)
O2B C2B N3B C4B -176.3(2)
N1B C2B N3B C4B 3.8(3)
C2B N3B C4B N4B 178.7(2)
C2B N3B C4B C5B 0.0(4)
N4B C4B C5B C6B 179.1(2)
N3B C4B C5B C6B -2.2(4)
N4B C4B C5B F1B -2.0(4)
N3B C4B C5B F1B 176.7(2)
F1B C5B C6B N1B -178.3(2)
C4B C5B C6B N1B 0.6(4)
C2B N1B C6B C5B 3.4(4)

_cod_database_fobs_code 2021152
