#------------------------------------------------------------------------------
#$Date: 2018-10-25 05:40:06 +0300 (Thu, 25 Oct 2018) $
#$Revision: 211615 $
#$URL: file:///home/coder/svn-repositories/cod/cif/2/02/12/2021283.cif $
#------------------------------------------------------------------------------
#
# This file is available in the Crystallography Open Database (COD),
# http://www.crystallography.net/. The original data for this entry
# were provided by IUCr Journals, http://journals.iucr.org/.
#
# The file may be used within the scientific community so long as
# proper attribution is given to the journal article from which the
# data were obtained.
#
data_2021283
loop_
_publ_author_name
'Owczarzak, Agata'
'Przyby\/l, Anna K.'
'Kubicki, Maciej'
_publ_section_title
;
 Different cationic forms of (--)-cytisine in the crystal structures of
 its simple inorganic salts
;
_journal_coeditor_code           YF3149
_journal_issue                   11
_journal_name_full               'Acta Crystallographica Section C'
_journal_page_first
;
;
_journal_paper_doi               10.1107/S2053229618012585
_journal_volume                  74
_journal_year                    2018
_chemical_absolute_configuration syn
_chemical_formula_iupac          '2C11 H15 N2 O +, I -, I3 -'
_chemical_formula_moiety         '2(C11 H15 N2 O +), I -, I3 -'
_chemical_formula_sum            'C22 H30 I4 N4 O2'
_chemical_formula_weight         890.10
_chemical_name_common
;
Cytisinium iodide triiodide
;
_chemical_name_systematic
;
Bis(6-oxo-7,11-diazatricyclo[7.3.1.0^2,7^]trideca-2,4-dien-11-ium) iodide
triiodide
;
_space_group_crystal_system      triclinic
_space_group_IT_number           1
_space_group_name_Hall           'P 1'
_space_group_name_H-M_alt        'P 1'
_symmetry_space_group_name_Hall  'P 1'
_symmetry_space_group_name_H-M   'P 1'
_atom_sites_solution_hydrogens   geom
_audit_creation_method           SHELXL-2013
_cell_angle_alpha                79.612(4)
_cell_angle_beta                 75.806(4)
_cell_angle_gamma                61.115(5)
_cell_formula_units_Z            1
_cell_length_a                   7.5105(4)
_cell_length_b                   7.5353(4)
_cell_length_c                   13.8994(7)
_cell_measurement_reflns_used    4154
_cell_measurement_temperature    100.0(10)
_cell_measurement_theta_max      28.7340
_cell_measurement_theta_min      3.2130
_cell_volume                     665.96(7)
_computing_cell_refinement
;
(CrysAlis PRO; Agilent, 2014)
;
_computing_data_collection
;
(CrysAlis PRO; Agilent, 2014)
;
_computing_data_reduction
;
(CrysAlis PRO; Agilent, 2014)
;
_computing_molecular_graphics
;
Mercury (Macrae <i>et al.</i>,  2008)
;
_computing_publication_material
;
SHELXL2013 (Sheldrick, 2015b)
;
_computing_structure_refinement
;
SHELXL2013 (Sheldrick, 2015b)
;
_computing_structure_solution
;
SHELXT (Sheldrick, 2015a)
;
_diffrn_ambient_temperature      100.0(10)
_diffrn_detector                 'CCD plate'
_diffrn_detector_area_resol_mean 16.1544
_diffrn_measured_fraction_theta_full 1.000
_diffrn_measured_fraction_theta_max 0.840
_diffrn_measurement_device       'four-circle diffractometer'
_diffrn_measurement_device_type  'Agilent Xcalibur Eos'
_diffrn_measurement_method       '\w scan'
_diffrn_radiation_monochromator  graphite
_diffrn_radiation_probe          x-ray
_diffrn_radiation_type           'Mo K\a'
_diffrn_radiation_wavelength     0.71073
_diffrn_reflns_av_R_equivalents  0.0270
_diffrn_reflns_av_unetI/netI     0.0626
_diffrn_reflns_limit_h_max       9
_diffrn_reflns_limit_h_min       -9
_diffrn_reflns_limit_k_max       9
_diffrn_reflns_limit_k_min       -8
_diffrn_reflns_limit_l_max       18
_diffrn_reflns_limit_l_min       -15
_diffrn_reflns_number            5170
_diffrn_reflns_theta_full        25.000
_diffrn_reflns_theta_max         28.286
_diffrn_reflns_theta_min         3.031
_diffrn_source                   'Enhance (Mo) X-ray Source'
_exptl_absorpt_coefficient_mu    4.705
_exptl_absorpt_correction_T_max  1.00000
_exptl_absorpt_correction_T_min  0.89273
_exptl_absorpt_correction_type   multi-scan
_exptl_absorpt_process_details
;
(CrysAlis PRO; Agilent, 2014)
;
_exptl_crystal_colour            colourless
_exptl_crystal_density_diffrn    2.219
_exptl_crystal_description       prism
_exptl_crystal_F_000             418
_exptl_crystal_size_max          0.3
_exptl_crystal_size_mid          0.2
_exptl_crystal_size_min          0.2
_refine_diff_density_max         0.967
_refine_diff_density_min         -0.800
_refine_ls_abs_structure_details
;
Flack <i>x</i> determined using 1081 quotients [(I+)-(I-)]/[(I+)+(I-)]
(Parsons & Flack, 2004)
;
_refine_ls_abs_structure_Flack   0.05(4)
_refine_ls_extinction_method     none
_refine_ls_goodness_of_fit_ref   0.983
_refine_ls_hydrogen_treatment    constr
_refine_ls_matrix_type           full
_refine_ls_number_parameters     289
_refine_ls_number_reflns         4020
_refine_ls_number_restraints     159
_refine_ls_restrained_S_all      0.969
_refine_ls_R_factor_all          0.0402
_refine_ls_R_factor_gt           0.0336
_refine_ls_shift/su_max          0.001
_refine_ls_shift/su_mean         0.000
_refine_ls_structure_factor_coef Fsqd
_refine_ls_weighting_details
'w=1/[\s^2^(Fo^2^)+(0.0170P)^2^] where P=(Fo^2^+2Fc^2^)/3'
_refine_ls_weighting_scheme      calc
_refine_ls_wR_factor_gt          0.0607
_refine_ls_wR_factor_ref         0.0631
_reflns_number_gt                3638
_reflns_number_total             4020
_reflns_threshold_expression     'I > 2\s(I)'
_cod_data_source_file            yf3149sup1.cif
_cod_data_source_block           4
_cod_database_code               2021283
_shelx_space_group_comment
;
The symmetry employed for this shelxl refinement is uniquely defined
by the following loop, which should always be used as a source of
symmetry information in preference to the above space-group names.
They are only intended as comments.
;
_shelx_hkl_file
;
   0   0  -2 6512.66 312.040   3
   0   0   2 5994.40 309.656   3
   0   0  -3 32542.3 971.458   3
   0   0   3 32650.4 992.386   3
   0   0  -4 25044.0 898.765   3
   0   0   4 25547.4 926.787   3
   0   0   5 40779.7 1354.80   3
   0   0  -5 41834.7 1332.86   3
   0   0   6 107003. 2895.78   3
   0   0  -6 111089. 2878.32   3
   0   0  -7 2843.00 431.401   3
   0   0   7 2813.63 476.628   3
   0   0   8 267.551 387.827   3
   0   0   9 4656.28 629.731   3
   0   0  10 54108.7 2084.60   3
   0   0  11 20880.6 1280.65   3
   0   0  12 19344.9 1289.46   3
   0   0  13 8222.04 1227.13   2
   0   0  13 7741.16 910.871   3
   0   0  14 489.393 508.327   3
   0   0  14 860.833 764.486   2
   0   0  15 369.184 471.686   3
   0   0  15 342.880 786.162   2
   0   0  16 12730.8 1246.10   3
   0   0  16 9828.09 1432.11   2
   0  -1  15 1813.05 755.730   2
   0  -1  14 699.402 633.465   2
   0  -1  13 2222.03 753.978   2
   0  -1  12 15206.3 1393.95   2
   0  -1  11 13552.7 1279.15   2
   0  -1  11 14073.2 1020.28   3
   0  -1  10 24718.8 1594.88   2
   0  -1  10 26018.4 1324.31   3
   0  -1   9 9772.68 1022.13   2
   0  -1   9 10867.2 807.750   3
   0  -1   8 759.822 313.883   3
   0  -1   8 831.601 522.413   2
   0   1  -8 1243.46 357.587   3
   0  -1   7 73.2614 519.251   2
   0  -1   7 683.524 312.472   3
   0  -1   7 633.387 349.259   6
   0   1  -7 668.985 290.934   3
   0  -1   6 158720. 4223.96   2
   0  -1   6 154405. 3861.85   3
   0   1  -6 161605. 3818.99   3
   0   1  -5 40588.6 1248.31   3
   0  -1   5 36034.2 1319.05   6
   0  -1   5 34080.9 1466.20   2
   0  -1   4 15032.9 722.904   6
   0   1  -4 15775.3 667.072   3
   0   1  -4 18273.7 946.866   2
   0  -1   4 15095.8 850.234   2
   0  -1   3 58859.2 1739.80   2
   0  -1   3 60489.6 1607.52   6
   0   1  -3 54469.9 1617.91   6
   0   1  -3 64069.0 1785.76   2
   0   1  -3 55179.1 1528.41   3
   0  -1   2 25251.4 813.161   6
   0  -1   2 24871.7 908.671   2
   0   1  -2 26416.0 917.573   2
   0   1  -2 25532.9 821.031   6
   0  -1   1 28170.8 887.083   2
   0   1  -1 27183.7 886.834   2
   0   1   0 66532.7 1682.63   7
   0  -1   0 69474.7 1597.91   5
   0  -1   0 68560.3 1689.95   7
   0   1   0 69431.8 1604.74   5
   0   1   1 5748.74 322.965   7
   0   1   1 5537.49 291.587   5
   0   1   1 5488.80 339.329   3
   0  -1  -1 5686.60 284.990   5
   0  -1  -1 5647.40 324.771   7
   0  -1  -2 24404.6 774.661   5
   0   1   2 21905.7 819.000   3
   0  -1  -2 24291.0 817.560   3
   0   1   3 42748.4 1321.85   3
   0  -1  -3 43078.9 1312.74   3
   0  -1  -4 101545. 2628.08   3
   0   1   4 99449.5 2620.81   3
   0  -1  -5 30870.5 1192.89   3
   0   1   5 29736.3 1200.06   3
   0   1   5 32707.3 873.134   4
   0  -1  -6 102272. 2830.02   3
   0   1   6 102502. 2846.79   3
   0   1   7 4030.32 579.112   3
   0   1   8 1042.47 462.274   3
   0   1   9 462.807 492.073   3
   0   1  10 22503.7 1317.98   3
   0   1  11 16765.0 1229.30   3
   0   1  12 26645.5 1571.89   3
   0   1  13 4049.18 769.435   3
   0   1  14 257.592 578.970   3
   0   1  15 1601.91 704.736   3
   0   1  16 18073.7 1502.89   3
   0   1  17 3673.37 887.833   3
   0  -2  15-525.464 690.395   2
   0  -2  14 325.245 647.683   2
   0  -2  13 204.351 516.001   2
   0  -2  12 26807.6 1836.53   2
   0  -2  11 10005.9 1091.42   2
   0  -2  10 18811.2 1390.30   2
   0  -2   9 7555.68 892.177   2
   0  -2   8 1103.21 480.926   2
   0   2  -8 1117.70 357.045   3
   0  -2   7 6118.10 726.710   2
   0   2  -7 7317.97 572.167   3
   0  -2   6 66862.2 2395.15   2
   0  -2   6 71483.0 2185.69   6
   0   2  -6 69417.5 2046.93   3
   0  -2   5 7104.00 684.960   2
   0   2  -5 7878.18 630.540   6
   0   2  -5 7111.14 512.049   3
   0  -2   5 7782.76 573.943   6
   0   2  -4 28067.3 1139.61   6
   0  -2   4 30804.8 1137.99   6
   0  -2   4 29488.6 1289.34   2
   0   2  -4 29281.4 1285.94   2
   0  -2   3 39554.1 1514.66   2
   0   2  -3 46152.6 1576.57   2
   0   2  -3 41300.7 1388.02   6
   0   2  -2 9850.04 606.345   7
   0   2  -2 9074.33 612.737   2
   0  -2   2 9249.91 639.888   2
   0   2  -2 9391.77 573.763   6
   0   2  -1 90090.8 2417.00   2
   0   2  -1 87230.7 2212.08   5
   0   2  -1 87648.1 2374.43   7
   0   2   0 229737. 5136.45   7
   0   2   0 215843. 4942.38   5
   0  -2   0 217085. 5129.33   7
   0  -2   0 226060. 4944.07   5
   0   2   1 9515.24 480.663   5
   0   2   1 9654.27 566.979   7
   0  -2  -1 10880.7 606.726   7
   0  -2  -1 9213.52 477.448   5
   0   2   2 5860.01 493.444   3
   0   2   2 5439.75 238.524   1
   0   2   2 6062.24 474.135   7
   0  -2  -2 6020.44 401.506   5
   0  -2  -2 5358.08 464.260   7
   0   2   2 5687.65 409.602   5
   0  -2  -3 18337.2 875.909   3
   0  -2  -3 17984.9 848.813   7
   0  -2  -3 19450.1 804.000   5
   0   2   3 18517.5 894.628   3
   0  -2  -4 33971.4 1225.69   5
   0  -2  -4 33567.1 912.411   1
   0   2   4 35931.4 1343.31   3
   0  -2  -4 34048.1 1297.28   3
   0  -2  -5 51720.6 1705.35   5
   0   2   5 52142.3 1794.91   3
   0   2   6 65315.3 2179.44   3
   0   2   7 10516.9 862.748   3
   0   2   7 12012.4 573.237   4
   0   2   8 4092.42 672.387   3
   0   2   8 4336.82 356.913   4
   0   2   9 6400.89 801.430   3
   0   2  10 58436.5 2360.20   3
   0   2  11 22751.9 1446.25   3
   0   2  12 321.869 596.113   3
   0   2  13 8250.66 1030.71   3
   0   2  14 1070.89 661.745   3
   0   2  15 6077.74 1004.82   3
   0   2  16 13860.8 1404.98   3
   0   2  17 4475.99 959.960   3
   0  -3  14 773.658 564.732   2
   0  -3  13 934.847 590.781   2
   0  -3  12 21518.6 1683.79   2
   0  -3  11 14372.0 1338.06   2
   0  -3  10 6547.17 913.745   2
   0  -3   9 7894.94 938.268   2
   0  -3   8 1559.88 561.277   2
   0  -3   7 16880.3 1187.97   2
   0   3  -7 16513.1 913.554   3
   0  -3   6 108381. 3473.51   2
   0   3  -6 109781. 3249.19   6
   0   3  -5 16981.3 981.421   6
   0  -3   5 19345.6 1163.26   2
   0  -3   4 2375.15 469.709   2
   0   3  -4 3632.62 462.392   6
   0   3  -3 17261.2 922.616   6
   0  -3   3 18719.2 1047.00   2
   0   3  -2 17947.5 825.709   5
   0   3  -1 63964.8 1861.82   5
   0   3   0 82387.3 2264.33   5
   0  -3   0 86846.9 2274.63   5
   0  -3   0 84869.2 2515.64   7
   0   3   1 18448.8 933.840   7
   0  -3  -1 18441.3 785.256   5
   0   3   1 17995.3 785.146   5
   0  -3  -1 16983.6 922.242   7
   0   3   2 7319.44 577.612   7
   0  -3  -2 6323.17 468.937   5
   0  -3  -2 7308.23 596.235   7
   0   3   2 5922.01 464.557   5
   0   3   2 6792.01 596.971   3
   0  -3  -3 9027.87 593.987   5
   0  -3  -3 9793.10 714.910   7
   0   3   3 9724.39 354.386   1
   0   3   3 10144.5 754.586   3
   0   3   3 9406.61 600.077   5
   0  -3  -4 55053.6 1925.87   7
   0  -3  -4 58994.6 1848.91   5
   0   3   4 54150.1 1978.64   3
   0  -3  -5 72668.0 2242.83   5
   0  -3  -5 69772.5 2318.02   7
   0   3   5 70576.2 2391.63   3
   0   3   6 23216.4 1252.33   3
   0  -3  -6 20709.8 685.703   1
   0  -3  -6 23677.5 1195.40   7
   0  -3  -7 18262.7 695.873   1
   0   3   7 17254.4 1141.69   3
   0  -3  -8 4310.88 363.938   1
   0   3   8 4201.57 734.008   3
   0  -3  -9 4593.64 420.184   1
   0   3   9 4069.52 455.250   4
   0   3   9 5604.04 856.772   3
   0   3  10 27088.3 1602.16   3
   0   3  11 27062.9 1684.46   3
   0   3  12 6065.01 927.588   3
   0   3  13 5932.62 955.039   3
   0   3  14 1739.29 765.678   3
   0   3  15 8010.52 1130.55   3
   0   3  16 10561.3 1282.42   3
   0  -4  13 1243.38 720.984   2
   0  -4  12 13833.6 1420.71   2
   0  -4  11 12798.2 1302.48   2
   0  -4  10 6019.35 925.828   2
   0  -4   9 9005.99 1060.89   2
   0   4  -8 3991.39 695.203   6
   0  -4   8 2755.21 662.624   2
   0  -4   7 17432.2 1316.08   2
   0   4  -7 19008.4 1216.24   6
   0  -4   6 43873.4 2050.86   2
   0   4  -6 41407.9 1812.81   6
   0  -4   5 11285.2 1000.82   2
   0   4  -5 10914.0 865.534   6
   0   4  -4 3846.95 499.831   5
   0   4  -4 2895.92 516.066   6
   0   4  -3 18273.2 971.709   5
   0   4  -3 18163.7 1068.58   6
   0   4  -2 26898.5 1164.77   5
   0   4  -1 45668.5 1605.18   5
   0   4   0 40069.6 1450.57   5
   0  -4   0 42013.3 1729.32   7
   0  -4  -1 9105.24 602.177   5
   0  -4  -1 10984.9 836.010   7
   0   4   1 9128.24 608.847   5
   0   4   1 9957.94 770.562   3
   0   4   2 8340.80 746.301   3
   0   4   2 8945.48 616.742   5
   0  -4  -2 8767.89 621.989   5
   0  -4  -2 10382.9 803.221   7
   0  -4  -3 6020.93 536.248   5
   0   4   3 5242.39 527.266   5
   0   4   3 5766.13 681.072   3
   0  -4  -3 5922.73 627.113   7
   0   4   3 4869.91 292.894   1
   0   4   4 32963.2 1569.51   3
   0  -4  -4 32978.2 1535.05   7
   0   4   4 32988.7 1338.83   5
   0  -4  -5 62695.3 2303.97   7
   0   4   5 61402.8 2338.71   3
   0  -4  -6 13654.6 990.467   7
   0   4   6 13110.4 1053.21   3
   0  -4  -7 8967.63 830.473   7
   0   4   7 8331.92 931.573   3
   0  -4  -8 4986.18 672.193   7
   0   4   8 5525.82 869.764   3
   0  -4  -9 13440.9 1071.75   7
   0   4   9 12869.7 1182.45   3
   0  -4 -10 30183.7 1668.18   7
   0   4  10 31936.8 1849.64   3
   0   4  11 12288.8 1252.87   3
   0  -4 -11 12097.8 1084.61   7
   0   4  12 1457.90 768.351   3
   0  -4 -12 983.185 451.886   7
   0   4  13 3444.48 864.413   3
   0   4  14 1579.81 803.005   3
   0   4  15 10025.5 1331.12   3
   0  -5  11 6141.26 1013.44   2
   0  -5  10 3318.28 805.737   2
   0  -5   9 4481.18 840.322   2
   0   5  -8 1259.65 549.709   6
   0  -5   8 1184.47 629.862   2
   0  -5   7 23906.7 1665.97   2
   0   5  -7 28478.6 1528.31   5
   0   5  -7 25709.0 1530.12   6
   0   5  -6 25634.0 1421.60   5
   0   5  -6 24613.5 1470.60   6
   0   5  -5 12576.0 1022.01   6
   0   5  -5 14808.5 1001.80   5
   0   5  -4 8965.44 766.215   5
   0   5  -4 8998.89 851.010   6
   0   5  -3 6626.34 769.133   6
   0   5  -3 6552.95 638.795   5
   0   5  -2 14043.0 889.346   5
   0   5  -1 49200.8 1792.33   5
   0  -5   0 12547.0 997.974   7
   0   5   0 13399.8 834.432   5
   0   5   0 14168.8 987.437   3
   0  -5  -1 6911.35 784.759   7
   0   5   1 6685.60 590.393   5
   0   5   1 6838.62 726.756   3
   0   5   2 11482.0 772.989   5
   0  -5  -2 11262.6 965.235   7
   0   5   2 10796.9 935.221   3
   0   5   3 10907.7 760.276   5
   0  -5  -3 11391.5 964.180   7
   0   5   3 11210.6 965.682   3
   0   5   3 10514.3 509.692   1
   0  -5  -4 28823.4 1558.03   7
   0   5   4 31983.0 1356.96   5
   0   5   4 32333.9 1666.71   3
   0   5   5 42161.6 2005.39   3
   0  -5  -5 42258.1 1946.92   7
   0  -5  -6 3314.92 617.767   7
   0   5   6 3058.06 665.135   3
   0   5   7 5805.90 887.236   3
   0  -5  -7 5590.76 743.174   7
   0   5   8 2289.24 702.727   3
   0  -5  -8 2481.03 549.081   7
   0  -5  -9 18030.6 1340.95   7
   0   5   9 18305.5 1487.20   3
   0  -5 -10 18432.1 1376.60   7
   0   5  10 17837.8 1501.56   3
   0   5  11 12757.3 1333.03   3
   0  -5 -11 12086.3 1156.10   7
   0   5  12 2557.36 870.931   3
   0  -5 -12 1032.52 519.703   7
   0   5  13 1300.46 798.039   3
   0  -5 -13 1015.05 491.748   7
   0  -5 -14 1371.40 573.425   7
   0  -5 -15 8806.12 1065.04   7
   0   6 -11 8598.63 1069.82   5
   0   6 -10 905.531 500.480   5
   0   6  -9 3342.22 772.653   6
   0   6  -9 2037.04 560.831   5
   0   6  -8 919.574 546.428   6
   0   6  -8 1327.13 476.195   5
   0   6  -7 24770.2 1615.68   6
   0   6  -7 23277.3 1461.67   5
   0   6  -6 11701.0 1115.00   6
   0   6  -6 11641.6 986.075   5
   0   6  -5 3440.13 696.807   6
   0   6  -5 2877.47 532.177   5
   0   6  -4 6759.40 845.440   6
   0   6  -4 6589.88 711.163   5
   0   6  -3 4317.78 699.534   6
   0   6  -3 4372.19 575.114   5
   0   6  -2 6775.13 669.888   5
   0   6  -1 48146.2 2113.97   3
   0   6  -1 48705.6 1907.06   5
   0   6   0 8303.73 705.449   5
   0   6   0 8124.60 858.215   3
   0   6   1 5325.39 582.393   5
   0  -6  -1 6535.93 815.055   7
   0   6   1 5075.92 723.485   3
   0   6   2 11654.4 1053.10   3
   0   6   2 10840.2 800.466   5
   0  -6  -2 11604.8 1083.66   7
   0   6   3 7667.31 919.879   3
   0   6   3 7979.12 698.031   5
   0  -6  -3 8409.79 918.522   7
   0  -6  -4 22149.8 1506.94   7
   0   6   4 19984.1 1444.02   3
   0   6   4 20854.3 1165.79   5
   0  -6  -5 30829.0 1805.37   7
   0   6   5 31386.8 1827.30   3
   0  -6  -6 244.319 391.721   7
   0   6   6 891.440 550.040   3
   0  -6  -7 3265.30 662.051   7
   0   6   7 3146.74 733.583   3
   0  -6  -8 2508.46 637.937   7
   0   6   8 2985.13 780.134   3
   0   6   9 20112.2 1626.68   3
   0  -6  -9 18384.2 1446.80   7
   0   6  10 8826.99 1224.33   3
   0  -6 -10 10066.6 1086.37   7
   0  -6 -11 10554.2 1161.76   7
   0   6  11 11875.3 1380.09   3
   0  -6 -12 3016.52 656.714   7
   0  -6 -13 299.598 413.765   7
   0  -6 -14 964.835 565.841   7
   0   7  -7 20619.5 1591.92   6
   0   7  -6 5554.91 886.991   6
   0   7  -5 6119.57 899.547   6
   0   7  -4 8865.07 1047.51   6
   0   7  -3 2669.48 578.064   3
   0   7  -3 2760.85 660.754   6
   0   7  -2 8734.33 1026.01   6
   0   7  -2 8875.44 951.407   3
   0   7  -1 29413.2 1733.08   3
   0   7   0 305.207 449.229   3
   0   7   1 1736.90 577.272   3
   0  -7  -2 5658.46 852.171   7
   0   7   2 7020.00 941.115   3
   0  -7  -3 19542.6 1531.88   7
   0   7   3 19324.7 1492.39   3
   0   7   4 8573.63 1083.82   3
   0  -7  -4 9749.95 1092.62   7
   0  -7  -5 20919.4 1596.90   7
   0   7   5 20095.2 1572.38   3
   0   7   6 2315.44 714.491   3
   0  -7  -6 1334.85 544.880   7
   0  -7  -7 1476.35 617.805   7
   0   7   7 3034.22 846.676   3
   0  -7  -8 66.6592 475.681   7
   0   7   8 2.34373 639.057   3
   0   7   9 21834.0 1779.68   3
   0  -7  -9 16535.7 1495.86   7
   0  -7 -10 3544.10 746.140   7
   0  -7 -11 4583.71 895.101   7
   0   8  -5 923.238 562.540   6
   0   8  -4 2785.02 756.389   6
   0   8  -3 3793.67 811.342   6
   0   8  -2 3740.87 778.581   6
   0   8  -2 1995.45 612.617   3
   0   8  -1 26786.0 1774.61   3
   0   8   0 748.874 572.842   3
   0   8   1 1171.93 615.504   3
   0   8   2 880.974 620.483   3
   0   8   3 10685.5 1247.44   3
   0  -8  -4 7835.84 1066.25   7
   0   8   4 5925.43 1009.65   3
   0   8   5 9574.51 1248.82   3
  -1   8   0 554.231 607.170   3
  -1   8  -1 17542.9 1574.02   3
  -1   8  -2 1472.28 658.331   6
  -1   8  -2 519.823 549.391   3
  -1   8  -3 689.794 521.635   3
   1  -7  -7 962.076 590.373   7
  -1   7   6 142.928 639.955   3
   1  -7  -6 644.702 591.281   7
   1  -7  -5 25776.3 1909.40   7
  -1   7   5 24594.1 1854.27   3
   1  -7  -4 3092.29 754.986   7
  -1   7   4 4182.69 895.328   3
  -1   7   3 3065.89 797.118   3
   1  -7  -3 1035.89 542.359   7
   1  -7  -2 8895.89 1128.91   7
  -1   7   2 9573.72 1142.85   3
   1  -7  -1 6085.36 951.247   7
  -1   7   1 5531.01 919.623   3
  -1   7   0 5336.20 870.828   3
  -1   7  -1 27401.4 1825.97   3
  -1   7  -2-336.127 513.206   3
  -1   7  -3 391.482 470.901   6
  -1   7  -4 1883.46 627.185   6
  -1   7  -5 5838.50 867.250   6
   1  -6 -11 15094.2 1484.06   7
   1  -6 -10 4025.56 809.678   7
   1  -6  -9 6890.72 979.071   7
  -1   6   9 5516.98 1019.92   3
   1  -6  -8 4889.76 826.883   7
  -1   6   8 4997.65 920.487   3
   1  -6  -7 2391.41 628.178   7
  -1   6   7 1618.24 647.241   3
   1  -6  -6 1090.80 515.295   7
  -1   6   6 1284.95 649.193   3
  -1   6   5 38314.6 2174.46   3
   1  -6  -5 39858.0 2202.59   7
  -1   6   5 38758.3 1897.19   5
  -1   6   4 4685.25 676.276   5
   1  -6  -4 2915.25 677.925   7
  -1   6   4 4859.95 839.513   3
  -1   6   3 5289.23 683.780   5
   1  -6  -3 5402.78 853.850   7
  -1   6   3 5597.34 855.774   3
   1  -6  -2 8252.16 991.964   7
  -1   6   2 7702.30 960.538   3
  -1   6   2 7342.03 785.249   5
  -1   6   1 4029.21 739.099   3
  -1   6   1 3537.47 569.438   5
   1  -6  -1 4092.28 711.086   7
   1  -6   0 7889.48 976.095   7
  -1   6   0 5885.23 845.228   3
  -1   6   0 6078.61 724.537   5
  -1   6  -1 37786.1 1817.00   5
  -1   6  -2 313.912 346.048   5
  -1   6  -3 3254.00 602.230   5
  -1   6  -4 5650.59 743.106   5
  -1   6  -4 4766.37 711.905   6
  -1   6  -5 17205.6 1268.55   6
  -1   6  -5 16725.8 1269.16   5
  -1   6  -6 14315.7 1183.62   6
  -1   6  -6 13920.9 1185.90   5
  -1   6  -7 14722.2 1213.72   6
  -1   6  -7 12528.3 1133.15   5
  -1   6  -8 989.594 512.524   5
  -1   6  -9 571.443 460.481   5
  -1   6 -10 258.536 438.281   5
  -1   6 -11 12478.7 1312.60   5
   1  -5 -13 480.898 476.936   7
  -1   5  12 1000.40 736.434   3
   1  -5 -12-39.9428 457.847   7
   1  -5 -11 15212.7 1407.77   7
  -1   5  11 16788.7 1590.37   3
  -1   5  10 11057.8 1272.61   3
   1  -5 -10 8837.59 1047.17   7
   1  -5  -9 5706.22 864.157   7
  -1   5   9 4592.76 903.086   3
   1  -5  -8 6157.20 868.224   7
  -1   5   8 5892.75 940.616   3
   1  -5  -7 2835.21 645.538   7
  -1   5   7 3386.34 776.196   3
   1  -5  -6 7211.31 884.975   7
  -1   5   6 7879.40 949.036   3
  -1   5   5 45346.8 1975.70   5
   1  -5  -5 45183.3 2186.93   7
  -1   5   5 44662.7 2189.14   3
  -1   5   4 6202.70 705.936   5
   1  -5  -4 4918.78 728.115   7
  -1   5   4 7210.19 876.655   3
   1  -5  -3 3672.09 644.297   7
  -1   5   3 3556.81 643.872   3
  -1   5   3 3228.43 546.487   5
  -1   5   2 8914.69 785.422   5
  -1   5   2 8827.34 916.945   3
   1  -5  -2 8179.87 903.931   7
  -1   5   1 14856.5 1011.09   5
   1  -5  -1 13630.5 1124.86   7
  -1   5   0 25591.3 1355.99   5
   1  -5   0 24331.5 1497.48   7
  -1   5  -1 38428.5 1730.88   5
   1  -5   1 39706.7 1960.31   7
  -1   5  -2 3597.73 545.766   5
  -1   5  -3 6959.79 762.059   5
  -1   5  -4 1310.97 425.668   5
  -1   5  -4 1300.47 397.622   6
  -1   5  -5 28350.2 1574.73   5
  -1   5  -5 30681.7 1571.76   6
  -1   5  -6 15254.8 1106.94   6
  -1   5  -6 16075.1 1173.74   5
  -1   5  -7 9418.74 957.769   5
  -1   5  -7 9497.15 903.220   6
  -1   5  -8 3752.83 687.605   5
  -1   5  -8 3645.58 616.422   6
   1  -5   9 3321.98 784.642   2
  -1   5  -9 3381.81 688.534   5
   1  -5  10 3299.07 801.187   2
  -1   5 -10 3329.96 693.428   5
   1  -5  11 16941.8 1594.77   2
  -1   5 -11 14618.7 1360.71   5
   1  -4 -15 3944.16 803.758   7
   1  -4 -14 2181.05 671.805   7
  -1   4  14 1958.90 849.270   3
  -1   4  13 2782.54 824.447   3
   1  -4 -13 2076.64 653.779   7
   1  -4 -12 1138.78 561.041   7
  -1   4  12 2196.71 836.236   3
   1  -4 -11 28923.1 1837.75   7
  -1   4  11 32320.6 2005.53   3
  -1   4  10 5929.40 930.558   3
   1  -4 -10 5435.17 810.955   7
  -1   4   9 2095.07 668.265   3
   1  -4  -9 2070.27 584.095   7
   1  -4  -8 9512.50 974.658   7
  -1   4   8 10645.2 1087.02   3
  -1   4   7 9209.95 1023.21   3
   1  -4  -7 9145.23 916.249   7
   1  -4  -6 23182.5 1425.42   7
  -1   4   6 20461.8 1376.83   3
   1  -4  -5 47497.1 2122.32   7
  -1   4   5 50421.1 2011.30   5
  -1   4   5 50863.5 2196.32   3
  -1   4   4 10602.5 551.554   1
   1  -4  -4 10416.6 921.216   7
  -1   4   4 9522.11 908.685   3
  -1   4   4 10333.6 824.044   5
  -1   4   3 12510.1 889.219   5
  -1   4   3 12322.7 637.375   1
  -1   4   3 11068.1 948.850   3
   1  -4  -3 12691.0 1007.95   7
   1  -4  -2 12324.3 965.098   7
  -1   4   2 12525.2 996.512   3
  -1   4   2 12476.8 863.858   5
  -1   4   1 24470.8 1226.50   5
   1  -4  -1 27552.4 1451.02   7
   1  -4   0 46979.5 1988.45   7
  -1   4   0 47505.9 1824.50   5
  -1   4  -1 35624.4 1535.10   5
   1  -4   1 34440.2 1650.19   7
   1  -4   2 6399.97 736.593   7
  -1   4  -2 6178.61 644.769   5
  -1   4  -3 8754.16 761.779   5
  -1   4  -4 7102.49 694.524   5
  -1   4  -4 4898.06 629.541   6
  -1   4  -5 32987.6 1589.52   5
  -1   4  -5 33490.2 1511.64   6
  -1   4  -6 44703.4 1969.30   5
   1  -4   6 41407.3 2075.16   2
  -1   4  -6 42898.3 1780.01   6
   1  -4   7 8976.40 986.589   2
  -1   4  -7 9107.19 805.055   6
  -1   4  -7 8701.63 866.727   5
  -1   4  -8 6812.39 797.851   6
   1  -4   8 7781.25 966.340   2
   1  -4   9 4196.48 775.934   2
   1  -4  10 5934.24 941.243   2
   1  -4  11 21109.1 1678.57   2
   1  -4  12 8333.26 1104.59   2
   1  -4  13 1282.09 674.322   2
  -1   3  15 2140.86 838.710   3
  -1   3  14 1706.58 813.140   3
  -1   3  13 1988.33 744.058   3
  -1   3  12 3470.33 795.686   3
  -1   3  11 30796.1 1811.11   3
   1  -3 -10 25746.0 1189.50   1
  -1   3  10 25256.1 1628.70   3
  -1   3   9 10801.0 1062.33   3
   1  -3  -9 10905.4 704.958   1
  -1   3   8 7386.83 887.769   3
   1  -3  -8 7186.20 547.685   1
  -1   3   7 11415.1 993.276   3
   1  -3  -7 9814.44 598.287   1
  -1   3   6 33787.5 1655.21   3
   1  -3  -6 32620.8 1604.23   7
  -1   3   5 43790.1 1865.90   3
  -1   3   5 43911.3 1759.70   5
   1  -3  -5 43737.8 1858.12   7
   1  -3  -4 8920.32 776.591   7
  -1   3   4 8833.55 799.665   3
  -1   3   4 7473.18 682.410   5
  -1   3   4 7990.28 460.383   1
  -1   3   3 16345.1 1017.76   3
   1  -3  -3 18017.3 1082.15   7
  -1   3   3 15795.4 705.815   1
  -1   3   3 17317.4 968.128   5
  -1   3   2 7160.62 486.196   1
   1  -3  -2 7426.66 684.607   7
  -1   3   2 6834.14 604.786   5
   1  -3  -1 24490.7 1223.63   7
  -1   3   1 25767.2 1151.35   5
   1  -3  -1 25650.8 1161.74   5
   1  -3   0 117480. 3160.99   5
  -1   3   0 110051. 3143.59   5
   1  -3   0 113973. 3302.51   7
   1  -3   1 45640.1 1646.46   5
  -1   3  -1 45639.5 1680.43   5
   1  -3   1 45041.4 1750.83   7
   1  -3   2 4796.55 582.229   7
  -1   3  -2 4850.54 536.128   5
  -1   3  -3 18459.9 1011.44   5
  -1   3  -4 20185.0 982.762   6
  -1   3  -4 19783.7 1094.24   5
   1  -3   4 19719.6 1171.32   2
   1  -3   5 36474.1 1694.21   2
  -1   3  -5 37922.1 1461.06   6
   1  -3   6 23431.7 1386.09   2
  -1   3  -6 27192.2 1223.37   6
  -1   3  -7 3572.30 543.136   6
   1  -3   7 3213.80 638.536   2
   1  -3   8 3599.07 677.604   2
   1  -3   9 6477.12 869.806   2
   1  -3  10 22716.5 1579.59   2
   1  -3  11 17094.5 1453.79   2
   1  -3  12 8422.05 1113.91   2
   1  -3  13 4427.15 859.657   2
   1  -3  14 987.820 686.648   2
  -1   2  16 9431.91 1237.68   3
  -1   2  15 2083.95 803.929   3
  -1   2  14 913.194 677.825   3
  -1   2  13 3502.70 777.691   3
  -1   2  12 17057.3 1343.49   3
  -1   2  11 15388.7 1242.73   3
  -1   2  10 12539.0 1099.94   3
  -1   2   9 3647.28 712.196   3
   1  -2  -9 3186.70 464.506   1
  -1   2   8 2884.93 649.147   3
   1  -2  -8 3886.60 451.921   1
   1  -2  -7 12252.4 719.825   1
  -1   2   7 13869.1 970.107   3
   1  -2  -6 70280.4 2026.71   1
  -1   2   6 67757.1 2345.26   3
   1  -2  -5 41742.2 1342.15   1
  -1   2   5 42616.0 1671.06   3
  -1   2   4 17736.2 987.702   3
  -1   2   4 17146.2 937.886   5
   1  -2  -4 17506.3 740.152   1
   1  -2  -3 36025.5 1366.77   5
  -1   2   3 36042.1 1356.42   5
  -1   2   3 34090.2 1094.69   1
  -1   2   3 33247.7 1383.07   3
   1  -2  -3 34059.4 1402.71   7
   1  -2  -2 12894.8 744.528   5
  -1   2   2 12279.9 738.786   5
  -1   2   2 11768.3 573.185   1
   1  -2  -2 12470.6 788.062   7
   1  -2  -1 47564.1 1583.75   5
  -1   2   1 45108.7 1550.09   5
   1  -2  -1 48494.5 1658.17   7
  -1   2   0 58429.7 1838.36   7
   1  -2   0 54395.7 1810.85   7
  -1   2   0 57983.8 1789.33   5
   1  -2   0 56706.9 1764.26   5
  -1   2  -1 622.472 288.893   5
  -1   2  -1 699.668 257.641   2
   1  -2   1 1121.67 349.919   7
  -1   2  -1 717.511 252.787   7
   1  -2   1 829.926 248.843   5
  -1   2  -2 15243.2 844.856   2
   1  -2   2 15417.8 828.460   7
  -1   2  -2 14714.1 786.669   7
  -1   2  -2 15182.5 802.652   5
  -1   2  -3 30004.8 1216.42   7
  -1   2  -3 31431.4 1295.09   2
   1  -2   3 30307.9 1272.74   2
  -1   2  -3 30488.6 1238.11   5
  -1   2  -4 29948.8 1092.63   6
   1  -2   4 30663.2 1338.25   2
  -1   2  -4 30474.1 1247.75   7
   1  -2   5 62705.3 2150.69   2
  -1   2  -5 58763.4 1816.63   6
  -1   2  -6 73361.1 2230.75   6
   1  -2   6 75858.6 2549.91   2
   1  -2   7 4156.96 608.210   2
   1  -2   8 2293.05 353.227   6
   1  -2   8 2747.41 595.932   2
   1  -2   9 2192.41 538.773   2
   1  -2  10 29160.1 1719.26   2
   1  -2  11 14641.3 1265.46   2
   1  -2  12 9473.19 1105.14   2
   1  -2  13 3989.80 842.905   2
   1  -2  14 1029.36 667.832   2
   1  -2  15 2004.21 766.159   2
  -1   1  16 5267.42 935.593   3
  -1   1  15 394.697 609.840   3
  -1   1  14 726.490 633.955   3
  -1   1  13 2582.37 689.098   3
  -1   1  12 23864.5 1499.78   3
  -1   1  11 33609.2 1728.29   3
  -1   1  10 20191.5 1258.49   3
  -1   1   9 17582.3 1126.17   3
  -1   1   8 3596.85 574.211   3
  -1   1   8 3292.32 185.102   4
  -1   1   7 7365.76 701.532   3
  -1   1   6 77659.5 2390.98   3
  -1   1   5 38676.4 1436.53   3
   1  -1  -5 37813.1 1404.47   3
   1  -1  -4 4463.44 462.339   5
   1  -1  -4 3768.92 365.290   1
  -1   1   4 4158.67 488.527   3
   1  -1  -3 41574.9 1254.81   1
  -1   1   3 39989.1 1390.51   5
   1  -1  -3 44294.1 1433.02   5
  -1   1   3 36599.4 1355.68   3
   1  -1  -2 14186.6 705.528   5
  -1   1   2 14422.5 729.392   5
  -1   1   2 13957.4 601.627   1
   1  -1  -2 13872.3 605.370   1
   1  -1  -1 85958.3 2290.11   7
  -1   1   1 84907.3 2275.96   5
  -1   1   1 88041.7 2162.85   1
   1  -1  -1 86038.7 2295.03   5
  -1   1   0 345331. 7607.48   5
  -1   1   0 352138. 7599.54   7
   1  -1   0 338072. 7602.45   5
   1  -1   0 345843. 7603.61   7
  -1   1  -1 13345.6 623.522   2
   1  -1   1 13107.3 626.860   7
   1  -1   1 14857.8 660.909   5
  -1   1  -1 13053.8 644.042   5
  -1   1  -1 13004.2 606.215   7
   1  -1   2 10570.1 571.782   7
  -1   1  -2 11686.7 627.987   5
  -1   1  -2 12739.3 629.911   2
   1  -1   2 10709.1 593.454   2
  -1   1  -2 12263.8 581.238   7
   1  -1   3 27956.5 1071.88   2
  -1   1  -3 28097.9 1003.22   7
  -1   1  -3 28413.5 1079.54   2
  -1   1  -3 28554.5 854.060   6
  -1   1  -4 54297.8 1752.34   2
  -1   1  -4 51300.8 1448.03   6
   1  -1   4 52427.6 1704.44   2
   1  -1   5 59479.4 1642.93   6
  -1   1  -5 58585.7 1874.10   3
  -1   1  -5 62456.5 2029.91   2
   1  -1   5 58941.3 1952.87   2
   1  -1   6 52095.0 1583.10   6
   1  -1   6 49837.9 1896.89   2
   1  -1   7 10561.2 631.678   6
   1  -1   7 10169.5 833.834   2
   1  -1   8 833.753 494.853   2
   1  -1   8 1226.43 304.723   6
   1  -1   9 3688.89 683.987   2
   1  -1  10 73596.4 2863.32   2
   1  -1  11 19001.3 1421.83   2
   1  -1  12 2387.21 734.559   2
   1  -1  13 10198.5 1186.03   2
   1  -1  14 1891.64 745.658   2
   1  -1  15 2032.94 741.550   2
   1  -1  16 16117.3 1634.92   2
  -1   0  15 1572.87 595.729   3
  -1   0  15 3875.92 1012.76   2
  -1   0  14 2045.61 924.897   2
  -1   0  14 1019.92 540.522   3
  -1   0  13 1822.49 606.247   3
  -1   0  12 21904.0 1361.23   3
  -1   0  11 14146.3 1069.90   3
  -1   0  10 13487.1 990.069   3
  -1   0   9 14886.9 981.711   3
  -1   0   8 3657.73 523.787   3
  -1   0   7 9569.40 706.450   3
   1   0  -7 10246.2 670.379   3
  -1   0   6 166654. 4065.55   3
   1   0  -6 161567. 4029.11   3
  -1   0   5 16537.9 784.513   3
   1   0  -5 15470.8 736.705   3
   1   0  -4 2379.40 299.442   3
  -1   0   4 2332.01 330.581   3
  -1   0   3 52436.0 1459.54   3
   1   0  -3 52551.4 1449.61   3
   1   0  -3 51915.3 1572.90   5
  -1   0   2 51852.9 1424.00   3
  -1   0   2 55927.9 1537.93   5
   1   0  -2 55876.5 1488.90   1
   1   0  -2 53440.3 1524.30   5
   1   0  -1 42646.8 1196.89   1
  -1   0   1 41968.0 1189.14   1
   1   0  -1 43589.5 1216.43   5
  -1   0   1 42098.3 1206.31   5
   1   0   0 60944.6 1549.82   5
  -1   0   0 60667.9 1553.50   5
  -1   0   0 60028.9 1548.39   1
  -1   0  -1 2962.46 194.502   7
   1   0   1 2826.26 240.706   5
   1   0   1 2614.08 195.543   7
  -1   0  -1 3042.10 186.194   2
   1   0   1 2429.69 174.686   2
  -1   0  -1 2817.64 267.749   5
  -1   0  -2 17922.9 542.645   7
  -1   0  -2 17758.6 625.260   2
   1   0   2 18223.1 614.497   2
  -1   0  -3 23276.8 865.213   3
   1   0   3 22021.1 827.370   2
   1   0   4 160836. 3932.57   2
   1   0   4 161304. 3926.69   3
  -1   0  -4 165455. 3903.24   3
   1   0   5 24701.9 1110.10   2
   1   0   5 22816.3 1018.40   3
  -1   0  -5 23647.7 984.711   3
   1   0   6 76990.0 2328.09   3
   1   0   6 76181.3 2428.49   2
  -1   0  -6 79135.1 2289.46   3
  -1   0  -7 15507.9 877.962   3
   1   0   7 16271.8 1065.60   2
   1   0   7 14489.0 886.540   3
   1   0   8 2012.23 647.197   2
   1   0   8 96.8265 332.793   3
   1   0   9 2236.48 641.163   2
   1   0   9 1495.32 455.063   3
   1   0  10 39505.5 1992.96   2
   1   0  10 39682.2 1779.00   3
   1   0  11 7748.01 838.590   3
   1   0  11 8579.45 1083.88   2
   1   0  12 22060.6 1600.53   2
   1   0  12 19695.4 1333.73   3
   1   0  13 7241.83 870.300   3
   1   0  13 7292.67 1032.08   2
   1   0  14 1467.46 816.090   2
   1   0  14 899.128 478.935   3
   1   0  15 3272.33 896.918   2
   1   0  16 17866.4 1711.42   2
  -1  -1  15-183.864 890.937   2
  -1  -1  14 56.5795 760.881   2
  -1  -1  13 754.016 439.843   3
  -1  -1  13 937.547 640.239   2
  -1  -1  12 36021.7 2214.94   2
  -1  -1  12 45055.3 1899.09   3
  -1  -1  11 10788.9 860.581   3
  -1  -1  11 9410.26 1149.54   2
  -1  -1  10 4918.36 588.696   3
  -1  -1  10 6786.71 1021.90   2
  -1  -1   9 15183.1 914.812   3
  -1  -1   9 16340.6 1320.44   2
  -1  -1   8 8281.76 646.352   3
   1   1  -8 8745.38 609.712   3
  -1  -1   8 6946.40 885.194   2
  -1  -1   7 9076.00 951.497   2
   1   1  -7 9106.31 578.734   3
  -1  -1   7 9039.19 615.134   3
   1   1  -6 84741.8 2241.07   3
  -1  -1   6 78016.3 2699.77   2
  -1  -1   6 86719.5 2274.54   3
   1   1  -5 3141.00 289.222   3
  -1  -1   5 3445.77 343.352   3
  -1  -1   5 3141.25 597.693   2
  -1  -1   4 11242.5 514.628   3
   1   1  -4 12757.7 494.616   4
   1   1  -4 11748.0 494.857   3
  -1  -1   4 12142.1 817.251   2
  -1  -1   3 35379.6 1313.90   6
   1   1  -3 40670.0 1064.36   4
  -1  -1   3 37848.3 997.927   3
   1   1  -3 38181.8 984.496   3
  -1  -1   3 35176.8 1316.96   2
  -1  -1   2 125124. 3147.43   6
  -1  -1   2 128849. 2913.52   4
   1   1  -2 131605. 2931.77   4
  -1  -1   2 123751. 3085.87   2
  -1  -1   1 45629.2 1243.94   2
   1   1  -1 47863.2 1257.38   2
   1   1  -1 45012.5 1174.45   5
  -1  -1   1 46046.5 1222.52   4
  -1  -1   1 46258.9 1309.88   6
   1   1  -1 46338.1 1330.73   6
   1   1  -1 46737.5 1243.15   4
  -1  -1   0 144063. 3163.82   2
  -1  -1   0 143304. 3281.52   4
   1   1   0 146349. 3275.72   6
  -1  -1   0 144556. 3267.72   6
   1   1   0 144195. 3167.52   2
   1   1   0 143186. 3292.83   4
   1   1   0 145706. 3248.71   1
   1   1   1 2319.86 229.324   3
  -1  -1  -1 2275.46 209.400   1
  -1  -1  -1 2692.59 316.485   4
  -1  -1  -1 1873.78 211.048   3
   1   1   1 2063.88 205.679   1
  -1  -1  -2 7911.21 472.016   4
   1   1   2 6762.93 416.245   3
  -1  -1  -2 6500.75 405.058   3
  -1  -1  -3 19840.6 752.353   4
   1   1   3 17319.4 764.653   3
  -1  -1  -3 17585.5 745.459   3
   1   1   4 117805. 3006.72   3
  -1  -1  -4 120050. 2998.01   3
  -1  -1  -4 119733. 2838.13   4
   1   1   5 48267.0 1623.27   3
  -1  -1  -5 52229.0 1616.93   3
  -1  -1  -5 48760.2 1396.96   4
  -1  -1  -6 52884.5 1737.34   3
  -1  -1  -6 52384.2 1434.02   4
   1   1   6 51513.6 1761.67   3
   1   1   7 17797.9 996.965   3
  -1  -1  -7 18076.9 680.143   4
   1   1   8 2600.20 537.406   3
  -1  -1  -8 3009.60 280.853   4
   1   1   9 701.366 510.766   3
  -1  -1  -9 693.110 159.386   4
   1   1  10 120364. 3673.77   3
   1   1  11 5756.36 799.886   3
   1   1  12 1364.26 559.273   3
   1   1  13 6666.04 885.840   3
   1   1  14 5532.15 843.036   3
   1   1  15 6913.64 1010.59   3
   1   1  15 9117.38 1371.04   2
   1   1  16 21993.9 1686.48   3
   1   1  16 23757.0 2010.12   2
   1   1  17 158.406 585.938   3
   1   1  18 279.065 631.447   3
  -1  -2  15 3359.60 992.491   2
  -1  -2  14 1103.01 748.300   2
  -1  -2  13 1499.86 627.611   2
  -1  -2  12 35513.1 2159.21   2
  -1  -2  11 5338.95 868.875   2
  -1  -2  10 2430.26 734.199   2
   1   2  -9 11248.9 551.349   4
  -1  -2   9 10046.0 1053.66   2
   1   2  -9 11247.4 717.469   3
   1   2  -8 8761.63 595.297   3
   1   2  -8 8899.42 505.544   4
  -1  -2   8 7943.54 913.652   2
  -1  -2   7 19259.2 1246.81   2
   1   2  -7 20737.4 811.014   4
   1   2  -7 20926.7 863.164   3
   1   2  -6 136255. 3173.22   3
  -1  -2   6 119839. 3762.92   2
  -1  -2   5 1455.67 403.963   2
   1   2  -5 1819.46 255.169   3
   1   2  -4 1742.36 216.441   3
  -1  -2   4 1464.89 345.573   6
   1   2  -4 1893.70 392.773   2
  -1  -2   4 1613.66 422.389   2
   1   2  -4 1815.80 457.113   6
   1   2  -3 15703.7 525.431   3
  -1  -2   3 15023.0 846.422   2
   1   2  -3 14739.7 847.447   6
  -1  -2   3 16008.0 812.832   6
   1   2  -3 17544.9 898.625   2
   1   2  -2 69467.5 1994.95   2
  -1  -2   2 66892.9 1979.61   2
  -1  -2   2 71473.2 1990.07   6
   1   2  -2 64608.0 1971.27   6
   1   2  -1 51980.2 1595.76   6
   1   2  -1 52471.4 1581.66   2
   1   2  -1 53979.9 1294.00   3
  -1  -2   1 51255.3 1575.07   2
   1   2   0 189564. 4304.26   2
   1   2   0 183658. 4100.00   3
   1   2   1 33362.6 1037.02   7
   1   2   1 31758.6 1006.18   3
  -1  -2  -1 33473.3 1008.49   3
   1   2   2 5202.02 449.921   3
   1   2   2 3542.75 376.890   4
  -1  -2  -2 4378.38 334.493   7
  -1  -2  -2 4548.80 383.944   3
   1   2   2 4552.60 330.412   7
  -1  -2  -2 4222.18 244.333   5
   1   2   2 4029.17 211.053   1
  -1  -2  -3 4615.15 429.643   3
   1   2   3 4375.46 403.386   4
   1   2   3 4595.13 497.047   3
  -1  -2  -3 3797.81 320.124   7
  -1  -2  -4 166974. 3935.30   7
  -1  -2  -4 173602. 4161.14   3
   1   2   4 175684. 4014.72   4
   1   2   4 162936. 4149.99   3
  -1  -2  -5 53630.1 1740.79   3
   1   2   5 52412.7 1566.57   4
   1   2   5 50864.0 1749.82   3
   1   2   6 7964.46 723.099   3
   1   2   6 8921.32 584.996   4
   1   2   7 36693.5 1546.54   3
   1   2   8 5402.44 684.692   3
   1   2   9 14050.6 1070.25   3
   1   2  10 61911.3 2403.36   3
   1   2  11 6736.04 889.437   3
   1   2  12 4779.17 847.765   3
   1   2  13 9695.61 1071.07   3
   1   2  14 6088.83 930.172   3
   1   2  15 6918.06 1032.53   3
   1   2  16 7022.81 1055.07   3
   1   2  17 41.7711 703.970   3
  -1  -3  14 478.221 596.043   2
  -1  -3  13 988.343 664.224   2
  -1  -3  12 24019.3 1786.06   2
  -1  -3  11 4819.39 854.383   2
  -1  -3  10 1599.58 616.731   2
  -1  -3   9 9875.47 1033.82   2
  -1  -3   8 15825.5 1217.34   2
   1   3  -8 15078.3 793.253   3
   1   3  -7 14679.1 735.276   3
  -1  -3   7 13489.3 1084.41   2
   1   3  -6 68633.6 1931.09   3
  -1  -3   6 72286.5 2572.05   2
   1   3  -5 4784.41 604.152   6
  -1  -3   5 3077.70 555.659   2
   1   3  -5 5059.35 375.232   3
  -1  -3   4 4514.42 569.398   2
   1   3  -4 5100.96 588.195   6
  -1  -3   3 9674.81 755.902   2
   1   3  -3 11581.5 791.154   6
   1   3  -2 86155.5 2525.87   6
   1   3  -2 87727.8 2581.46   2
  -1  -3   2 83349.8 2557.61   2
   1   3  -1 34315.9 1360.84   2
   1   3  -1 36097.4 1372.35   6
   1   3  -1 35452.0 1335.68   7
   1   3   0 76485.8 2176.33   7
   1   3   0 71783.8 1767.70   5
   1   3   0 74839.3 2211.25   2
   1   3   0 73017.0 1976.49   3
  -1  -3  -1 9805.05 634.820   7
  -1  -3  -1 10839.3 409.629   5
   1   3   1 10728.3 408.399   5
   1   3   1 10834.1 642.664   7
   1   3   1 10939.2 619.496   3
   1   3   2 4877.20 424.187   7
   1   3   2 4694.62 462.672   3
  -1  -3  -2 3830.33 426.886   7
  -1  -3  -2 4429.19 435.915   3
  -1  -3  -2 4263.78 274.573   5
  -1  -3  -3 5347.45 351.508   5
   1   3   3 4864.61 439.887   7
  -1  -3  -3 5763.10 503.229   3
  -1  -3  -3 5030.67 464.889   7
   1   3   3 5528.17 554.236   3
  -1  -3  -4 121073. 2936.20   5
  -1  -3  -4 117460. 3205.40   3
   1   3   4 113856. 3195.11   3
  -1  -3  -4 116217. 3076.86   7
   1   3   5 24334.4 1193.86   3
  -1  -3  -5 25024.5 1004.90   5
  -1  -3  -5 24528.9 1051.58   7
   1   3   5 24557.6 1052.63   4
  -1  -3  -6 30628.0 1220.60   5
  -1  -3  -6 28783.5 1194.55   7
   1   3   6 29871.0 1192.45   4
   1   3   6 28071.7 1368.57   3
  -1  -3  -7 16078.6 897.962   7
   1   3   7 20192.0 939.526   4
   1   3   7 18563.9 1128.43   3
   1   3   8 1681.48 568.246   3
   1   3   8 2255.00 437.902   4
   1   3   9 17484.3 971.978   4
   1   3   9 18043.7 1230.82   3
   1   3  10 48938.9 2192.20   3
   1   3  11 5856.53 889.259   3
   1   3  12 624.864 639.794   3
   1   3  13 3576.45 830.375   3
   1   3  14 6050.20 1019.59   3
   1   3  15 11477.4 1313.68   3
   1   3  16 12654.8 1389.31   3
  -1  -4  13 7198.64 1115.96   2
  -1  -4  12 23711.2 1857.76   2
  -1  -4  11 887.989 490.790   2
  -1  -4  10 659.267 458.809   2
  -1  -4   9 4501.88 776.485   2
  -1  -4   8 12318.1 1160.44   2
  -1  -4   7 28961.6 1700.83   2
   1   4  -7 32504.8 1731.59   6
  -1  -4   6 31481.9 1710.87   2
   1   4  -6 32500.3 1646.86   6
   1   4  -6 33243.4 1232.08   3
   1   4  -5 3442.06 592.003   6
  -1  -4   5 3306.44 620.004   2
  -1  -4   4 2620.14 504.839   2
   1   4  -4 1735.74 479.100   6
  -1  -4   3 10279.0 851.935   2
   1   4  -3 9296.03 784.444   6
   1   4  -2 58068.3 1730.00   5
   1   4  -2 59249.5 2104.86   6
   1   4  -1 56118.5 1779.11   3
   1   4  -1 57938.2 1627.80   5
   1   4   0 18480.2 904.101   3
   1   4   0 19778.2 743.413   5
  -1  -4  -1 22556.5 1111.94   7
   1   4   1 20535.9 986.805   3
   1   4   1 19747.6 732.601   5
  -1  -4  -2 6398.17 388.976   5
  -1  -4  -2 6477.32 592.459   7
   1   4   2 5808.58 377.376   5
   1   4   2 5779.20 589.885   3
   1   4   3 19254.4 569.413   1
  -1  -4  -3 23584.8 856.442   5
   1   4   3 23638.5 1150.28   3
  -1  -4  -3 22970.0 1113.83   7
  -1  -4  -4 90034.6 2451.95   5
  -1  -4  -4 91119.9 2737.07   7
   1   4   4 92583.1 2824.59   3
  -1  -4  -5 23919.7 1172.38   7
  -1  -4  -5 25417.0 1053.40   5
   1   4   5 24019.8 1267.24   3
   1   4   6 1166.60 524.220   3
  -1  -4  -6 1229.44 358.701   7
  -1  -4  -6 988.086 306.023   5
  -1  -4  -7 12695.3 859.528   7
   1   4   7 10203.3 1004.76   3
   1   4   8 7864.65 896.150   3
  -1  -4  -8 8011.02 719.043   7
  -1  -4  -9 29188.9 834.716   1
   1   4   9 29253.5 1671.76   3
  -1  -4  -9 30693.3 1479.34   7
  -1  -4 -10 35718.9 1668.64   7
   1   4  10 33171.3 1852.60   3
  -1  -4 -11 7541.89 757.956   7
   1   4  11 5838.75 947.725   3
   1   4  12 3485.58 803.604   3
  -1  -4 -12 2190.90 488.586   7
   1   4  13 1692.41 820.350   3
  -1  -4 -13 1044.88 397.371   7
   1   4  14 7726.58 1168.98   3
   1   4  15 11640.1 1369.54   3
  -1  -5  12 14706.1 1562.93   2
  -1  -5  11 3292.45 888.404   2
  -1  -5  10 1193.36 667.968   2
  -1  -5   9 3981.96 777.825   2
  -1  -5   8 13554.5 1275.04   2
   1   5  -8 12797.6 1205.21   6
  -1  -5   7 24890.4 1668.58   2
   1   5  -7 26079.2 1600.49   6
   1   5  -6 24222.2 1474.29   6
  -1  -5   6 19262.7 1429.82   2
  -1  -5   5 3187.76 644.146   2
   1   5  -5 3682.39 640.095   6
   1   5  -4 7391.72 809.461   6
   1   5  -4 7726.10 653.619   5
   1   5  -3 5406.73 504.251   5
   1   5  -3 6838.13 774.201   6
   1   5  -2 33629.8 1280.74   5
   1   5  -2 36233.1 1689.99   6
   1   5  -1 56756.2 1778.53   5
   1   5  -1 59628.8 2004.92   3
   1   5   0 16172.6 960.084   3
   1   5   0 16367.3 755.414   5
   1   5   1 26929.6 1288.03   3
   1   5   1 23376.1 935.930   5
   1   5   2 4381.20 615.734   3
  -1  -5  -2 5847.12 443.225   5
  -1  -5  -2 5904.43 663.979   7
   1   5   2 4776.68 405.944   5
   1   5   3 26907.0 1032.71   5
  -1  -5  -3 24992.9 1341.11   7
   1   5   3 25858.7 1358.47   3
  -1  -5  -3 27098.1 1049.97   5
  -1  -5  -4 47874.2 1615.96   5
   1   5   4 46595.4 1955.72   3
  -1  -5  -4 49012.9 1975.29   7
   1   5   5 20641.3 1292.93   3
  -1  -5  -5 19212.4 1173.58   7
  -1  -5  -5 19427.6 975.302   5
   1   5   6 4000.88 745.153   3
  -1  -5  -6 4814.74 615.945   7
   1   5   7 13608.0 1158.70   3
  -1  -5  -7 14095.7 1024.94   7
  -1  -5  -8 7112.28 744.487   7
   1   5   8 7745.43 951.509   3
  -1  -5  -9 32087.9 1654.16   7
   1   5   9 33761.7 1889.59   3
  -1  -5 -10 14331.3 1099.22   7
   1   5  10 14353.2 1326.27   3
  -1  -5 -11 6498.95 789.651   7
   1   5  11 5752.19 985.535   3
  -1  -5 -12 3804.93 660.397   7
   1   5  12 2710.25 828.339   3
   1   5  13 2633.52 843.847   3
  -1  -5 -13 2115.13 551.363   7
   1   5  14 5739.69 1126.15   3
  -1  -5 -14 5702.87 807.178   7
  -1  -6  10 1397.90 648.114   2
  -1  -6   9 1426.35 688.082   2
  -1  -6   8 7635.87 1088.62   2
   1   6  -8 10025.2 1162.76   6
   1   6  -7 29432.3 1597.45   5
   1   6  -7 32556.3 1904.04   6
   1   6  -6 12939.1 969.603   5
   1   6  -6 11522.0 1112.88   6
   1   6  -5 6039.70 640.699   5
   1   6  -5 6780.14 875.211   6
   1   6  -4 5112.23 790.385   6
   1   6  -4 5423.87 575.203   5
   1   6  -3 7627.48 861.092   6
   1   6  -3 6971.50 661.322   3
   1   6  -3 7013.11 608.062   5
   1   6  -2 38481.5 1505.20   5
   1   6  -2 39589.0 1686.78   3
   1   6  -2 40209.2 1967.38   6
   1   6  -1 26276.8 1362.60   3
   1   6  -1 27468.2 1163.72   5
   1   6   0 2834.84 527.644   3
   1   6   0 1765.96 322.746   5
   1   6   1 4587.72 449.676   5
   1   6   1 5390.00 686.244   3
   1   6   2 1197.40 282.257   5
   1   6   2 780.845 467.121   3
   1   6   3 36238.0 1330.08   5
  -1  -6  -3 33683.3 1754.45   7
   1   6   3 34895.9 1752.69   3
  -1  -6  -4 26861.0 1545.83   7
   1   6   4 26661.3 1543.32   3
  -1  -6  -5 25539.3 1507.58   7
   1   6   5 24119.7 1514.89   3
   1   6   6 3871.04 779.250   3
  -1  -6  -6 4662.36 684.374   7
  -1  -6  -7 2317.38 540.691   7
   1   6   7 2356.18 722.012   3
   1   6   8 6277.50 935.941   3
  -1  -6  -8 5573.48 761.145   7
  -1  -6  -9 26519.1 1603.56   7
   1   6   9 27320.6 1812.34   3
   1   6  10 6195.03 1054.83   3
  -1  -6 -10 6139.54 792.365   7
   1   6  11 3863.88 880.813   3
  -1  -6 -11 3648.46 678.068   7
   1   6  12 4539.12 966.307   3
  -1  -6 -12 4411.49 738.675   7
  -1  -6 -13 2840.66 636.620   7
   1   7  -9 2722.14 774.320   6
   1   7  -8 6782.51 1033.25   6
   1   7  -7 16416.9 1467.49   6
   1   7  -6 741.601 536.661   6
   1   7  -5 2072.84 670.921   6
   1   7  -4 2573.09 659.548   6
   1   7  -3 15616.8 1103.27   3
   1   7  -3 17815.8 1405.96   6
   1   7  -2 12471.1 1166.41   6
   1   7  -2 13151.3 1028.31   3
   1   7  -1 27109.0 1727.47   6
   1   7  -1 29090.0 1569.71   3
   1   7   0 2745.31 576.008   3
   1   7   1 3653.17 683.960   3
   1   7   2 1725.02 569.177   3
   1   7   3 23835.7 1551.04   3
  -1  -7  -4 12513.6 1155.24   7
   1   7   4 10594.5 1093.09   3
  -1  -7  -5 8613.74 975.925   7
   1   7   5 10070.5 1110.85   3
   1   7   6 5987.92 932.768   3
  -1  -7  -6 6906.21 901.549   7
   1   7   7 3004.14 784.111   3
  -1  -7  -7 4358.52 732.181   7
  -1  -7  -8 879.453 490.113   7
   1   7   8 1546.70 734.761   3
   1   7   9 27653.5 1938.80   3
  -1  -7  -9 27749.0 1794.73   7
   1   7  10 3526.29 912.945   3
  -1  -7 -10 1876.49 596.417   7
  -1  -7 -11 685.973 491.891   7
  -1  -7 -12 2812.01 674.327   7
   1   8  -7 20299.8 1741.31   6
   1   8  -6 2094.51 746.720   6
   1   8  -5 1674.95 675.371   6
   1   8  -4 1637.21 637.754   6
   1   8  -3 14127.4 1364.81   6
   1   8  -2 11177.1 1232.23   6
   1   8  -1 11408.3 1091.22   3
   1   8  -1 10974.0 1219.11   6
   1   8   0 2668.29 685.318   3
   1   8   1 2721.58 690.976   3
   1   8   2-137.401 548.727   3
   1   8   3 29298.9 1856.23   3
   1   8   4 8227.69 1046.58   3
   1   8   5 4635.01 867.620   3
  -1  -8  -5 4986.71 850.239   7
   1   8   6 6554.43 1070.95   3
  -1  -8  -6 8734.06 1087.70   7
   1   8   7 125.672 649.358   3
  -1  -8  -7 347.753 499.119   7
  -1  -8  -8 3907.74 774.400   7
  -1  -8  -9 20375.3 1659.38   7
  -1  -8 -10 775.848 471.572   7
   1   9   2 2184.14 726.705   3
   1   9   3 16892.4 1520.78   3
  -2   7   1 7472.72 1107.08   3
  -2   7   0 5244.00 958.022   3
  -2   7  -1 14325.8 1418.34   3
   2  -6  -7 3584.75 803.731   7
  -2   6   7 6371.34 1083.94   3
  -2   6   6 4257.49 929.961   3
   2  -6  -6 3694.47 791.252   7
  -2   6   5 26059.5 1678.87   5
   2  -6  -5 25385.3 1873.78   7
  -2   6   5 27080.9 1915.46   3
  -2   6   4 482.829 585.857   3
   2  -6  -4 330.964 455.556   7
  -2   6   4 561.548 489.871   5
  -2   6   3-243.190 557.138   3
  -2   6   3 407.681 424.125   5
   2  -6  -3 1037.78 613.640   7
  -2   6   2 1489.50 640.224   3
   2  -6  -2 2873.66 739.119   7
  -2   6   2 1659.17 552.372   5
  -2   6   1 17832.7 1503.99   3
  -2   6   1 17915.0 1349.99   5
   2  -6  -1 19029.1 1557.27   7
   2  -6   0 10507.9 1173.93   7
  -2   6   0 9858.43 1001.90   5
   2  -6   1 16553.6 1443.32   7
  -2   6  -1 18318.7 1357.10   5
  -2   6  -2 4561.52 739.742   5
  -2   6  -3 1000.56 450.480   5
  -2   6  -4 423.029 427.113   5
  -2   6  -4 190.676 380.444   6
  -2   6  -5 23676.3 1649.26   5
  -2   6  -6 3793.97 737.129   5
  -2   6  -7 3500.41 728.862   5
  -2   6  -8 3540.83 763.389   5
  -2   6  -9 1121.73 564.141   5
  -2   6 -10 3478.60 815.641   5
   2  -5 -11 21016.0 1769.26   7
  -2   5  10 541.552 669.790   3
   2  -5 -10 549.374 542.967   7
   2  -5  -9 61.7562 455.337   7
  -2   5   9 660.087 646.078   3
   2  -5  -8 4026.17 820.977   7
  -2   5   8 4133.27 907.185   3
  -2   5   7 7015.73 1016.22   3
   2  -5  -7 7907.58 1021.16   7
  -2   5   6 11476.4 1215.44   3
   2  -5  -6 10684.9 1132.01   7
  -2   5   6 8755.91 974.552   5
  -2   5   5 37984.1 1943.45   5
  -2   5   5 35459.9 2053.62   3
   2  -5  -5 33957.0 2025.97   7
  -2   5   4 385.764 453.357   3
  -2   5   4 16.7755 379.833   5
   2  -5  -4 351.488 453.556   7
  -2   5   3 841.721 482.429   3
  -2   5   3 1162.04 453.601   5
   2  -5  -3 2367.69 596.057   7
  -2   5   2 4384.97 763.925   3
  -2   5   2 4392.49 673.620   5
   2  -5  -2 3447.29 674.648   7
  -2   5   1 33764.8 1778.43   5
   2  -5  -1 37601.8 2028.51   7
  -2   5   0 16449.3 1188.40   5
   2  -5   0 14109.2 1217.27   7
  -2   5  -1 15183.2 1154.30   5
   2  -5   1 13203.7 1174.16   7
   2  -5   2 5975.62 820.124   7
  -2   5  -2 5616.52 742.532   5
  -2   5  -3 1730.92 485.659   5
  -2   5  -4 338.068 386.748   5
  -2   5  -5 34698.3 1905.30   5
  -2   5  -5 34105.2 1665.98   6
  -2   5  -6 7999.38 806.842   6
  -2   5  -6 8522.82 955.602   5
  -2   5  -7 5969.00 838.666   5
  -2   5  -8 7876.47 960.462   5
  -2   5  -9 1573.12 584.646   5
  -2   5 -10 3407.83 704.134   5
  -2   5 -11 16446.0 1488.99   5
  -2   4  12 5315.66 1058.54   3
   2  -4 -12 4443.56 874.470   7
  -2   4  11 28457.9 1952.34   3
   2  -4 -11 23397.6 1781.01   7
   2  -4 -10 2511.74 698.487   7
  -2   4  10 1575.68 651.321   3
   2  -4  -9 5416.63 876.341   7
  -2   4   9 5924.51 961.678   3
  -2   4   8 5775.68 916.806   3
   2  -4  -8 5866.33 841.435   7
  -2   4   7 18200.0 1441.45   3
   2  -4  -7 16741.0 1351.44   7
  -2   4   6 18040.6 1281.43   5
  -2   4   6 19415.8 1408.79   3
   2  -4  -6 15301.8 1261.13   7
  -2   4   5 32124.2 1696.56   5
   2  -4  -5 30661.5 1766.75   7
  -2   4   5 29934.0 1740.97   3
  -2   4   4 2117.02 593.496   3
  -2   4   4 3161.86 580.268   5
   2  -4  -4 2244.97 547.069   7
  -2   4   3 2865.70 625.432   3
  -2   4   3 2235.79 489.564   5
  -2   4   3 2550.59 401.392   1
   2  -4  -3 3533.37 630.132   7
   2  -4  -2 2607.63 529.054   7
  -2   4   2 1803.47 464.224   5
  -2   4   1 39737.2 1814.78   5
   2  -4  -1 39662.8 1928.41   7
   2  -4   0 27051.9 1553.49   7
  -2   4   0 26757.5 1463.04   5
  -2   4  -1 17682.4 1188.54   5
   2  -4   1 19045.5 1282.76   7
  -2   4  -2 13998.4 1050.81   5
   2  -4   2 11248.5 982.392   7
  -2   4  -3 3012.39 559.854   5
   2  -4   3 2812.08 558.854   7
  -2   4  -4 12481.7 1032.59   5
  -2   4  -5 41957.8 1962.54   5
  -2   4  -5 38824.9 1639.42   6
  -2   4  -6 9136.20 918.888   5
  -2   4  -6 9384.54 771.514   6
  -2   4  -7 2625.67 479.802   6
  -2   4  -7 2508.02 593.576   5
  -2   4  -8 3919.24 726.134   5
  -2   4  -9 4408.86 747.362   5
   2  -4   9 3564.85 696.335   2
   2  -4  10 11780.8 1235.62   2
  -2   4 -10 12441.6 1220.17   5
   2  -4  11 16378.7 1479.00   2
  -2   4 -11 15161.2 1381.70   5
   2  -4  12 288.515 492.082   2
  -2   3  14 1699.98 796.794   3
  -2   3  13 4731.27 956.736   3
  -2   3  12 8831.83 1123.48   3
  -2   3  11 15928.5 1408.24   3
  -2   3  10 1631.68 664.186   3
  -2   3   9 2606.36 718.705   3
   2  -3  -9 2689.66 449.288   1
  -2   3   8 294.636 532.290   3
  -2   3   7 14691.5 1203.39   3
  -2   3   6 32292.4 1722.71   3
   2  -3  -6 31456.7 1718.84   7
  -2   3   6 33696.4 1703.67   5
  -2   3   5 36607.1 1738.65   5
  -2   3   5 36566.6 1786.20   3
   2  -3  -5 34578.4 1774.20   7
  -2   3   4 13865.4 798.403   1
  -2   3   4 13573.3 1012.23   5
  -2   3   4 13893.4 1068.44   3
   2  -3  -4 14225.4 1077.15   7
  -2   3   3 11035.1 907.563   5
   2  -3  -3 11340.2 945.243   7
  -2   3   3 10721.2 714.294   1
   2  -3  -2 4765.18 639.898   7
  -2   3   2 4184.26 461.286   1
  -2   3   2 4755.69 605.788   5
  -2   3   1 49351.8 1937.44   5
   2  -3  -1 47479.4 1970.17   7
  -2   3   0 23831.8 1262.04   5
   2  -3   0 21125.9 1226.67   7
  -2   3  -1 6316.71 676.656   5
   2  -3   1 6354.88 671.986   7
  -2   3  -2 7730.93 765.895   5
   2  -3   2 7651.67 725.995   7
  -2   3  -3 17787.0 1110.02   5
   2  -3   3 15244.9 1023.33   7
  -2   3  -4 20133.1 1217.60   5
  -2   3  -5 61065.2 2340.90   5
  -2   3  -5 61060.6 1965.59   6
  -2   3  -6 16572.0 1163.50   5
   2  -3   6 16914.1 1177.88   2
  -2   3  -6 17232.2 906.318   6
  -2   3  -7 12015.9 1019.48   5
  -2   3  -7 12055.5 796.744   6
   2  -3   7 11280.3 1022.28   2
  -2   3  -8 11217.6 1019.14   5
   2  -3   8 9100.31 970.541   2
   2  -3   9 4562.45 763.107   2
   2  -3  10 25317.2 1675.73   2
   2  -3  11 13640.8 1287.47   2
   2  -3  12 1548.53 688.060   2
   2  -3  13 3215.56 760.517   2
   2  -3  14-246.301 617.907   2
  -2   2  16 1482.20 870.643   3
  -2   2  15 607.730 731.499   3
  -2   2  14 996.721 680.462   3
  -2   2  13 5073.60 935.650   3
  -2   2  12 21332.1 1547.12   3
   2  -2 -12 23480.7 1399.29   1
   2  -2 -11 29956.9 1545.70   1
  -2   2  11 29137.1 1752.06   3
  -2   2  10 2695.89 722.259   3
   2  -2 -10 1989.30 480.514   1
  -2   2   9 6602.20 855.927   3
   2  -2  -9 8045.73 748.953   1
   2  -2  -8 3806.76 510.647   1
  -2   2   8 4389.04 740.646   3
   2  -2  -7 30653.7 1353.65   1
  -2   2   7 31590.4 1612.96   3
   2  -2  -6 60016.8 2013.79   1
  -2   2   6 60646.8 2302.94   3
  -2   2   5 11412.7 909.047   5
   2  -2  -5 9494.84 683.875   1
  -2   2   5 10548.8 876.140   3
  -2   2   4 4967.08 602.283   3
  -2   2   4 4815.51 620.277   5
   2  -2  -3 11598.9 872.269   7
  -2   2   3 12988.4 741.870   1
  -2   2   3 12058.4 893.110   5
  -2   2   2 10536.4 795.482   5
   2  -2  -2 11272.9 830.223   7
  -2   2   2 10292.9 669.560   1
  -2   2   1 106028. 2899.29   1
  -2   2   1 103881. 3067.08   5
   2  -2  -1 102496. 3083.56   7
  -2   2   0 87859.0 2731.36   5
   2  -2   0 89860.3 2728.72   7
  -2   2  -1 22817.4 1166.62   5
   2  -2   1 23167.3 1125.39   7
   2  -2   2 27406.3 1261.85   7
  -2   2  -2 27150.7 1223.70   2
  -2   2  -2 27979.2 1329.61   5
  -2   2  -3 2849.82 476.569   5
   2  -2   3 1967.96 409.057   7
  -2   2  -4 51480.2 1929.73   5
  -2   2  -5 45494.6 1832.26   5
   2  -2   5 42012.5 1741.67   2
  -2   2  -5 45736.1 1413.00   6
  -2   2  -6 18344.6 813.923   6
   2  -2   6 18265.7 1119.37   2
   2  -2   7 18374.3 1180.50   2
   2  -2   8 8087.54 845.299   2
   2  -2   9 11894.9 1045.27   2
   2  -2  10 41757.0 2076.34   2
   2  -2  11 14028.7 1220.12   2
   2  -2  12 1675.07 538.105   2
   2  -2  13 6919.14 1015.40   2
   2  -2  14 4239.72 868.125   2
   2  -2  15 8112.44 1122.87   2
  -2   1  15 4397.42 890.483   3
   2  -1 -14 1223.39 531.434   1
  -2   1  14 2402.14 726.856   3
  -2   1  13 4901.01 864.572   3
   2  -1 -13 5367.22 769.618   1
   2  -1 -12 22488.1 1420.08   1
  -2   1  12 22631.5 1483.46   3
   2  -1 -11 11290.9 975.168   1
  -2   1  11 10559.8 1046.98   3
  -2   1  10 851.081 563.105   3
   2  -1 -10 2109.57 497.681   1
   2  -1  -9 8851.14 798.841   1
  -2   1   9 6786.96 826.487   3
  -2   1   8 4601.63 662.944   3
   2  -1  -8 5046.93 603.576   1
   2  -1  -7 32118.2 1405.86   1
  -2   1   7 30112.4 1438.20   3
   2  -1  -6 83039.7 2522.60   1
  -2   1   6 78604.4 2562.98   3
  -2   1   5 13109.2 868.679   3
   2  -1  -5 12471.8 790.016   1
   2  -1  -4 14339.0 811.913   1
  -2   1   4 14777.3 932.344   5
  -2   1   4 13906.2 862.947   3
  -2   1   3 16498.1 822.108   1
   2  -1  -3 16212.8 836.702   1
  -2   1   3 16015.0 933.549   5
  -2   1   2 62458.5 1908.57   1
   2  -1  -2 62803.8 2058.80   5
  -2   1   2 62532.3 2059.03   5
   2  -1  -1 26918.0 1147.96   5
  -2   1   1 22690.7 1093.06   5
  -2   1   1 25208.4 1044.87   1
   2  -1   0 66106.4 2009.98   5
  -2   1   0 57704.3 1945.25   5
   2  -1   0 60138.2 1895.09   7
   2  -1   1 8884.60 636.132   5
   2  -1   1 8409.22 605.940   7
  -2   1  -1 10040.2 724.676   5
   2  -1   2 7298.45 568.346   5
  -2   1  -2 7676.11 527.399   7
  -2   1  -2 6795.73 501.926   2
   2  -1   2 7093.94 528.511   7
  -2   1  -2 7562.34 619.672   5
  -2   1  -3 13895.5 750.075   2
  -2   1  -3 15357.0 749.757   7
   2  -1   3 14052.8 731.096   7
   2  -1   3 14565.6 761.999   2
  -2   1  -3 14963.7 873.209   5
  -2   1  -4 113667. 3213.21   5
   2  -1   4 112754. 3048.98   2
  -2   1  -4 114440. 3073.04   2
  -2   1  -4 116102. 2969.28   7
  -2   1  -4 112560. 2606.15   6
  -2   1  -5 35644.1 1422.71   2
   2  -1   5 33001.9 1348.56   2
  -2   1  -5 34263.6 1248.16   7
  -2   1  -5 32834.5 989.082   6
  -2   1  -6 11979.0 701.979   7
   2  -1   6 11838.5 812.830   2
  -2   1  -7 18013.0 911.141   7
   2  -1   7 18559.4 1081.74   2
   2  -1   8 5397.56 682.765   2
   2  -1   8 3959.08 342.218   6
   2  -1   9 8675.39 546.108   6
   2  -1   9 8049.99 859.312   2
   2  -1  10 40645.6 1445.75   6
   2  -1  10 40167.1 1955.89   2
   2  -1  11 5656.98 831.656   2
   2  -1  12 5578.80 821.161   2
   2  -1  13 5501.09 856.365   2
   2  -1  14 2571.53 701.647   2
   2  -1  15 4673.70 952.663   2
   2  -1  16 12533.8 1414.90   2
  -2   0  14 628.204 565.675   3
  -2   0  13 6285.08 846.840   3
  -2   0  12 29589.2 1608.64   3
  -2   0  11 7481.58 810.217   3
  -2   0  10 3732.34 652.670   3
  -2   0   9 10974.2 878.553   3
  -2   0   8 11500.2 859.871   3
  -2   0   7 33374.3 1384.88   3
  -2   0   6 48186.7 1671.79   3
   2   0  -5 1033.78 348.643   1
  -2   0   5 747.930 314.516   3
   2   0  -4 8251.80 629.860   1
  -2   0   4 6835.48 531.785   3
   2   0  -3 24940.5 1096.29   5
   2   0  -3 24448.4 1060.58   1
  -2   0   3 24235.7 1103.53   5
  -2   0   2 75996.8 2172.30   1
   2   0  -2 77496.3 2232.41   5
  -2   0   2 74823.3 2228.54   5
   2   0  -2 75588.3 2183.20   1
   2   0  -1 103153. 2706.31   5
   2   0  -1 100931. 2657.65   1
  -2   0   1 96172.7 2667.40   5
  -2   0   1 98376.4 2652.43   1
   2   0   0 73802.4 2099.83   5
  -2   0   0 70825.9 2069.93   5
  -2   0   0 73225.9 2064.99   1
   2   0   1 73823.2 2088.17   5
  -2   0  -1 74785.9 2124.99   5
  -2   0  -2 4150.39 456.789   5
  -2   0  -2 4125.28 303.547   2
   2   0   2 3966.96 330.946   7
   2   0   2 4544.07 424.574   5
  -2   0  -3 7082.83 562.868   5
  -2   0  -3 6660.46 438.617   2
  -2   0  -3 7010.62 391.188   7
   2   0   3 6225.30 376.840   7
   2   0   3 6419.13 408.112   2
  -2   0  -4 116757. 2977.23   2
   2   0   4 114218. 2915.41   2
  -2   0  -4 118357. 2767.05   7
  -2   0  -5 41687.6 1536.55   3
  -2   0  -5 40274.7 1212.08   7
   2   0   5 40218.0 1403.31   2
   2   0   6 17956.7 949.082   2
   2   0   6 16648.4 588.121   6
   2   0   7 29241.5 1345.97   2
   2   0   7 30957.0 1009.76   6
   2   0   8 11875.4 885.852   2
   2   0   8 11311.3 623.967   6
   2   0   9 10449.2 958.794   2
   2   0   9 12065.9 703.453   6
   2   0  10 78293.9 2863.98   2
   2   0  10 76460.8 2352.16   6
   2   0  11 117.710 536.721   2
   2   0  12 2568.67 723.691   2
   2   0  13 5371.46 851.938   2
   2   0  14 15861.8 1432.68   2
   2   0  15 9550.25 1248.10   2
   2   0  16 14008.3 1501.61   2
  -2  -1  14 1376.04 777.631   2
  -2  -1  13 6376.56 1160.20   2
  -2  -1  12 38293.9 1717.12   3
  -2  -1  12 33004.7 2167.35   2
  -2  -1  11 1567.22 482.847   3
  -2  -1  11 2611.84 899.379   2
  -2  -1  10 885.912 428.295   3
  -2  -1   9 6495.51 637.677   3
  -2  -1   8 20895.1 1007.87   3
   2   1  -8 18881.6 928.533   3
  -2  -1   7 33810.3 1271.37   3
   2   1  -7 33524.6 1227.13   3
  -2  -1   6 84627.1 2310.32   3
  -2  -1   5 16152.4 704.621   3
  -2  -1   5 15955.2 640.175   4
  -2  -1   4 3114.57 317.066   3
   2   1  -4 2202.48 385.289   5
  -2  -1   4 3646.00 385.040   4
   2   1  -3 3048.38 393.087   5
  -2  -1   3 2807.68 265.811   3
   2   1  -2 117591. 3030.48   1
   2   1  -2 114265. 2927.93   5
  -2  -1   2 113498. 2927.62   5
   2   1  -1 57134.7 1618.93   5
  -2  -1   1 54489.8 1602.94   5
   2   1  -1 55925.6 1715.26   1
  -2  -1   1 56281.4 1718.13   6
   2   1   0 106146. 2578.79   5
  -2  -1   0 100281. 2328.35   2
  -2  -1   0 102949. 2567.71   5
   2   1   0 107944. 2696.44   1
  -2  -1   0 103460. 2676.50   1
  -2  -1   0 106563. 2612.57   6
   2   1   1 61524.6 1844.48   1
   2   1   1 65684.5 1752.54   5
  -2  -1  -1 66126.4 1780.17   5
  -2  -1  -1 66666.3 1859.61   1
  -2  -1  -1 65920.0 1698.36   6
   2   1   1 69801.2 1743.69   6
  -2  -1  -2 3521.96 333.534   5
  -2  -1  -2 3868.89 383.131   3
   2   1   2 3952.06 277.077   6
  -2  -1  -3 9375.56 587.421   3
  -2  -1  -4 205564. 4846.61   3
   2   1   4 199169. 4880.53   3
   2   1   5 16322.3 910.912   3
  -2  -1  -5 15872.1 852.667   3
   2   1   6 803.798 397.782   3
   2   1   7 35284.0 1519.26   3
   2   1   8 19979.8 1171.75   3
   2   1   9 17794.9 1147.95   3
   2   1  10 67325.5 2533.52   3
  -2  -1 -11 780.846 461.689   4
   2   1  11 896.538 547.229   3
   2   1  12 1804.02 595.149   3
  -2  -1 -12 2123.14 384.019   4
   2   1  13 7384.61 1048.47   2
   2   1  13 8088.83 977.081   3
   2   1  14 12682.8 1217.76   3
   2   1  14 14992.4 1450.57   2
   2   1  15 5225.15 882.176   3
   2   1  15 6039.56 1045.52   2
   2   1  16 7363.68 1247.22   2
   2   1  16 7085.00 1043.24   3
   2   1  17 603.050 753.807   2
  -2  -2  14 2600.17 863.313   2
  -2  -2  13 3875.45 931.207   2
  -2  -2  12 20644.8 1691.16   2
  -2  -2  11 1531.18 362.675   3
  -2  -2  11 706.061 621.576   2
  -2  -2  10 229.182 695.369   2
  -2  -2  10 958.414 317.158   3
  -2  -2   9 13667.6 781.349   3
  -2  -2   9 11600.6 1136.93   2
  -2  -2   8 38546.5 1332.43   3
  -2  -2   8 33287.0 1819.78   2
   2   2  -8 38423.1 1279.30   3
  -2  -2   7 22961.2 898.271   3
  -2  -2   7 19429.2 1291.89   2
   2   2  -7 22966.7 854.298   3
  -2  -2   6 49712.4 1394.51   3
   2   2  -6 49914.2 1360.42   3
  -2  -2   5 1138.53 183.008   3
  -2  -2   5 1481.06 496.121   2
  -2  -2   4 189.973 94.1880   3
  -2  -2   4 502.514 356.082   2
   2   2  -3 4751.76 417.242   5
  -2  -2   3 4909.90 526.642   6
  -2  -2   3 3888.58 472.276   2
   2   2  -2 164897. 3883.85   2
   2   2  -2 155147. 4047.59   6
   2   2  -2 160051. 3699.21   5
  -2  -2   2 159499. 3982.79   6
   2   2  -2 152301. 3818.79   4
  -2  -2   2 153925. 3783.86   4
  -2  -2   2 150454. 3809.75   2
   2   2  -1 57866.0 1639.63   2
   2   2  -1 58597.0 1524.15   5
  -2  -2   1 56286.7 1757.67   6
   2   2  -1 56221.5 1759.57   4
  -2  -2   1 55779.7 1690.08   4
  -2  -2   1 54863.6 1606.24   2
   2   2  -1 57505.5 1797.36   6
   2   2   0 26034.8 1015.04   1
   2   2   0 27555.0 786.484   3
   2   2   0 24125.2 782.185   5
  -2  -2   0 26812.4 1020.37   6
  -2  -2   0 26461.9 792.366   5
   2   2   0 27049.5 1114.35   4
  -2  -2   0 24859.2 1026.43   4
  -2  -2   0 27499.1 877.746   2
   2   2   0 26129.6 1040.43   6
   2   2   0 28102.8 888.572   2
  -2  -2   0 26910.0 774.211   3
   2   2   1 56645.7 1523.30   3
  -2  -2  -1 57073.2 1402.56   5
  -2  -2  -1 57737.6 1524.87   3
   2   2   1 55457.9 1635.36   1
  -2  -2  -1 56973.9 1757.96   4
   2   2   1 59898.1 1487.31   2
   2   2   1 57430.2 1669.82   6
   2   2   1 56381.0 1399.39   5
  -2  -2  -1 57538.7 1636.59   1
  -2  -2  -2 18718.2 763.141   3
  -2  -2  -2 18938.2 617.221   5
  -2  -2  -2 17232.1 891.066   4
  -2  -2  -2 17409.3 746.860   1
   2   2   2 18434.2 774.966   3
   2   2   2 18645.1 751.262   1
  -2  -2  -3 7116.72 627.442   4
  -2  -2  -3 7202.47 457.175   1
   2   2   3 6865.01 299.948   7
   2   2   3 7863.26 573.361   3
  -2  -2  -3 7386.99 515.585   3
  -2  -2  -4 165840. 3554.80   7
  -2  -2  -4 162949. 4039.31   3
  -2  -2  -4 161817. 4032.65   4
   2   2   4 159574. 4037.85   3
   2   2   5 6145.97 637.286   3
  -2  -2  -5 6335.85 295.493   7
  -2  -2  -5 6752.49 565.693   3
  -2  -2  -5 5950.98 557.706   4
  -2  -2  -6 13001.6 766.677   4
   2   2   6 14561.9 924.403   3
   2   2   7 27208.2 1323.74   3
  -2  -2  -7 26244.7 1096.81   4
   2   2   8 14153.4 1026.76   3
  -2  -2  -8 14225.0 775.980   4
   2   2   9 18935.9 1212.58   3
  -2  -2  -9 20377.7 917.143   4
   2   2  10 45172.5 2036.74   3
  -2  -2 -10 46515.4 1525.88   4
   2   2  11 879.789 588.981   3
   2   2  12 754.383 583.954   3
   2   2  13 3707.45 776.063   3
   2   2  14 22269.6 1604.67   3
   2   2  15 11255.4 1265.18   3
   2   2  16 13807.1 1373.69   3
   2   2  17 2245.86 753.713   3
   2   2  17 4531.15 1178.33   2
  -2  -3  14 3846.94 901.392   2
  -2  -3  13 6869.54 1116.74   2
  -2  -3  12 19918.1 1650.79   2
  -2  -3  11 1218.90 571.438   2
  -2  -3  10 93.2097 491.317   2
  -2  -3   9 779.936 547.248   2
   2   3  -8 35542.5 1343.26   4
  -2  -3   8 31720.1 1778.69   2
   2   3  -7 24642.8 1089.38   4
   2   3  -7 24336.3 794.508   3
  -2  -3   7 21772.6 1390.96   2
   2   3  -6 32690.8 1270.84   4
   2   3  -6 31664.4 888.301   3
  -2  -3   6 31486.3 1599.14   2
   2   3  -5 19227.6 914.284   4
  -2  -3   5 16430.6 1082.42   2
   2   3  -4 4363.44 649.063   6
  -2  -3   4 3871.69 520.321   2
   2   3  -4 4282.21 467.360   4
   2   3  -3 2228.51 493.731   6
  -2  -3   3 2291.51 416.191   2
   2   3  -3 3610.55 514.301   2
   2   3  -3 2908.82 407.136   4
   2   3  -2 146892. 3713.06   2
  -2  -3   2 135868. 3678.69   2
   2   3  -2 145176. 3643.61   4
   2   3  -2 134047. 3777.22   6
   2   3  -1 16920.4 593.143   5
   2   3  -1 16031.3 928.596   6
   2   3  -1 16577.1 552.875   3
   2   3  -1 17286.7 861.082   2
   2   3  -1 19007.8 912.497   4
  -2  -3   1 17063.0 863.281   2
   2   3   0 4949.62 511.061   4
  -2  -3   0 3110.59 270.216   3
   2   3   0 4349.29 425.081   2
   2   3   0 3476.96 305.667   3
   2   3   0 3764.22 492.571   6
   2   3   1 21145.8 882.542   2
   2   3   1 18650.7 796.691   1
   2   3   1 20033.2 842.721   7
   2   3   1 21290.9 987.014   4
  -2  -3  -1 18228.3 748.658   3
   2   3   1 18591.6 760.299   3
   2   3   2 16945.8 701.873   1
   2   3   2 17534.8 913.559   4
  -2  -3  -2 18397.2 794.034   3
   2   3   2 17069.9 750.373   7
   2   3   2 17683.5 793.018   3
   2   3   3 15167.4 803.523   3
   2   3   3 15783.7 686.916   7
   2   3   3 16251.1 877.267   4
  -2  -3  -3 16311.1 807.478   3
   2   3   4 149158. 3462.62   7
   2   3   4 154298. 3818.23   4
  -2  -3  -4 147564. 3736.93   3
  -2  -3  -4 138076. 3323.00   1
  -2  -3  -4 143869. 3439.94   7
   2   3   4 144363. 3722.10   3
   2   3   5 2065.03 502.224   3
  -2  -3  -5 2275.61 235.239   1
   2   3   5 2809.43 538.938   4
  -2  -3  -5 2200.82 267.771   7
  -2  -3  -6-50.1684 157.926   7
   2   3   6 787.554 511.499   4
   2   3   6 95.6294 434.185   3
   2   3   7 13603.1 993.827   3
  -2  -3  -7 14400.3 693.410   7
  -2  -3  -8 38918.9 1345.71   7
   2   3   8 37270.9 1736.52   3
   2   3   9 23218.2 1384.79   3
   2   3  10 47495.4 2123.22   3
   2   3  11 2443.64 720.047   3
   2   3  12 2970.31 784.459   3
   2   3  13 2078.82 767.929   3
   2   3  14 21062.8 1625.54   3
   2   3  15 9344.05 1158.10   3
   2   3  16 1470.36 714.302   3
   2   3  17 2198.91 816.921   3
  -2  -4  13 5505.86 1038.82   2
  -2  -4  12 13548.6 1413.24   2
  -2  -4  11 209.131 469.828   2
  -2  -4  10 826.044 574.077   2
  -2  -4   9 2783.99 695.888   2
  -2  -4   8 33710.6 1896.91   2
  -2  -4   7 15044.0 1208.65   2
   2   4  -6 20496.4 1373.11   6
  -2  -4   6 17104.4 1233.15   2
   2   4  -6 17344.7 607.186   3
   2   4  -5 9507.40 413.728   3
  -2  -4   5 10218.9 907.396   2
   2   4  -5 11876.7 1007.67   6
   2   4  -4 356.550 112.875   3
   2   4  -4 315.441 117.402   3
  -2  -4   4 350.162 355.944   2
   2   4  -4 831.100 469.993   6
  -2  -4   3 5006.00 607.201   2
   2   4  -3 5433.44 312.629   3
   2   4  -3 4678.68 626.978   6
  -2  -4   2 104424. 3134.88   2
   2   4  -2 104729. 3179.11   6
   2   4  -2 104608. 2519.42   3
   2   4  -1 30268.0 1010.22   3
   2   4  -1 31952.1 1438.54   6
   2   4   0 10130.1 803.236   6
   2   4   0 10967.9 597.865   3
   2   4   1 48922.5 1555.08   3
  -2  -4  -2 14536.1 790.534   3
   2   4   2 14518.8 647.966   1
   2   4   2 14267.8 801.063   7
   2   4   2 14717.2 808.822   3
   2   4   3 30926.1 1211.54   7
  -2  -4  -3 28173.1 803.097   5
  -2  -4  -3 32880.1 1291.49   3
   2   4   3 30873.4 1269.77   3
   2   4   3 30647.0 941.249   1
  -2  -4  -4 86439.5 2138.51   5
   2   4   4 88275.9 2488.16   7
  -2  -4  -4 86727.7 2466.42   7
   2   4   4 82265.7 2591.02   3
  -2  -4  -5 9020.61 619.735   7
  -2  -4  -5 9290.43 517.751   5
   2   4   5 9134.53 794.472   3
  -2  -4  -6 6293.81 488.436   5
   2   4   6 4873.50 692.779   3
  -2  -4  -6 5767.83 505.277   7
  -2  -4  -7 8505.42 354.671   1
  -2  -4  -7 9821.14 651.816   7
   2   4   7 10681.9 921.399   3
   2   4   8 33786.4 1713.08   3
  -2  -4  -8 34976.9 1023.98   1
  -2  -4  -8 36052.7 1410.41   7
  -2  -4  -9 28618.8 1266.23   7
   2   4   9 28617.6 1622.45   3
   2   4  10 24020.4 1588.73   3
  -2  -4 -10 25489.1 1225.38   7
   2   4  11 3387.52 812.532   3
  -2  -4 -11 2958.70 449.300   7
   2   4  12 1022.58 731.580   3
  -2  -4 -12 2020.58 418.039   7
   2   4  13 932.105 697.778   3
  -2  -4 -13 1678.35 413.871   7
   2   4  14 22249.0 1728.00   3
   2   4  15 9997.50 1266.64   3
   2   4  16 3855.63 962.020   3
  -2  -5  12 7358.53 1122.21   2
  -2  -5  11 303.573 589.411   2
  -2  -5  10 1063.03 593.410   2
  -2  -5   9 2530.22 727.590   2
  -2  -5   8 27208.1 1788.76   2
  -2  -5   7 18591.1 1431.07   2
   2   5  -7 22381.8 1583.04   6
  -2  -5   6 13621.6 1171.04   2
   2   5  -6 14108.7 1203.46   6
   2   5  -5 17380.7 710.973   3
  -2  -5   5 17195.1 1283.52   2
   2   5  -5 19130.8 1346.21   6
  -2  -5   4 5207.62 723.581   2
   2   5  -4 5520.75 401.368   3
   2   5  -4 5285.48 750.578   6
   2   5  -3 19521.8 1259.63   6
   2   5  -3 19272.9 809.664   3
   2   5  -2 78329.9 2101.75   5
   2   5  -2 77514.3 2174.37   3
   2   5  -2 76702.1 2755.27   6
   2   5  -1 5432.35 336.569   5
   2   5  -1 5056.47 462.366   3
   2   5  -1 4886.09 678.619   6
   2   5   0 768.316 318.071   3
   2   5   0 389.816 94.3791   5
   2   5   1 6098.90 576.947   3
   2   5   2 11818.2 813.299   3
   2   5   3 45663.0 1286.88   1
   2   5   3 42804.7 1712.59   3
  -2  -5  -3 43103.4 1141.39   5
  -2  -5  -4 55513.2 1530.11   5
  -2  -5  -4 56485.2 2010.44   7
   2   5   4 56781.5 2090.85   3
  -2  -5  -5 9189.64 533.697   5
  -2  -5  -5 8955.90 725.433   7
   2   5   5 9888.28 881.172   3
  -2  -5  -6 5211.57 456.873   5
   2   5   6 6926.95 828.970   3
  -2  -5  -6 5277.39 571.169   7
  -2  -5  -7 6376.65 548.611   5
   2   5   7 6274.57 830.888   3
  -2  -5  -7 6923.71 646.117   7
  -2  -5  -8 21316.9 1158.36   7
   2   5   8 21121.7 1422.66   3
  -2  -5  -9 30295.6 1431.22   7
   2   5   9 29405.4 1750.33   3
  -2  -5 -10 9903.82 813.983   7
   2   5  10 9960.36 1095.54   3
   2   5  11 6111.39 971.836   3
  -2  -5 -11 5217.84 628.993   7
  -2  -5 -12 3163.06 534.964   7
   2   5  12 2028.32 807.765   3
   2   5  13 4430.99 986.443   3
   2   5  14 12981.8 1415.59   3
   2   5  15 7401.72 1184.47   3
  -2  -6  10 2003.14 800.848   2
  -2  -6   9 4241.94 850.725   2
  -2  -6   8 20654.8 1670.68   2
   2   6  -8 24540.1 1777.26   6
  -2  -6   7 9670.27 1139.63   2
   2   6  -7 9696.62 1137.30   6
   2   6  -6 859.209 530.231   6
  -2  -6   6 799.500 433.681   2
   2   6  -5 2969.77 701.979   6
   2   6  -4 4551.47 492.171   5
   2   6  -4 5611.58 499.541   3
   2   6  -4 5257.14 795.307   6
   2   6  -3 21530.9 963.870   5
   2   6  -3 20650.7 994.227   3
   2   6  -3 21390.5 1441.60   6
   2   6  -2 38102.1 1306.59   5
   2   6  -2 39429.0 1494.05   3
   2   6  -2 39468.3 1955.13   6
   2   6  -1 14007.9 626.417   5
   2   6  -1 13735.3 866.153   3
   2   6  -1 15234.5 1160.11   6
   2   6   0 5443.87 320.631   5
   2   6   0 6563.28 649.829   3
   2   6   1 10238.2 853.425   3
   2   6   2 10532.3 855.438   3
   2   6   3 36935.6 1714.67   3
   2   6   3 40400.7 1228.52   1
   2   6   4 25413.9 1447.14   3
   2   6   5 5387.70 784.218   3
  -2  -6  -5 5510.40 657.769   7
  -2  -6  -6 6789.82 727.739   7
   2   6   6 7618.08 910.821   3
   2   6   7 9174.08 1013.35   3
  -2  -6  -7 7847.76 782.338   7
  -2  -6  -8 12986.6 1006.91   7
   2   6   8 12912.7 1191.41   3
   2   6   9 30067.6 1860.93   3
  -2  -6  -9 31818.4 1629.49   7
   2   6  10 7319.64 1035.64   3
  -2  -6 -10 6996.58 776.162   7
  -2  -6 -11 7703.65 803.455   7
   2   6  11 8322.61 1123.81   3
   2   6  12 2976.66 913.041   3
  -2  -6 -12 1799.33 461.230   7
   2   6  13 6403.83 1131.58   3
   2   7  -8 14449.7 1486.57   6
   2   7  -7 16161.3 1500.97   6
   2   7  -6 2900.78 764.214   6
   2   7  -5 7879.19 1052.35   6
   2   7  -4 3596.99 765.181   6
   2   7  -3 27504.1 1768.20   6
   2   7  -2 20787.2 1155.14   3
   2   7  -2 20785.4 1534.78   6
   2   7  -1 8397.46 768.415   3
   2   7  -1 6957.19 911.018   6
   2   7   0 3745.49 608.249   3
   2   7   0 2608.03 623.764   6
   2   7   1 5162.37 688.878   3
   2   7   2 10089.6 926.615   3
   2   7   3 46488.9 2095.71   3
   2   7   4 12095.0 1087.96   3
   2   7   5 2777.73 701.235   3
   2   7   6 8547.75 1012.89   3
  -2  -7  -6 6593.89 815.180   7
   2   7   7 4062.94 824.803   3
  -2  -7  -7 3416.47 633.302   7
  -2  -7  -8 21971.5 1452.21   7
   2   7   8 24131.3 1722.90   3
  -2  -7  -9 30180.6 1731.16   7
   2   7   9 27299.6 1873.19   3
   2   7  10-24.6351 625.981   3
  -2  -7 -10 334.200 322.739   7
   2   7  11 3116.76 901.509   3
  -2  -7 -11 3003.97 630.236   7
   2   8  -7 4800.97 974.856   6
   2   8  -6 622.845 634.352   6
   2   8  -5 831.159 596.948   6
   2   8  -4 641.148 545.281   6
   2   8  -3 21647.4 1691.95   6
   2   8  -2 10152.3 1182.77   6
   2   8  -1 6003.82 925.141   6
   2   8   0 7656.57 853.055   3
   2   8   0 5902.76 918.734   6
   2   8   1 2495.97 650.513   3
   2   8   2 6855.76 880.171   3
   2   8   3 29205.6 1738.75   3
   2   8   4 1616.35 682.130   3
   2   8   5 4361.18 864.557   3
   2   8   6 2745.80 764.919   3
   2   8   7 7471.31 1091.52   3
  -2  -8  -7 7881.67 957.575   7
   2   8   8 5670.74 980.679   3
  -2  -8  -8 6273.53 889.363   7
   2   8   9 14791.2 1475.99   3
  -2  -8  -9 15605.6 1348.53   7
  -2  -8 -10 580.267 481.098   7
   2   9   3 22037.0 1635.14   3
   2   9   4 1004.63 669.088   3
   2   9   5 365.198 637.076   3
   2   9   6 2704.00 883.596   3
  -3   6   6 7397.57 1069.11   5
  -3   6   5 10112.0 1194.51   5
  -3   6   4 3575.46 743.636   5
  -3   6   3 260.160 450.308   5
  -3   6   2 1081.51 657.689   3
  -3   6   2 720.306 517.994   5
   3  -6  -2 974.202 638.159   7
  -3   6   1 20008.0 1589.38   5
  -3   6   1 21555.7 1748.95   3
   3  -6  -1 22393.9 1804.15   7
  -3   6   0 4909.81 827.059   5
   3  -6   0 4597.53 861.628   7
  -3   6  -1 3058.64 707.090   5
   3  -6   1 3404.90 829.779   7
  -3   6  -2 3725.99 742.506   5
   3  -6   2 3928.46 847.743   7
  -3   6  -3 977.356 492.885   5
  -3   6  -4 737.836 516.356   5
  -3   6  -5 23481.0 1776.40   5
  -3   6  -6 131.604 518.414   5
  -3   6  -7 943.034 599.448   5
   3  -5  -7 16641.2 1569.30   7
  -3   5   7 21540.6 1762.15   3
  -3   5   6 7209.74 1071.83   3
  -3   5   6 5226.26 890.550   5
   3  -5  -6 6163.18 998.810   7
  -3   5   5 9686.52 1090.52   5
  -3   5   5 11337.3 1260.32   3
   3  -5  -5 7908.42 1071.10   7
   3  -5  -4 3203.47 712.803   7
  -3   5   4 4099.18 764.782   5
  -3   5   4 3641.99 810.789   3
  -3   5   3 1410.84 560.967   5
  -3   5   3 1592.43 614.268   3
   3  -5  -3 1189.39 579.635   7
  -3   5   2 173.934 435.780   5
   3  -5  -2-154.206 471.753   7
  -3   5   1 36343.0 2026.08   5
   3  -5  -1 36542.9 2152.58   7
  -3   5   0 2869.71 678.712   5
   3  -5   0 3029.89 661.123   7
  -3   5  -1 4157.29 744.918   5
   3  -5   1 4343.07 800.419   7
  -3   5  -2 14111.5 1248.65   5
   3  -5   2 12068.7 1202.84   7
  -3   5  -3 3257.20 656.265   5
   3  -5   3 3452.17 748.996   7
  -3   5  -4 9866.38 1105.64   5
  -3   5  -5 30117.7 1905.75   5
  -3   5  -6-467.050 471.964   5
  -3   5  -7 1076.81 523.242   5
  -3   5  -8 1480.98 589.656   5
  -3   5  -9 6934.42 1037.78   5
  -3   5 -10 2595.98 749.156   5
  -3   4  10 985.877 706.574   3
   3  -4 -10 752.139 507.464   7
  -3   4   9-24.1935 595.908   3
   3  -4  -9-671.469 537.565   7
  -3   4   8 1334.46 687.965   3
   3  -4  -8 7.76110 465.381   7
   3  -4  -7 21177.2 1645.55   7
  -3   4   7 24222.8 1724.02   3
   3  -4  -6 10679.1 1161.36   7
  -3   4   6 12010.4 1168.50   5
  -3   4   6 9527.65 1107.13   3
  -3   4   5 11212.9 1103.14   5
   3  -4  -5 9667.42 1083.23   7
  -3   4   5 9595.82 1105.23   3
  -3   4   4 9982.10 1047.80   5
   3  -4  -4 8745.28 1006.57   7
  -3   4   4 9958.56 1070.03   3
  -3   4   3 3606.31 675.976   5
   3  -4  -3 3886.64 722.700   7
  -3   4   2 2544.55 616.999   5
   3  -4  -2 2313.20 567.837   7
  -3   4   1 40077.9 2022.27   5
   3  -4  -1 41087.7 2092.08   7
   3  -4   0 4301.29 697.102   7
  -3   4   0 4012.04 690.806   5
  -3   4  -1 2546.88 578.973   5
   3  -4   1 2150.98 576.023   7
  -3   4  -2 5791.28 796.883   5
   3  -4   2 4011.81 689.241   7
  -3   4  -3 8333.63 930.557   5
   3  -4   3 8707.17 938.568   7
  -3   4  -4 8881.59 958.269   5
  -3   4  -5 45979.8 2283.23   5
  -3   4  -5 44528.1 1774.04   6
  -3   4  -6 1338.76 544.696   5
  -3   4  -7 2381.13 597.443   5
  -3   4  -8 2948.63 667.709   5
  -3   4  -9 12236.5 1224.74   5
  -3   4 -10 14192.5 1352.35   5
  -3   4 -11 7380.31 1084.00   5
  -3   4 -12 1721.42 697.391   5
   3  -4  12 610.595 539.486   2
  -3   3  13 11760.1 1391.55   3
  -3   3  12 9030.43 1208.87   3
  -3   3  11 12927.8 1364.85   3
  -3   3  10 4342.86 870.340   3
  -3   3   9 2089.27 645.755   3
  -3   3   8 969.268 614.088   3
   3  -3  -7 31930.0 1938.25   7
  -3   3   7 34855.0 1936.38   3
   3  -3  -6 11481.0 1130.82   7
  -3   3   6 13119.0 1166.21   5
  -3   3   6 13625.7 1193.24   3
  -3   3   5 4838.23 745.437   3
  -3   3   5 4128.23 736.581   5
   3  -3  -5 3680.45 669.041   7
  -3   3   4 4500.31 714.350   3
  -3   3   4 4886.30 739.035   5
   3  -3  -4 5037.23 766.867   7
   3  -3  -3 6824.20 837.937   7
  -3   3   3 6459.43 814.147   5
  -3   3   2 10039.4 950.593   5
   3  -3  -2 10730.1 983.635   7
  -3   3   1 82057.6 2968.99   5
   3  -3  -1 81605.6 2969.56   7
  -3   3   0 11583.1 998.754   5
   3  -3   0 10198.0 927.878   7
  -3   3  -1 9002.84 884.281   5
   3  -3   1 9719.40 893.191   7
  -3   3  -2 20408.7 1330.99   5
   3  -3   2 21118.1 1315.09   7
  -3   3  -3 17583.0 1264.18   5
   3  -3   3 16978.1 1167.72   7
  -3   3  -4 34471.5 1812.67   5
   3  -3   4 35137.0 1708.58   7
  -3   3  -5 26473.1 1566.49   5
  -3   3  -5 25636.4 1135.79   6
  -3   3  -6 341.612 416.934   5
  -3   3  -6 159.422 246.699   6
  -3   3  -7 4717.48 728.124   5
  -3   3  -8 2404.31 632.250   5
  -3   3  -9 20384.5 1498.60   5
   3  -3   9 18483.5 1388.08   2
  -3   3 -10 15113.4 1337.38   5
   3  -3  10 13759.2 1268.69   2
   3  -3  11 6351.69 942.524   2
  -3   3 -11 6349.44 918.604   5
   3  -3  12 3721.74 773.049   2
  -3   3 -12 4597.84 825.456   5
  -3   3 -13 114.061 444.292   5
   3  -3  13 1235.79 666.103   2
  -3   2  14 637.582 761.109   3
  -3   2  13 9282.80 1164.71   3
  -3   2  12 9339.51 1161.24   3
  -3   2  11 9035.41 1076.38   3
  -3   2  10 954.335 599.990   3
   3  -2 -10 1121.67 433.801   1
  -3   2   9 3133.16 715.673   3
   3  -2  -9 2802.62 548.322   1
  -3   2   8 4655.17 758.870   3
   3  -2  -8 4237.49 612.335   1
   3  -2  -7 49175.4 1978.09   1
  -3   2   7 46336.1 2148.95   3
  -3   2   6 20664.8 1381.63   5
  -3   2   6 20908.5 1344.84   3
   3  -2  -6 19880.1 1172.91   1
  -3   2   5 8812.18 878.630   3
  -3   2   5 10135.0 973.881   5
  -3   2   4 12830.1 1058.28   5
   3  -2  -3 2519.00 561.048   7
  -3   2   3 2837.35 569.861   5
  -3   2   2 40301.7 1820.74   5
   3  -2  -2 37838.4 1763.22   7
  -3   2   1 42797.6 1881.38   5
   3  -2  -1 45984.2 1915.71   7
  -3   2   0 6984.09 742.358   5
   3  -2   0 7477.08 732.394   7
  -3   2  -1 7035.43 750.733   5
   3  -2   1 6855.29 685.637   7
  -3   2  -2 3394.48 599.661   5
   3  -2   2 4385.95 548.041   7
  -3   2  -3 21528.4 1287.54   5
   3  -2   3 20541.7 1154.10   7
  -3   2  -4 46847.1 1986.56   5
   3  -2   4 42935.7 1760.71   7
  -3   2  -5 38319.9 1818.35   5
  -3   2  -5 39642.8 1258.64   6
  -3   2  -6 11835.7 1000.23   5
  -3   2  -6 9953.93 547.808   6
  -3   2  -7 5550.38 762.443   5
   3  -2   7 7167.14 761.006   2
   3  -2   8 1798.76 492.135   2
  -3   2  -8 2607.50 594.958   5
  -3   2  -9 17445.3 1339.21   5
   3  -2   9 15178.9 1185.54   2
   3  -2  10 24867.1 1565.92   2
   3  -2  11 7537.39 945.299   2
   3  -2  12 1066.56 551.958   2
   3  -2  13 5256.50 879.803   2
   3  -2  14 3645.77 822.389   2
   3  -2  15 10917.0 1277.20   2
  -3   1  13 11305.2 1168.83   3
   3  -1 -13 14566.3 1257.84   1
   3  -1 -12 17554.5 1337.12   1
  -3   1  12 14456.9 1277.30   3
  -3   1  11 4543.36 798.103   3
   3  -1 -11 4867.68 745.156   1
  -3   1  10 3400.96 689.319   3
   3  -1 -10 3517.81 656.652   1
  -3   1   9 6964.51 826.645   3
   3  -1  -9 8268.59 853.935   1
   3  -1  -8 13584.3 1029.75   1
  -3   1   8 11520.2 988.122   3
   3  -1  -7 34990.2 1630.68   1
  -3   1   7 33828.7 1648.95   3
   3  -1  -6 15417.2 1026.96   1
  -3   1   6 17479.2 1098.76   3
   3  -1  -5 5771.74 672.236   1
  -3   1   5 5077.67 736.028   5
  -3   1   5 6263.42 697.349   3
   3  -1  -4 6587.18 673.334   1
  -3   1   4 5436.11 713.242   5
  -3   1   3 12751.0 950.529   5
  -3   1   2 53139.9 2038.93   5
  -3   1   1 61993.8 2219.70   5
   3  -1   0 16207.4 951.446   7
  -3   1   0 16813.2 1053.69   5
  -3   1  -1 32754.0 1517.13   5
   3  -1   1 34634.1 1415.11   7
  -3   1  -2 5192.90 628.317   5
   3  -1   2 4888.18 503.905   7
  -3   1  -2 4932.04 464.869   2
  -3   1  -3 28274.8 1377.53   5
   3  -1   3 28564.3 1206.59   7
  -3   1  -3 27601.5 1158.87   2
  -3   1  -4 79656.6 2720.57   5
  -3   1  -4 87829.1 2513.23   7
   3  -1   4 85795.6 2501.47   7
  -3   1  -4 82726.8 2503.48   2
  -3   1  -5 16939.0 1074.94   5
   3  -1   5 15037.6 887.667   2
  -3   1  -5 16769.9 878.811   7
  -3   1  -5 16587.7 958.273   2
  -3   1  -5 15439.9 511.936   6
   3  -1   6 3994.38 518.219   2
  -3   1  -6 4477.18 649.257   5
  -3   1  -7 14265.8 1079.06   5
   3  -1   7 15087.9 977.949   2
   3  -1   8 6337.15 694.747   2
   3  -1   9 31328.2 1607.00   2
   3  -1  10 43408.1 2016.76   2
   3  -1  11 3904.83 674.228   2
   3  -1  12 3133.64 666.642   2
   3  -1  13 1006.53 582.648   2
   3  -1  14 14302.1 1348.38   2
   3  -1  15 9965.79 1203.25   2
   3  -1  16 5081.31 954.704   2
   3   0 -15 896.525 582.899   1
   3   0 -14 2911.85 753.601   1
   3   0 -13 11575.1 1182.42   1
   3   0 -12 19252.9 1433.57   1
  -3   0  12 18443.2 1305.66   3
  -3   0  11 3212.14 634.584   3
   3   0 -11 3156.97 700.166   1
   3   0 -10 3374.41 657.093   1
  -3   0  10 3608.78 640.427   3
  -3   0   9 3142.88 570.939   3
   3   0  -9 3532.97 640.742   1
   3   0  -8 27913.4 1508.08   1
  -3   0   8 26166.1 1356.70   3
  -3   0   7 40243.1 1666.33   3
   3   0  -7 41104.2 1820.54   1
  -3   0   6 33758.6 1450.59   3
   3   0  -6 32812.4 1558.80   1
  -3   0   5 22475.6 1112.48   3
   3   0  -5 25787.3 1310.32   1
  -3   0   4 6362.98 676.172   5
   3   0  -4 7492.73 700.357   1
  -3   0   4 6783.19 592.469   3
  -3   0   3 11320.8 841.642   5
   3   0  -3 10846.4 816.458   1
   3   0  -2 98887.8 2875.59   1
  -3   0   2 92005.8 2870.85   5
   3   0  -1 41272.6 1627.00   1
  -3   0   1 42070.7 1632.92   5
  -3   0   1 44449.4 1640.13   1
  -3   0   0 9067.53 714.210   5
  -3   0   0 9681.67 714.333   1
   3   0   1 30993.9 1323.77   5
  -3   0  -1 33419.6 1370.10   1
  -3   0  -1 31754.1 1367.53   5
  -3   0  -2 16471.3 953.731   5
   3   0   2 15942.6 777.606   7
  -3   0  -2 17688.8 689.621   2
  -3   0  -3 27093.4 1248.56   5
   3   0   3 26620.9 998.633   7
  -3   0  -3 27420.1 956.999   2
  -3   0  -4 104834. 2710.66   2
  -3   0  -4 104877. 3050.92   5
   3   0   4 102969. 2656.06   2
   3   0   4 102278. 2652.98   7
  -3   0  -5 8057.27 692.292   5
  -3   0  -5 8420.53 633.016   2
  -3   0  -5 8691.72 505.827   7
   3   0   5 9319.64 584.827   2
   3   0   6 8648.54 628.487   2
  -3   0  -6 8310.61 498.379   7
  -3   0  -7 17310.7 769.059   7
   3   0   7 16788.9 952.545   2
   3   0   8 36944.5 1564.60   2
  -3   0  -8 33792.3 1238.72   7
  -3   0  -9 22983.3 998.679   7
   3   0   9 22940.9 730.891   6
   3   0   9 23988.3 1299.78   2
   3   0  10 28907.7 1537.20   2
  -3   0 -10 27141.4 1156.33   7
   3   0  11 2524.75 575.325   2
   3   0  12 2348.96 601.080   2
   3   0  13 4589.40 808.547   2
   3   0  14 22789.8 1672.48   2
   3   0  15 7613.63 1060.20   2
   3   0  16 2962.89 837.495   2
   3   0  17 668.814 639.479   2
  -3  -1  14 4258.43 1130.46   2
  -3  -1  13 12156.4 1518.51   2
  -3  -1  12 20531.2 1749.56   2
  -3  -1  11 1762.18 504.709   3
  -3  -1  10 724.110 447.435   3
  -3  -1   9 2616.54 498.792   3
  -3  -1   8 41450.9 1600.83   3
  -3  -1   8 40954.8 1227.59   4
  -3  -1   7 23463.4 928.148   4
  -3  -1   7 23697.6 1093.17   3
   3   1  -6 27766.8 1416.53   1
  -3  -1   6 25266.3 1096.59   4
  -3  -1   6 26378.1 1109.29   3
   3   1  -5 11551.1 897.933   1
  -3  -1   5 10727.6 649.022   3
   3   1  -4 5026.79 597.849   1
  -3  -1   4 5089.53 440.619   3
  -3  -1   3 11057.5 784.479   5
   3   1  -3 12030.0 845.457   1
   3   1  -2 132246. 3468.14   5
  -3  -1   2 123571. 3431.61   5
   3   1  -2 127918. 3542.08   1
  -3  -1   1 14455.4 869.781   1
  -3  -1   1 14637.6 837.837   5
   3   1  -1 16393.9 874.947   5
   3   1  -1 16387.2 944.015   1
   3   1   0 17590.5 890.412   5
  -3  -1   0 15534.8 854.399   5
   3   1   0 16840.5 934.508   1
  -3  -1   0 18121.3 953.584   1
  -3  -1   0 17120.2 852.281   6
   3   1   1 30686.0 1191.94   5
  -3  -1  -1 31383.5 1288.46   1
  -3  -1  -1 30542.6 1095.26   6
  -3  -1  -1 28774.3 1193.21   5
   3   1   2 6969.55 538.738   5
  -3  -1  -2 7504.82 632.982   1
  -3  -1  -2 7545.49 592.069   5
  -3  -1  -2 7409.00 426.424   6
   3   1   3 38475.3 972.780   2
  -3  -1  -3 39632.7 1417.29   5
   3   1   3 36667.0 1073.83   7
  -3  -1  -4 119953. 3312.41   5
  -3  -1  -4 125303. 3394.95   3
   3   1   4 126832. 2891.38   2
   3   1   4 121748. 2787.60   7
   3   1   5 1691.28 282.325   2
   3   1   5 1224.25 116.774   6
   3   1   6 7609.81 556.189   2
  -3  -1  -6 6677.21 311.420   7
   3   1   7 23352.1 1092.58   2
  -3  -1  -7 22456.9 725.103   7
   3   1   8 22875.6 1204.75   2
  -3  -1  -8 24908.4 829.855   7
   3   1   9 32752.9 1549.28   2
   3   1  10 35346.8 1716.72   2
   3   1  11 7695.72 914.868   2
   3   1  12-143.292 582.532   2
   3   1  13 605.869 550.539   2
   3   1  14 25295.1 1734.65   2
   3   1  15 5917.98 966.172   2
   3   1  16 5297.30 954.229   2
   3   1  17 4924.43 1008.33   2
  -3  -2  14 8142.68 1244.93   2
  -3  -2  13 8432.38 1237.65   2
  -3  -2  12 13099.3 1427.88   2
  -3  -2  11 5963.06 1002.02   2
  -3  -2  10 71.0989 565.308   2
  -3  -2   9 1340.67 369.546   3
  -3  -2   9 829.890 609.530   2
  -3  -2   8 47986.1 1553.85   3
  -3  -2   8 43629.3 2182.67   2
  -3  -2   7 14836.1 1208.79   2
  -3  -2   7 20117.0 845.778   3
  -3  -2   6 11298.6 981.044   2
  -3  -2   6 13345.1 619.364   3
  -3  -2   5 21454.9 1233.15   2
  -3  -2   5 23029.5 996.401   4
  -3  -2   5 24095.5 819.924   3
  -3  -2   4 8589.81 731.478   2
  -3  -2   4 9600.73 648.374   4
  -3  -2   4 10259.4 457.722   3
   3   2  -3 8299.15 723.159   1
   3   2  -3 7808.23 588.559   5
  -3  -2   3 7398.47 632.365   4
  -3  -2   3 7367.34 365.272   3
  -3  -2   3 6353.52 585.946   2
   3   2  -2 140079. 3757.39   1
  -3  -2   2 134032. 3440.80   2
   3   2  -2 139815. 3523.45   5
  -3  -2   2 137932. 3513.90   5
  -3  -2   2 132893. 3606.67   4
   3   2  -1 2295.93 328.669   5
  -3  -2   1 2240.88 336.445   5
  -3  -2   1 2043.74 275.260   2
   3   2  -1 2813.43 463.836   1
  -3  -2   1 2736.55 425.517   6
  -3  -2   0 1677.95 333.311   6
   3   2   0 1808.93 437.103   6
   3   2   0 1200.11 403.919   1
   3   2   0 1290.22 261.764   5
  -3  -2   0 1905.98 216.820   2
  -3  -2   0 1803.91 300.614   5
  -3  -2   0 1619.68 248.718   3
  -3  -2   0 1201.26 383.232   1
   3   2   1 11199.0 603.604   5
  -3  -2  -1 12823.9 637.197   3
  -3  -2  -1 11662.6 622.285   5
   3   2   1 10451.2 730.485   1
  -3  -2  -1 11807.6 741.148   1
  -3  -2  -1 13054.3 684.538   6
   3   2   1 11095.3 688.745   6
   3   2   2 41838.3 1327.55   5
  -3  -2  -2 41095.8 1342.54   5
  -3  -2  -2 41361.8 1379.67   3
   3   2   2 41797.8 1353.19   6
  -3  -2  -2 41311.4 1491.26   1
  -3  -2  -3 21729.6 992.949   3
  -3  -2  -3 22323.8 909.125   5
  -3  -2  -3 24015.2 1041.59   1
   3   2   3 21374.7 849.164   6
  -3  -2  -4 129955. 3328.42   5
  -3  -2  -4 133378. 3477.20   3
   3   2   4 131338. 3517.71   3
   3   2   4 131368. 3156.99   6
   3   2   5 3553.34 520.194   3
   3   2   6 550.821 410.159   3
   3   2   7 4237.12 617.561   3
   3   2   8 74440.9 2614.36   3
   3   2   9 16824.8 1199.02   3
   3   2  10 30501.8 1671.47   3
  -3  -2 -10 28096.1 1416.96   4
   3   2  11 9846.79 1021.01   3
  -3  -2 -11 12407.5 932.048   4
   3   2  12 159.879 486.542   3
  -3  -2 -12 119.483 416.288   4
   3   2  13 444.185 534.102   3
   3   2  14 31009.5 1964.40   3
   3   2  15 3283.13 812.908   3
   3   2  15 4404.60 936.527   2
   3   2  16 1311.62 849.218   2
   3   2  16-275.813 681.844   3
   3   2  17 5619.07 1145.70   2
  -3  -3  13 8932.05 1219.41   2
  -3  -3  12 11789.3 1369.17   2
  -3  -3  11 2291.62 696.576   2
  -3  -3  10 46.4511 498.940   2
  -3  -3   9 631.773 513.702   2
  -3  -3   8 42846.7 2114.50   2
  -3  -3   7 10205.1 965.556   2
  -3  -3   6 8431.45 832.941   2
  -3  -3   5 19705.6 1170.82   2
   3   3  -4 8584.70 649.159   5
  -3  -3   4 8672.48 738.073   2
   3   3  -3 21764.3 955.054   5
  -3  -3   3 20185.4 1043.54   2
   3   3  -2 112737. 3036.58   2
   3   3  -2 112500. 2833.88   5
  -3  -3   2 108619. 3047.30   4
  -3  -3   2 103767. 2950.28   2
   3   3  -2 104397. 3252.78   6
   3   3  -1 4894.83 590.471   6
   3   3  -1 6137.80 501.958   2
   3   3  -1 5240.86 563.108   1
   3   3  -1 5352.21 395.138   5
  -3  -3   1 5180.62 586.321   4
  -3  -3   1 5466.42 466.932   2
  -3  -3   1 5194.60 267.253   3
   3   3   0 16588.2 747.386   2
  -3  -3   0 16891.7 631.247   3
   3   3   0 16966.3 661.280   5
  -3  -3   0 16399.3 648.846   5
  -3  -3   0 17026.2 961.051   4
   3   3   0 16232.6 899.481   1
   3   3   0 16196.2 942.787   6
   3   3   1 97832.6 2366.22   5
   3   3   1 100986. 2519.89   3
  -3  -3  -1 96934.9 2369.87   5
   3   3   1 99217.7 2769.78   1
  -3  -3  -1 99156.7 2879.46   4
   3   3   1 101513. 2519.62   2
   3   3   1 96922.8 2796.85   6
  -3  -3  -1 101274. 2497.92   3
   3   3   2 42082.2 1380.94   3
  -3  -3  -2 40532.3 1452.20   1
  -3  -3  -2 42042.1 1183.44   5
   3   3   2 40633.4 1448.96   1
   3   3   2 41256.0 1495.13   6
  -3  -3  -2 39903.3 1590.64   4
   3   3   2 44492.3 1284.72   2
  -3  -3  -2 41621.8 1361.37   3
   3   3   3 59199.7 1856.10   3
  -3  -3  -3 61373.4 1615.62   5
  -3  -3  -3 57107.0 2020.67   4
  -3  -3  -3 57727.8 1837.14   1
   3   3   3 60694.1 1615.08   7
  -3  -3  -3 61307.2 1860.32   3
   3   3   4 73264.2 2245.12   3
  -3  -3  -4 72085.9 2124.46   1
  -3  -3  -4 75262.7 2387.17   4
   3   3   4 73548.8 1813.12   7
  -3  -3  -4 74322.0 2236.92   3
   3   3   5 3849.14 548.731   3
  -3  -3  -5 3701.21 392.109   1
  -3  -3  -5 1974.26 477.049   4
   3   3   6 688.135 452.496   3
  -3  -3  -6 8.42219 470.619   4
   3   3   7 7406.76 773.563   3
  -3  -3  -7 5810.74 648.462   4
  -3  -3  -7 7261.39 328.911   7
   3   3   8 72907.8 2629.48   3
  -3  -3  -8 78735.9 2455.18   4
  -3  -3  -8 76274.1 1874.26   7
   3   3   9 20512.3 1335.32   3
  -3  -3  -9 22642.6 1162.17   4
  -3  -3  -9 22310.4 787.215   7
   3   3  10 20801.5 1375.07   3
  -3  -3 -10 17941.1 747.427   7
  -3  -3 -10 18417.0 1039.29   4
   3   3  11 15229.0 1254.40   3
  -3  -3 -11 15352.8 926.732   4
   3   3  12 750.114 561.434   3
   3   3  13 770.643 595.399   3
   3   3  14 35390.6 2106.46   3
   3   3  15 3610.56 856.460   3
   3   3  16 1132.20 732.953   3
   3   3  17 2263.50 820.891   3
  -3  -4  12 7610.32 1119.09   2
  -3  -4  11 2473.20 731.376   2
  -3  -4  10 0.71413 515.579   2
  -3  -4   9 2249.02 623.840   2
  -3  -4   8 46001.7 2265.76   2
  -3  -4   7 8699.15 944.697   2
  -3  -4   6 6495.13 786.875   2
  -3  -4   5 20248.0 1274.34   2
   3   4  -4 7128.82 573.495   5
  -3  -4   4 6381.28 715.459   2
   3   4  -4 7749.82 895.980   6
   3   4  -3 19563.0 882.080   5
  -3  -4   3 20786.4 1153.30   2
   3   4  -3 20812.0 1290.13   6
   3   4  -2 95993.6 2450.56   5
  -3  -4   2 92229.2 2861.07   2
   3   4  -2 96353.8 3071.15   6
   3   4  -1 2481.78 219.293   3
   3   4  -1 2998.40 256.976   5
   3   4  -1 3303.99 458.766   2
   3   4  -1 2720.82 526.691   6
  -3  -4   0 492.870 176.727   3
   3   4   0 937.587 115.436   5
   3   4   0 567.932 281.671   2
   3   4   0 576.372 222.208   3
   3   4   0 1110.58 336.777   1
   3   4   0 1310.05 424.484   6
   3   4   1 2639.06 407.823   1
  -3  -4  -1 2803.32 328.364   3
   3   4   1 2716.00 382.776   2
   3   4   1 1720.61 317.080   3
   3   4   1 2197.84 452.257   6
   3   4   2 65375.2 1958.97   3
   3   4   2 67103.3 2026.43   1
   3   4   2 68077.9 2052.54   2
   3   4   2 67012.7 2016.80   7
  -3  -4  -2 68165.4 1982.52   3
   3   4   2 62310.8 2194.50   6
   3   4   3 29906.3 1243.65   3
   3   4   3 30459.7 1145.53   7
   3   4   3 29599.9 1145.33   1
  -3  -4  -3 32137.3 1247.16   3
   3   4   4 60663.6 2032.16   3
   3   4   4 61918.9 1809.17   7
   3   4   5 19852.1 1107.02   3
   3   4   5 19076.1 811.222   7
  -3  -4  -5 18946.5 817.400   1
   3   4   6 3361.37 624.506   3
  -3  -4  -6 3849.44 367.038   1
  -3  -4  -7 3451.30 351.539   1
   3   4   7 3576.76 680.974   3
  -3  -4  -7 3509.70 326.580   7
  -3  -4  -8 55046.9 1720.94   1
   3   4   8 53281.2 2236.25   3
  -3  -4  -8 57386.4 1671.86   7
  -3  -4  -9 16846.0 769.142   7
   3   4   9 17582.6 1264.50   3
   3   4  10 4163.57 829.792   3
  -3  -4 -10 5311.17 438.370   7
  -3  -4 -11 8316.30 588.477   7
   3   4  11 9376.07 1064.60   3
   3   4  12 5036.40 917.477   3
   3   4  13 3624.39 837.591   3
   3   4  14 22840.3 1737.93   3
   3   4  15 2188.02 751.249   3
   3   4  16 388.880 695.196   3
  -3  -5  11 5642.67 982.697   2
  -3  -5  10 2836.80 758.107   2
  -3  -5   9 2722.99 720.103   2
  -3  -5   8 30129.5 1894.31   2
  -3  -5   7 2676.34 630.488   2
   3   5  -6-209.784 552.144   6
  -3  -5   6 166.814 388.429   2
   3   5  -5 2006.44 621.790   6
  -3  -5   5 1771.84 530.991   2
   3   5  -4 26726.7 1613.58   6
  -3  -5   4 25958.8 1495.00   2
   3   5  -3 16478.9 763.145   5
  -3  -5   3 16492.5 1122.10   2
   3   5  -3 15234.7 1188.79   6
   3   5  -2 55569.0 1521.82   5
   3   5  -2 53108.0 2235.19   6
   3   5  -2 52223.9 1405.79   3
   3   5  -1 3255.17 224.034   5
   3   5  -1 3930.41 353.920   3
   3   5  -1 4352.34 682.291   6
   3   5   0 6318.10 488.779   3
   3   5   0 6035.74 717.335   6
   3   5   1 14422.9 838.013   1
   3   5   1 13789.1 1008.98   6
   3   5   1 13727.2 762.598   3
  -3  -5  -2 50782.8 1757.47   3
   3   5   2 53620.5 1742.48   1
   3   5   2 49605.3 1726.37   3
   3   5   3 37105.0 1298.02   1
   3   5   3 34489.1 1443.94   3
   3   5   4 22796.6 1189.65   3
  -3  -5  -5 6615.00 359.438   5
   3   5   5 7924.33 800.426   3
   3   5   6 523.657 527.794   3
  -3  -5  -6 1300.09 234.340   5
  -3  -5  -7 5250.44 457.385   5
   3   5   7 4993.54 764.156   3
  -3  -5  -7 4324.83 456.589   7
  -3  -5  -8 51826.3 1784.12   7
   3   5   8 51976.7 2216.91   3
  -3  -5  -9 19336.6 981.233   7
   3   5   9 17509.2 1330.14   3
   3   5  10 4029.31 869.144   3
  -3  -5 -10 4025.39 460.386   7
   3   5  11 12487.0 1222.49   3
  -3  -5 -11 13984.3 849.256   7
   3   5  12 1786.48 749.636   3
   3   5  13 12850.7 1357.52   3
   3   5  14 22473.9 1782.52   3
   3   5  15 4647.21 1039.29   3
  -3  -6  10 1148.50 636.272   2
  -3  -6   9 5816.68 989.987   2
  -3  -6   8 27114.0 1886.65   2
  -3  -6   7 4754.91 825.116   2
   3   6  -7 5007.50 967.638   6
   3   6  -6 5438.78 977.548   6
  -3  -6   6 4657.93 802.941   2
  -3  -6   5 14365.5 1227.26   2
   3   6  -5 14366.2 1296.88   6
   3   6  -4 9835.87 1083.48   6
   3   6  -3 32961.5 1860.75   6
   3   6  -2 34094.7 1157.54   3
   3   6  -2 31315.9 1793.69   6
   3   6  -1 3426.67 423.668   3
   3   6  -1 2691.44 624.319   6
   3   6   0 5606.50 545.072   3
   3   6   0 3883.44 674.790   6
   3   6   1 8660.36 702.194   3
   3   6   1 8719.41 685.436   1
   3   6   1 7116.96 844.723   6
   3   6   2 50864.6 1735.89   1
   3   6   2 50713.3 1876.58   3
   3   6   3 34174.5 1264.07   1
   3   6   3 34703.4 1544.59   3
   3   6   4 12498.0 621.878   1
   3   6   4 12713.4 982.414   3
   3   6   5 14787.3 1100.12   3
   3   6   6 5540.44 790.633   3
  -3  -6  -7 12011.6 863.321   7
   3   6   7 11731.6 1084.88   3
   3   6   8 50643.5 2313.99   3
  -3  -6  -8 52721.1 1983.59   7
  -3  -6  -9 12891.1 894.039   7
   3   6   9 12257.2 1189.91   3
   3   6  10 272.327 657.965   3
  -3  -6 -10 521.532 293.076   7
   3   6  11 3299.12 881.864   3
   3   6  12 4056.92 909.590   3
   3   6  13 9432.73 1251.50   3
   3   6  14 10994.8 1357.59   3
  -3  -7   8 17274.8 1597.39   2
   3   7  -7 2732.81 814.399   6
   3   7  -6-22.9253 560.752   6
   3   7  -5 2295.22 743.980   6
   3   7  -4 11448.1 1213.51   6
   3   7  -3 24765.0 1713.65   6
   3   7  -2 16059.3 1339.53   6
   3   7  -1 5987.84 861.278   6
   3   7   0 6196.01 650.132   3
   3   7   0 5632.67 838.821   6
   3   7   1 6214.21 614.096   1
   3   7   1 6075.79 669.542   3
   3   7   1 5440.92 819.474   6
   3   7   2 28539.1 1444.82   3
   3   7   3 26100.5 1433.88   3
   3   7   4 1236.78 543.613   3
   3   7   5 6295.27 851.635   3
   3   7   6 5981.95 852.135   3
   3   7   7 11329.6 1117.76   3
  -3  -7  -8 16539.6 1142.21   7
   3   7   8 16753.0 1383.20   3
  -3  -7  -9 9586.84 879.903   7
   3   7   9 9909.06 1145.77   3
   3   7  10 879.691 742.518   3
   3   7  11 3400.63 920.226   3
   3   7  12 1164.96 785.244   3
   3   8  -6 4290.64 965.047   6
   3   8  -5 5427.24 1000.88   6
   3   8  -4 10670.7 1250.08   6
   3   8  -3 20467.7 1676.67   6
   3   8  -2 5477.42 942.588   6
   3   8  -1 1622.42 652.150   6
   3   8   0 3234.82 805.213   6
   3   8   1 9390.22 1114.91   6
   3   8   2 15921.0 1421.82   6
   3   8   2 15306.1 1148.41   3
   3   8   3 22963.4 1442.21   3
   3   8   4 2277.37 667.887   3
   3   8   5 5605.19 883.235   3
   3   8   6 757.784 647.699   3
   3   8   7 25097.0 1723.20   3
   3   8   8 13462.2 1343.97   3
   3   8   9 9052.44 1181.58   3
   3   8  10 3328.14 882.051   3
   3   9   1 11667.1 1342.02   6
   3   9   2 9521.94 1245.29   6
   3   9   4 647.999 618.388   3
   3   9   5-92.1171 601.541   3
   3   9   6 1537.89 691.178   3
   3   9   7 14364.9 1421.73   3
   3   9   8 4311.65 986.416   3
  -4   5   5 2454.04 774.976   5
  -4   5   4 8302.91 1119.23   5
   4  -5  -3 1647.75 607.972   7
  -4   5   3 3026.99 772.835   5
  -4   5   2 1805.58 668.459   5
   4  -5  -2 4511.41 891.966   7
  -4   5   1 23510.1 1780.97   5
   4  -5  -1 24746.3 1874.06   7
  -4   5   0 17.3372 483.481   5
   4  -5   0-260.679 552.059   7
  -4   5  -1-45.3814 497.224   5
   4  -5   1 266.862 533.129   7
   4  -5   2 3722.15 787.456   7
  -4   5  -2 3482.84 797.439   5
  -4   5  -3 10154.0 1199.07   5
   4  -5   3 9801.18 1169.44   7
  -4   5  -4 3727.98 778.122   5
  -4   5  -5 16563.1 1534.35   5
  -4   5  -6 2331.01 747.049   5
  -4   5  -7 1017.05 644.584   5
   4  -4  -7 22439.5 1832.55   7
  -4   4   7 27267.6 1955.50   3
  -4   4   6 1129.12 675.015   3
  -4   4   6 1183.53 668.150   5
   4  -4  -6 502.047 602.058   7
  -4   4   5 1949.20 649.179   3
  -4   4   5 1571.03 674.214   5
   4  -4  -5 1611.03 684.266   7
  -4   4   4 4978.96 869.169   3
  -4   4   4 3877.10 755.811   5
   4  -4  -4 2997.38 704.862   7
  -4   4   3 5052.54 870.784   5
   4  -4  -3 5864.36 902.405   7
  -4   4   2 6739.84 950.772   5
   4  -4  -2 6659.08 914.056   7
  -4   4   1 36782.0 2107.72   5
   4  -4  -1 36744.8 2110.20   7
  -4   4   0 899.358 508.606   5
   4  -4   0 1343.16 564.379   7
  -4   4  -1 2995.59 655.789   5
   4  -4   1 2765.90 663.081   7
  -4   4  -2 4884.41 820.568   5
   4  -4   2 4727.77 793.607   7
  -4   4  -3 25881.4 1775.59   5
   4  -4   3 23068.3 1616.41   7
  -4   4  -4 9996.25 1120.76   5
   4  -4   4 9481.75 1050.61   7
  -4   4  -5 13095.1 1278.21   5
  -4   4  -6 1022.28 536.571   5
  -4   4  -7 1495.25 621.168   5
  -4   4  -8 361.639 460.009   5
  -4   4  -9 25200.4 1897.24   5
  -4   4 -10 3014.18 808.612   5
  -4   3  10 2436.62 811.952   3
  -4   3   9 2225.72 749.827   3
   4  -3  -9 2073.94 739.548   7
  -4   3   8 3655.88 788.622   3
   4  -3  -8 2189.91 711.439   7
   4  -3  -7 23682.1 1775.12   7
  -4   3   7 30308.1 1911.29   3
  -4   3   6 1656.07 608.228   3
  -4   3   6 2115.13 660.524   5
   4  -3  -6 1287.99 576.652   7
  -4   3   5 700.554 528.668   3
  -4   3   5 1385.29 591.789   5
   4  -3  -5 1263.10 570.222   7
  -4   3   4 10807.9 1117.37   5
   4  -3  -4 10443.1 1106.98   7
  -4   3   4 12933.7 1190.27   3
  -4   3   3 13636.1 1228.78   5
   4  -3  -3 13035.3 1219.18   7
  -4   3   2 13494.0 1221.86   5
   4  -3  -2 12853.5 1175.79   7
  -4   3   1 28690.0 1728.11   5
   4  -3  -1 26773.9 1665.17   7
  -4   3   0 557.396 419.144   5
   4  -3   0 315.083 376.081   7
  -4   3  -1 1278.21 472.514   5
   4  -3   1 1058.64 467.536   7
  -4   3  -2 1372.51 522.304   5
   4  -3   2 2266.45 555.930   7
  -4   3  -3 28080.0 1737.62   5
   4  -3   3 27731.7 1622.14   7
  -4   3  -4 14765.5 1259.50   5
   4  -3   4 11917.5 1061.55   7
  -4   3  -5 15416.0 1313.23   5
   4  -3   5 15514.4 1177.97   7
  -4   3  -6 6966.39 929.883   5
  -4   3  -7 1565.82 532.081   5
  -4   3  -8 3158.09 692.081   5
  -4   3  -9 22705.3 1696.39   5
  -4   3 -10 3114.97 699.972   5
  -4   3 -11 1491.55 554.423   5
  -4   3 -12 2346.88 715.643   5
   4  -3  12 1329.60 631.095   2
   4  -3  13 1635.15 623.468   2
  -4   2  13 14129.7 1448.89   3
  -4   2  12 3890.96 940.352   3
  -4   2  11 1150.95 634.613   3
  -4   2  10 3868.31 806.923   3
   4  -2  -9 4720.04 751.500   1
  -4   2   9 4936.73 847.188   3
  -4   2   8 7500.18 957.965   3
  -4   2   7 29071.0 1778.36   3
  -4   2   6 1558.99 561.452   3
  -4   2   6 1954.39 612.319   5
  -4   2   5 3038.70 653.332   3
  -4   2   5 3208.77 680.037   5
  -4   2   4 4937.10 776.920   5
   4  -2  -4 4497.14 730.622   7
  -4   2   3 21303.1 1451.97   5
   4  -2  -3 21277.9 1428.82   7
  -4   2   2 21486.0 1438.78   5
   4  -2  -2 22077.9 1410.38   7
  -4   2   1 35497.6 1830.30   5
   4  -2  -1 30113.6 1662.53   7
  -4   2   0 6199.00 773.831   5
   4  -2   0 7069.40 785.461   7
  -4   2  -1 7687.31 880.165   5
   4  -2   1 9209.54 866.156   7
  -4   2  -2 1068.75 423.700   5
   4  -2   2 1544.90 427.158   7
  -4   2  -3 34660.8 1838.07   5
   4  -2   3 34563.1 1653.69   7
  -4   2  -4 28892.8 1682.18   5
   4  -2   4 28233.3 1469.31   7
  -4   2  -5 11036.5 1059.49   5
   4  -2   5 11243.0 900.123   7
  -4   2  -6 8310.88 941.605   5
  -4   2  -7 7557.55 900.118   5
  -4   2  -8 7348.24 919.812   5
  -4   2  -9 34346.6 1999.98   5
   4  -2   9 34378.5 1813.52   2
  -4   2 -10 10868.8 1153.34   5
   4  -2  10 10487.2 1037.14   2
   4  -2  11 4461.25 746.514   2
  -4   2 -11 3974.40 800.101   5
   4  -2  12 4819.07 842.455   2
  -4   2 -12 5217.06 891.690   5
   4  -2  13 3136.35 743.845   2
  -4   2 -13 2205.97 718.411   5
   4  -2  14 12169.4 1298.89   2
   4  -2  15 6124.17 1050.06   2
  -4   1  12 4763.62 884.387   3
  -4   1  11 2139.02 703.318   3
   4  -1 -11 1547.02 568.901   1
  -4   1  10 2610.33 650.556   3
   4  -1 -10 3411.46 677.643   1
  -4   1   9 5391.09 800.435   3
   4  -1  -9 4588.16 727.837   1
   4  -1  -8 17248.3 1262.44   1
  -4   1   8 15600.4 1225.45   3
   4  -1  -7 35513.6 1806.12   1
  -4   1   7 34103.1 1765.26   3
  -4   1   6 5506.56 731.762   3
   4  -1  -6 4891.84 692.425   1
  -4   1   6 5385.93 798.759   5
   4  -1  -5 10087.6 933.253   1
  -4   1   5 9509.21 979.593   5
  -4   1   5 9060.26 870.116   3
  -4   1   4 1491.92 591.726   5
  -4   1   3 34854.3 1795.95   5
  -4   1   2 37691.5 1837.29   5
  -4   1   1 29250.7 1554.24   5
   4  -1  -1 27856.5 1441.77   7
  -4   1   0 5425.42 709.127   5
   4  -1   0 4569.56 622.258   7
  -4   1  -1 8473.05 860.318   5
   4  -1   1 9284.31 783.493   7
  -4   1  -2 9927.60 921.008   5
  -4   1  -2 10454.7 708.575   2
   4  -1   2 8500.58 729.457   7
  -4   1  -3 57083.0 2349.23   5
   4  -1   3 57782.7 2054.34   7
  -4   1  -3 58305.7 1959.63   2
  -4   1  -4 36694.3 1794.12   5
   4  -1   4 33571.2 1468.06   7
  -4   1  -5 6493.34 770.827   5
   4  -1   5 6662.39 614.164   7
  -4   1  -6 6317.22 783.506   5
  -4   1  -7 1074.64 431.322   5
   4  -1   7 1783.00 421.494   2
  -4   1  -8 28880.3 1711.04   5
   4  -1   8 29690.1 1480.99   2
  -4   1  -9 28009.1 1739.05   5
   4  -1   9 33883.6 1655.18   2
  -4   1 -10 4587.62 782.394   5
   4  -1  10 5556.55 718.145   2
  -4   1 -11 3172.02 693.251   5
   4  -1  11 2505.73 555.196   2
   4  -1  12 7520.63 929.938   2
   4  -1  13 2757.75 635.300   2
   4  -1  14 14571.5 1342.53   2
   4  -1  15 6465.21 987.521   2
   4  -1  16 629.037 550.991   2
   4   0 -14 5096.37 915.148   1
   4   0 -13 14752.1 1401.28   1
   4   0 -12 5512.42 885.665   1
  -4   0  11 1205.79 646.103   3
   4   0 -11 2620.31 714.939   1
  -4   0  10 2540.65 635.106   3
   4   0 -10 2104.52 656.034   1
  -4   0   9 5731.11 731.055   3
   4   0  -9 7222.54 905.681   1
   4   0  -8 30262.4 1708.23   1
  -4   0   8 26997.7 1463.28   3
   4   0  -7 28783.7 1611.11   1
  -4   0   7 25335.9 1404.78   3
   4   0  -6 3385.66 601.035   1
  -4   0   6 3091.25 566.750   3
  -4   0   5 8933.79 956.735   5
   4   0  -5 9611.40 894.519   1
  -4   0   5 9722.56 814.873   3
  -4   0   4 3489.25 624.590   5
   4   0  -4 3544.46 593.571   1
   4   0  -3 23930.3 1361.22   1
  -4   0   3 25732.6 1427.92   5
  -4   0   2 64472.4 2457.62   5
   4   0  -2 70357.0 2484.74   1
  -4   0   1 15959.6 1066.52   5
  -4   0   0 3620.17 562.096   5
  -4   0  -1 12174.7 938.590   5
  -4   0  -2 15328.8 1042.92   5
   4   0   2 14325.1 844.188   7
  -4   0  -2 14935.9 695.177   2
  -4   0  -3 52198.8 2068.83   5
   4   0   3 49771.8 1718.83   7
  -4   0  -3 51921.1 1564.59   2
  -4   0  -4 45736.6 1460.54   2
  -4   0  -4 45613.6 1889.22   5
   4   0   4 43229.1 1502.35   7
  -4   0  -4 41512.5 1148.83   6
  -4   0  -5 12195.1 950.192   5
  -4   0  -5 11493.4 720.704   2
   4   0   5 10424.4 653.941   7
  -4   0  -6 11150.6 926.883   5
  -4   0  -6 11385.6 821.536   2
   4   0   6 10855.3 710.479   2
  -4   0  -7 4652.65 644.398   5
  -4   0  -7 5255.46 451.590   7
   4   0   7 4614.91 520.891   2
  -4   0  -8 33389.3 1737.79   5
  -4   0  -8 32118.1 1238.87   7
   4   0   8 33767.3 1468.54   2
   4   0   9 27188.4 1377.79   2
   4   0  10 11153.8 925.522   2
   4   0  11 10240.6 948.369   2
   4   0  12 848.080 394.203   2
   4   0  13 5202.53 800.581   2
   4   0  14 24300.8 1675.00   2
   4   0  15 4154.74 804.688   2
   4   0  16 1107.40 639.756   2
   4   0  17 2664.45 762.715   2
  -4  -1  13 12394.2 1538.13   2
   4   1 -13 9664.48 1207.86   1
   4   1 -12 2101.42 705.350   1
  -4  -1  12 4247.29 1104.85   2
   4   1 -11 5051.44 857.230   1
   4   1 -10 3201.01 769.097   1
   4   1  -9 7879.03 928.049   1
  -4  -1   9 8736.30 783.064   3
  -4  -1   8 33109.7 1472.41   3
   4   1  -8 32802.2 1814.07   1
  -4  -1   7 17237.2 1003.14   3
   4   1  -7 17950.2 1287.67   1
  -4  -1   6 519.161 314.150   3
   4   1  -6 1253.24 500.529   1
   4   1  -5 10496.3 938.767   1
  -4  -1   5 8998.69 675.933   3
  -4  -1   4 10241.7 879.820   5
   4   1  -4 10829.0 921.837   1
  -4  -1   3 22795.0 1287.50   5
   4   1  -3 27249.9 1417.95   1
  -4  -1   2 71717.7 2473.11   5
   4   1  -2 74226.9 2571.85   1
   4   1  -1 9887.28 839.182   1
  -4  -1   1 9713.20 778.824   5
  -4  -1   0 7723.01 692.462   5
  -4  -1  -1 9336.37 749.112   5
  -4  -1  -1 9415.60 661.302   6
  -4  -1  -2 55470.8 1969.44   5
  -4  -1  -2 50664.9 1270.72   2
  -4  -1  -2 56451.6 1648.67   6
  -4  -1  -3 44641.0 1750.37   5
   4   1   3 41695.0 1362.52   7
  -4  -1  -3 42481.4 1276.44   6
  -4  -1  -4 51516.6 1945.41   5
   4   1   4 52121.7 1511.71   7
  -4  -1  -5 16445.0 1031.08   5
   4   1   5 16919.9 676.518   2
   4   1   5 15614.1 644.879   7
  -4  -1  -6 2663.27 491.897   5
   4   1   6 2530.27 309.984   2
  -4  -1  -7 3513.71 539.501   5
   4   1   7 2884.35 373.002   2
  -4  -1  -8 57919.4 1568.72   7
   4   1   8 60948.7 1998.66   2
  -4  -1  -9 15290.5 633.887   7
   4   1   9 16237.8 985.683   2
   4   1  10 8035.36 761.753   2
   4   1  11 16077.1 1125.58   2
   4   1  12 3898.45 668.037   2
   4   1  13 4713.68 785.828   2
   4   1  14 22710.1 1597.82   2
   4   1  15 1697.22 641.341   2
   4   1  16-302.360 550.351   2
   4   1  17 1909.38 690.221   2
   4   2 -13 9265.04 1183.20   1
  -4  -2  13 5993.30 1065.00   2
   4   2 -12 3959.66 822.874   1
  -4  -2  12 3669.26 998.351   2
   4   2 -11 1952.14 619.306   1
  -4  -2  11 1792.52 803.487   2
   4   2 -10 1676.28 669.151   1
  -4  -2  10 1804.17 739.012   2
  -4  -2   9 7830.94 1076.41   2
   4   2  -9 8321.54 977.643   1
  -4  -2   8 44589.7 2253.63   2
   4   2  -8 45889.9 2202.93   1
  -4  -2   8 46740.9 1596.25   3
   4   2  -7 6989.18 871.971   1
  -4  -2   7 7601.78 621.584   4
  -4  -2   7 6021.36 871.862   2
  -4  -2   7 6270.66 548.108   3
  -4  -2   6 3281.86 387.563   3
  -4  -2   6 1935.71 449.457   4
   4   2  -6 3027.04 606.523   1
  -4  -2   6 3781.89 733.516   2
  -4  -2   5 9347.76 920.786   2
  -4  -2   5 10607.9 867.334   4
  -4  -2   5 11038.0 628.699   3
   4   2  -5 9576.00 920.801   1
  -4  -2   4 15310.2 998.062   2
   4   2  -4 16129.5 1116.30   1
  -4  -2   4 14378.1 1051.54   4
  -4  -2   4 14540.9 698.024   3
  -4  -2   3 30346.9 1306.07   2
  -4  -2   3 30461.8 1409.94   5
   4   2  -3 29499.2 1522.98   1
  -4  -2   2 77385.1 2291.08   2
  -4  -2   2 78046.5 2508.39   5
  -4  -2   1 1993.27 401.101   5
  -4  -2   1 2926.53 339.962   2
   4   2  -1 2454.98 507.480   1
   4   2   0 2859.05 488.369   1
   4   2   0 3178.49 416.718   5
  -4  -2   0 3295.97 450.261   5
  -4  -2   0 3418.18 264.540   2
  -4  -2   0 3753.24 477.448   6
   4   2   1 24061.3 1252.65   1
   4   2   1 24853.9 1114.95   5
  -4  -2  -1 23581.8 1099.33   5
  -4  -2  -1 24989.0 1088.27   6
   4   2   2 75877.2 2375.91   5
  -4  -2  -2 83516.4 2460.02   3
  -4  -2  -2 81147.3 2446.45   5
  -4  -2  -2 82834.8 2299.87   6
  -4  -2  -3 41610.4 1587.81   5
   4   2   3 44921.9 1474.28   6
  -4  -2  -4 41920.9 1591.31   5
   4   2   4 42660.7 1353.51   6
   4   2   5 15553.1 592.772   2
  -4  -2  -5 14778.0 898.089   5
   4   2   5 15975.2 669.109   6
  -4  -2  -6 5389.26 579.167   5
   4   2   6 4130.23 372.173   2
   4   2   6 4445.59 326.845   6
   4   2   7 1900.73 358.825   2
   4   2   7 1916.94 219.150   6
   4   2   8 86285.1 2594.99   2
   4   2   9 8145.24 764.001   2
   4   2  10 7398.51 799.372   2
   4   2  11 14670.5 1118.36   2
   4   2  12 228.017 485.335   2
  -4  -2 -13 7446.74 968.614   4
   4   2  13 5409.41 863.838   2
   4   2  14 30774.0 1890.05   2
   4   2  15-89.4310 615.945   2
   4   2  16-344.313 678.509   2
   4   2  17 3047.05 908.861   2
  -4  -3  13 4563.24 1024.88   2
  -4  -3  12 2804.58 789.281   2
  -4  -3  11 3223.72 809.442   2
  -4  -3  10 2601.95 714.402   2
  -4  -3   9 8740.93 1050.83   2
  -4  -3   8 47066.0 2271.86   2
  -4  -3   7 4078.78 707.217   2
  -4  -3   6 761.735 121.960   3
  -4  -3   6 894.290 466.588   2
   4   3  -6 1396.51 558.157   1
  -4  -3   5 16580.7 1088.33   2
   4   3  -5 17431.9 1203.14   1
  -4  -3   5 18397.0 983.520   4
  -4  -3   4 19366.7 1101.79   2
   4   3  -4 18726.8 1236.96   1
  -4  -3   4 22314.9 1130.55   4
  -4  -3   4 18307.4 562.382   3
   4   3  -3 31941.9 1561.55   1
  -4  -3   3 26185.7 821.328   3
  -4  -3   3 30587.8 1400.30   4
  -4  -3   3 31083.9 832.079   3
  -4  -3   3 29914.1 1290.91   2
  -4  -3   2 65610.1 1717.51   3
   4   3  -2 72065.5 2194.28   5
  -4  -3   2 67333.0 2328.09   4
   4   3  -2 69841.4 2464.23   1
  -4  -3   2 68580.6 2092.13   2
  -4  -3   1 8629.94 472.998   3
   4   3  -1 8563.64 612.949   5
  -4  -3   1 8691.98 615.883   5
  -4  -3   1 8579.80 834.600   4
   4   3  -1 7682.38 752.697   1
  -4  -3   1 8608.93 553.148   2
   4   3   0 339.742 394.046   6
   4   3   0 652.516 412.204   1
  -4  -3   0 559.784 185.998   2
   4   3   0 477.268 208.849   5
  -4  -3   0 475.849 253.945   5
  -4  -3   0 659.870 234.892   3
  -4  -3   0 540.956 624.407   4
   4   3   1 402.750 343.319   6
   4   3   1 118.799 163.951   5
  -4  -3  -1 558.647 231.370   5
  -4  -3  -1 766.190 273.221   3
  -4  -3  -1 1253.27 708.046   4
   4   3   1 459.393 314.350   1
   4   3   1 817.757 217.725   2
   4   3   2 89347.1 2132.00   2
  -4  -3  -2 91242.6 2519.68   3
   4   3   2 89573.6 2448.48   5
   4   3   2 87392.5 2744.71   1
  -4  -3  -2 90854.5 2463.84   5
  -4  -3  -2 80979.0 2883.35   4
   4   3   2 93814.9 2679.15   6
  -4  -3  -3 18438.0 970.310   3
  -4  -3  -3 20276.7 894.087   5
  -4  -3  -3 16531.1 1233.85   4
   4   3   3 18174.5 611.784   2
   4   3   3 20283.6 967.394   6
  -4  -3  -4 32326.2 1233.64   5
  -4  -3  -4 29367.5 1593.61   4
   4   3   4 33552.5 1272.59   6
  -4  -3  -5 34029.9 1310.07   5
   4   3   5 34748.1 1514.74   3
  -4  -3  -5 31047.6 1645.08   4
   4   3   5 34326.2 1265.93   6
  -4  -3  -6 4218.32 468.972   5
  -4  -3  -6 5525.85 886.505   4
   4   3   6 3836.53 595.700   3
  -4  -3  -7 2605.25 822.042   4
   4   3   7 1752.57 552.330   3
   4   3   8 70680.1 2628.97   3
  -4  -3  -8 69171.7 2580.99   4
  -4  -3  -9 9752.83 1019.57   4
   4   3   9 7407.18 860.867   3
   4   3  10 958.608 547.146   3
  -4  -3 -10 557.403 623.737   4
  -4  -3 -11 10029.0 953.119   4
   4   3  11 7693.65 1000.90   3
   4   3  12 11286.8 1165.50   3
  -4  -3 -12 11157.0 935.859   4
   4   3  13 1229.97 609.265   3
  -4  -3 -13 2612.08 547.679   4
   4   3  14 22542.2 1745.68   3
   4   3  15-215.631 642.990   3
   4   3  16-1093.14 796.059   3
   4   3  16 1871.71 884.589   2
   4   3  17 2685.19 990.823   2
  -4  -4  12 1179.36 652.777   2
  -4  -4  11 3363.83 781.206   2
  -4  -4  10 4722.86 861.318   2
  -4  -4   9 4681.95 858.865   2
  -4  -4   8 39654.1 2085.14   2
  -4  -4   7 848.458 510.512   2
  -4  -4   6 394.193 375.535   2
  -4  -4   5 167.546 363.052   2
  -4  -4   4 37730.2 1691.98   2
   4   4  -3 12981.9 783.296   5
   4   4  -3 13849.1 1030.51   1
  -4  -4   3 13147.4 897.626   2
   4   4  -2 56231.0 2182.84   1
   4   4  -2 55300.5 1777.12   5
  -4  -4   2 53324.5 1926.87   2
   4   4  -2 57212.8 2337.45   6
   4   4  -1 16348.2 909.970   2
   4   4  -1 16571.4 777.611   5
  -4  -4   1 15957.7 1053.69   4
  -4  -4   1 16115.3 865.619   2
  -4  -4   1 15521.2 550.257   3
   4   4  -1 17175.5 1153.73   6
   4   4  -1 15988.1 1059.18   1
   4   4   0-53.3927 371.906   6
  -4  -4   0 205.089 195.974   3
   4   4   0 65.4456 147.248   5
   4   4   0-118.539 310.595   1
   4   4   0 338.524 240.900   2
  -4  -4   0 98.9493 442.741   4
   4   4   1 240.242 317.983   1
  -4  -4  -1 98.3690 226.375   3
   4   4   1 255.047 144.816   5
  -4  -4  -1 79.4213 168.898   5
   4   4   1 303.958 219.857   2
  -4  -4  -1 138.014 446.253   4
   4   4   1 326.268 377.406   6
   4   4   2 79629.2 2299.11   3
  -4  -4  -2 76668.6 2009.71   5
   4   4   2 76575.2 2496.81   1
  -4  -4  -2 74093.4 2643.52   4
  -4  -4  -2 80740.0 2279.58   3
   4   4   2 83574.9 2210.88   2
   4   4   2 78672.1 2552.96   6
   4   4   3 19648.3 1043.33   1
   4   4   3 19095.7 980.565   3
  -4  -4  -3 19944.9 758.411   5
  -4  -4  -3 19675.8 1229.29   4
   4   4   3 20608.2 850.071   2
   4   4   3 19040.8 1059.86   6
  -4  -4  -3 19906.7 986.830   3
   4   4   4 23476.1 1147.90   3
  -4  -4  -4 23001.1 876.525   5
  -4  -4  -4 23137.5 1335.87   4
   4   4   4 23160.7 875.422   7
   4   4   4 21371.1 1112.31   6
  -4  -4  -4 21366.9 1081.47   1
  -4  -4  -5 18141.8 798.264   5
   4   4   5 16044.1 1021.05   3
  -4  -4  -5 19867.6 1244.26   4
   4   4   5 17258.2 675.344   7
  -4  -4  -5 16890.6 948.389   1
  -4  -4  -6 6714.73 595.134   1
   4   4   6 6329.64 736.855   3
  -4  -4  -6 7148.96 847.056   4
  -4  -4  -7 5159.38 536.792   1
   4   4   7 4679.33 689.438   3
  -4  -4  -7 6025.60 756.219   4
   4   4   8 64824.1 2494.39   3
  -4  -4  -8 65224.2 2409.88   4
   4   4   9 691.968 592.977   3
  -4  -4  -9 2346.29 583.083   4
   4   4  10 1965.13 661.318   3
  -4  -4 -10 4624.07 686.487   4
   4   4  11 17182.1 1366.84   3
  -4  -4 -11 19064.1 1200.92   4
   4   4  12 4933.89 868.389   3
  -4  -4 -12 4596.37 623.832   4
   4   4  13 19794.8 1569.28   3
   4   4  14 25155.9 1850.92   3
   4   4  15 2327.58 798.588   3
   4   4  16-583.843 736.273   3
  -4  -5  11 677.652 602.250   2
  -4  -5  10 4288.88 846.404   2
  -4  -5   9 8401.71 1049.48   2
  -4  -5   8 24603.8 1697.50   2
  -4  -5   7 266.063 418.622   2
  -4  -5   6 500.247 422.007   2
  -4  -5   5 14426.8 1125.21   2
  -4  -5   4 44390.2 2008.45   2
   4   5  -4 44185.8 2262.81   6
  -4  -5   3 32610.7 1610.06   2
   4   5  -3 37110.5 1935.61   6
   4   5  -2 24215.3 951.269   5
   4   5  -2 24746.4 1378.79   1
  -4  -5   2 23509.7 1283.99   2
   4   5  -2 23054.3 1477.14   6
   4   5  -1 7398.58 763.404   1
   4   5  -1 7132.00 418.565   5
   4   5  -1 5904.18 801.102   6
   4   5   0 458.052 369.375   1
   4   5   0 764.669 118.926   5
   4   5   0 813.328 226.447   3
  -4  -5   0 1194.00 206.868   3
   4   5   0 1018.30 478.098   6
  -4  -5  -1 1344.80 270.522   3
   4   5   1 920.786 378.064   1
   4   5   1 1663.62 507.130   6
   4   5   1 891.484 289.972   3
   4   5   2 86928.5 2495.63   3
   4   5   2 84166.8 2681.29   1
  -4  -5  -2 89548.5 2512.44   3
   4   5   2 84691.5 2898.74   6
   4   5   3 17117.6 952.045   3
   4   5   3 15605.7 916.995   1
   4   5   3 15850.1 1067.75   6
   4   5   4 7747.50 719.178   3
  -4  -5  -4 5841.40 256.238   5
   4   5   4 7896.73 567.477   7
   4   5   5 29864.7 1444.69   3
  -4  -5  -5 30819.0 948.471   5
   4   5   5 29060.5 1162.52   7
  -4  -5  -6 1905.15 253.131   5
   4   5   6 2777.44 620.884   3
  -4  -5  -6 1756.21 328.460   1
   4   5   6 2313.40 305.472   7
   4   5   7 18786.2 1261.34   3
  -4  -5  -7 16536.2 858.236   1
   4   5   8 77110.9 2818.42   3
  -4  -5  -8 71532.7 2206.68   1
   4   5   9 3281.49 742.830   3
   4   5  10 974.651 637.475   3
   4   5  11 5865.51 950.010   3
   4   5  12 14304.3 1348.60   3
   4   5  13 7678.80 1086.17   3
   4   5  14 10155.6 1269.03   3
   4   5  15 2055.31 776.990   3
  -4  -6  10 4652.77 879.017   2
  -4  -6   9 11567.1 1284.91   2
  -4  -6   8 16816.3 1505.03   2
  -4  -6   7 1240.70 600.524   2
  -4  -6   6 642.619 476.938   2
   4   6  -5 921.344 634.505   6
  -4  -6   5 1594.38 524.060   2
  -4  -6   4 25314.0 1579.06   2
   4   6  -4 28897.1 1869.05   6
   4   6  -3 15320.5 1317.54   6
   4   6  -2 14469.9 1241.50   6
   4   6  -1 16916.3 688.718   3
   4   6  -1 16542.5 1122.14   1
   4   6  -1 16510.3 1287.35   6
   4   6   0 3372.37 399.706   3
   4   6   0 3647.01 570.532   1
   4   6   0 2599.83 633.614   6
   4   6   1 7406.64 611.265   3
   4   6   1 7754.28 717.930   1
   4   6   1 6660.28 819.723   6
   4   6   2 52797.0 1844.97   3
   4   6   2 53667.6 1960.95   1
   4   6   2 50641.1 2245.58   6
   4   6   3 13097.4 909.276   3
   4   6   3 14261.9 881.201   1
   4   6   3 14209.7 1115.50   6
   4   6   4 1619.71 337.680   1
   4   6   4 2170.70 544.782   3
   4   6   5 8024.41 847.298   3
   4   6   6 16029.0 1171.17   3
   4   6   7 14687.1 1171.37   3
   4   6   8 22674.9 1477.95   3
   4   6   9 2646.45 709.111   3
   4   6  10 754.581 587.265   3
   4   6  11 4208.69 891.378   3
   4   6  12 15630.0 1487.16   3
   4   6  13 14751.1 1466.58   3
   4   6  14 8525.08 1236.06   3
  -4  -7   8 9028.82 1174.35   2
  -4  -7   7 1744.42 662.763   2
   4   7  -6 2130.83 812.689   6
   4   7  -5 2160.27 749.396   6
   4   7  -4 31694.1 2049.53   6
   4   7  -3 14135.9 1346.51   6
   4   7  -2 6149.04 935.515   6
   4   7  -1 5859.16 721.214   1
   4   7  -1 6308.90 936.902   6
   4   7   0 4112.05 759.871   6
   4   7   0 4313.18 619.842   1
   4   7   1 8885.16 1018.56   6
   4   7   1 8447.75 765.289   1
   4   7   1 8417.88 698.276   3
   4   7   2 37155.1 1585.14   1
   4   7   2 34771.9 1945.04   6
   4   7   2 35575.5 1539.26   3
   4   7   3 11312.9 779.937   1
   4   7   3 11614.5 1104.25   6
   4   7   3 11497.0 908.056   3
   4   7   4 4491.11 681.360   3
   4   7   5 10463.5 972.759   3
   4   7   6 4827.42 752.903   3
   4   7   7 30094.2 1735.17   3
   4   7   8 25160.3 1623.72   3
   4   7   9 5815.03 928.285   3
   4   7  10 4843.42 949.247   3
   4   7  11 5705.21 1064.24   3
   4   7  12 10393.6 1268.85   3
   4   7  13 13187.5 1476.15   3
   4   8  -5 4232.13 947.549   6
   4   8  -4 15482.1 1548.75   6
   4   8  -3 16080.7 1511.34   6
   4   8  -2 1170.24 688.730   6
   4   8  -1 4393.79 911.654   6
   4   8   0 1812.05 682.505   6
   4   8   1 17235.3 1483.78   6
   4   8   2 32594.8 2020.06   6
   4   8   3 8404.85 1047.85   6
   4   8   3 9202.80 898.604   3
   4   8   4 3999.75 700.125   3
   4   8   5 1950.69 629.324   3
   4   8   6 6190.54 890.937   3
   4   8   7 21335.8 1542.53   3
   4   8   8 10598.8 1206.33   3
   4   8   9 3006.37 804.623   3
   4   8  10 3337.64 874.021   3
   4   8  11 2975.96 910.874   3
   4   9   1 15120.2 1517.36   6
   4   9   2 10587.4 1289.13   6
   4   9   3 5368.94 992.363   6
   4   9   4 4078.48 894.106   6
   4   9   6 5176.42 893.885   3
   4   9   7 17992.5 1501.66   3
   4   9   8 2635.44 853.463   3
   4   9   9 1288.31 797.652   3
  -5   4   4 2453.27 786.226   5
  -5   4   3 15034.7 1494.45   5
  -5   4   2 4376.65 919.793   5
   5  -4  -2 4265.73 855.646   7
  -5   4   1 13477.6 1423.16   5
   5  -4  -1 14000.9 1384.32   7
  -5   4   0 2054.71 702.245   5
   5  -4   0 1658.94 623.993   7
  -5   4  -1 298.495 523.626   5
   5  -4   1 130.666 455.270   7
  -5   4  -2 149.243 448.507   5
   5  -4   2 492.085 525.131   7
  -5   4  -3 20801.7 1719.25   5
   5  -4   3 22064.1 1681.99   7
  -5   4  -4 4944.93 932.303   5
   5  -4   4 3121.80 717.851   7
  -5   4  -5 3307.61 822.945   5
  -5   4  -6 9989.98 1268.16   5
  -5   3   7 16738.0 1563.30   3
  -5   3   6 602.666 627.056   3
  -5   3   6 967.099 683.335   5
   5  -3  -6-29.9692 507.069   7
  -5   3   5 398.036 494.263   3
  -5   3   5 309.819 587.114   5
   5  -3  -5 626.683 516.206   7
  -5   3   4 1644.30 634.016   5
  -5   3   4 1238.40 587.178   3
   5  -3  -4 1346.15 573.786   7
   5  -3  -3 19842.5 1602.31   7
  -5   3   3 20728.1 1646.98   5
  -5   3   2 10621.9 1189.99   5
   5  -3  -2 10236.3 1131.18   7
  -5   3   1 11778.9 1244.20   5
   5  -3  -1 10712.6 1148.71   7
  -5   3   0 10718.2 1192.99   5
   5  -3   0 8400.73 1017.75   7
  -5   3  -1 1442.19 548.949   5
   5  -3   1 1641.22 531.757   7
  -5   3  -2 700.189 472.280   5
   5  -3   2-213.108 374.569   7
  -5   3  -3 33940.6 2092.41   5
   5  -3   3 34451.5 1959.83   7
  -5   3  -4 5721.03 912.120   5
   5  -3   4 4743.68 746.010   7
  -5   3  -5 3013.14 746.152   5
   5  -3   5 2817.41 625.758   7
  -5   3  -6 8577.28 1106.15   5
  -5   3  -7 2507.52 714.964   5
  -5   3  -8 3512.35 835.007   5
  -5   3  -9 25589.2 1961.23   5
  -5   2  10 940.924 711.016   3
  -5   2   9 8555.70 1119.25   3
  -5   2   8 7425.92 1014.50   3
  -5   2   7 15424.5 1382.25   3
  -5   2   6 3659.05 764.394   3
  -5   2   6 3530.10 785.039   5
   5  -2  -6 3111.27 782.917   7
  -5   2   5 2839.47 684.723   3
  -5   2   5 2988.07 768.396   5
   5  -2  -5 3041.28 707.745   7
  -5   2   4 682.222 494.653   5
   5  -2  -4 668.083 515.437   7
  -5   2   3 30927.1 1926.78   5
   5  -2  -3 28715.7 1838.01   7
  -5   2   2 8754.05 1028.36   5
   5  -2  -2 9894.57 1049.57   7
   5  -2  -1 11081.0 1079.80   7
  -5   2   1 12406.7 1206.57   5
  -5   2   0 6829.02 921.506   5
   5  -2   0 6980.91 848.697   7
  -5   2  -1 2227.93 558.424   5
   5  -2   1 2286.81 562.572   7
  -5   2  -2 3190.64 691.273   5
   5  -2   2 4693.13 685.521   7
  -5   2  -3 47365.2 2401.18   5
   5  -2   3 47770.3 2164.95   7
  -5   2  -4 3126.26 667.335   5
   5  -2   4 3185.82 595.958   7
  -5   2  -5 1922.26 598.398   5
   5  -2   5 2299.85 501.304   7
  -5   2  -6 9542.00 1098.51   5
   5  -2   6 8861.42 860.551   7
  -5   2  -7 9404.71 1091.25   5
  -5   2  -8 12366.8 1247.90   5
  -5   2  -9 19078.0 1556.99   5
  -5   2 -10-167.463 490.632   5
  -5   2 -11 620.451 525.692   5
  -5   1  10 1683.62 696.832   3
   5  -1 -10 1311.79 609.342   1
   5  -1  -9 12804.7 1234.70   1
  -5   1   9 10008.8 1091.26   3
   5  -1  -8 11530.1 1165.32   1
  -5   1   8 11242.8 1133.10   3
  -5   1   7 16725.5 1305.95   3
   5  -1  -7 17638.8 1398.11   1
  -5   1   6 1895.60 538.821   3
  -5   1   6 2529.97 693.334   5
  -5   1   5 2983.26 595.976   3
  -5   1   5 2650.17 731.864   5
  -5   1   4 882.213 568.161   5
  -5   1   3 34191.0 1938.19   5
  -5   1   2 16233.5 1292.29   5
   5  -1  -2 15828.0 1230.76   7
  -5   1   1 7727.49 908.602   5
   5  -1  -1 7331.60 839.438   7
  -5   1   0 8311.23 941.091   5
   5  -1   0 10086.5 929.970   7
  -5   1  -1 5887.24 810.516   5
   5  -1   1 6199.94 723.374   7
  -5   1  -2 12928.3 1152.77   5
   5  -1   2 12408.3 980.739   7
  -5   1  -3 54307.2 2414.41   5
   5  -1   3 48706.9 2031.61   7
  -5   1  -4 5208.16 760.278   5
   5  -1   4 4260.36 569.261   7
  -5   1  -5 7983.79 972.433   5
   5  -1   5 6487.39 663.195   7
  -5   1  -6 9640.90 1047.69   5
   5  -1   6 9193.00 781.674   7
  -5   1  -7 6078.69 853.425   5
  -5   1  -8 16110.1 1362.30   5
  -5   1  -9 20830.6 1559.86   5
  -5   1 -10 207.641 388.334   5
   5  -1  10 583.335 361.108   2
   5  -1  11 5212.87 730.641   2
  -5   1 -11 4500.37 807.523   5
   5  -1  12 742.499 483.792   2
  -5   1 -12 1146.35 579.914   5
  -5   1 -13 7623.90 1132.83   5
   5  -1  13 8462.07 1032.47   2
   5   0 -12 839.175 537.452   1
   5   0 -11 2618.99 719.282   1
   5   0 -10 696.785 586.551   1
   5   0  -9 17476.4 1458.38   1
  -5   0   9 19983.4 1364.52   3
   5   0  -8 17878.8 1422.69   1
  -5   0   8 18428.0 1287.28   3
   5   0  -7 6829.99 907.842   1
  -5   0   7 6816.00 800.087   3
  -5   0   6 2561.50 535.357   3
   5   0  -6 4008.14 738.735   1
   5   0  -5 5392.16 791.624   1
  -5   0   5 6160.12 878.923   5
  -5   0   5 6514.09 736.191   3
   5   0  -4 10828.1 1033.52   1
  -5   0   4 8683.87 963.282   5
  -5   0   3 43985.2 2111.26   5
  -5   0   2 21773.9 1436.77   5
  -5   0   1 3291.60 643.503   5
  -5   0   0 7124.11 828.832   5
  -5   0  -1 7208.48 816.239   5
   5   0   1 5568.29 635.386   7
  -5   0  -2 30722.7 1699.36   5
   5   0   2 30772.5 1444.04   7
  -5   0  -2 31838.6 1191.99   2
  -5   0  -3 38799.8 1913.63   5
   5   0   3 39351.9 1622.87   7
  -5   0  -3 40364.8 1380.38   2
  -5   0  -4 9084.70 922.986   5
   5   0   4 8449.66 672.017   7
  -5   0  -4 8334.50 485.133   6
  -5   0  -4 9191.53 611.679   2
  -5   0  -5 8885.44 662.124   2
  -5   0  -5 7010.93 880.014   5
   5   0   5 8868.88 670.556   7
  -5   0  -6 5744.46 783.690   5
   5   0   6 4005.39 485.377   7
  -5   0  -6 4741.24 586.185   2
  -5   0  -7 21164.4 1427.52   5
  -5   0  -8 33953.2 1857.21   5
   5   0   8 30415.3 1380.37   2
  -5   0  -9 14403.2 1247.72   5
   5   0   9 13109.9 914.057   2
   5   0  10 3454.15 546.143   2
  -5   0 -10 2648.91 653.951   5
  -5   0 -11 8281.04 1041.23   5
   5   0  11 8702.99 871.461   2
  -5   0 -12 3245.93 707.883   5
   5   0  12 3372.74 645.063   2
  -5   0 -13 12334.8 1307.10   5
   5   0  13 11374.8 1074.77   2
  -5   0 -14 11725.5 1314.39   5
   5   0  14 12176.4 1170.41   2
   5   1 -12 2362.48 756.180   1
  -5  -1  12 2896.15 1081.95   2
   5   1 -11 1434.39 620.499   1
   5   1 -10 854.527 613.632   1
   5   1  -9 16490.4 1428.59   1
   5   1  -8 21436.8 1557.16   1
  -5  -1   8 21367.0 1241.80   3
   5   1  -7 9250.65 1039.78   1
  -5  -1   7 7048.64 741.916   3
  -5  -1   6 4766.39 608.306   3
   5   1  -6 5145.71 786.278   1
   5   1  -5 6843.27 879.667   1
  -5  -1   5 5188.01 824.340   5
  -5  -1   5 5629.42 633.611   3
   5   1  -4 18915.9 1326.62   1
  -5  -1   4 15822.8 1228.96   5
   5   1  -3 44179.6 2065.62   1
  -5  -1   3 43006.6 2006.88   5
   5   1  -2 21201.9 1369.20   1
  -5  -1   2 19549.9 1286.13   5
  -5  -1   1 3051.23 559.251   5
  -5  -1   0 13330.7 1028.40   5
  -5  -1  -1 9730.61 874.670   5
  -5  -1  -2 72154.6 2631.61   5
  -5  -1  -2 72454.7 1784.31   2
  -5  -1  -2 73045.6 2234.17   6
  -5  -1  -3 39197.8 1090.28   2
  -5  -1  -3 42277.2 1864.51   5
   5   1   3 39223.8 1489.98   7
  -5  -1  -3 41651.6 1377.67   6
  -5  -1  -4 7538.51 819.704   5
   5   1   4 6325.45 517.318   7
  -5  -1  -4 5992.07 394.252   6
  -5  -1  -5 12657.4 1018.56   5
   5   1   5 12107.8 666.795   7
  -5  -1  -6 3249.41 585.370   5
   5   1   6 2826.83 312.771   7
  -5  -1  -7 11061.5 970.877   5
   5   1   7 11745.9 662.958   2
  -5  -1  -8 54784.0 2372.71   5
   5   1   8 58404.5 1905.38   2
  -5  -1  -9 10197.4 989.277   5
   5   1   9 11263.0 780.591   2
  -5  -1 -10 2737.01 590.284   5
   5   1  10 2037.46 445.669   2
  -5  -1 -11 5111.93 781.003   5
   5   1  11 5632.71 664.572   2
   5   1  12 6414.49 765.738   2
   5   1  13 11124.0 1015.96   2
   5   1  14 20659.6 1459.93   2
  -5  -2  12 1176.22 810.268   2
   5   2 -11 2414.04 720.750   1
  -5  -2  11 2600.44 819.499   2
  -5  -2  10 4383.33 919.980   2
   5   2 -10 3109.60 807.342   1
  -5  -2   9 18795.6 1536.68   2
   5   2  -9 18252.6 1510.69   1
  -5  -2   8 22802.2 1591.52   2
   5   2  -8 24536.4 1697.10   1
  -5  -2   7 1995.33 528.863   4
   5   2  -7 2378.75 683.049   1
  -5  -2   7 3656.98 761.658   2
  -5  -2   6 1234.74 332.465   3
   5   2  -6 2447.41 688.902   1
  -5  -2   6 2880.67 707.738   4
  -5  -2   6 2621.84 695.080   2
  -5  -2   5 10152.3 948.140   2
   5   2  -5 7885.97 947.900   1
  -5  -2   5 7590.80 613.985   3
  -5  -2   4 39015.7 1673.91   2
  -5  -2   4 34543.8 1742.47   5
   5   2  -4 36393.9 1890.11   1
  -5  -2   3 47246.4 1782.18   2
  -5  -2   3 43242.8 1937.12   5
   5   2  -3 45091.3 2082.39   1
  -5  -2   2 22942.0 1052.96   2
  -5  -2   2 21411.1 1266.82   5
   5   2  -2 20587.5 1352.37   1
  -5  -2   1 17610.4 811.755   2
   5   2  -1 19326.5 1267.51   1
  -5  -2   1 18325.4 1135.88   5
   5   2   0 2369.57 586.489   1
  -5  -2   0 1940.33 460.408   5
  -5  -2   0 1834.36 227.251   2
  -5  -2  -1 8333.53 743.906   5
  -5  -2  -2 53708.7 2022.40   5
  -5  -2  -2 50065.8 1755.92   6
  -5  -2  -3 21173.6 1190.08   5
  -5  -2  -3 22042.2 976.939   6
  -5  -2  -4 9760.74 819.729   5
  -5  -2  -5 23377.8 1282.61   5
   5   2   5 22257.8 790.456   7
  -5  -2  -6 9787.88 836.677   5
   5   2   6 8712.37 400.049   2
   5   2   6 7614.14 347.629   7
  -5  -2  -7 11726.6 933.395   5
   5   2   7 13017.2 621.535   2
  -5  -2  -8 59758.4 2392.35   5
   5   2   8 62902.4 1898.11   2
  -5  -2  -9 4300.16 655.949   5
   5   2   9 4798.85 518.132   2
   5   2  10 643.194 328.803   2
   5   2  11 7188.17 736.117   2
   5   2  12 13726.5 1049.62   2
   5   2  13 8488.42 933.156   2
   5   2  14 15796.6 1277.36   2
   5   2  15 1118.90 574.895   2
  -5  -3  12 305.837 746.134   2
  -5  -3  11 4009.01 927.838   2
   5   3 -11 4589.09 956.649   1
  -5  -3  10 11078.5 1230.51   2
   5   3 -10 11836.4 1283.61   1
   5   3  -9 11736.0 1272.91   1
  -5  -3   9 10306.6 1155.74   2
   5   3  -8 21568.1 1605.89   1
  -5  -3   8 21066.5 1525.78   2
   5   3  -7 2151.65 689.402   1
  -5  -3   7 1100.26 359.948   4
  -5  -3   7 1497.34 543.325   2
   5   3  -6 439.646 466.380   1
  -5  -3   6 883.331 412.511   4
  -5  -3   6 788.722 468.221   2
  -5  -3   5 1481.26 545.365   4
  -5  -3   5 2877.31 579.547   2
   5   3  -5 2823.86 683.936   1
  -5  -3   4 43426.3 1764.13   2
   5   3  -4 45315.0 2122.32   1
  -5  -3   4 42002.9 1306.44   3
  -5  -3   3 9692.17 987.356   4
   5   3  -3 10271.0 981.197   1
  -5  -3   3 9167.17 703.828   2
  -5  -3   2 21607.1 1186.36   5
   5   3  -2 20425.7 1336.58   1
  -5  -3   2 22172.8 1434.45   4
  -5  -3   2 21233.6 991.051   2
  -5  -3   1 10690.9 670.762   3
  -5  -3   1 11076.5 823.984   5
   5   3  -1 12784.5 1023.65   1
  -5  -3   1 12167.5 1224.10   4
  -5  -3   1 12136.9 631.328   2
  -5  -3   0 3867.31 491.840   5
  -5  -3   0 3014.96 413.196   3
   5   3   0 3304.20 618.504   1
  -5  -3   0 3960.66 296.829   2
  -5  -3  -1 5064.04 523.546   3
  -5  -3  -1 5110.11 554.887   5
   5   3   1 5585.81 731.213   1
  -5  -3  -2 100323. 2962.69   5
  -5  -3  -3 11939.1 805.352   5
   5   3   3 12317.6 842.134   6
   5   3   4 3844.57 484.319   6
  -5  -3  -4 4734.42 551.588   5
  -5  -3  -5 14354.4 910.228   5
   5   3   5 13297.4 772.779   6
  -5  -3  -6 9859.23 776.535   5
   5   3   6 9230.10 456.852   2
   5   3   6 9394.54 617.721   6
  -5  -3  -7 9134.95 782.733   5
   5   3   7 10644.1 592.891   2
   5   3   7 9801.97 602.108   6
  -5  -3  -8 60473.0 2279.75   5
   5   3   8 62414.9 1924.54   2
   5   3   8 59235.8 1793.57   6
   5   3   9 3062.02 521.730   2
   5   3   9 1945.17 289.733   6
   5   3  10 2036.78 531.339   2
   5   3  11 9338.42 860.268   2
  -5  -3 -11 10060.7 1207.51   4
   5   3  12 20820.9 1323.69   2
  -5  -3 -12 20404.6 1524.38   4
   5   3  13 16478.5 1257.11   2
  -5  -3 -13 16032.5 1301.77   4
   5   3  14 13545.3 1207.83   2
  -5  -3 -14 10637.6 1077.30   4
   5   3  15 3261.52 766.776   2
  -5  -4  12-398.234 640.629   2
  -5  -4  11 270.124 552.918   2
   5   4 -10 11009.3 1291.36   1
  -5  -4  10 9732.68 1145.31   2
   5   4  -9 14011.8 1385.21   1
  -5  -4   9 14790.0 1342.17   2
   5   4  -8 15923.0 1448.32   1
  -5  -4   8 16429.9 1327.93   2
   5   4  -7 2299.39 686.474   1
  -5  -4   7 1794.34 569.440   2
  -5  -4   6 519.811 425.162   2
   5   4  -6 1169.72 605.766   1
   5   4  -5 4518.24 748.071   1
  -5  -4   5 4271.05 617.022   2
  -5  -4   4 69368.8 2557.04   4
  -5  -4   4 74153.3 2541.12   2
   5   4  -4 73023.4 2882.82   1
  -5  -4   3 23999.4 1425.84   4
   5   4  -3 26990.0 1611.99   1
  -5  -4   3 27139.6 1293.61   2
  -5  -4   2 9781.72 959.705   4
   5   4  -2 8788.69 935.192   1
  -5  -4   2 8704.74 668.683   2
  -5  -4   2 7608.77 389.154   3
   5   4  -1 12770.5 1054.07   1
  -5  -4   1 11957.3 1063.74   4
  -5  -4   1 12166.3 710.454   2
  -5  -4   1 11411.6 578.900   3
   5   4   0 4221.60 687.862   6
   5   4   0 3753.48 437.719   5
  -5  -4   0 3108.80 384.006   3
  -5  -4   0 3475.57 435.849   5
  -5  -4   0 2809.41 680.971   4
   5   4   0 3928.38 636.068   1
   5   4   1 2414.69 575.733   6
   5   4   1 2395.94 343.303   5
  -5  -4  -1 2399.04 398.884   3
  -5  -4  -1 2155.18 341.995   5
  -5  -4  -1 1576.44 688.822   4
   5   4   1 1568.37 494.325   1
   5   4   2 90765.2 2608.11   5
   5   4   2 98700.0 2379.85   2
   5   4   2 89276.4 3055.94   1
  -5  -4  -2 93262.3 2636.25   5
  -5  -4  -2 84949.5 3140.69   4
   5   4   2 99440.5 3056.01   6
  -5  -4  -2 92419.7 2699.63   3
  -5  -4  -3 2788.51 358.624   5
   5   4   3 2175.25 231.406   2
  -5  -4  -3 1508.32 731.000   4
   5   4   3 3222.81 523.997   6
   5   4   4 1575.90 196.394   2
  -5  -4  -4 1654.45 302.339   5
  -5  -4  -4 2428.78 796.362   4
   5   4   4 1602.36 424.689   6
  -5  -4  -5 29400.5 1226.85   5
  -5  -4  -5 24159.5 1576.88   4
   5   4   5 26535.7 874.364   7
   5   4   5 29163.7 1308.14   6
  -5  -4  -6 15393.6 885.784   5
  -5  -4  -6 15853.8 1294.76   4
   5   4   6 16473.8 942.651   6
  -5  -4  -7 32342.1 1402.76   5
   5   4   7 30328.2 1620.51   3
  -5  -4  -7 29235.3 1726.37   4
   5   4   7 33092.6 1381.59   6
  -5  -4  -8 61498.9 2191.19   5
   5   4   8 62855.3 2527.41   3
  -5  -4  -8 58582.9 2509.46   4
   5   4   9 3845.01 674.904   3
  -5  -4  -9 2697.84 738.595   4
   5   4  10 185.146 503.685   3
  -5  -4 -10-591.939 736.813   4
   5   4  11 3335.84 753.029   3
  -5  -4 -11-189.927 672.427   4
   5   4  12 21863.2 1642.25   3
  -5  -4 -12 22441.8 1445.16   4
   5   4  13 5449.66 938.404   3
  -5  -4 -13 6646.63 843.195   4
   5   4  14 8517.96 1151.27   3
   5   4  15 3886.93 936.246   3
  -5  -5  11 836.062 637.938   2
  -5  -5  10 16528.7 1535.28   2
  -5  -5   9 9237.28 1084.71   2
   5   5  -9 9416.48 1147.16   1
   5   5  -8 14068.8 1388.08   1
  -5  -5   8 15173.9 1333.65   2
  -5  -5   7 2451.97 588.680   2
   5   5  -7 2673.39 716.363   1
  -5  -5   6 448.438 409.034   2
   5   5  -6 846.316 564.395   1
  -5  -5   5 3611.62 599.640   2
   5   5  -5 3345.06 711.549   1
   5   5  -4 33213.6 1858.25   1
  -5  -5   4 31201.5 1621.86   2
  -5  -5   3 3728.43 554.705   2
   5   5  -3 3561.38 674.847   1
  -5  -5   2 11215.3 827.794   2
   5   5  -2 12742.8 1089.61   1
   5   5  -2 12975.8 1206.79   6
   5   5  -1 16428.4 1198.35   1
   5   5  -1 17807.8 1332.32   6
   5   5   0 4751.96 750.098   6
   5   5   0 5656.75 726.800   1
  -5  -5   0 4701.32 713.200   4
  -5  -5   0 5841.96 414.877   3
   5   5   1 12207.2 757.786   2
   5   5   1 11221.9 569.675   5
   5   5   1 10922.2 938.022   1
  -5  -5  -1 11724.1 1036.38   4
  -5  -5  -1 10315.2 631.905   3
   5   5   1 11237.6 1007.65   6
   5   5   2 83941.2 2857.63   1
  -5  -5  -2 83135.3 2194.07   5
  -5  -5  -2 86153.6 3092.01   4
  -5  -5  -2 84985.4 2497.95   3
   5   5   2 89211.4 2994.86   6
   5   5   2 89223.8 2482.06   2
   5   5   3 626.043 361.939   1
   5   5   3 152.128 210.922   2
  -5  -5  -3 306.857 161.277   5
  -5  -5  -3 1025.93 598.175   4
   5   5   3 29.5641 386.871   6
   5   5   4 287.196 184.508   2
  -5  -5  -4 185.846 151.998   5
   5   5   4-102.301 390.143   3
  -5  -5  -4 106.714 521.944   4
   5   5   4 96.4447 160.874   7
   5   5   4 155.923 360.793   6
  -5  -5  -5 6935.60 472.543   5
   5   5   5 5026.61 644.227   3
  -5  -5  -5 5245.17 821.349   4
   5   5   5 5978.02 443.771   7
   5   5   5 4617.30 616.887   6
  -5  -5  -6 28279.6 1112.36   5
   5   5   6 28810.3 1512.93   3
  -5  -5  -6 25550.8 1578.73   4
   5   5   6 25980.5 1356.82   6
  -5  -5  -7 5338.86 480.208   5
   5   5   7 4938.25 760.973   3
  -5  -5  -7 4734.14 805.290   4
  -5  -5  -8 37079.3 1483.60   5
   5   5   8 35218.0 1807.52   3
  -5  -5  -8 34645.4 1836.60   4
   5   5   9 2507.18 676.136   3
  -5  -5  -9 1238.11 543.405   4
   5   5  10 1252.35 602.696   3
  -5  -5 -10 74.8904 486.598   4
   5   5  11 452.361 590.256   3
  -5  -5 -11-490.915 549.034   4
   5   5  12 26051.8 1784.16   3
  -5  -5 -12 25489.7 1569.53   4
   5   5  13 6657.24 1040.38   3
   5   5  14 6876.34 1078.89   3
   5   5  15 5242.73 990.051   3
  -5  -6  10 12699.6 1403.34   2
  -5  -6   9 3156.73 755.290   2
  -5  -6   8 8581.86 1067.96   2
  -5  -6   7 3238.43 715.519   2
  -5  -6   6 419.617 412.141   2
   5   6  -6 1577.32 644.968   1
   5   6  -5 2698.43 711.264   1
  -5  -6   5 3332.07 643.865   2
   5   6  -4 48050.2 2326.72   1
  -5  -6   4 44068.8 2112.41   2
   5   6  -4 48216.5 2565.67   6
   5   6  -3 6744.11 858.039   1
   5   6  -3 5099.94 932.353   6
   5   6  -2 2887.81 715.705   6
   5   6  -2 2831.30 611.947   1
   5   6  -1 8611.20 1008.57   6
   5   6  -1 10528.9 986.981   1
   5   6   0 9013.50 902.856   1
   5   6   0 9043.93 1011.10   6
   5   6   1 14156.4 1055.43   1
   5   6   1 13843.5 1175.87   6
   5   6   2 48133.3 1691.09   3
   5   6   2 43979.3 1920.10   1
   5   6   2 43367.8 2084.64   6
   5   6   3 944.304 388.006   1
   5   6   3 2249.69 462.453   3
   5   6   3 1178.52 498.507   6
   5   6   4 564.907 390.379   3
   5   6   4 960.965 458.075   6
   5   6   5 9251.63 867.427   3
   5   6   5 10804.3 957.007   6
   5   6   6 32135.2 1648.33   3
   5   6   6 31929.0 1684.11   6
   5   6   7 29245.5 1611.27   3
   5   6   8 17713.6 1322.96   3
   5   6   9 8806.67 1021.71   3
   5   6  10 866.640 632.087   3
   5   6  11 1014.47 650.698   3
   5   6  12 20564.0 1656.91   3
   5   6  13 7123.61 1100.33   3
   5   6  14 1408.30 768.506   3
  -5  -7   8 4413.91 869.489   2
  -5  -7   7 2439.88 706.776   2
  -5  -7   6 1675.30 590.757   2
   5   7  -5 3578.56 953.464   6
   5   7  -5 4111.89 839.216   1
   5   7  -4 28656.1 1818.16   1
   5   7  -4 32504.0 2182.66   6
   5   7  -3 2236.20 774.608   6
   5   7  -3 3392.00 671.227   1
   5   7  -2 1260.44 667.665   6
   5   7  -2 1632.79 554.013   1
   5   7  -1 9061.82 1102.16   6
   5   7  -1 8017.30 907.786   1
   5   7   0 7260.52 824.890   1
   5   7   0 6450.08 959.831   6
   5   7   1 24171.2 1422.61   1
   5   7   1 22586.2 1594.65   6
   5   7   2 39581.8 1820.06   1
   5   7   2 41090.9 2140.77   6
   5   7   3 4284.96 579.606   3
   5   7   3 4704.19 590.611   1
   5   7   3 4100.31 730.970   6
   5   7   4 1888.51 428.511   1
   5   7   4 1944.16 521.372   3
   5   7   4 1784.28 569.008   6
   5   7   5 3908.69 662.124   3
   5   7   5 3758.12 694.432   6
   5   7   6 20045.8 1334.61   3
   5   7   7 18349.5 1330.43   3
   5   7   8 14972.5 1256.48   3
   5   7   9 6884.48 968.986   3
   5   7  10 1815.39 698.177   3
   5   7  11 3232.78 844.453   3
   5   7  12 17951.0 1587.88   3
   5   7  13 6365.09 1096.83   3
   5   8  -5 5540.08 966.658   1
   5   8  -4 21336.3 1617.83   1
   5   8  -4 22216.2 1875.77   6
   5   8  -3 4910.31 978.132   6
   5   8  -3 5215.62 830.585   1
   5   8  -2 724.868 574.918   6
   5   8  -2 415.639 444.960   1
   5   8  -1 3752.49 701.008   1
   5   8  -1 4901.53 951.924   6
   5   8   0 11239.1 1035.64   1
   5   8   0 8833.58 1130.36   6
   5   8   1 18454.0 1560.51   6
   5   8   2 14162.1 1363.37   6
   5   8   3 2513.37 697.316   6
   5   8   4 858.898 505.651   6
   5   8   5 3206.05 663.653   3
   5   8   5 3567.82 775.531   6
   5   8   6 22553.4 1494.49   3
   5   8   6 25357.7 1756.71   6
   5   8   7 14375.3 1247.74   3
   5   8   8 3793.16 804.205   3
   5   8   9 4328.23 902.004   3
   5   8  10 2332.88 754.618   3
   5   8  11 3188.02 859.682   3
   5   9   1 18149.3 1677.37   6
   5   9   2 3678.78 886.635   6
   5   9   3 1440.08 690.280   6
   5   9   4 802.237 603.028   6
   5   9   5 4078.29 866.777   6
   5   9   6 13193.8 1418.29   6
   5   9   7 14373.1 1329.38   3
   5   9   8 1050.79 675.698   3
   5   9   9 1499.71 766.013   3
   5   9  10 2319.35 872.250   3
   6  -3  -2 1483.30 639.239   7
  -6   3   1 782.069 616.810   5
   6  -3  -1 1363.71 554.348   7
  -6   3   0 3604.61 770.236   5
   6  -3   0 3892.68 806.016   7
  -6   3  -1 1289.88 653.244   5
   6  -3   1 1505.75 611.812   7
  -6   3  -2 2462.00 781.403   5
   6  -3   2 2179.51 618.601   7
  -6   3  -3 22261.8 1805.81   5
   6  -3   3 20493.0 1612.88   7
  -6   3  -4 667.151 606.033   5
   6  -3   4 399.772 488.183   7
  -6   3  -5 508.348 580.299   5
   6  -3   5 371.771 400.470   7
  -6   2   7 6653.23 1048.49   3
  -6   2   6 3220.93 812.750   3
  -6   2   5 1279.29 640.024   3
  -6   2   5 497.477 651.987   5
   6  -2  -5 548.646 595.055   7
  -6   2   4 296.233 610.113   5
   6  -2  -4-26.7835 520.157   7
  -6   2   3 28467.5 2005.04   5
   6  -2  -3 26112.2 1879.64   7
  -6   2   2 1939.78 730.895   5
   6  -2  -2 1309.73 535.634   7
  -6   2   1 903.629 635.120   5
   6  -2  -1 1871.14 593.962   7
  -6   2   0 8626.55 1111.11   5
   6  -2   0 8400.37 1022.23   7
  -6   2  -1 6143.24 954.709   5
   6  -2   1 5895.49 856.949   7
  -6   2  -2 6400.40 971.959   5
   6  -2   2 7706.38 923.065   7
  -6   2  -3 24911.8 1840.96   5
   6  -2   3 24612.2 1617.49   7
  -6   2  -4 115.806 485.094   5
   6  -2   4 470.560 393.178   7
  -6   2  -5 197.246 465.259   5
   6  -2   5 580.005 374.201   7
  -6   2  -6 5129.32 925.382   5
   6  -2   6 4737.04 717.306   7
  -6   2  -7 15005.6 1489.06   5
  -6   2  -8 8496.43 1158.78   5
  -6   2  -9 9897.24 1271.46   5
  -6   1   9 14145.4 1337.63   3
  -6   1   8 2913.92 723.391   3
  -6   1   7 2122.14 662.623   3
  -6   1   6 4208.14 746.714   3
  -6   1   6 4030.35 856.039   5
  -6   1   5 2360.61 649.325   3
  -6   1   5 2505.31 720.811   5
  -6   1   4 5498.63 941.842   5
  -6   1   3 33623.2 2102.99   5
   6  -1  -3 33756.9 2031.94   7
  -6   1   2 1624.42 617.798   5
   6  -1  -2 1634.84 558.453   7
  -6   1   1 1623.63 602.401   5
   6  -1  -1 2268.11 551.847   7
  -6   1   0 6515.04 951.633   5
   6  -1   0 3890.55 694.201   7
  -6   1  -1 14450.0 1309.92   5
   6  -1   1 12889.0 1118.76   7
  -6   1  -2 11321.6 1189.97   5
   6  -1   2 10897.9 1004.05   7
  -6   1  -3 21171.4 1595.71   5
   6  -1   3 19536.2 1296.13   7
  -6   1  -4 2217.30 610.787   5
   6  -1   4 3043.77 562.001   7
  -6   1  -5 5253.14 902.603   5
   6  -1   5 5363.35 682.484   7
  -6   1  -6 1881.64 622.498   5
   6  -1   6 1751.46 426.634   7
  -6   1  -7 23624.5 1768.90   5
  -6   1  -8 11222.2 1242.03   5
  -6   1  -9 7853.03 1107.75   5
  -6   1 -10 5149.59 918.362   5
  -6   1 -11 1661.02 647.886   5
   6   0 -10 879.075 618.025   1
   6   0  -9 18159.5 1575.83   1
   6   0  -8 6257.97 973.922   1
  -6   0   7 3396.84 721.582   3
   6   0  -7 3348.64 746.998   1
  -6   0   6 3562.73 671.022   3
  -6   0   6 4707.94 893.991   5
   6   0  -6 5644.52 877.209   1
  -6   0   5 4291.33 729.416   3
  -6   0   5 3295.07 805.345   5
  -6   0   4 9919.75 1114.98   5
  -6   0   3 29774.4 1861.19   5
  -6   0   2 3153.53 687.049   5
  -6   0   1 3522.89 682.701   5
  -6   0   0 6170.24 858.749   5
   6   0   0 6923.93 809.935   7
  -6   0  -1 14916.5 1289.61   5
   6   0   1 14195.5 1081.02   7
  -6   0  -2 27218.2 1699.84   5
   6   0   2 23738.2 1385.25   7
  -6   0  -3 31694.3 1865.73   5
   6   0   3 30250.6 1531.56   7
  -6   0  -4 1594.96 565.955   5
   6   0   4 1861.94 381.576   7
  -6   0  -5 5295.85 845.780   5
   6   0   5 5121.53 579.462   7
  -6   0  -6 797.446 494.610   5
   6   0   6 717.216 287.527   7
  -6   0  -7 26869.3 1789.16   5
   6   0   7 25992.3 1265.67   7
  -6   0  -8 19512.1 1505.42   5
  -6   0  -9 7331.14 990.637   5
  -6   0 -10 5433.81 915.703   5
  -6   0 -11 1347.53 532.518   5
  -6   0 -12 4939.07 922.098   5
  -6   0 -13 19458.7 1722.00   5
   6   1 -10 4487.56 929.933   1
   6   1  -9 16139.0 1503.32   1
   6   1  -8 5902.01 944.071   1
   6   1  -7 3416.89 822.333   1
   6   1  -6 6511.80 960.320   1
  -6  -1   6 6797.22 779.067   3
   6   1  -5 7988.01 1032.68   1
  -6  -1   5 5387.54 895.009   5
  -6  -1   5 6550.81 746.932   3
   6   1  -4 22839.7 1607.38   1
  -6  -1   4 19928.2 1483.40   5
  -6  -1   3 29806.7 1802.50   5
   6   1  -3 35799.1 2000.63   1
  -6  -1   2 1955.13 566.589   5
  -6  -1   1 12641.2 1137.99   5
  -6  -1   0 3959.35 699.888   5
  -6  -1  -1 23060.8 1487.75   5
  -6  -1  -2 26931.7 1599.05   5
   6   1   2 25464.7 1318.35   7
  -6  -1  -3 12365.0 1095.61   5
   6   1   3 11597.3 828.289   7
  -6  -1  -4 5519.70 801.955   5
   6   1   4 4870.96 537.944   7
  -6  -1  -5 10711.3 1056.60   5
   6   1   5 10802.1 720.315   7
  -6  -1  -6 14206.9 1193.53   5
   6   1   6 13687.5 795.887   7
  -6  -1  -7 28117.9 1710.48   5
  -6  -1  -8 19280.6 1438.07   5
  -6  -1  -9 3790.84 720.168   5
  -6  -1 -10 3689.63 735.112   5
  -6  -1 -11 1221.88 534.069   5
  -6  -1 -12 12285.6 1261.39   5
  -6  -1 -13 9943.63 1175.97   5
  -6  -1 -14 4932.41 940.404   5
   6   2 -10 8883.51 1186.12   1
  -6  -2   9 16935.4 1544.94   2
   6   2  -9 19025.2 1645.43   1
   6   2  -8 6804.13 1019.79   1
  -6  -2   8 7137.62 1029.51   2
   6   2  -7 3349.38 754.836   1
  -6  -2   7 2188.94 713.693   2
   6   2  -6 320.490 550.246   1
  -6  -2   6 211.073 486.172   2
  -6  -2   5 14022.9 1108.24   2
   6   2  -5 11792.6 1204.32   1
  -6  -2   5 11486.5 834.216   3
  -6  -2   4 21017.7 1252.16   2
   6   2  -4 22173.4 1551.36   1
  -6  -2   4 19246.3 1397.39   5
   6   2  -3 10402.9 1089.79   1
  -6  -2   3 12173.5 882.498   2
  -6  -2   3 11334.4 1032.08   5
   6   2  -2 7980.38 969.418   1
  -6  -2   2 8823.97 687.761   2
  -6  -2   2 8617.66 916.297   5
   6   2  -1 11507.2 1104.27   1
  -6  -2   1 8720.08 587.462   2
  -6  -2   1 8798.60 904.820   5
  -6  -2   0 4217.73 320.945   2
  -6  -2   0 5353.12 729.625   5
  -6  -2  -1 20495.1 1323.89   5
  -6  -2  -2 49563.2 2149.59   5
  -6  -2  -3 10635.8 965.824   5
  -6  -2  -4 2987.12 586.919   5
   6   2   4 2585.19 373.285   7
  -6  -2  -5 8163.98 866.136   5
   6   2   5 7591.10 524.789   7
  -6  -2  -6 14827.7 1144.52   5
   6   2   6 13625.0 642.291   7
  -6  -2  -7 26444.7 1569.72   5
  -6  -2  -8 20191.2 1391.88   5
  -6  -2  -9 3166.28 652.881   5
  -6  -2 -10 4835.82 761.410   5
  -6  -2 -11 4314.33 729.484   5
  -6  -2 -12 24013.6 1690.86   5
  -6  -2 -13 16320.1 1425.35   5
  -6  -2 -14 1454.90 653.833   5
  -6  -2 -15 4984.51 948.457   5
  -6  -3   9 11727.3 1232.24   2
   6   3  -9 9909.09 1273.30   1
   6   3  -8 8275.77 1153.41   1
  -6  -3   8 6448.12 931.910   2
   6   3  -7 3129.31 792.120   1
  -6  -3   7 4612.15 776.076   2
   6   3  -6 2506.53 742.502   1
  -6  -3   6 323.405 559.885   4
  -6  -3   6 2393.93 599.364   2
  -6  -3   5 7703.01 808.375   2
   6   3  -5 8756.52 1028.70   1
  -6  -3   5 8133.65 958.729   4
  -6  -3   4 56431.3 2090.54   2
   6   3  -4 55305.4 2580.88   1
  -6  -3   4 48967.3 2301.51   4
  -6  -3   3 21648.6 1093.99   2
  -6  -3   3 19898.9 1321.21   5
   6   3  -3 21189.1 1528.11   1
  -6  -3   3 19423.5 1519.95   4
  -6  -3   2 200.009 396.746   5
  -6  -3   2 618.490 281.274   2
   6   3  -2 845.077 514.592   1
   6   3  -1 9657.97 998.081   1
  -6  -3   1 10792.1 916.180   5
  -6  -3   1 10393.3 561.076   2
   6   3   0 4084.25 716.527   1
  -6  -3   0 4590.83 651.063   5
  -6  -3   0 4462.26 259.422   2
  -6  -3  -1 24794.7 1358.61   5
  -6  -3  -2 55838.8 2181.03   5
  -6  -3  -3 4862.60 621.113   5
  -6  -3  -4 2734.94 510.304   5
  -6  -3  -5 11726.0 926.528   5
   6   3   5 9812.51 526.964   7
  -6  -3  -6 32868.8 1649.70   5
  -6  -3  -7 36553.9 1771.26   5
  -6  -3  -8 21084.2 1327.63   5
  -6  -3  -9 10675.9 964.666   5
  -6  -3 -10 969.371 416.348   5
  -6  -3 -11 1185.35 462.385   5
  -6  -3 -12 23331.7 1593.16   5
  -6  -3 -13 4071.80 747.135   5
  -6  -3 -14 5181.94 1097.53   4
   6   4  -9 12844.1 1412.36   1
  -6  -4   9 11372.9 1201.94   2
  -6  -4   8 4062.86 771.716   2
   6   4  -8 4165.17 893.907   1
  -6  -4   7 6350.80 841.807   2
   6   4  -7 5656.74 981.581   1
  -6  -4   6 3964.43 665.447   2
   6   4  -6 3735.87 848.847   1
  -6  -4   6 2301.74 543.656   4
  -6  -4   5 4706.23 640.575   2
   6   4  -5 3770.83 811.717   1
  -6  -4   5 5691.90 767.138   4
  -6  -4   4 28230.9 1624.09   4
   6   4  -4 29776.7 1855.99   1
  -6  -4   4 29887.5 1451.90   2
   6   4  -3 5906.79 886.048   1
  -6  -4   3 3730.57 738.659   4
  -6  -4   3 5919.98 582.941   2
  -6  -4   2 1525.29 317.726   2
  -6  -4   2 944.475 665.456   4
   6   4  -2 1609.62 605.987   1
  -6  -4   1 12016.0 914.240   5
   6   4  -1 15303.9 1235.49   1
  -6  -4   1 11298.9 1182.57   4
  -6  -4   1 14560.9 729.295   2
   6   4   0 24382.4 1547.54   1
  -6  -4   0 24818.1 1271.15   5
  -6  -4   0 24144.1 1601.97   4
   6   4   1 18888.9 1344.27   1
  -6  -4  -1 18943.9 1086.82   5
  -6  -4  -1 16705.8 1449.29   4
  -6  -4  -2 41606.8 1657.99   5
  -6  -4  -2 31626.3 2001.80   4
   6   4   3 1133.89 461.424   6
  -6  -4  -3 1394.93 358.256   5
   6   4   4 843.104 418.241   6
  -6  -4  -4 777.843 324.804   5
  -6  -4  -4 1992.43 1022.40   4
   6   4   5 2570.83 481.845   6
  -6  -4  -5 1859.20 399.223   5
  -6  -4  -6 40190.3 1724.30   5
   6   4   6 41205.7 1633.45   6
  -6  -4  -7 3616.39 548.424   5
  -6  -4  -7 3568.11 1059.05   4
   6   4   7 4063.28 492.763   6
  -6  -4  -8 24783.2 1348.91   5
  -6  -4  -8 20893.7 1708.97   4
   6   4   8 23014.9 1107.24   6
  -6  -4  -9 2497.95 506.763   5
   6   4   9 2383.06 383.286   6
  -6  -4 -10-230.244 289.754   5
  -6  -4 -10 1009.41 789.861   4
  -6  -4 -11 304.403 327.603   5
  -6  -4 -11 1053.01 803.045   4
  -6  -4 -12 33274.2 1830.34   5
  -6  -4 -12 30964.6 1932.61   4
  -6  -4 -13 3297.58 846.097   4
  -6  -4 -14 382.380 737.282   4
   6   5  -8 4045.49 921.622   1
  -6  -5   8 3370.29 704.120   2
   6   5  -7 5163.25 952.657   1
  -6  -5   7 3804.97 698.796   2
  -6  -5   6 4284.32 689.679   2
   6   5  -6 3858.75 842.920   1
  -6  -5   5 7628.95 823.510   2
   6   5  -5 6938.72 991.179   1
   6   5  -4 43661.7 2335.02   1
  -6  -5   4 43491.8 1923.55   2
  -6  -5   3 1282.10 381.984   2
   6   5  -3 1457.38 599.250   1
  -6  -5   3 24.3027 502.896   4
   6   5  -2 384.656 516.555   1
  -6  -5   2 469.307 270.504   2
  -6  -5   2 9.61952 549.780   4
   6   5  -1 6538.64 888.103   1
  -6  -5   1 7289.62 943.439   4
   6   5   0 18681.8 1351.12   1
  -6  -5   0 18513.6 1393.96   4
   6   5   0 20765.7 1459.75   6
   6   5   1 14684.7 1187.17   1
  -6  -5  -1 14523.9 842.202   5
  -6  -5  -1 14369.7 1256.35   4
   6   5   1 15791.3 1269.66   6
   6   5   2 34212.6 1807.06   1
  -6  -5  -2 33884.4 1356.30   5
  -6  -5  -2 34260.6 1909.37   4
   6   5   2 38136.2 1879.07   6
   6   5   3 4946.61 708.111   6
  -6  -5  -3 3870.28 436.447   5
  -6  -5  -3 2859.69 803.461   4
  -6  -5  -4 411.774 224.830   5
   6   5   4 871.593 439.709   6
  -6  -5  -5 3143.41 414.612   5
   6   5   5 3710.78 606.234   6
  -6  -5  -6 54118.9 1912.07   5
   6   5   6 55441.2 2126.81   6
  -6  -5  -7 22340.5 1150.58   5
  -6  -5  -7 18083.1 1458.28   4
   6   5   7 21055.4 1207.53   6
  -6  -5  -8 8242.98 706.042   5
  -6  -5  -8 5576.57 923.389   4
   6   5   8 7702.20 732.980   6
  -6  -5  -9 17449.3 1086.62   5
  -6  -5  -9 15791.8 1385.50   4
   6   5   9 17069.5 1054.52   6
  -6  -5 -10 1026.72 386.902   5
  -6  -5 -10 1512.16 667.574   4
   6   5  10 844.423 320.112   6
  -6  -5 -11 349.497 329.307   5
   6   5  11 389.046 515.165   3
  -6  -5 -11 1012.56 660.105   4
   6   5  12 31614.3 2079.43   3
  -6  -5 -12 32027.2 1897.73   4
   6   5  13 1660.62 674.345   3
  -6  -5 -13 1891.94 642.847   4
  -6  -5 -14 666.341 547.183   4
   6   6  -7 3781.30 834.822   1
   6   6  -6 6135.22 992.521   1
  -6  -6   6 4890.08 789.844   2
   6   6  -5 4314.61 850.980   1
  -6  -6   5 4197.82 675.733   2
  -6  -6   4 42243.6 1995.28   2
   6   6  -4 43567.5 2342.23   1
   6   6  -3-45.3770 458.415   1
   6   6  -2 532.970 600.441   6
   6   6  -2 189.005 481.410   1
   6   6  -1 4133.54 882.178   6
   6   6  -1 3928.36 741.718   1
   6   6   0 32452.4 1818.80   1
   6   6   0 31473.0 1918.69   6
   6   6   1 13837.8 1146.90   1
   6   6   1 14324.4 1231.00   6
   6   6   2 28501.9 1617.49   1
  -6  -6  -2 26733.9 1697.18   4
   6   6   2 28859.7 1703.50   6
   6   6   3 6545.02 793.125   1
  -6  -6  -3 5619.87 836.350   4
   6   6   3 6886.27 871.530   6
  -6  -6  -4-43.1254 557.083   4
   6   6   4 579.599 467.860   6
  -6  -6  -5-380.693 655.182   4
   6   6   5 734.857 449.690   6
   6   6   6 41177.2 1918.49   3
  -6  -6  -6 37829.9 2126.83   4
   6   6   6 42775.6 1977.88   6
   6   6   7 5074.03 747.960   3
  -6  -6  -7 6334.23 925.698   4
   6   6   7 5622.50 720.177   6
   6   6   8 12010.0 1112.32   3
  -6  -6  -8 10694.5 1143.77   4
   6   6   8 11689.1 982.381   6
   6   6   9 8499.44 1020.83   3
  -6  -6  -9 7455.03 972.723   4
   6   6   9 10804.5 942.862   6
   6   6  10 755.369 537.126   3
  -6  -6 -10 237.828 565.971   4
   6   6  11 3371.52 783.093   3
   6   6  12 29087.5 1982.74   3
   6   6  13 1831.16 708.777   3
   6   7  -6 5320.00 995.039   1
   6   7  -5 8537.00 1137.34   1
   6   7  -4 22762.3 1719.76   1
   6   7  -3-444.734 651.121   6
   6   7  -3 1000.89 595.978   1
   6   7  -2 140.475 675.678   6
   6   7  -2 638.781 537.183   1
   6   7  -1 22.4844 636.295   6
   6   7  -1 1620.70 593.067   1
   6   7   0 26115.1 1661.54   1
   6   7   0 24888.4 1758.99   6
   6   7   1 9304.56 976.033   1
   6   7   1 9660.80 1107.08   6
   6   7   2 18908.9 1319.81   1
   6   7   2 19636.3 1511.21   6
   6   7   3 4959.02 704.570   1
   6   7   3 5432.43 843.518   6
   6   7   4 749.616 385.938   3
   6   7   4 1284.19 529.066   6
   6   7   5 1578.37 491.794   3
   6   7   5 1551.80 566.185   6
   6   7   6 41917.7 1945.36   3
   6   7   6 37799.6 2019.54   6
   6   7   7 7672.61 926.022   3
   6   7   7 7986.02 939.498   6
   6   7   8 2688.05 706.246   3
   6   7   8 2744.63 631.997   6
   6   7   9 7239.59 974.825   3
   6   7   9 7123.65 878.173   6
   6   7  10 2737.18 735.657   3
   6   7  11 5339.77 939.691   3
   6   7  12 22135.7 1753.80   3
   6   7  13 1701.26 766.280   3
   6   8  -5 13255.5 1386.77   1
   6   8  -4 10890.0 1262.97   1
   6   8  -3 2054.02 774.224   6
   6   8  -3 2042.95 727.534   1
   6   8  -2 1476.67 750.574   6
   6   8  -2 2754.18 731.736   1
   6   8  -1 2410.75 779.739   6
   6   8  -1 1977.56 649.030   1
   6   8   0 23501.1 1585.80   1
   6   8   0 20955.7 1735.27   6
   6   8   1 11049.5 1060.90   1
   6   8   1 9590.23 1222.64   6
   6   8   2 6334.73 997.699   6
   6   8   3 5885.54 963.403   6
   6   8   4 1737.98 671.766   6
   6   8   5 3517.33 791.461   6
   6   8   6 23724.5 1503.05   3
   6   8   6 25434.6 1756.05   6
   6   8   7 4735.43 792.636   3
   6   8   7 4690.49 819.485   6
   6   8   8 1894.43 635.447   3
   6   8   8 2265.39 651.920   6
   6   8   9 6115.90 941.391   3
   6   8   9 5199.85 878.761   6
   6   8  10 2819.45 779.119   3
   6   8  11 10477.9 1254.28   3
   6   9   3 7288.48 1131.72   6
   6   9   4 2098.02 757.600   6
   6   9   5 6961.50 1061.36   6
   6   9   6 16496.6 1547.03   6
   6   9   7 6450.10 1046.81   6
   6   9   9 4693.61 914.141   3
   6   9  10 2137.67 775.651   3
   7  -2  -1-314.525 527.952   7
   7  -2   0 2451.16 683.626   7
   7  -2   1 11523.7 1225.95   7
   7  -2   2 3904.33 781.399   7
   7  -2   3 8980.55 1072.97   7
   7  -2   4 4676.03 807.156   7
  -7   1   6 4302.77 894.602   3
  -7   1   5 6539.57 966.918   3
   7  -1  -4 6175.66 1038.34   7
   7  -1  -3 12330.5 1325.99   7
  -7   1   2 582.761 614.407   5
   7  -1  -2 1224.28 590.390   7
  -7   1   1 52.8741 541.087   5
   7  -1  -1-648.355 512.066   7
  -7   1   0 500.524 473.030   5
   7  -1   0 1747.28 571.508   7
  -7   1  -1 17294.7 1577.93   5
   7  -1   1 19404.4 1475.95   7
  -7   1  -2 9754.92 1222.00   5
   7  -1   2 8196.55 957.617   7
  -7   1  -3 11468.2 1318.03   5
   7  -1   3 12511.4 1130.97   7
  -7   1  -4 6694.31 1023.75   5
   7  -1   4 7339.33 870.823   7
  -7   1  -5 96.2389 568.357   5
  -7   1  -6 616.385 581.452   5
  -7   1  -7 21941.1 1828.60   5
  -7   0   6 1656.18 612.874   3
  -7   0   5 7927.53 1002.45   3
  -7   0   5 7469.12 1161.59   5
  -7   0   4 6962.55 1104.22   5
  -7   0   3 23376.6 1792.78   5
  -7   0   2 2577.58 726.103   5
  -7   0   1 2467.36 676.592   5
   7   0  -1 2408.56 667.601   7
  -7   0   0 756.450 562.471   5
   7   0   0 1181.25 520.278   7
  -7   0  -1 20236.4 1631.59   5
   7   0   1 20657.2 1442.91   7
  -7   0  -2 9252.03 1138.53   5
   7   0   2 9500.62 966.463   7
  -7   0  -3 5961.80 925.129   5
   7   0   3 4460.65 661.863   7
  -7   0  -4 7815.88 1068.34   5
   7   0   4 8708.11 853.467   7
  -7   0  -5 2791.38 749.581   5
  -7   0  -6 4784.12 873.113   5
  -7   0  -7 27018.5 1927.96   5
  -7   0  -8 1737.46 671.224   5
  -7   0  -9 1835.29 620.794   5
  -7   0 -10 5300.97 979.401   5
   7   1  -7 2320.74 795.697   1
   7   1  -6 623.853 583.167   1
  -7  -1   5 12410.0 1348.83   5
  -7  -1   4 10264.1 1191.33   5
  -7  -1   3 7862.07 996.139   5
  -7  -1   2 2642.48 737.601   5
  -7  -1   1 1539.57 563.898   5
  -7  -1   0 230.709 508.383   5
  -7  -1  -1 34632.4 2021.40   5
   7   1   1 33361.6 1746.61   7
  -7  -1  -2 11935.6 1196.62   5
   7   1   2 13244.6 1026.14   7
  -7  -1  -3 4768.57 788.011   5
   7   1   3 4526.54 609.071   7
  -7  -1  -4 6351.35 901.377   5
   7   1   4 4563.58 582.747   7
  -7  -1  -5 1974.33 615.297   5
  -7  -1  -6 6530.88 958.751   5
  -7  -1  -7 23816.4 1724.45   5
  -7  -1  -8 5215.03 891.567   5
  -7  -1  -9 1850.94 657.830   5
  -7  -1 -10 3839.15 797.359   5
  -7  -1 -11 3760.66 816.882   5
  -7  -1 -12 13047.7 1378.35   5
   7   2  -7 2014.74 771.451   1
   7   2  -6 1180.60 555.167   1
   7   2  -5 17056.4 1531.27   1
   7   2  -4 27286.5 1923.34   1
  -7  -2   4 28175.8 1852.75   5
   7   2  -3 13741.2 1355.68   1
  -7  -2   3 11606.6 1173.65   5
  -7  -2   2 4782.43 810.950   5
  -7  -2   1 2753.44 665.945   5
  -7  -2   0 7269.89 909.302   5
  -7  -2  -1 26970.1 1668.89   5
  -7  -2  -2 15033.1 1240.34   5
  -7  -2  -3 6578.55 842.926   5
   7   2   3 6658.12 650.397   7
  -7  -2  -4 9244.10 998.808   5
   7   2   4 9598.16 742.076   7
  -7  -2  -5 5504.84 811.438   5
  -7  -2  -6 21499.8 1521.46   5
  -7  -2  -7 27688.5 1763.38   5
  -7  -2  -8 3738.08 697.771   5
  -7  -2  -9 12098.6 1202.81   5
  -7  -2 -10 4500.12 834.382   5
  -7  -2 -11 8603.68 1047.11   5
  -7  -2 -12 13550.8 1345.82   5
  -7  -2 -13 3964.45 801.957   5
   7   3  -7 3660.97 888.891   1
   7   3  -6 5548.98 1006.54   1
   7   3  -5 12148.1 1331.87   1
  -7  -3   5 9802.14 1156.71   4
   7   3  -4 15461.5 1457.75   1
  -7  -3   4 15095.3 1433.63   4
  -7  -3   3 4640.27 788.127   5
   7   3  -3 4951.56 918.324   1
   7   3  -2 2904.37 761.102   1
  -7  -3   2 2433.10 608.414   5
   7   3  -1 6961.58 967.550   1
  -7  -3   1 7814.99 901.091   5
  -7  -3   0 19571.5 1369.68   5
  -7  -3  -1 28438.1 1638.06   5
  -7  -3  -2 9668.88 944.043   5
  -7  -3  -3 5083.08 724.151   5
  -7  -3  -4 2073.81 551.985   5
  -7  -3  -5 2681.90 558.812   5
  -7  -3  -6 28390.3 1661.64   5
  -7  -3  -7 10161.1 1021.69   5
  -7  -3  -8 7974.36 925.951   5
  -7  -3  -9 6595.88 848.546   5
  -7  -3 -10 612.221 428.810   5
  -7  -3 -11 5235.06 822.269   5
  -7  -3 -12 18692.3 1487.08   5
  -7  -3 -13 3275.15 738.185   5
  -7  -3 -14 2318.56 648.494   5
   7   4  -6 3180.48 848.505   1
   7   4  -5 17275.6 1594.48   1
  -7  -4   5 21239.4 1470.26   4
   7   4  -4 21068.5 1667.45   1
  -7  -4   4 18528.9 1436.61   4
  -7  -4   3 1235.83 756.436   4
   7   4  -3 2212.53 683.017   1
  -7  -4   2 1417.00 477.461   5
   7   4  -2 1469.51 680.597   1
  -7  -4   1 3067.52 587.856   5
   7   4  -1 3188.61 716.131   1
  -7  -4   1 4373.37 972.849   4
   7   4   0 22726.8 1625.89   1
  -7  -4   0 21184.0 1334.41   5
  -7  -4   0 23626.1 1791.72   4
  -7  -4  -1 14286.0 1066.64   5
  -7  -4  -1 12874.1 1516.70   4
  -7  -4  -2 19611.4 1240.18   5
  -7  -4  -2 17807.0 1680.05   4
  -7  -4  -3 4951.07 654.572   5
  -7  -4  -4 1705.02 456.208   5
  -7  -4  -5 4565.66 644.690   5
  -7  -4  -6 49753.1 2151.55   5
  -7  -4  -7 15570.0 1166.73   5
  -7  -4  -8 525.072 400.390   5
  -7  -4  -9 14599.7 1163.07   5
  -7  -4 -10 5038.64 736.132   5
  -7  -4 -10 6160.67 1347.73   4
  -7  -4 -11 5174.90 786.467   5
  -7  -4 -11 5574.30 1254.81   4
  -7  -4 -12 33266.6 1936.40   5
  -7  -4 -12 32058.6 2206.11   4
  -7  -4 -13 1297.07 537.417   5
  -7  -4 -13 2207.77 999.463   4
  -7  -4 -14 602.892 490.398   5
  -7  -4 -14 1102.00 884.519   4
  -7  -4 -15 1275.65 582.182   5
   7   5  -6 9515.70 1238.40   1
   7   5  -5 12010.6 1340.27   1
   7   5  -4 19603.7 1624.70   1
  -7  -5   4 19373.4 1458.55   4
  -7  -5   3 814.205 624.094   4
   7   5  -3 517.305 465.499   1
  -7  -5   2 791.405 599.649   4
   7   5  -2 1056.74 644.432   1
  -7  -5   1 2041.34 771.610   4
   7   5  -1 1671.61 583.329   1
   7   5   0 33032.4 1944.28   1
  -7  -5   0 29340.9 1470.19   5
   7   5   1 19422.6 1481.45   1
  -7  -5  -1 17350.9 1086.09   5
  -7  -5  -1 17021.4 1452.71   4
  -7  -5  -2 10477.4 826.368   5
  -7  -5  -2 8137.57 1160.44   4
  -7  -5  -3 15166.2 992.256   5
  -7  -5  -3 10931.2 1314.46   4
   7   5   4 1858.57 538.518   6
  -7  -5  -4 1938.51 393.059   5
  -7  -5  -4 666.943 832.565   4
   7   5   5 3068.67 606.348   6
  -7  -5  -5 2931.77 486.600   5
  -7  -5  -5 2642.52 898.508   4
  -7  -5  -6 44087.1 1851.69   5
   7   5   6 43940.1 1916.09   6
   7   5   7 4067.80 596.273   6
  -7  -5  -7 4870.60 604.533   5
  -7  -5  -7 3506.97 971.716   4
  -7  -5  -8 2332.09 465.062   5
  -7  -5  -8 1554.88 892.345   4
  -7  -5  -9 10675.5 926.063   5
  -7  -5  -9 8401.62 1202.88   4
  -7  -5 -10 8186.62 851.761   5
  -7  -5 -10 4926.71 1018.44   4
  -7  -5 -11 7331.69 845.644   5
  -7  -5 -11 7463.61 1131.55   4
  -7  -5 -12 16472.6 1263.23   5
  -7  -5 -12 12906.5 1397.04   4
  -7  -5 -13 662.189 448.065   5
  -7  -5 -13-1525.07 935.304   4
  -7  -5 -14 1537.95 722.373   4
   7   6  -5 10483.4 1320.86   1
   7   6  -4 14079.0 1419.32   1
   7   6  -3 1972.72 630.925   1
   7   6  -2 1582.33 669.641   1
  -7  -6   1-469.984 659.798   4
   7   6  -1 153.350 425.326   1
   7   6   0 33578.6 1997.99   1
  -7  -6   0 30978.3 1930.01   4
   7   6   1 6477.12 973.888   6
   7   6   1 3930.92 784.671   1
  -7  -6  -1 4797.35 864.154   4
   7   6   2 8895.37 1027.84   1
  -7  -6  -2 8887.18 1121.07   4
   7   6   2 9751.76 1091.15   6
   7   6   3 7943.73 974.490   6
  -7  -6  -3 6977.73 1043.42   4
   7   6   4 612.322 493.417   6
  -7  -6  -4 1969.96 770.385   4
   7   6   5 2591.97 609.777   6
  -7  -6  -5 3417.81 871.353   4
  -7  -6  -6 38994.3 2300.38   4
   7   6   6 43190.9 2031.50   6
  -7  -6  -7 1027.18 731.709   4
   7   6   7 162.826 381.651   6
  -7  -6  -8 2782.09 854.650   4
   7   6   8 1133.62 469.576   6
  -7  -6  -9 5928.09 1017.75   4
  -7  -6 -10 5440.58 945.741   4
  -7  -6 -11 4697.46 938.860   4
  -7  -6 -12 20194.7 1657.02   4
  -7  -6 -13-26.4716 671.382   4
  -7  -6 -14-235.792 685.553   4
   7   7  -4 3882.85 890.209   1
   7   7  -3 2533.72 707.322   1
   7   7  -2 496.071 534.105   1
   7   7  -1 924.578 659.657   6
   7   7  -1 373.160 495.648   1
   7   7   0 35237.3 2076.87   1
   7   7   0 39106.8 2351.91   6
   7   7   1 7544.73 1064.11   6
   7   7   1 5259.17 858.207   1
   7   7   2 878.647 552.427   6
   7   7   2 1620.23 574.066   1
   7   7   3 8249.44 1020.18   6
   7   7   3 8873.71 1012.51   1
   7   7   4 7171.77 935.002   6
   7   7   5 4058.19 760.849   6
   7   7   6 38749.6 2064.29   6
   7   7   7 567.166 499.862   6
   7   7   8 1090.43 506.907   6
   7   7   9 3756.63 708.289   6
   7   7  10 13107.2 1303.23   3
   7   7  11 5117.42 925.985   3
   7   7  12 8745.41 1223.09   3
   7   8  -3 2302.31 706.816   1
   7   8  -2 474.524 525.279   1
   7   8  -1 3622.79 1023.48   6
   7   8  -1 1924.65 714.954   1
   7   8   0 24858.8 1776.98   1
   7   8   0 27917.7 2082.02   6
   7   8   1 3111.87 847.613   6
   7   8   1 3793.18 757.114   1
   7   8   2 2152.17 740.133   6
   7   8   2 1777.50 576.414   1
   7   8   3 8850.64 1123.52   6
   7   8   4 5161.76 922.805   6
   7   8   5 8840.41 1097.96   6
   7   8   6 23581.0 1721.84   6
   7   8   7 138.882 491.156   6
   7   8   8-355.350 563.679   3
   7   8   8 171.899 500.666   6
   7   8   9 3019.07 726.535   3
   7   8   9 3917.67 761.667   6
   7   8  10 11362.9 1251.96   3
   7   8  10 12205.4 1208.89   6
   7   8  11 7407.24 1068.96   3
   8  -1   0 919.956 534.229   7
   8  -1   1 16973.0 1499.89   7
  -8   0   4 2193.95 714.182   3
   8   0  -2 3917.58 809.875   7
   8   0  -1 1749.68 617.095   7
   8   0   0 343.818 411.805   7
   8   0   1 29092.0 1848.97   7
   8   0   2 506.133 456.591   7
  -8   0  -3 532.886 580.691   5
  -8  -1   2 7036.18 1072.21   5
  -8  -1   1 1757.41 681.915   5
  -8  -1   0 7056.50 1051.38   5
   8   1   0 5794.50 833.753   7
  -8  -1  -1 21162.2 1697.00   5
   8   1   1 19806.7 1449.10   7
  -8  -1  -2 1243.49 543.104   5
   8   1   2 1443.31 492.087   7
  -8  -1  -3 3053.91 738.110   5
  -8  -1  -4 6689.93 1003.27   5
  -8  -1  -5 7870.21 1118.15   5
  -8  -1  -6 12255.3 1332.89   5
  -8  -1  -7 18130.7 1620.95   5
  -8  -1  -8 1545.20 696.030   5
  -8  -1  -9 4277.37 889.097   5
  -8  -2   4 2706.44 765.181   5
  -8  -2   3 2580.65 719.745   5
  -8  -2   2 2840.23 693.030   5
  -8  -2   1 5541.82 906.075   5
  -8  -2   0 10185.7 1182.69   5
  -8  -2  -1 25421.2 1793.23   5
  -8  -2  -2 2482.19 679.111   5
   8   2   2 2753.17 535.209   7
  -8  -2  -3 2648.88 700.198   5
  -8  -2  -4 3231.24 735.825   5
  -8  -2  -5 11150.7 1206.10   5
  -8  -2  -6 13362.8 1334.97   5
  -8  -2  -7 9482.55 1127.82   5
  -8  -2  -8 1262.57 587.508   5
  -8  -2  -9 3170.29 754.027   5
  -8  -2 -10 1431.28 645.404   5
  -8  -2 -11 12030.4 1340.12   5
  -8  -3   4 10309.2 1395.73   4
  -8  -3   3 2114.77 699.591   5
   8   3  -3 1878.14 685.596   1
  -8  -3   2 2292.46 671.687   5
  -8  -3   1 1641.97 590.618   5
  -8  -3   0 13802.8 1275.14   5
  -8  -3  -1 16348.2 1357.05   5
  -8  -3  -2 3254.69 658.900   5
  -8  -3  -3 5935.89 865.690   5
  -8  -3  -4 1411.12 527.386   5
  -8  -3  -5 11882.7 1173.07   5
  -8  -3  -6 27068.2 1778.33   5
  -8  -3  -7 7306.53 950.114   5
  -8  -3  -8 6479.91 922.804   5
  -8  -3  -9 3386.06 752.595   5
  -8  -3 -10 3904.22 814.286   5
  -8  -3 -11 9936.34 1183.29   5
  -8  -3 -12 11375.2 1291.43   5
  -8  -4   4 3716.46 881.545   4
   8   4  -3 2532.20 828.950   1
  -8  -4   3 2269.51 872.095   4
   8   4  -2 1144.42 703.340   1
  -8  -4   2 1729.20 596.949   5
  -8  -4   2 2857.60 992.395   4
  -8  -4   1 3982.26 704.939   5
  -8  -4   1 5695.66 1238.86   4
  -8  -4   0 21769.1 1501.41   5
  -8  -4   0 21671.9 1935.10   4
  -8  -4  -1 13704.9 1181.66   5
  -8  -4  -1 16696.8 1732.12   4
  -8  -4  -2 2810.82 618.261   5
  -8  -4  -3 11637.8 1065.97   5
  -8  -4  -4 4783.43 726.362   5
  -8  -4  -5 14389.8 1186.40   5
  -8  -4  -6 20769.4 1460.06   5
  -8  -4  -7 4840.30 773.170   5
  -8  -4  -8 2134.05 565.033   5
  -8  -4  -9 5042.29 777.528   5
  -8  -4 -10 7598.54 968.774   5
  -8  -4 -11 14395.2 1320.16   5
  -8  -4 -12 7094.96 989.498   5
  -8  -4 -12 6522.52 1422.05   4
  -8  -4 -13 3598.88 789.568   5
  -8  -4 -13 2794.31 1214.96   4
  -8  -4 -14 1438.12 570.864   5
  -8  -5   4 6716.33 968.844   4
   8   5  -3 4323.38 960.936   1
  -8  -5   3 4502.13 872.029   4
   8   5  -2 857.144 653.954   1
  -8  -5   2 877.835 757.074   4
   8   5  -1 2136.79 661.901   1
  -8  -5   1 1563.29 746.531   4
   8   5   0 31945.7 2089.60   1
  -8  -5   0 24993.5 1911.23   4
  -8  -5  -1 2692.58 920.523   4
  -8  -5  -2 826.011 924.212   4
  -8  -5  -3 5223.57 1107.53   4
  -8  -5  -4 6061.70 1218.91   4
  -8  -5  -5 9816.34 1412.38   4
  -8  -5  -6 24395.0 2030.69   4
  -8  -5  -7 4259.99 1170.76   4
  -8  -5  -8 1856.07 1071.34   4
  -8  -5  -9 3984.55 1146.35   4
  -8  -5 -10 11304.6 1493.85   4
  -8  -5 -11 4600.83 1184.25   4
  -8  -5 -12 6540.29 1234.45   4
  -8  -5 -13 909.010 878.170   4
  -8  -6   3 3705.78 800.680   4
   8   6  -2 3519.52 894.999   1
  -8  -6   2 2568.64 745.511   4
   8   6  -1 6420.25 979.347   1
  -8  -6   1 4367.38 897.973   4
   8   6   0 28498.8 1974.56   1
  -8  -6   0 22682.6 1756.68   4
   8   6   1 2513.58 710.627   1
  -8  -6  -1 1215.18 737.076   4
  -8  -6  -2 2167.60 846.348   4
  -8  -6  -3 6870.92 1122.18   4
  -8  -6  -4 8181.65 1198.08   4
   8   6   5 8127.35 965.743   6
  -8  -6  -5 5024.52 1069.58   4
  -8  -6  -6 15709.2 1545.52   4
  -8  -6  -7-585.206 910.164   4
  -8  -6  -8-909.154 983.951   4
  -8  -6  -9 1051.16 876.141   4
  -8  -6 -10 14876.8 1524.82   4
  -8  -6 -11 6439.71 1164.22   4
  -8  -6 -12 6936.90 1183.54   4
   8   7  -2 351.363 641.152   1
   8   7  -1 6427.72 1032.09   1
   8   7   0 26692.2 1953.33   1
   8   7   1 557.614 583.250   1
  -8  -7  -2-227.074 757.736   4
   8   7   2 180.146 470.175   1
   8   7   3 4437.57 907.573   6
  -8  -7  -3 3787.69 890.439   4
  -8  -7  -4 11492.8 1336.60   4
   8   7   4 14730.0 1391.64   6
   8   7   5 6693.44 973.245   6
  -8  -7  -5 6148.35 1090.81   4
  -8  -7  -6 18713.6 1682.02   4
   8   7   6 21570.7 1553.92   6
   8   7   7 1335.98 567.283   6
  -8  -7  -7 633.830 672.017   4
  -8  -7  -8-509.001 766.678   4
  -8  -7  -9-549.506 832.586   4
   8   8   0 21001.2 1731.47   1
   8   8   1 72.7904 647.667   6
   8   8   1 259.841 485.653   1
   8   8   2 1035.94 773.592   6
   8   8   2 166.382 516.653   1
   8   8   3 2333.71 769.005   6
   8   8   4 12099.2 1326.91   6
   8   8   5 7468.89 1063.10   6
   8   8   6 6948.38 1004.81   6
   8   8   7 4507.00 841.925   6
  -9  -2  -2 1954.85 736.870   5
  -9  -2  -3 1499.98 591.439   5
  -9  -2  -4-186.617 575.633   5
  -9  -2  -5 17170.0 1583.73   5
  -9  -3   2 1839.13 750.946   5
  -9  -3   1 10981.0 1265.27   5
  -9  -3   0 12063.8 1309.28   5
  -9  -3  -1 6251.76 980.064   5
  -9  -3  -2 2335.37 703.494   5
  -9  -3  -3 2208.51 700.046   5
  -9  -3  -4 4260.66 831.754   5
  -9  -3  -5 15236.7 1426.74   5
  -9  -3  -6 4520.65 859.359   5
  -9  -3  -7 3855.19 826.045   5
  -9  -3  -8 3944.28 829.370   5
  -9  -3  -9 2071.34 690.857   5
  -9  -4   3 1906.43 1021.69   4
  -9  -4   2 447.406 514.888   5
  -9  -4   2 2182.33 1075.78   4
  -9  -4   1 9548.18 1116.99   5
  -9  -4   1 8586.64 1472.50   4
  -9  -4   0 11098.3 1189.29   5
  -9  -4   0 13406.4 1717.16   4
  -9  -4  -1 7361.32 987.161   5
  -9  -4  -2 820.962 487.421   5
  -9  -4  -3 1465.81 597.159   5
  -9  -4  -4 3378.51 725.981   5
  -9  -4  -5 15998.6 1382.34   5
  -9  -4  -6 10834.4 1138.62   5
  -9  -4  -7 2902.75 699.545   5
  -9  -4  -8 1373.01 582.248   5
  -9  -4  -9 1728.62 690.692   5
  -9  -4 -10 11110.6 1245.02   5
  -9  -4 -11 8032.83 1108.35   5
  -9  -5   3 2917.02 882.482   4
  -9  -5   2 2544.37 906.343   4
  -9  -5   1 7802.81 1283.85   4
  -9  -5   0 15591.9 1669.46   4
  -9  -5  -1 3217.23 1147.57   4
  -9  -5  -2 1560.49 1034.53   4
  -9  -5  -3 2486.37 1179.92   4
  -9  -5  -4 10901.2 1616.64   4
  -9  -5  -5 11767.5 1650.19   4
  -9  -5  -6 9414.88 1594.91   4
  -9  -6   0 10500.3 1375.41   4
  -9  -6  -1 3901.84 1039.84   4
  -9  -6  -2-326.529 869.244   4
   9   8   4 20596.8 1806.79   6
;
_shelx_hkl_checksum              60235
_shelx_res_file
;
TITL    ap85 in P1
CELL   0.71073      7.5105   7.5353  13.8994   79.612   75.806   61.115
ZERR         1      0.0004   0.0004   0.0007    0.004    0.004    0.005
LATT -1
SFAC    C   H   N   O   I
UNIT    22 30 4 2 4
L.S.    4
FMAP    2
PLAN    -10
temp -173
isor .003 .003 $c $n
bond $h
conf
EQIV $1 x, y, z+1
HTAB C3A I3_$1
EQIV $2 x, y+1, z
HTAB C10A I1_$2
EQIV $3 x+1, y, z
HTAB C10A I1_$3
HTAB C11A I1_$3
EQIV $4 x+1, y+1, z
HTAB C11A I1_$4
HTAB N12A O2A_$3
HTAB N12A I1_$3
EQIV $5 x+1, y, z+1
HTAB N12A I4_$5
EQIV $6 x+1, y+1, z+1
HTAB C13A I4_$6
HTAB C13A I4_$5
HTAB C3B I3_$4
HTAB C10B I1_$2
HTAB C11B I1_$3
HTAB C11B I1
EQIV $7 x, y-1, z
HTAB N12B O2B_$7
HTAB N12B I1_$3
HTAB N12B I2_$3
HTAB C13B I2
HTAB C13B I2_$3
HTAB C13B I3_$3
acta 50
WGHT    0.017000
FVAR       2.59346
I1    5    0.251131    0.311192    0.546034    11.00000    0.01632    0.01551 =
         0.02798   -0.00280   -0.00726   -0.00691
I2    5    0.407499    0.287919    0.226059    11.00000    0.01659    0.01714 =
         0.02264    0.00134   -0.00691   -0.00799
I3    5    0.310050    0.248635    0.041340    11.00000    0.01731    0.01439 =
         0.01708   -0.00157    0.00241   -0.00990
I4    5    0.202898    0.219860   -0.141343    11.00000    0.01794    0.01542 =
         0.02242   -0.00497   -0.00309   -0.00748
N1A   3    0.710523    0.748783    0.764004    11.00000    0.00909    0.01369 =
         0.01092   -0.00035   -0.00242   -0.00383
C2A   1    0.615151    0.625321    0.772060    11.00000    0.01110    0.01040 =
         0.01064    0.00000   -0.00195   -0.00410
O2A   4    0.570022    0.605493    0.695327    11.00000    0.01631    0.02284 =
         0.01889   -0.00378   -0.00243   -0.01136
C3A   1    0.573566    0.539580    0.867862    11.00000    0.01441    0.01273 =
         0.01420    0.00276    0.00075   -0.00814
AFIX  43
H3A   2    0.518651    0.446449    0.876323    11.00000   -1.20000
AFIX   0
C4A   1    0.609636    0.586008    0.948945    11.00000    0.01379    0.01566 =
         0.01250    0.00068    0.00002   -0.00491
AFIX  43
H4A   2    0.574608    0.529576    1.013149    11.00000   -1.20000
AFIX   0
C5A   1    0.696932    0.714771    0.938510    11.00000    0.01539    0.01759 =
         0.01300   -0.00341   -0.00309   -0.00587
AFIX  43
H5A   2    0.722807    0.746689    0.995094    11.00000   -1.20000
AFIX   0
C6A   1    0.745057    0.794765    0.846721    11.00000    0.00881    0.01092 =
         0.00780    0.00050   -0.00414   -0.00153
C7A   1    0.856067    0.924852    0.827970    11.00000    0.01222    0.01475 =
         0.01580   -0.00419   -0.00079   -0.00782
AFIX  13
H7A   2    0.816027    0.998575    0.888915    11.00000   -1.20000
AFIX   0
C8A   1    0.794899    1.082275    0.740879    11.00000    0.01417    0.01471 =
         0.02096   -0.00164   -0.00064   -0.00897
AFIX  23
H8A1  2    0.643420    1.170411    0.752715    11.00000   -1.20000
H8A2  2    0.864308    1.168717    0.732384    11.00000   -1.20000
AFIX   0
C9A   1    0.861275    0.968199    0.649207    11.00000    0.01305    0.01635 =
         0.01549    0.00220   -0.00394   -0.00908
AFIX  13
H9A   2    0.821503    1.069277    0.591018    11.00000   -1.20000
AFIX   0
C10A  1    0.745866    0.841555    0.663518    11.00000    0.01409    0.01353 =
         0.01138   -0.00056   -0.00143   -0.00721
AFIX  23
H10A  2    0.609792    0.929665    0.643489    11.00000   -1.20000
H10B  2    0.824529    0.731644    0.617333    11.00000   -1.20000
AFIX   0
C11A  1    1.094763    0.836206    0.628697    11.00000    0.01203    0.01335 =
         0.01429    0.00029   -0.00317   -0.00735
AFIX  23
H11A  2    1.133090    0.758468    0.570244    11.00000   -1.20000
H11B  2    1.162920    0.924992    0.611980    11.00000   -1.20000
AFIX   0
N12A  3    1.173209    0.690980    0.714996    11.00000    0.01341    0.00954 =
         0.01533   -0.00269   -0.00340   -0.00714
AFIX  23
H12A  2    1.135498    0.580053    0.720420    11.00000   -1.20000
H12B  2    1.326045    0.629717    0.702507    11.00000   -1.20000
AFIX   0
C13A  1    1.088595    0.789640    0.811296    11.00000    0.01295    0.01660 =
         0.01712   -0.00266   -0.00417   -0.00857
AFIX  23
H13A  2    1.157691    0.872242    0.812921    11.00000   -1.20000
H13B  2    1.122144    0.682593    0.866603    11.00000   -1.20000
AFIX   0
N1B   3    0.860686    0.805930    0.325563    11.00000    0.00932    0.00606 =
         0.00845    0.00223   -0.00237   -0.00463
C2B   1    0.984117    0.900253    0.317051    11.00000    0.01516    0.01160 =
         0.01463    0.00022   -0.00481   -0.00439
O2B   4    0.991964    0.961250    0.393675    11.00000    0.02231    0.01774 =
         0.01600    0.00373   -0.01033   -0.01466
C3B   1    1.095513    0.917020    0.220615    11.00000    0.01138    0.01674 =
         0.01180    0.00140    0.00125   -0.00761
AFIX  43
H3B   2    1.189021    0.972174    0.211836    11.00000   -1.20000
AFIX   0
C4B   1    1.072503    0.857319    0.141729    11.00000    0.01578    0.01420 =
         0.01338    0.00198   -0.00239   -0.00684
AFIX  43
H4B   2    1.144916    0.874810    0.077322    11.00000   -1.20000
AFIX   0
C5B   1    0.937836    0.766596    0.154721    11.00000    0.01515    0.01305 =
         0.01157   -0.00280   -0.00233   -0.00539
AFIX  43
H5B   2    0.920291    0.722632    0.099383    11.00000   -1.20000
AFIX   0
C6B   1    0.836886    0.745030    0.246856    11.00000    0.01216    0.00857 =
         0.01144    0.00103   -0.00064   -0.00392
C7B   1    0.699906    0.640988    0.264116    11.00000    0.01683    0.01790 =
         0.01567   -0.00240   -0.00753   -0.00805
AFIX  13
H7B   2    0.640527    0.668678    0.202844    11.00000   -1.20000
AFIX   0
C8B   1    0.521023    0.726542    0.351061    11.00000    0.01639    0.01467 =
         0.01952   -0.00092   -0.00501   -0.00921
AFIX  23
H8B1  2    0.430913    0.660466    0.360937    11.00000   -1.20000
H8B2  2    0.436758    0.874771    0.338339    11.00000   -1.20000
AFIX   0
C9B   1    0.619663    0.681362    0.443620    11.00000    0.01221    0.01381 =
         0.01140    0.00008   -0.00121   -0.00616
AFIX  13
H9B   2    0.505547    0.735911    0.501955    11.00000   -1.20000
AFIX   0
C10B  1    0.748863    0.793503    0.427877    11.00000    0.01599    0.01679 =
         0.01324   -0.00127   -0.00340   -0.00624
AFIX  23
H10C  2    0.656415    0.933505    0.448396    11.00000   -1.20000
H10D  2    0.851245    0.725586    0.472650    11.00000   -1.20000
AFIX   0
C11B  1    0.740663    0.451185    0.464077    11.00000    0.01770    0.01916 =
         0.01708   -0.00024   -0.00213   -0.00874
AFIX  23
H11C  2    0.804977    0.422209    0.523029    11.00000   -1.20000
H11D  2    0.643972    0.391499    0.479434    11.00000   -1.20000
AFIX   0
N12B  3    0.903944    0.354536    0.378072    11.00000    0.01253    0.01294 =
         0.01324    0.00135   -0.00321   -0.00840
AFIX  23
H12C  2    0.966239    0.205115    0.391692    11.00000   -1.20000
H12D  2    1.014113    0.394936    0.371102    11.00000   -1.20000
AFIX   0
C13B  1    0.827107    0.409738    0.281917    11.00000    0.01614    0.01332 =
         0.01679   -0.00114   -0.00465   -0.01004
AFIX  23
H13C  2    0.740249    0.343680    0.282948    11.00000   -1.20000
H13D  2    0.946390    0.358530    0.226470    11.00000   -1.20000
AFIX   0
HKLF 4
REM     ap85 in P1
REM R1 =  0.0336 for    3638 Fo > 4sig(Fo)  and  0.0402 for all    4020 data
REM    289 parameters refined using    159 restraints
END
WGHT      0.0166      0.0000
REM Highest difference peak  0.967,  deepest hole -0.800,  1-sigma level  0.171
Q1    1   0.3379  0.2532  0.4873  11.00000  0.05    0.97
Q2    1   0.4494  0.1434  0.2351  11.00000  0.05    0.96
Q3    1   0.5020  0.0798  0.5373  11.00000  0.05    0.95
Q4    1   0.4429 -0.0124 -0.1370  11.00000  0.05    0.91
Q5    1   0.2618  0.4035  0.0305  11.00000  0.05    0.90
Q6    1   0.3060  0.3821  0.1838  11.00000  0.05    0.89
Q7    1   0.1100  0.2882 -0.0829  11.00000  0.05    0.86
Q8    1   0.5189  0.2535  0.1788  11.00000  0.05    0.85
Q9    1   0.0188  0.5325  0.5462  11.00000  0.05    0.85
Q10   1   0.1823  0.5287  0.2243  11.00000  0.05    0.84
;
_shelx_res_checksum              51132
_shelxl_version_number           .2013
loop_
_space_group_symop_operation_xyz
'x, y, z'
loop_
_atom_site_type_symbol
_atom_site_label
_atom_site_fract_x
_atom_site_fract_y
_atom_site_fract_z
_atom_site_U_iso_or_equiv
_atom_site_adp_type
_atom_site_calc_flag
_atom_site_occupancy
I I1 0.25113(10) 0.31119(10) 0.54603(7) 0.01932(18) Uani d 1
I I2 0.40750(9) 0.28792(8) 0.22606(6) 0.0184(2) Uani d 1
I I3 0.31005(12) 0.24863(11) 0.04134(7) 0.01617(16) Uani d 1
I I4 0.20290(9) 0.21986(8) -0.14134(5) 0.0183(2) Uani d 1
N N1A 0.7105(13) 0.7488(13) 0.7640(8) 0.012(2) Uani d 1
C C2A 0.6152(17) 0.6253(16) 0.7721(10) 0.011(3) Uani d 1
O O2A 0.5700(11) 0.6055(11) 0.6953(7) 0.018(2) Uani d 1
C C3A 0.5736(16) 0.5396(16) 0.8679(9) 0.014(3) Uani d 1
H H3A 0.5187 0.4464 0.8763 0.017 Uiso calc 1
C C4A 0.6096(16) 0.5860(16) 0.9489(9) 0.016(3) Uani d 1
H H4A 0.5746 0.5296 1.0131 0.019 Uiso calc 1
C C5A 0.6969(18) 0.7148(18) 0.9385(10) 0.016(3) Uani d 1
H H5A 0.7228 0.7467 0.9951 0.019 Uiso calc 1
C C6A 0.7451(16) 0.7948(16) 0.8467(9) 0.010(2) Uani d 1
C C7A 0.8561(16) 0.9249(16) 0.8280(9) 0.013(3) Uani d 1
H H7A 0.8160 0.9986 0.8889 0.016 Uiso calc 1
C C8A 0.7949(16) 1.0823(15) 0.7409(9) 0.016(2) Uani d 1
H H8A1 0.6434 1.1704 0.7527 0.019 Uiso calc 1
H H8A2 0.8643 1.1687 0.7324 0.019 Uiso calc 1
C C9A 0.8613(16) 0.9682(16) 0.6492(9) 0.014(3) Uani d 1
H H9A 0.8215 1.0693 0.5910 0.017 Uiso calc 1
C C10A 0.7459(17) 0.8416(16) 0.6635(9) 0.013(3) Uani d 1
H H10A 0.6098 0.9297 0.6435 0.015 Uiso calc 1
H H10B 0.8245 0.7316 0.6173 0.015 Uiso calc 1
C C11A 1.0948(15) 0.8362(15) 0.6287(8) 0.013(2) Uani d 1
H H11A 1.1331 0.7585 0.5702 0.015 Uiso calc 1
H H11B 1.1629 0.9250 0.6120 0.015 Uiso calc 1
N N12A 1.1732(13) 0.6910(12) 0.7150(7) 0.012(2) Uani d 1
H H12A 1.1355 0.5801 0.7204 0.014 Uiso calc 1
H H12B 1.3260 0.6297 0.7025 0.014 Uiso calc 1
C C13A 1.0886(16) 0.7896(16) 0.8113(9) 0.014(2) Uani d 1
H H13A 1.1577 0.8722 0.8129 0.017 Uiso calc 1
H H13B 1.1221 0.6826 0.8666 0.017 Uiso calc 1
N N1B 0.8607(13) 0.8059(12) 0.3256(7) 0.008(2) Uani d 1
C C2B 0.9841(18) 0.9003(17) 0.3171(10) 0.014(3) Uani d 1
O O2B 0.9920(11) 0.9613(11) 0.3937(6) 0.0157(19) Uani d 1
C C3B 1.0955(16) 0.9170(16) 0.2206(9) 0.014(3) Uani d 1
H H3B 1.1890 0.9722 0.2118 0.017 Uiso calc 1
C C4B 1.0725(16) 0.8573(16) 0.1417(9) 0.015(3) Uani d 1
H H4B 1.1449 0.8748 0.0773 0.018 Uiso calc 1
C C5B 0.9378(17) 0.7666(17) 0.1547(10) 0.013(3) Uani d 1
H H5B 0.9203 0.7226 0.0994 0.016 Uiso calc 1
C C6B 0.8369(16) 0.7450(15) 0.2469(9) 0.012(2) Uani d 1
C C7B 0.6999(17) 0.6410(16) 0.2641(9) 0.016(3) Uani d 1
H H7B 0.6405 0.6687 0.2028 0.019 Uiso calc 1
C C8B 0.5210(16) 0.7265(16) 0.3511(9) 0.016(2) Uani d 1
H H8B1 0.4309 0.6605 0.3609 0.019 Uiso calc 1
H H8B2 0.4368 0.8748 0.3383 0.019 Uiso calc 1
C C9B 0.6197(17) 0.6814(16) 0.4436(9) 0.013(3) Uani d 1
H H9B 0.5055 0.7359 0.5020 0.015 Uiso calc 1
C C10B 0.7489(18) 0.7935(17) 0.4279(9) 0.016(3) Uani d 1
H H10C 0.6564 0.9335 0.4484 0.019 Uiso calc 1
H H10D 0.8512 0.7256 0.4726 0.019 Uiso calc 1
C C11B 0.7407(16) 0.4512(15) 0.4641(9) 0.018(3) Uani d 1
H H11C 0.8050 0.4222 0.5230 0.022 Uiso calc 1
H H11D 0.6440 0.3915 0.4794 0.022 Uiso calc 1
N N12B 0.9039(13) 0.3545(12) 0.3781(7) 0.012(2) Uani d 1
H H12C 0.9662 0.2051 0.3917 0.014 Uiso calc 1
H H12D 1.0141 0.3949 0.3711 0.014 Uiso calc 1
C C13B 0.8271(15) 0.4097(15) 0.2819(9) 0.014(2) Uani d 1
H H13C 0.7402 0.3437 0.2829 0.016 Uiso calc 1
H H13D 0.9464 0.3585 0.2265 0.016 Uiso calc 1
loop_
_atom_site_aniso_label
_atom_site_aniso_U_11
_atom_site_aniso_U_22
_atom_site_aniso_U_33
_atom_site_aniso_U_12
_atom_site_aniso_U_13
_atom_site_aniso_U_23
I1 0.0163(4) 0.0155(4) 0.0280(5) -0.0069(3) -0.0073(3) -0.0028(3)
I2 0.0166(4) 0.0171(4) 0.0226(6) -0.0080(4) -0.0069(4) 0.0013(4)
I3 0.0173(3) 0.0144(3) 0.0171(4) -0.0099(3) 0.0024(3) -0.0016(3)
I4 0.0179(4) 0.0154(4) 0.0224(6) -0.0075(3) -0.0031(3) -0.0050(4)
N1A 0.009(3) 0.014(3) 0.011(4) -0.004(3) -0.002(3) 0.000(3)
C2A 0.011(4) 0.010(4) 0.011(4) -0.004(3) -0.002(3) 0.000(3)
O2A 0.016(4) 0.023(4) 0.019(6) -0.011(4) -0.002(4) -0.004(4)
C3A 0.014(4) 0.013(4) 0.014(4) -0.008(3) 0.001(3) 0.003(3)
C4A 0.014(4) 0.016(4) 0.012(4) -0.005(3) 0.000(3) 0.001(3)
C5A 0.015(4) 0.018(4) 0.013(4) -0.006(3) -0.003(3) -0.003(3)
C6A 0.009(4) 0.011(4) 0.008(4) -0.002(3) -0.004(3) 0.000(3)
C7A 0.012(4) 0.015(4) 0.016(4) -0.008(3) -0.001(3) -0.004(3)
C8A 0.014(4) 0.015(4) 0.021(4) -0.009(3) -0.001(3) -0.002(3)
C9A 0.013(4) 0.016(4) 0.015(4) -0.009(3) -0.004(3) 0.002(3)
C10A 0.014(4) 0.014(4) 0.011(4) -0.007(3) -0.001(3) -0.001(3)
C11A 0.012(4) 0.013(4) 0.014(4) -0.007(3) -0.003(3) 0.000(3)
N12A 0.013(3) 0.010(3) 0.015(4) -0.007(3) -0.003(3) -0.003(3)
C13A 0.013(4) 0.017(4) 0.017(4) -0.009(3) -0.004(3) -0.003(3)
N1B 0.009(3) 0.006(3) 0.008(3) -0.005(3) -0.002(3) 0.002(3)
C2B 0.015(4) 0.012(4) 0.015(4) -0.004(3) -0.005(3) 0.000(3)
O2B 0.022(4) 0.018(4) 0.016(5) -0.015(4) -0.010(4) 0.004(4)
C3B 0.011(4) 0.017(4) 0.012(4) -0.008(3) 0.001(3) 0.001(3)
C4B 0.016(4) 0.014(4) 0.013(4) -0.007(3) -0.002(3) 0.002(3)
C5B 0.015(4) 0.013(4) 0.012(4) -0.005(3) -0.002(3) -0.003(3)
C6B 0.012(4) 0.009(4) 0.011(4) -0.004(3) -0.001(3) 0.001(3)
C7B 0.017(4) 0.018(4) 0.016(4) -0.008(3) -0.008(3) -0.002(3)
C8B 0.016(4) 0.015(4) 0.020(4) -0.009(3) -0.005(3) -0.001(3)
C9B 0.012(4) 0.014(4) 0.011(4) -0.006(3) -0.001(3) 0.000(3)
C10B 0.016(4) 0.017(4) 0.013(4) -0.006(3) -0.003(3) -0.001(3)
C11B 0.018(4) 0.019(4) 0.017(4) -0.009(3) -0.002(3) 0.000(3)
N12B 0.013(3) 0.013(3) 0.013(4) -0.008(3) -0.003(3) 0.001(3)
C13B 0.016(4) 0.013(4) 0.017(4) -0.010(3) -0.005(3) -0.001(3)
loop_
_atom_type_symbol
_atom_type_description
_atom_type_scat_dispersion_real
_atom_type_scat_dispersion_imag
_atom_type_scat_source
C C 0.0033 0.0016 'International Tables Vol C Tables 4.2.6.8 and 6.1.1.4'
H H 0.0000 0.0000 'International Tables Vol C Tables 4.2.6.8 and 6.1.1.4'
N N 0.0061 0.0033 'International Tables Vol C Tables 4.2.6.8 and 6.1.1.4'
O O 0.0106 0.0060 'International Tables Vol C Tables 4.2.6.8 and 6.1.1.4'
I I -0.4742 1.8119 'International Tables Vol C Tables 4.2.6.8 and 6.1.1.4'
loop_
_geom_angle_atom_site_label_1
_geom_angle_atom_site_label_2
_geom_angle_atom_site_label_3
_geom_angle
I4 I3 I2 178.45(3)
C6A N1A C2A 121.2(11)
C6A N1A C10A 123.7(10)
C2A N1A C10A 114.7(10)
O2A C2A N1A 118.0(11)
O2A C2A C3A 126.0(11)
N1A C2A C3A 115.9(11)
C4A C3A C2A 121.9(11)
C4A C3A H3A 119.1
C2A C3A H3A 119.1
C3A C4A C5A 120.4(11)
C3A C4A H4A 119.8
C5A C4A H4A 119.8
C6A C5A C4A 119.2(12)
C6A C5A H5A 120.4
C4A C5A H5A 120.4
C5A C6A N1A 121.2(11)
C5A C6A C7A 122.3(11)
N1A C6A C7A 116.2(10)
C13A C7A C8A 110.9(10)
C13A C7A C6A 109.8(8)
C8A C7A C6A 112.0(9)
C13A C7A H7A 108.0
C8A C7A H7A 108.0
C6A C7A H7A 108.0
C9A C8A C7A 107.2(9)
C9A C8A H8A1 110.3
C7A C8A H8A1 110.3
C9A C8A H8A2 110.3
C7A C8A H8A2 110.3
H8A1 C8A H8A2 108.5
C8A C9A C11A 110.8(9)
C8A C9A C10A 108.9(9)
C11A C9A C10A 111.6(9)
C8A C9A H9A 108.5
C11A C9A H9A 108.5
C10A C9A H9A 108.5
N1A C10A C9A 116.8(10)
N1A C10A H10A 108.1
C9A C10A H10A 108.1
N1A C10A H10B 108.1
C9A C10A H10B 108.1
H10A C10A H10B 107.3
N12A C11A C9A 112.9(9)
N12A C11A H11A 109.0
C9A C11A H11A 109.0
N12A C11A H11B 109.0
C9A C11A H11B 109.0
H11A C11A H11B 107.8
C13A N12A C11A 112.9(8)
C13A N12A H12A 109.0
C11A N12A H12A 109.0
C13A N12A H12B 109.0
C11A N12A H12B 109.0
H12A N12A H12B 107.8
N12A C13A C7A 113.5(9)
N12A C13A H13A 108.9
C7A C13A H13A 108.9
N12A C13A H13B 108.9
C7A C13A H13B 108.9
H13A C13A H13B 107.7
C6B N1B C2B 122.6(10)
C6B N1B C10B 124.0(9)
C2B N1B C10B 113.3(9)
O2B C2B N1B 119.0(11)
O2B C2B C3B 124.9(12)
N1B C2B C3B 116.1(11)
C4B C3B C2B 121.7(11)
C4B C3B H3B 119.2
C2B C3B H3B 119.2
C3B C4B C5B 119.6(11)
C3B C4B H4B 120.2
C5B C4B H4B 120.2
C6B C5B C4B 118.6(12)
C6B C5B H5B 120.7
C4B C5B H5B 120.7
N1B C6B C5B 121.3(11)
N1B C6B C7B 118.6(10)
C5B C6B C7B 120.1(11)
C6B C7B C8B 110.9(9)
C6B C7B C13B 110.8(9)
C8B C7B C13B 110.7(10)
C6B C7B H7B 108.1
C8B C7B H7B 108.1
C13B C7B H7B 108.1
C7B C8B C9B 106.3(9)
C7B C8B H8B1 110.5
C9B C8B H8B1 110.5
C7B C8B H8B2 110.5
C9B C8B H8B2 110.5
H8B1 C8B H8B2 108.7
C10B C9B C11B 114.2(9)
C10B C9B C8B 109.0(9)
C11B C9B C8B 109.2(9)
C10B C9B H9B 108.1
C11B C9B H9B 108.1
C8B C9B H9B 108.1
N1B C10B C9B 116.0(10)
N1B C10B H10C 108.3
C9B C10B H10C 108.3
N1B C10B H10D 108.3
C9B C10B H10D 108.3
H10C C10B H10D 107.4
N12B C11B C9B 111.9(9)
N12B C11B H11C 109.2
C9B C11B H11C 109.2
N12B C11B H11D 109.2
C9B C11B H11D 109.2
H11C C11B H11D 107.9
C11B N12B C13B 113.7(8)
C11B N12B H12C 108.8
C13B N12B H12C 108.8
C11B N12B H12D 108.8
C13B N12B H12D 108.8
H12C N12B H12D 107.7
N12B C13B C7B 111.4(8)
N12B C13B H13C 109.3
C7B C13B H13C 109.3
N12B C13B H13D 109.3
C7B C13B H13D 109.3
H13C C13B H13D 108.0
loop_
_geom_bond_atom_site_label_1
_geom_bond_atom_site_label_2
_geom_bond_distance
I2 I3 2.9360(12)
I3 I4 2.9174(12)
N1A C6A 1.373(14)
N1A C2A 1.399(15)
N1A C10A 1.468(14)
C2A O2A 1.248(14)
C2A C3A 1.403(16)
C3A C4A 1.360(15)
C3A H3A 0.9500
C4A C5A 1.382(15)
C4A H4A 0.9500
C5A C6A 1.352(17)
C5A H5A 0.9500
C6A C7A 1.521(15)
C7A C13A 1.520(14)
C7A C8A 1.521(16)
C7A H7A 1.0000
C8A C9A 1.510(15)
C8A H8A1 0.9900
C8A H8A2 0.9900
C9A C11A 1.522(14)
C9A C10A 1.532(14)
C9A H9A 1.0000
C10A H10A 0.9900
C10A H10B 0.9900
C11A N12A 1.495(13)
C11A H11A 0.9900
C11A H11B 0.9900
N12A C13A 1.494(13)
N12A H12A 0.9900
N12A H12B 0.9900
C13A H13A 0.9900
C13A H13B 0.9900
N1B C6B 1.340(14)
N1B C2B 1.390(14)
N1B C10B 1.476(14)
C2B O2B 1.258(15)
C2B C3B 1.416(17)
C3B C4B 1.334(16)
C3B H3B 0.9500
C4B C5B 1.434(15)
C4B H4B 0.9500
C5B C6B 1.345(16)
C5B H5B 0.9500
C6B C7B 1.523(15)
C7B C8B 1.526(15)
C7B C13B 1.537(14)
C7B H7B 1.0000
C8B C9B 1.545(16)
C8B H8B1 0.9900
C8B H8B2 0.9900
C9B C10B 1.525(15)
C9B C11B 1.530(14)
C9B H9B 1.0000
C10B H10C 0.9900
C10B H10D 0.9900
C11B N12B 1.482(13)
C11B H11C 0.9900
C11B H11D 0.9900
N12B C13B 1.496(13)
N12B H12C 0.9900
N12B H12D 0.9900
C13B H13C 0.9900
C13B H13D 0.9900
loop_
_geom_hbond_atom_site_label_D
_geom_hbond_atom_site_label_H
_geom_hbond_atom_site_label_A
_geom_hbond_site_symmetry_A
_geom_hbond_distance_DH
_geom_hbond_distance_HA
_geom_hbond_distance_DA
_geom_hbond_angle_DHA
N12A H12B O2A 1_655 0.99 1.73 2.680(11) 159.3
N12A H12A I4 1_656 0.99 2.93 3.679(8) 133.2
N12B H12C O2B 1_545 0.99 1.75 2.686(11) 156.6
N12B H12D I2 1_655 0.99 2.97 3.694(8) 131.1
loop_
_geom_torsion_atom_site_label_1
_geom_torsion_atom_site_label_2
_geom_torsion_atom_site_label_3
_geom_torsion_atom_site_label_4
_geom_torsion
C6A N1A C2A O2A 173.1(9)
C10A N1A C2A O2A 0.0(14)
C6A N1A C2A C3A -5.0(14)
C10A N1A C2A C3A -178.1(9)
O2A C2A C3A C4A -173.2(10)
N1A C2A C3A C4A 4.8(15)
C2A C3A C4A C5A -2.5(16)
C3A C4A C5A C6A 0.3(16)
C4A C5A C6A N1A -0.6(17)
C4A C5A C6A C7A -175.3(10)
C2A N1A C6A C5A 3.1(15)
C10A N1A C6A C5A 175.6(10)
C2A N1A C6A C7A 178.1(9)
C10A N1A C6A C7A -9.4(13)
C5A C6A C7A C13A 87.0(13)
N1A C6A C7A C13A -88.0(11)
C5A C6A C7A C8A -149.4(11)
N1A C6A C7A C8A 35.7(12)
C13A C7A C8A C9A 60.5(11)
C6A C7A C8A C9A -62.5(11)
C7A C8A C9A C11A -61.4(11)
C7A C8A C9A C10A 61.7(11)
C6A N1A C10A C9A 10.6(14)
C2A N1A C10A C9A -176.5(9)
C8A C9A C10A N1A -37.0(13)
C11A C9A C10A N1A 85.6(12)
C8A C9A C11A N12A 56.1(12)
C10A C9A C11A N12A -65.4(12)
C9A C11A N12A C13A -47.6(11)
C11A N12A C13A C7A 46.9(11)
C8A C7A C13A N12A -54.3(11)
C6A C7A C13A N12A 70.0(12)
C6B N1B C2B O2B 176.9(10)
C10B N1B C2B O2B 1.0(13)
C6B N1B C2B C3B -4.0(14)
C10B N1B C2B C3B -180.0(10)
O2B C2B C3B C4B -176.9(10)
N1B C2B C3B C4B 4.1(16)
C2B C3B C4B C5B -2.4(16)
C3B C4B C5B C6B 0.3(16)
C2B N1B C6B C5B 2.2(15)
C10B N1B C6B C5B 177.7(10)
C2B N1B C6B C7B 179.4(9)
C10B N1B C6B C7B -5.1(14)
C4B C5B C6B N1B -0.2(16)
C4B C5B C6B C7B -177.3(9)
N1B C6B C7B C8B 33.2(14)
C5B C6B C7B C8B -149.6(11)
N1B C6B C7B C13B -90.1(11)
C5B C6B C7B C13B 87.1(13)
C6B C7B C8B C9B -61.4(11)
C13B C7B C8B C9B 62.0(11)
C7B C8B C9B C10B 62.8(11)
C7B C8B C9B C11B -62.6(11)
C6B N1B C10B C9B 7.3(14)
C2B N1B C10B C9B -176.8(10)
C11B C9B C10B N1B 85.9(12)
C8B C9B C10B N1B -36.6(12)
C10B C9B C11B N12B -64.0(12)
C8B C9B C11B N12B 58.4(12)
C9B C11B N12B C13B -51.9(11)
C11B N12B C13B C7B 50.0(11)
C6B C7B C13B N12B 67.4(12)
C8B C7B C13B N12B -56.0(11)

_cod_database_fobs_code 2021283
