#------------------------------------------------------------------------------
#$Date: 2018-08-03 23:02:31 +0300 (Fri, 03 Aug 2018) $
#$Revision: 209380 $
#$URL: file:///home/coder/svn-repositories/cod/cif/2/02/11/2021194.cif $
#------------------------------------------------------------------------------
#
# This file is available in the Crystallography Open Database (COD),
# http://www.crystallography.net/. The original data for this entry
# were provided by IUCr Journals, http://journals.iucr.org/.
#
# The file may be used within the scientific community so long as
# proper attribution is given to the journal article from which the
# data were obtained.
#
data_2021194
loop_
_publ_author_name
'Torabi Farkhani, Elham'
'Pourayoubi, Mehrdad'
'Izadyar, Mohammad'
'Andreev, Pavel V.'
'Shchegravina, Ekaterina S.'
_publ_section_title
;
 Evaluation of N---H&#x00B7;&#x00B7;&#x00B7;S and
 N---H&#x00B7;&#x00B7;&#x00B7;\p interactions in
 <i>O</i>,<i>O</i>'-diethyl <i>N</i>-(2,4,6-trimethylphenyl)thiophosphate:
 a combination of X-ray crystallographic and theoretical studies
;
_journal_coeditor_code           KY3141
_journal_issue                   7
_journal_name_full               'Acta Crystallographica Section C'
_journal_page_first              847
_journal_page_last               855
_journal_paper_doi               10.1107/S2053229618007933
_journal_volume                  74
_journal_year                    2018
_chemical_formula_iupac          'C13 H22 N O2 P S'
_chemical_formula_moiety         'C13 H22 N O2 P S'
_chemical_formula_sum            'C13 H22 N O2 P S'
_chemical_formula_weight         287.34
_chemical_name_common
;
<i>N</i>-[Diethoxy(sulfanylidene)-\l^5^-phosphanyl]-2,4,6-trimethylaniline
;
_chemical_name_systematic
;
<i>O</i>,<i>O</i>'-Diethyl <i>N</i>-(2,4,6-trimethylphenyl)thiophosphate
;
_space_group_crystal_system      triclinic
_space_group_IT_number           1
_space_group_name_Hall           'P 1'
_space_group_name_H-M_alt        'P 1'
_symmetry_space_group_name_Hall  'P 1'
_symmetry_space_group_name_H-M   'P 1'
_atom_sites_solution_hydrogens   mixed
_audit_creation_method           SHELXL-2014/7
_cell_angle_alpha                100.366(3)
_cell_angle_beta                 100.314(3)
_cell_angle_gamma                90.093(3)
_cell_formula_units_Z            2
_cell_length_a                   8.4954(3)
_cell_length_b                   8.6790(3)
_cell_length_c                   10.7105(4)
_cell_measurement_reflns_used    7603
_cell_measurement_temperature    100.2(8)
_cell_measurement_theta_max      32.087
_cell_measurement_theta_min      4.224
_cell_volume                     763.79(5)
_computing_cell_refinement
;
CrysAlis PRO (Agilent, 2014)
;
_computing_data_collection
;
CrysAlis PRO (Agilent, 2014)
;
_computing_data_reduction
;
CrysAlis PRO (Agilent, 2014)
;
_computing_molecular_graphics
;
<i>OlexSys</i> (Dolomanov <i>et al</i>., 2009)
;
_computing_structure_refinement
;
SHELXL2014 (Sheldrick, 2015b)
;
_computing_structure_solution
;
SHELXT (Sheldrick, 2015a)
;
_diffrn_ambient_temperature      100.2(8)
_diffrn_detector_area_resol_mean 8.0151
_diffrn_measured_fraction_theta_full 0.997
_diffrn_measured_fraction_theta_max 0.997
_diffrn_measurement_device       'four-circle diffractometer'
_diffrn_measurement_device_type  'Agilent Xcalibur Sapphire3 Gemini'
_diffrn_measurement_method       '\w scans'
_diffrn_radiation_monochromator  graphite
_diffrn_radiation_type           MoK\a
_diffrn_radiation_wavelength     0.71073
_diffrn_reflns_av_R_equivalents  0.025
_diffrn_reflns_limit_h_max       10
_diffrn_reflns_limit_h_min       -10
_diffrn_reflns_limit_k_max       10
_diffrn_reflns_limit_k_min       -10
_diffrn_reflns_limit_l_max       13
_diffrn_reflns_limit_l_min       -13
_diffrn_reflns_number            11026
_diffrn_reflns_theta_full        25.242
_diffrn_reflns_theta_max         26.371
_diffrn_reflns_theta_min         3.401
_exptl_absorpt_coefficient_mu    0.312
_exptl_absorpt_correction_T_max  1
_exptl_absorpt_correction_T_min  0.95144
_exptl_absorpt_correction_type   multi-scan
_exptl_absorpt_process_details
;
CrysAlis PRO (Agilent, 2014)
;
_exptl_crystal_colour            light-yellow
_exptl_crystal_density_diffrn    1.249
_exptl_crystal_description       bulk
_exptl_crystal_F_000             308
_exptl_crystal_size_max          0.2431
_exptl_crystal_size_mid          0.1952
_exptl_crystal_size_min          0.1824
_refine_diff_density_max         0.455
_refine_diff_density_min         -0.234
_refine_ls_abs_structure_details
;
Flack <i>x</i> determined using 2825 quotients [(I+)-(I-)]/[(I+)+(I-)]
(Parsons <i>et al.</i>,  2013)
;
_refine_ls_abs_structure_Flack   -0.01(3)
_refine_ls_extinction_method     none
_refine_ls_goodness_of_fit_ref   1.080
_refine_ls_hydrogen_treatment    mixed
_refine_ls_matrix_type           full
_refine_ls_number_parameters     343
_refine_ls_number_reflns         6232
_refine_ls_number_restraints     4
_refine_ls_restrained_S_all      1.080
_refine_ls_R_factor_all          0.0373
_refine_ls_R_factor_gt           0.0358
_refine_ls_shift/su_max          0.000
_refine_ls_shift/su_mean         0.000
_refine_ls_structure_factor_coef Fsqd
_refine_ls_weighting_details
'w=1/[\s^2^(Fo^2^)+(0.0551P)^2^+0.0309P] where P=(Fo^2^+2Fc^2^)/3'
_refine_ls_weighting_scheme      calc
_refine_ls_wR_factor_gt          0.0879
_refine_ls_wR_factor_ref         0.0887
_reflns_number_gt                6048
_reflns_number_total             6232
_reflns_threshold_expression     'I > 2\s(I)'
_cod_data_source_file            ky3141sup1.cif
_cod_data_source_block           I
_cod_database_code               2021194
_shelx_space_group_comment
;
The symmetry employed for this shelxl refinement is uniquely defined
by the following loop, which should always be used as a source of
symmetry information in preference to the above space-group names.
They are only intended as comments.
;
_shelx_hkl_file
;
  12   2  -3 20227.5 1205.58   3
  12   2  -2 10211.3 857.625   3
  12   2  -1 2581.03 507.921   3
  12   2   0 7310.76 702.533   3
  12   1  -4 12264.7 942.639   3
  12   1  -3 994.387 442.967   3
  12   1  -2 12416.1 939.933   3
  12   1  -1 726.334 413.369   3
  12   1   0 318.023 309.909   3
  12   1   1-35.7204 300.196   3
  12   1   2 1260.31 360.229   3
  12   0  -4 1447.85 458.820   3
  12   0  -3 5133.52 655.803   3
  12   0  -2 834.408 389.868   3
  12   0  -1 4186.93 591.552   3
  12   0   0 2446.93 479.754   3
  12   0   1 200.964 336.547   3
  12   0   2 1406.28 373.124   3
  12   0   3 477.955 311.098   3
  12  -1  -4 3030.11 566.041   3
  12  -1  -3 3147.62 524.941   3
  12  -1  -2 5261.77 667.080   3
  12  -1  -1 2702.46 522.361   3
  12  -1   0 3695.07 547.913   3
  12  -1   1 720.299 375.871   3
  12  -1   2 1100.51 369.670   3
  12  -1   3 1075.06 323.883   3
  12  -2  -2 4937.20 632.871   3
  12  -2  -1 4422.29 589.094   3
  12  -2   0 1667.94 432.690   3
  12  -2   1 3689.44 512.565   3
  12  -2   2 1474.92 425.432   3
  11   7  -5-494.097 300.931   2
  11   6  -7 1107.95 357.568   2
  11   6  -6 1469.15 371.222   2
  11   6  -5 28.2388 269.044   2
  11   5  -5 2043.19 451.106   3
  11   5  -4 1219.70 462.122   3
  11   5  -3 2761.43 505.475   3
  11   5  -2 1692.84 422.671   3
  11   5  -1 2612.65 489.144   3
  11   5   0 1846.42 459.837   3
  11   5   1 3078.27 497.513   3
  11   4  -7 4430.77 605.621   3
  11   4  -6 2022.77 478.094   3
  11   4  -5 2563.48 517.231   3
  11   4  -4 6089.36 666.543   3
  11   4  -3 6867.02 717.843   3
  11   4  -2 1846.80 485.755   3
  11   4  -1 2338.42 460.345   3
  11   4   0 5193.70 620.887   3
  11   4   1 2079.23 427.538   3
  11   4   2 672.044 343.480   3
  11   4   3 939.730 319.101   3
  11   3  -8 697.983 363.505   3
  11   3  -7 759.892 383.865   3
  11   3  -6 4165.74 590.431   3
  11   3  -5 4381.07 605.632   3
  11   3  -4 12253.6 937.362   3
  11   3  -3 4662.82 608.323   3
  11   3  -2 13696.2 961.684   3
  11   3  -1 5593.46 651.189   3
  11   3   0 2204.71 444.423   3
  11   3   1 2442.17 439.662   3
  11   3   2 570.295 336.341   3
  11   3   3 2265.86 410.230   3
  11   2  -9 11648.4 869.758   3
  11   2  -8 843.670 376.963   3
  11   2  -7 5395.32 653.815   3
  11   2  -6 17000.1 1094.39   3
  11   2  -5 3142.92 544.436   3
  11   2  -4 3299.34 537.498   3
  11   2  -3 1446.80 431.008   3
  11   2  -2 2989.47 525.607   3
  11   2  -1 3624.60 564.783   3
  11   2   0 18020.9 1075.88   3
  11   2   1 5856.78 612.885   3
  11   2   2 936.089 345.140   3
  11   2   3 13395.1 838.968   3
  11   1  -9 3461.25 551.679   3
  11   1  -8 5995.19 674.226   3
  11   1  -7 1158.40 424.066   3
  11   1  -6 4390.17 609.128   3
  11   1  -5 8662.03 799.413   3
  11   1  -4 5116.02 638.369   3
  11   1  -3 3097.11 529.080   3
  11   1  -2 10020.8 832.115   3
  11   1  -1 4586.80 581.867   3
  11   1   0 3986.88 552.445   3
  11   1   1 4745.18 572.430   3
  11   1   2 972.872 334.327   3
  11   1   3 634.527 342.777   3
  11   0  -9 8960.40 771.017   3
  11   0  -8 1111.51 434.829   3
  11   0  -7 6739.56 724.769   3
  11   0  -6 1049.05 414.109   3
  11   0  -5 4466.89 639.962   3
  11   0  -4-49.2723 335.474   3
  11   0  -3 805.427 370.508   3
  11   0  -2 1368.51 441.474   3
  11   0  -1 728.193 341.231   3
  11   0   0 3130.58 507.621   3
  11   0   1 406.739 346.514   3
  11   0   2 7843.96 689.945   3
  11   0   3 2383.21 419.692   3
  11  -1  -9 365.021 343.121   3
  11  -1  -8 2760.61 503.514   3
  11  -1  -7 2031.86 480.238   3
  11  -1  -6 307.578 326.929   3
  11  -1  -5 7251.78 764.851   3
  11  -1  -4 558.049 375.520   3
  11  -1  -3 4284.68 602.875   3
  11  -1  -2 2700.60 489.446   3
  11  -1  -1 2775.82 507.705   3
  11  -1   0 6682.67 680.395   3
  11  -1   1 703.923 338.767   3
  11  -1   2 2798.52 455.800   3
  11  -1   3 1579.48 381.201   3
  11  -1   4 1257.86 335.209   3
  11  -2  -8 5957.05 666.370   3
  11  -2  -7 3372.84 556.288   3
  11  -2  -6 9104.29 819.508   3
  11  -2  -5 3797.31 587.596   3
  11  -2  -4 7412.36 753.489   3
  11  -2  -3 2304.91 477.574   3
  11  -2  -2 5316.88 661.189   3
  11  -2  -1 3079.20 531.166   3
  11  -2   0 5747.49 644.063   3
  11  -2   1 4795.80 593.826   3
  11  -2   2 8001.57 707.611   3
  11  -2   3 2768.28 440.379   3
  11  -2   4 5733.94 557.864   3
  11  -3  -7 7154.48 732.024   3
  11  -3  -6 2849.88 538.809   3
  11  -3  -5 5665.04 668.076   3
  11  -3  -4 1891.06 499.409   3
  11  -3  -3 4257.87 607.587   3
  11  -3  -2 1232.24 422.750   3
  11  -3  -1 4879.82 625.798   3
  11  -3   0 1436.54 486.181   3
  11  -3   1 8578.62 757.061   3
  11  -3   2 1971.46 453.407   3
  11  -3   3 11000.1 773.015   6
  11  -3   3 10996.6 796.761   3
  11  -3   4 306.585 317.820   6
  11  -3   4 623.972 313.352   3
  11  -3   5 1363.18 363.879   6
  11  -4  -5 7664.88 789.506   3
  11  -4  -4 1240.95 412.590   3
  11  -4  -3 5611.97 674.787   3
  11  -4  -2 7548.78 753.215   3
  11  -4  -1 3168.22 575.112   3
  11  -4   0 7226.17 740.614   3
  11  -4   1 668.114 382.314   3
  11  -4   2 7751.88 647.903   6
  11  -4   2 8053.79 726.716   3
  11  -4   3 1424.64 398.434   6
  11  -4   3 564.623 347.616   3
  11  -4   4 1242.08 366.185   6
  11  -4   4 1667.73 362.467   3
  11  -5  -3 1477.59 447.358   3
  11  -5  -2 2481.62 559.867   3
  11  -5  -1 1484.46 400.313   3
  11  -5   0 1091.17 426.479   3
  11  -5   1 2816.37 495.252   3
  11  -5   2 4729.30 594.881   3
  11  -5   2 4232.66 521.083   6
  11  -5   3 2329.22 424.619   3
  11  -5   3 2608.96 460.797   6
  11  -5   4 6776.68 617.161   3
  11  -6   1 1087.78 363.512   6
  11  -6   2 733.165 320.327   6
  10   8  -5 3716.41 553.055   2
  10   8  -4 8577.02 740.261   2
  10   8  -3 7495.67 688.387   2
  10   8  -2 6571.42 637.668   2
  10   8  -1 3435.32 485.980   2
  10   7  -7 2398.57 487.968   2
  10   7  -6 1191.97 381.960   2
  10   7  -5 3273.42 511.054   2
  10   7  -4 960.022 407.052   3
  10   7  -4 185.550 294.411   2
  10   7  -3 2381.61 494.996   3
  10   7  -3 4051.87 506.401   2
  10   7  -2 1915.29 458.421   3
  10   7  -2 935.744 357.116   2
  10   7  -1 3155.77 458.113   2
  10   6  -8 2997.06 537.349   3
  10   6  -8 2865.55 507.598   2
  10   6  -7 4844.50 590.948   2
  10   6  -7 3882.09 583.794   3
  10   6  -6 2202.57 465.509   3
  10   6  -6 2206.55 442.554   2
  10   6  -5 1875.65 441.932   3
  10   6  -5 1311.11 382.439   2
  10   6  -4 3341.43 559.286   3
  10   6  -4 3170.73 475.616   2
  10   6  -3 1844.10 448.774   3
  10   6  -3 914.719 323.809   2
  10   6  -2 1508.99 449.376   3
  10   6  -2 1764.43 366.169   2
  10   6  -1 4152.39 578.104   3
  10   6   0 2036.56 461.533   3
  10   6   1 2006.07 433.374   3
  10   6   2 1829.94 394.611   3
  10   6   3 5601.84 567.050   3
  10   5 -10 1758.46 420.615   3
  10   5  -9 6704.99 692.355   3
  10   5  -8 2865.28 502.112   3
  10   5  -7 6880.98 657.099   2
  10   5  -7 5864.81 657.268   3
  10   5  -6 2040.70 477.489   3
  10   5  -6 1825.26 422.214   2
  10   5  -5 4033.58 498.455   2
  10   5  -5 4814.03 606.071   3
  10   5  -4 884.022 383.353   3
  10   5  -4 615.715 305.254   2
  10   5  -3 496.927 369.112   3
  10   5  -3 361.307 278.329   2
  10   5  -2 4065.60 463.278   2
  10   5  -2 3924.38 567.660   3
  10   5  -1 3059.77 497.903   3
  10   5   0 2797.25 511.450   3
  10   5   1 2525.21 466.277   3
  10   5   2 7287.25 679.165   3
  10   5   3 301.242 290.471   3
  10   4 -11 1431.75 380.998   3
  10   4 -10 2503.33 461.340   3
  10   4  -9 3008.31 494.832   3
  10   4  -8 942.457 367.702   3
  10   4  -7 1420.97 400.312   3
  10   4  -6 1227.20 382.115   3
  10   4  -5 6156.37 681.507   3
  10   4  -5 7611.16 619.812   2
  10   4  -4 3604.40 548.344   3
  10   4  -4 4297.78 481.053   2
  10   4  -3 10114.7 672.133   2
  10   4  -3 9309.99 795.298   3
  10   4  -2 3139.43 532.355   3
  10   4  -1 5996.36 643.337   3
  10   4   0 725.590 330.826   3
  10   4   1 508.785 301.072   3
  10   4   2 4322.99 526.105   3
  10   4   3 2264.66 412.044   3
  10   3 -11 2123.68 412.726   3
  10   3 -10 1991.56 418.954   3
  10   3  -9 973.514 359.576   3
  10   3  -8 745.176 375.734   3
  10   3  -7 2417.63 483.799   3
  10   3  -6 3694.82 533.634   3
  10   3  -5 3894.89 560.770   3
  10   3  -4 14772.8 791.784   2
  10   3  -4 15241.3 1007.79   3
  10   3  -3 1086.91 409.433   3
  10   3  -3 1269.75 330.856   2
  10   3  -2 13588.4 942.713   3
  10   3  -1 3414.96 500.183   3
  10   3   0 6195.65 637.843   3
  10   3   1 1359.16 393.990   3
  10   3   2 1269.41 345.253   3
  10   3   3 1938.41 374.881   3
  10   3   4 3526.50 446.863   3
  10   2 -11 3153.80 460.005   3
  10   2 -10 377.346 312.749   3
  10   2  -9 1055.21 375.174   3
  10   2  -8 1416.81 401.298   3
  10   2  -7 1630.53 416.243   3
  10   2  -6 2020.24 425.003   3
  10   2  -5 6911.29 687.212   3
  10   2  -4 3438.58 534.628   3
  10   2  -3 7517.17 719.783   3
  10   2  -2 877.191 384.993   3
  10   2  -1 10865.8 827.571   3
  10   2   0 1611.43 405.641   3
  10   2   1 5604.13 600.134   3
  10   2   2 273.023 280.053   3
  10   2   3 3364.17 448.767   3
  10   2   4 346.158 262.496   3
  10   1 -11 230.766 276.973   3
  10   1 -10 7338.45 690.440   3
  10   1  -9 1155.48 389.704   3
  10   1  -8 3766.63 570.897   3
  10   1  -7 1363.69 406.225   3
  10   1  -6 2883.92 512.328   3
  10   1  -5 7084.47 712.567   3
  10   1  -4 1497.92 436.632   3
  10   1  -3 3645.78 526.580   3
  10   1  -2 2976.97 528.859   3
  10   1  -1 626.867 372.711   3
  10   1   0 6584.62 646.069   3
  10   1   1 2203.20 408.949   3
  10   1   2 3270.52 465.482   3
  10   1   3 3561.98 463.058   3
  10   1   4 2160.98 383.497   3
  10   0 -11 3273.54 467.919   3
  10   0 -10 1509.02 434.686   3
  10   0  -9 5368.95 612.013   3
  10   0  -8 3332.00 522.932   3
  10   0  -7 9445.08 794.775   3
  10   0  -6 6339.48 687.255   3
  10   0  -5 1368.87 411.529   3
  10   0  -4 246.926 312.780   3
  10   0  -3 273.921 295.672   3
  10   0  -2 405.133 344.289   3
  10   0  -1-131.932 316.315   3
  10   0   0 112.873 272.646   3
  10   0   1 2261.48 430.595   3
  10   0   2 12055.3 822.451   3
  10   0   3 583.334 321.849   3
  10   0   4 10330.8 708.056   3
  10   0   6 5986.63 721.062   7
  10  -1 -11 6119.21 602.872   3
  10  -1 -10 7244.47 670.151   3
  10  -1  -9 8276.69 743.353   3
  10  -1  -8 13477.6 937.745   3
  10  -1  -7 10227.7 835.298   3
  10  -1  -6 4187.35 577.560   3
  10  -1  -5 463.852 367.291   3
  10  -1  -4 2954.90 525.464   3
  10  -1  -3 1088.13 388.770   3
  10  -1  -2 723.298 371.461   3
  10  -1  -1 456.843 346.346   3
  10  -1   0 4300.44 537.678   3
  10  -1   1 1861.48 415.076   3
  10  -1   1 1404.61 299.512   6
  10  -1   2 866.251 333.086   3
  10  -1   3 9833.41 736.058   3
  10  -1   4 8833.61 661.930   3
  10  -1   6 5126.62 700.386   7
  10  -2 -11 1467.60 372.988   3
  10  -2 -10 4766.28 568.012   3
  10  -2  -9 7358.96 714.913   3
  10  -2  -8 7049.51 720.789   3
  10  -2  -7 1112.51 404.887   3
  10  -2  -6 1813.16 476.052   3
  10  -2  -5 14205.8 992.088   3
  10  -2  -4 3622.16 560.321   3
  10  -2  -3 6140.34 673.611   3
  10  -2  -2 25550.1 1342.54   3
  10  -2  -1 1481.44 452.147   3
  10  -2   0 12209.5 897.468   3
  10  -2   0 12381.9 711.385   6
  10  -2   1 11422.2 842.753   3
  10  -2   1 11183.5 706.066   6
  10  -2   2 2282.74 384.920   6
  10  -2   2 2683.54 456.689   3
  10  -2   3 3398.99 483.542   3
  10  -2   4 5831.26 567.245   3
  10  -3 -10 789.878 332.972   1
  10  -3 -10 744.088 342.301   3
  10  -3  -9 960.128 340.095   1
  10  -3  -9 514.657 350.129   3
  10  -3  -8 344.823 363.390   3
  10  -3  -8 1420.68 375.717   1
  10  -3  -7 6761.75 599.801   1
  10  -3  -7 8297.67 759.865   3
  10  -3  -6 4590.51 600.102   3
  10  -3  -5 3244.29 564.607   3
  10  -3  -4 6688.66 724.255   3
  10  -3  -3 4709.16 623.655   3
  10  -3  -2 5041.49 614.463   3
  10  -3  -1 11846.4 899.207   3
  10  -3   0 954.430 404.793   3
  10  -3   0 1935.84 351.582   6
  10  -3   1 8050.85 727.667   3
  10  -3   1 9092.13 657.828   6
  10  -3   2 476.863 330.702   3
  10  -3   2 413.786 283.026   6
  10  -3   3 9069.50 723.170   3
  10  -3   3 7740.66 671.131   6
  10  -3   4 3243.20 452.185   3
  10  -3   7 1535.41 429.295   7
  10  -4  -9 1046.19 375.041   1
  10  -4  -9 859.555 351.972   3
  10  -4  -8 1021.37 392.128   1
  10  -4  -8 247.944 329.510   3
  10  -4  -7 2121.87 518.074   3
  10  -4  -7 2018.96 409.257   1
  10  -4  -6 1702.78 472.968   3
  10  -4  -6 731.986 348.251   1
  10  -4  -5 9422.73 832.925   3
  10  -4  -5 9955.89 709.411   1
  10  -4  -4 404.673 329.530   1
  10  -4  -4 482.017 394.430   3
  10  -4  -3 9183.43 848.889   3
  10  -4  -2 6331.29 707.581   3
  10  -4  -1 13269.8 790.439   6
  10  -4  -1 11047.4 876.632   3
  10  -4   0 7824.33 616.142   6
  10  -4   0 7100.31 720.011   3
  10  -4   1 2177.48 390.018   6
  10  -4   1 2110.02 462.174   3
  10  -4   2 10132.1 751.186   6
  10  -4   2 10853.5 823.771   3
  10  -4   3 2304.50 426.876   3
  10  -4   3 1844.00 407.708   6
  10  -4   4 3107.76 467.404   3
  10  -4   4 3248.45 489.471   6
  10  -4   5 650.451 347.656   6
  10  -5  -8 153.328 336.682   1
  10  -5  -7 3254.08 495.499   1
  10  -5  -7 2594.66 508.350   3
  10  -5  -6 5039.10 592.009   1
  10  -5  -6 4799.07 639.454   3
  10  -5  -5 532.432 345.143   3
  10  -5  -5 1475.28 408.530   1
  10  -5  -4 9356.09 842.509   3
  10  -5  -3 496.567 358.141   3
  10  -5  -2 11388.0 906.360   3
  10  -5  -2 12457.2 781.464   6
  10  -5  -1 1827.51 474.529   3
  10  -5  -1 1192.77 333.044   6
  10  -5   0 10241.5 741.405   6
  10  -5   0 9217.45 808.624   3
  10  -5   1 2383.04 456.829   3
  10  -5   1 2748.35 442.473   6
  10  -5   2 5575.84 619.806   3
  10  -5   2 5666.21 600.112   6
  10  -5   3 4056.01 520.133   6
  10  -5   3 4373.98 557.608   3
  10  -5   4 2302.45 470.007   6
  10  -5   4 1635.99 400.842   3
  10  -5   5 4081.76 547.562   6
  10  -6  -7 9151.06 771.291   1
  10  -6  -6 4894.76 614.378   1
  10  -6  -5 5515.40 625.484   1
  10  -6  -5 5440.41 667.777   3
  10  -6  -4 12667.6 984.481   3
  10  -6  -3 3048.00 539.461   3
  10  -6  -2 1304.90 363.111   6
  10  -6  -2 1046.40 404.005   3
  10  -6  -1 853.312 326.320   6
  10  -6  -1 1215.50 435.944   3
  10  -6   0 423.937 373.486   3
  10  -6   0 715.849 322.687   6
  10  -6   1 3036.14 469.034   6
  10  -6   1 3046.54 517.334   3
  10  -6   2 12823.7 924.606   3
  10  -6   2 12545.3 889.538   6
  10  -6   3 3314.26 484.698   3
  10  -6   3 3439.44 514.191   6
  10  -6   4 5445.32 631.793   6
  10  -6   4 6384.96 616.419   3
  10  -7  -5 2820.75 548.573   1
  10  -7  -2 2228.66 434.432   6
  10  -7  -1 609.815 336.769   6
  10  -7   0 943.184 359.726   6
  10  -7   1 4518.23 571.214   6
  10  -7   2 263.815 332.333   6
  10  -7   2 1368.81 441.908   3
  10  -7   3 9477.20 799.399   6
  10  -7   3 10160.6 792.766   3
  10  -7   4 596.411 327.790   3
  10  -8  -3 4648.98 558.684   6
  10  -8  -2 760.827 363.985   6
  10  -8  -1 4772.46 566.463   6
   9   8  -7 2347.38 502.445   2
   9   8  -6 5623.54 654.035   2
   9   8  -6 4160.59 589.971   3
   9   8  -5 1608.76 481.955   3
   9   8  -5 1297.53 426.124   2
   9   8  -4 2443.94 469.656   2
   9   8  -4 3171.04 537.244   3
   9   8  -3 1259.61 423.674   2
   9   8  -3 715.039 377.570   3
   9   8  -2 6176.53 644.726   2
   9   8  -2 6010.78 672.598   3
   9   8  -1 1851.21 495.958   3
   9   8  -1 1488.93 396.214   2
   9   8   0 5508.78 601.301   2
   9   8   1 406.434 318.713   2
   9   8   2 1315.07 364.582   2
   9   7 -10 475.893 321.506   3
   9   7  -9 7274.38 715.841   3
   9   7  -9 6686.49 719.327   2
   9   7  -8 2057.34 489.419   2
   9   7  -8 2285.81 480.640   3
   9   7  -7 5458.59 657.964   2
   9   7  -7 4669.43 617.335   3
   9   7  -6 532.344 330.083   3
   9   7  -6 2024.93 466.759   2
   9   7  -5 3125.08 511.118   2
   9   7  -5 2780.25 507.777   3
   9   7  -4 1253.55 403.690   3
   9   7  -4 1561.96 429.311   2
   9   7  -3 4862.59 625.776   3
   9   7  -3 4449.98 569.547   2
   9   7  -2 2694.97 467.305   2
   9   7  -2 1722.16 467.411   3
   9   7  -1 2579.50 484.634   3
   9   7  -1 2314.75 436.189   2
   9   7   0 1323.17 452.195   3
   9   7   0 1696.08 391.362   2
   9   7   1 6993.19 699.699   3
   9   7   1 7718.92 658.293   2
   9   7   2 4827.06 525.936   2
   9   7   2 4162.75 549.733   3
   9   6 -11 380.429 333.155   3
   9   6 -10 7425.46 706.953   3
   9   6  -9 1696.91 426.361   3
   9   6  -8 1874.75 468.703   2
   9   6  -8 2798.50 484.381   3
   9   6  -7 4066.35 572.948   2
   9   6  -7 4201.63 587.899   3
   9   6  -6 679.241 356.047   2
   9   6  -6 493.728 396.309   3
   9   6  -5 4909.56 571.175   2
   9   6  -5 5255.58 643.635   3
   9   6  -4 11716.7 821.198   2
   9   6  -4 10910.0 879.029   3
   9   6  -3 14703.5 902.187   2
   9   6  -3 13345.8 959.638   3
   9   6  -2 5776.60 679.514   3
   9   6  -2 6266.42 608.430   2
   9   6  -1 848.104 361.425   3
   9   6  -1 1060.54 351.395   2
   9   6   0 4242.90 564.169   3
   9   6   0 4245.09 495.132   2
   9   6   1 143.700 285.986   3
   9   6   1 854.871 314.838   2
   9   6   2 231.587 291.372   2
   9   6   2 162.199 294.285   3
   9   6   3 9279.99 721.222   3
   9   5 -11 6545.63 630.312   3
   9   5 -10 5449.10 598.392   3
   9   5  -9 4269.95 573.557   3
   9   5  -8 7804.87 733.783   3
   9   5  -7 9401.64 761.405   2
   9   5  -7 8016.20 744.922   3
   9   5  -6 1862.78 400.677   2
   9   5  -6 1252.85 421.245   3
   9   5  -5 9932.57 746.385   2
   9   5  -5 10741.9 849.540   3
   9   5  -4 2773.20 426.793   2
   9   5  -4 3206.07 507.984   3
   9   5  -3 685.691 377.533   3
   9   5  -3 1208.15 350.363   2
   9   5  -2 554.936 357.121   3
   9   5  -2 635.500 309.885   2
   9   5  -1 12513.8 890.337   3
   9   5  -1 12382.6 764.807   2
   9   5   0 6086.03 636.104   3
   9   5   0 6036.38 528.482   2
   9   5   1 1493.95 391.064   3
   9   5   1 1899.52 362.401   2
   9   5   2 13442.8 885.154   3
   9   5   3 2087.67 413.058   3
   9   5   4 11311.7 745.458   3
   9   4 -11 3980.34 521.434   3
   9   4 -10 1497.38 403.107   3
   9   4  -9 11209.5 824.434   3
   9   4  -8 1213.59 394.043   3
   9   4  -7 5909.71 630.675   3
   9   4  -6 4913.84 546.946   2
   9   4  -6 4293.09 562.485   3
   9   4  -5 2357.45 444.400   3
   9   4  -5 2437.26 415.029   2
   9   4  -4 1764.47 365.449   2
   9   4  -4 1120.53 373.916   3
   9   4  -3 213.660 239.809   2
   9   4  -3 239.066 287.029   3
   9   4  -2 657.902 268.931   2
   9   4  -2 422.309 295.769   3
   9   4  -1 1864.00 329.697   2
   9   4  -1 2081.02 444.869   3
   9   4   0 2447.02 343.452   2
   9   4   0 1742.81 396.589   3
   9   4   1 4886.60 576.037   3
   9   4   1 5483.33 459.868   2
   9   4   2 706.241 323.966   3
   9   4   3 6716.43 599.613   3
   9   4   4 1525.77 367.942   3
   9   4   6 2552.46 542.122   7
   9   3 -11 1239.74 343.632   3
   9   3 -10 3111.44 474.020   3
   9   3  -9 1516.77 375.016   3
   9   3  -8 4086.65 527.856   3
   9   3  -7 2215.76 436.962   3
   9   3  -6 5324.06 603.831   3
   9   3  -5 3310.17 496.072   3
   9   3  -5 4611.88 482.962   2
   9   3  -4 4362.85 557.244   3
   9   3  -4 5813.49 503.503   2
   9   3  -3 2480.85 357.348   2
   9   3  -3 1792.13 403.061   3
   9   3  -2 9016.78 576.521   2
   9   3  -2 7887.47 712.094   3
   9   3  -1 1089.91 358.249   3
   9   3  -1 880.667 267.703   2
   9   3   0 9865.45 763.891   3
   9   3   0 10065.9 581.903   2
   9   3   1 1612.86 380.360   3
   9   3   2 5097.26 531.694   3
   9   3   3 1545.67 369.385   3
   9   3   4 2059.16 364.705   3
   9   3   5 1705.09 500.223   7
   9   3   6-27.3877 366.005   7
   9   2 -11 644.946 306.328   3
   9   2 -10 2852.13 445.138   3
   9   2  -9 1944.95 417.850   3
   9   2  -8 6619.33 654.138   3
   9   2  -7 11625.3 856.735   3
   9   2  -6 10538.7 802.242   3
   9   2  -5 4656.06 570.355   3
   9   2  -4 1346.49 393.204   3
   9   2  -3 5184.06 429.097   2
   9   2  -3 5499.37 589.180   3
   9   2  -2 5572.02 427.757   2
   9   2  -2 5357.79 583.259   3
   9   2  -1 2229.68 415.677   3
   9   2  -1 2522.06 307.074   2
   9   2   0 3531.53 499.944   3
   9   2   1 16875.9 959.259   3
   9   2   2 8660.00 670.970   3
   9   2   3 10349.0 707.446   3
   9   2   4 1480.54 317.724   3
   9   2   5 4711.10 681.054   7
   9   2   6 530.674 390.834   7
   9   2   7 3612.02 607.740   7
   9   1 -11 862.785 324.535   3
   9   1 -10 1946.42 421.160   3
   9   1  -9 1988.64 437.472   3
   9   1  -8 1615.47 395.595   3
   9   1  -7 12749.1 894.404   3
   9   1  -6 4279.48 547.413   3
   9   1  -5 16380.9 1012.31   3
   9   1  -4 5367.03 611.426   3
   9   1  -3 11063.2 818.301   3
   9   1  -2 2889.13 477.357   3
   9   1  -1 7531.57 672.193   3
   9   1   0 16408.6 971.068   3
   9   1   1 9008.90 702.335   3
   9   1   2 12647.1 802.915   3
   9   1   3 6200.57 566.397   3
   9   1   4 2657.86 387.331   3
   9   1   4 3316.05 571.589   7
   9   1   5 289.661 214.793   3
   9   1   5 671.841 382.047   7
   9   1   6 2354.24 530.745   7
   9   1   7 992.933 409.320   7
   9   0 -13 2406.62 432.635   1
   9   0 -12 3293.20 473.769   1
   9   0 -11 855.675 313.508   1
   9   0 -11 1902.74 400.251   3
   9   0 -10 1588.10 361.740   1
   9   0 -10 1062.08 354.810   3
   9   0  -9 4015.90 519.245   3
   9   0  -9 3723.43 435.447   1
   9   0  -8 6811.84 665.114   3
   9   0  -8 7878.23 549.944   1
   9   0  -7 3441.37 506.210   3
   9   0  -6 6395.23 652.047   3
   9   0  -5 6821.53 666.271   3
   9   0  -4 9358.11 757.855   3
   9   0  -3 5551.37 598.901   3
   9   0  -2 3683.42 531.611   3
   9   0  -1 7939.56 470.711   6
   9   0  -1 7771.16 689.786   3
   9   0   0 7669.27 672.874   3
   9   0   1 7210.06 641.685   3
   9   0   2 8751.39 670.946   3
   9   0   3 4415.88 481.997   3
   9   0   4 10814.1 913.340   7
   9   0   4 10106.7 668.629   3
   9   0   5 1592.57 480.688   7
   9   0   5 1007.46 273.879   3
   9   0   6 3399.10 588.072   7
   9   0   7 625.052 463.572   7
   9   0   8 5430.02 701.323   7
   9  -1 -12 799.602 371.059   1
   9  -1 -11 8755.16 679.295   3
   9  -1 -11 6351.80 608.536   1
   9  -1 -10 1622.51 382.319   3
   9  -1 -10 2123.03 387.768   1
   9  -1  -9 8814.05 728.359   3
   9  -1  -9 7447.44 604.777   1
   9  -1  -8 3277.45 486.399   3
   9  -1  -8 4257.25 455.862   1
   9  -1  -7 13687.3 737.699   1
   9  -1  -7 12481.1 895.685   3
   9  -1  -6 1571.61 300.271   1
   9  -1  -6 1315.71 409.116   3
   9  -1  -5 3199.23 511.196   3
   9  -1  -5 3332.84 358.843   1
   9  -1  -4 6557.38 645.904   3
   9  -1  -3 579.901 323.294   3
   9  -1  -2 287.907 327.147   3
   9  -1  -1 1556.90 261.917   6
   9  -1  -1 574.375 312.100   3
   9  -1   0 5909.14 468.427   6
   9  -1   0 5745.06 603.965   3
   9  -1   1 1876.61 375.427   3
   9  -1   2 3605.55 475.922   3
   9  -1   3 7120.85 595.560   3
   9  -1   4 9301.66 660.084   3
   9  -1   5 5904.25 511.501   3
   9  -1   5 5681.29 690.184   7
   9  -1   6 4255.90 610.944   7
   9  -1   7 7113.30 781.500   7
   9  -1   8 2083.33 507.689   7
   9  -2 -12 3724.11 525.467   1
   9  -2 -11 2172.34 450.986   1
   9  -2 -11 1216.38 342.301   3
   9  -2 -10 9764.18 735.267   1
   9  -2 -10 9860.11 764.559   3
   9  -2  -9 3164.10 494.915   3
   9  -2  -9 4040.83 500.091   1
   9  -2  -8 16569.4 898.338   1
   9  -2  -8 15940.1 1002.07   3
   9  -2  -7 980.058 384.229   3
   9  -2  -7 1085.79 326.204   1
   9  -2  -6 14895.1 985.829   3
   9  -2  -6 16901.8 839.028   1
   9  -2  -5 285.783 253.924   1
   9  -2  -5 740.391 337.098   3
   9  -2  -4 2450.38 462.350   3
   9  -2  -4 2994.44 377.767   1
   9  -2  -3 2699.90 479.734   3
   9  -2  -3 3752.43 388.016   1
   9  -2  -2 2226.12 458.231   3
   9  -2  -2 2055.16 297.343   6
   9  -2  -1 2364.82 455.010   3
   9  -2  -1 2370.38 331.355   6
   9  -2   0 985.436 350.727   3
   9  -2   0 964.115 265.382   6
   9  -2   1 3532.20 493.147   3
   9  -2   1 3464.47 409.221   6
   9  -2   2 1147.06 351.906   3
   9  -2   3 11850.3 788.834   3
   9  -2   4 1440.86 353.419   3
   9  -2   5 18385.7 915.388   3
   9  -2   5 18657.4 1140.14   7
   9  -2   6 1361.04 437.197   7
   9  -2   7 6084.42 718.808   7
   9  -2   8 4949.42 680.694   7
   9  -3 -11 2939.52 499.751   1
   9  -3 -10 3386.83 489.630   3
   9  -3 -10 4189.02 579.542   1
   9  -3  -9 10742.2 824.351   3
   9  -3  -9 8765.13 727.272   1
   9  -3  -8 599.599 369.904   3
   9  -3  -8 454.225 337.833   1
   9  -3  -7 11139.8 757.337   1
   9  -3  -7 11801.8 875.138   3
   9  -3  -6 1659.34 467.676   3
   9  -3  -6 2518.62 412.354   1
   9  -3  -5 2002.18 468.815   3
   9  -3  -5 2248.63 392.692   1
   9  -3  -4 8087.81 758.197   3
   9  -3  -4 9532.14 647.069   1
   9  -3  -3 2239.48 320.799   6
   9  -3  -3 2387.62 472.904   3
   9  -3  -2 10858.5 650.540   6
   9  -3  -2 9922.69 813.778   3
   9  -3  -1 5952.57 626.957   3
   9  -3  -1 7083.01 541.775   6
   9  -3   0 6529.81 656.295   3
   9  -3   0 6058.76 525.396   6
   9  -3   1 7456.99 605.804   6
   9  -3   1 7033.89 646.271   3
   9  -3   2 3544.82 480.638   3
   9  -3   2 1734.42 384.656   6
   9  -3   3 2739.24 435.130   3
   9  -3   4 8983.85 682.607   3
   9  -3   5 857.839 385.051   7
   9  -3   5 1375.60 330.003   3
   9  -3   6 11842.3 901.966   7
   9  -3   7 446.329 377.610   7
   9  -3   8 6090.71 706.914   7
   9  -4 -10 250.916 353.729   1
   9  -4 -10 562.641 303.301   3
   9  -4  -9 2935.59 488.445   1
   9  -4  -9 2686.40 488.041   3
   9  -4  -8 879.326 375.419   3
   9  -4  -8 450.471 332.013   1
   9  -4  -7 882.239 403.084   3
   9  -4  -7 966.317 360.135   1
   9  -4  -6 3148.44 529.025   3
   9  -4  -6 3161.34 483.057   1
   9  -4  -5 2855.70 466.431   1
   9  -4  -5 2566.88 482.662   3
   9  -4  -4 614.073 237.332   6
   9  -4  -4 971.024 413.763   3
   9  -4  -3 34002.0 1581.85   3
   9  -4  -3 36399.8 1343.06   6
   9  -4  -2 1503.78 422.126   3
   9  -4  -2 1778.05 359.364   6
   9  -4  -1 24139.1 1105.57   6
   9  -4  -1 22402.1 1246.38   3
   9  -4   0 14088.6 830.103   6
   9  -4   0 13547.0 931.102   3
   9  -4   1 20443.5 1056.56   6
   9  -4   1 21250.5 1153.54   3
   9  -4   2 3642.86 485.995   6
   9  -4   2 3786.33 514.360   3
   9  -4   3 1867.95 400.035   6
   9  -4   3 2303.30 438.029   3
   9  -4   4 3818.91 479.100   3
   9  -4   4 4255.66 549.791   6
   9  -4   5 1746.30 349.526   3
   9  -4   6 436.840 371.821   7
   9  -4   7 3385.61 519.927   7
   9  -4   8 675.104 369.020   7
   9  -5 -10 1058.58 335.857   3
   9  -5  -9 60.1247 331.268   1
   9  -5  -9 863.275 364.338   3
   9  -5  -8 2224.12 478.936   1
   9  -5  -8 2405.82 461.263   3
   9  -5  -7 1629.93 421.452   1
   9  -5  -7 1256.76 418.022   3
   9  -5  -6 3603.48 509.107   1
   9  -5  -6 1777.07 444.369   3
   9  -5  -5 4580.40 565.713   1
   9  -5  -5 3481.00 576.795   3
   9  -5  -4 8352.59 627.457   6
   9  -5  -3 4316.15 488.087   6
   9  -5  -2 31979.5 1340.58   6
   9  -5  -1 376.471 314.940   6
   9  -5   0 34093.5 1436.97   6
   9  -5   1 4522.68 594.184   3
   9  -5   1 4888.45 554.005   6
   9  -5   2 11916.4 860.641   3
   9  -5   2 11212.2 831.672   6
   9  -5   3 5400.35 584.189   3
   9  -5   3 4716.67 579.489   6
   9  -5   4 2097.13 426.209   6
   9  -5   4 2273.99 433.448   3
   9  -5   5 2336.94 478.759   6
   9  -5   5 2420.89 416.201   3
   9  -5   6 1727.71 427.770   6
   9  -5   7 609.605 346.436   7
   9  -5   8 520.841 361.530   7
   9  -6  -8 3968.42 611.875   1
   9  -6  -8 4377.69 579.848   3
   9  -6  -7 978.693 445.840   1
   9  -6  -7 252.689 371.696   3
   9  -6  -6 5452.58 642.248   1
   9  -6  -5 1759.51 390.293   6
   9  -6  -4 1109.79 348.852   6
   9  -6  -3 11092.5 791.397   6
   9  -6  -2 9624.79 747.456   6
   9  -6  -1 23209.7 1178.15   6
   9  -6   0 2492.39 474.544   6
   9  -6   1 18654.3 1080.72   6
   9  -6   2 3026.64 486.781   6
   9  -6   3 2122.02 448.064   6
   9  -6   4 543.020 307.532   6
   9  -6   4-152.941 290.322   3
   9  -6   5 4677.35 598.025   6
   9  -6   5 4000.78 490.012   3
   9  -6   6 5423.10 660.150   6
   9  -7  -6 10407.0 850.318   1
   9  -7  -5 2727.35 436.852   6
   9  -7  -4 10036.6 763.897   6
   9  -7  -3 7033.43 654.430   6
   9  -7  -2 7325.01 676.648   6
   9  -7  -1 1254.30 392.336   6
   9  -7   0 1389.42 370.130   6
   9  -7   1 5507.77 623.347   6
   9  -7   2 7036.22 702.952   6
   9  -7   3 8799.44 777.265   6
   9  -7   4 2636.25 490.101   6
   9  -7   5 8103.71 681.153   3
   9  -7   5 8523.20 788.124   6
   9  -8  -5 10202.6 785.446   6
   9  -8  -4 194.743 311.246   6
   9  -8  -3 8721.47 747.937   6
   9  -8  -2 3404.67 516.790   6
   9  -8  -1 2335.47 469.844   6
   9  -8   0 518.991 350.509   6
   9  -8   1 4646.13 611.359   6
   9  -8   2 2321.45 496.693   6
   9  -8   3 5442.59 658.116   6
   8   9  -7 3729.05 588.755   2
   8   9  -6 643.381 416.910   2
   8   9  -5 1027.96 408.952   2
   8   9  -4 440.414 379.119   2
   8   9  -3 486.509 371.972   2
   8   9  -2 510.691 339.490   2
   8   9  -1 1955.80 471.419   2
   8   9   0 1283.20 370.246   5
   8   9   0 617.622 367.242   2
   8   9   1 7846.19 717.476   2
   8   9   1 7122.74 651.341   5
   8   8 -10 323.285 341.796   3
   8   8  -9 1637.51 444.533   3
   8   8  -9 1558.38 452.742   2
   8   8  -8 1758.73 455.105   3
   8   8  -8 1239.09 458.536   2
   8   8  -7 10887.6 893.490   2
   8   8  -7 10588.0 864.361   3
   8   8  -6 964.168 406.191   3
   8   8  -6 956.698 415.875   2
   8   8  -5 4640.69 614.785   3
   8   8  -5 4851.91 620.949   2
   8   8  -4 13120.8 952.013   2
   8   8  -4 11679.9 922.298   3
   8   8  -3 4798.79 616.659   3
   8   8  -3 4082.07 600.512   2
   8   8  -2 8343.53 749.157   2
   8   8  -2 6162.83 679.883   3
   8   8  -1 1275.66 414.454   2
   8   8  -1 2487.10 498.455   3
   8   8   0 9395.37 780.372   2
   8   8   1 593.320 365.258   2
   8   8   2 1689.82 420.922   2
   8   8   3 1237.56 388.184   2
   8   8   4 912.334 361.796   2
   8   7 -11 625.021 324.782   3
   8   7 -10 168.528 367.302   2
   8   7 -10-159.349 308.636   3
   8   7  -9 2676.26 471.055   3
   8   7  -9 3051.08 542.103   2
   8   7  -8 5128.50 602.574   3
   8   7  -8 4835.06 631.275   2
   8   7  -7 698.638 366.065   3
   8   7  -7 1151.52 408.486   2
   8   7  -6 5505.98 634.401   3
   8   7  -6 6085.26 659.685   2
   8   7  -5 1111.92 408.671   2
   8   7  -5 1480.62 426.014   3
   8   7  -4 7737.41 708.571   2
   8   7  -4 8324.07 772.512   3
   8   7  -3 5620.19 653.477   3
   8   7  -3 6489.94 650.411   2
   8   7  -2 4524.32 612.351   3
   8   7  -2 3771.20 524.869   2
   8   7  -1 4411.33 549.554   2
   8   7  -1 4086.56 562.830   3
   8   7   0-109.702 299.952   2
   8   7   0 466.916 318.466   3
   8   7   1 5895.08 631.589   3
   8   7   1 5517.25 595.722   2
   8   7   2 3967.69 506.761   2
   8   7   3 1776.81 408.339   2
   8   7   4 2099.40 408.862   2
   8   6 -11 2206.45 408.696   3
   8   6 -10 3785.80 510.945   3
   8   6  -9 3570.55 557.378   2
   8   6  -9 2484.97 460.221   3
   8   6  -8 512.458 331.210   3
   8   6  -8 497.907 363.912   2
   8   6  -7 3452.50 531.471   3
   8   6  -7 3561.80 537.688   2
   8   6  -6 2482.46 462.416   3
   8   6  -6 1155.43 413.337   2
   8   6  -5 9131.38 750.514   2
   8   6  -5 8122.62 740.799   3
   8   6  -4 857.275 358.183   2
   8   6  -4 921.457 388.303   3
   8   6  -3 12544.6 918.172   3
   8   6  -3 13095.3 860.860   2
   8   6  -2 4568.06 546.463   2
   8   6  -2 4066.16 551.868   3
   8   6  -1 3629.82 474.116   2
   8   6  -1 3450.30 516.148   3
   8   6   0 4343.98 508.166   2
   8   6   0 3808.01 537.881   3
   8   6   1 1013.92 368.726   3
   8   6   1 1789.96 380.534   2
   8   6   2 682.018 330.969   3
   8   6   2 1250.45 359.090   2
   8   6   3 6952.44 630.127   3
   8   6   3 7295.04 617.448   2
   8   6   4 648.317 296.446   2
   8   6   6-154.292 337.427   7
   8   5 -11 3832.37 502.907   3
   8   5 -10 7465.18 668.485   3
   8   5  -9 3049.64 485.465   3
   8   5  -8 2156.26 445.737   3
   8   5  -8 2397.23 474.769   2
   8   5  -7 2230.42 439.830   2
   8   5  -7 2468.70 457.467   3
   8   5  -6 2182.03 435.351   2
   8   5  -6 2399.56 443.829   3
   8   5  -5 1261.30 367.979   2
   8   5  -5 1240.30 374.247   3
   8   5  -4 7078.93 665.932   3
   8   5  -4 7432.71 637.558   2
   8   5  -3 286.035 295.634   3
   8   5  -3 963.371 337.678   2
   8   5  -2 6070.67 554.699   2
   8   5  -2 5915.40 621.349   3
   8   5  -1 2387.45 435.070   3
   8   5  -1 3453.13 444.252   2
   8   5   0 3025.88 460.277   3
   8   5   0 2817.59 406.127   2
   8   5   1 2006.00 407.814   3
   8   5   1 1561.03 343.121   2
   8   5   2 2853.37 438.372   3
   8   5   2 3018.31 404.335   2
   8   5   3 4198.00 490.835   3
   8   5   3 4248.80 460.141   2
   8   5   4 7932.17 639.283   3
   8   5   4 9165.77 641.199   2
   8   5   5 5539.21 696.755   7
   8   5   6 6667.17 746.551   7
   8   4 -11 18755.0 999.225   3
   8   4 -10 134.808 294.948   3
   8   4  -9 10924.0 796.589   3
   8   4  -8 3950.71 508.814   3
   8   4  -7 6446.12 632.060   3
   8   4  -7 5725.51 600.519   2
   8   4  -6 251.755 310.683   2
   8   4  -6 937.721 359.601   3
   8   4  -5 818.868 323.381   3
   8   4  -5 1647.17 381.249   2
   8   4  -4-14.6281 273.567   3
   8   4  -4 415.115 258.504   2
   8   4  -3 2975.12 398.224   2
   8   4  -3 2912.13 450.053   3
   8   4  -2 690.218 316.220   3
   8   4  -2 1107.23 301.862   2
   8   4  -1 393.863 275.523   3
   8   4  -1 218.440 222.090   2
   8   4   0 1912.81 318.309   2
   8   4   0 1271.87 348.588   3
   8   4   1 1614.45 302.472   2
   8   4   1 770.359 308.385   3
   8   4   2 9420.20 605.510   2
   8   4   2 8787.87 667.489   3
   8   4   3 3843.17 413.724   2
   8   4   3 4377.55 483.371   3
   8   4   4 10963.7 720.870   3
   8   4   4 12412.3 960.257   7
   8   4   4 11953.3 669.848   2
   8   4   5 9404.31 863.125   7
   8   4   5 10728.7 677.971   3
   8   4   6 9044.45 844.454   7
   8   4   7 3938.64 629.650   7
   8   3 -13 359.202 282.554   1
   8   3 -12 4016.29 473.446   1
   8   3 -11 1389.88 343.368   3
   8   3 -11 1665.80 349.074   1
   8   3 -10 12096.4 797.283   3
   8   3  -9 3224.39 469.682   3
   8   3  -8 9947.64 759.292   3
   8   3  -7 378.948 279.606   3
   8   3  -6 11586.2 814.507   3
   8   3  -5 2893.59 406.639   2
   8   3  -5 2634.57 433.979   3
   8   3  -4 2911.79 448.540   3
   8   3  -4 2658.72 373.263   2
   8   3  -3 8702.95 585.080   2
   8   3  -3 8480.24 685.014   3
   8   3  -2 10042.8 606.883   2
   8   3  -2 9193.37 712.701   3
   8   3  -1 2041.17 321.811   2
   8   3  -1 1603.47 353.326   3
   8   3   0 3345.31 436.814   3
   8   3   0 3222.23 356.809   2
   8   3   1 8730.46 531.615   2
   8   3   1 6717.30 601.211   3
   8   3   2 440.403 217.341   2
   8   3   2 285.760 265.480   3
   8   3   3 11002.6 585.475   2
   8   3   3 10302.7 694.003   3
   8   3   4 4193.56 454.337   3
   8   3   4 3785.72 598.338   7
   8   3   5 12931.7 734.313   3
   8   3   5 12299.8 974.788   7
   8   3   6 3094.80 579.053   7
   8   3   7 7501.79 801.146   7
   8   3   8 737.302 461.963   7
   8   2 -14 344.617 300.341   1
   8   2 -13 6065.84 583.187   1
   8   2 -12 2091.04 384.490   1
   8   2 -11 4551.74 501.162   3
   8   2 -11 4636.05 495.275   1
   8   2 -10 153.932 288.802   3
   8   2 -10 397.543 257.770   1
   8   2  -9 1922.15 390.958   3
   8   2  -9 2457.28 340.618   1
   8   2  -8 3728.70 482.759   3
   8   2  -8 4195.20 377.468   1
   8   2  -7 2419.79 282.925   1
   8   2  -7 2238.14 420.321   3
   8   2  -6 3277.62 460.399   3
   8   2  -5 3415.51 492.239   3
   8   2  -4 23762.6 997.123   2
   8   2  -4 23271.4 1158.26   3
   8   2  -3 5784.19 581.500   3
   8   2  -3 4908.25 435.146   2
   8   2  -2 25448.7 956.311   2
   8   2  -2 21102.6 1110.52   3
   8   2  -1 16803.4 716.614   2
   8   2  -1 13837.0 874.638   3
   8   2   0 11573.3 569.975   2
   8   2   0 10401.7 745.392   3
   8   2   1 4784.15 367.354   2
   8   2   1 4116.99 471.636   3
   8   2   2 2587.44 281.987   2
   8   2   2 1767.84 346.289   3
   8   2   3 2662.37 500.929   7
   8   2   3 2266.29 356.229   3
   8   2   4 2678.45 363.232   3
   8   2   4 3088.05 534.768   7
   8   2   5 846.545 255.884   3
   8   2   5 1337.92 455.881   7
   8   2   6 5070.86 674.923   7
   8   2   7 3174.72 576.965   7
   8   2   8 9209.15 875.880   7
   8   1 -14 5235.09 574.328   1
   8   1 -13 1519.63 398.142   1
   8   1 -12 2265.15 411.709   1
   8   1 -11 1184.80 322.193   3
   8   1 -11 1510.84 357.344   1
   8   1 -10 674.289 280.014   1
   8   1 -10 840.653 310.767   3
   8   1  -9 11754.9 685.312   1
   8   1  -9 10442.7 753.129   3
   8   1  -8 1586.99 294.800   1
   8   1  -8 1957.65 400.068   3
   8   1  -7 22557.7 878.404   1
   8   1  -7 19544.3 1077.89   3
   8   1  -6 6780.55 612.444   3
   8   1  -6 5659.80 397.735   1
   8   1  -5 13776.2 565.145   1
   8   1  -5 12677.3 852.102   3
   8   1  -4 2372.67 434.117   3
   8   1  -3 27775.7 1273.21   3
   8   1  -2 1108.50 173.437   6
   8   1  -2 1980.51 431.933   3
   8   1  -1 26904.4 1248.12   3
   8   1  -1 29693.5 965.030   2
   8   1   0 1838.83 373.489   3
   8   1   0 1921.00 240.760   2
   8   1   1 21357.9 711.241   2
   8   1   1 19577.5 1008.07   3
   8   1   2 1422.26 336.913   3
   8   1   3 18721.4 941.901   3
   8   1   3 22615.0 1232.83   7
   8   1   4 6191.50 704.512   7
   8   1   4 5887.18 494.887   3
   8   1   5 8268.85 561.556   3
   8   1   5 9222.51 830.200   7
   8   1   6 2620.69 538.951   7
   8   1   7 2673.46 548.837   7
   8   1   8 233.453 391.191   7
   8   1   9 760.269 446.432   7
   8   0 -13 7972.07 695.137   1
   8   0 -12 981.570 366.865   1
   8   0 -11 2015.59 360.960   3
   8   0 -11 2479.67 423.317   1
   8   0 -10 3237.22 440.113   1
   8   0 -10 3399.26 449.449   3
   8   0  -9 3357.81 462.720   3
   8   0  -9 3389.28 418.849   1
   8   0  -8 2543.77 360.938   1
   8   0  -8 2140.21 407.749   3
   8   0  -7 8787.38 563.216   1
   8   0  -7 8707.27 702.697   3
   8   0  -6 13080.7 855.459   3
   8   0  -6 12570.7 634.415   1
   8   0  -5 11177.9 559.472   1
   8   0  -5 9998.56 760.512   3
   8   0  -4 19535.6 1062.19   3
   8   0  -4 20347.9 748.537   1
   8   0  -3 11171.1 800.877   3
   8   0  -3 11908.6 480.416   6
   8   0  -3 12272.1 516.486   1
   8   0  -2 14956.6 891.931   3
   8   0  -2 15501.5 548.383   1
   8   0  -2 15103.2 603.485   6
   8   0  -1 6103.43 601.844   3
   8   0  -1 6098.78 402.026   6
   8   0   0 25896.3 1194.52   3
   8   0   1 9835.69 705.973   3
   8   0   2 17184.1 918.325   3
   8   0   3 7158.50 563.574   3
   8   0   3 6549.04 684.290   7
   8   0   4 9797.60 816.805   7
   8   0   4 8630.31 599.570   3
   8   0   5 694.118 383.460   7
   8   0   5 1263.93 264.639   3
   8   0   6 2885.81 522.664   7
   8   0   7 604.187 415.749   7
   8   0   8 894.560 428.838   7
   8   0   9 7332.34 793.455   7
   8  -1 -13 2553.99 456.118   1
   8  -1 -12 528.498 352.819   1
   8  -1 -11 3262.82 490.340   1
   8  -1 -11 2553.50 401.517   3
   8  -1 -10 2545.99 453.208   1
   8  -1 -10 1061.65 319.697   3
   8  -1  -9 6418.13 573.418   1
   8  -1  -9 5987.46 587.215   3
   8  -1  -8 922.204 340.550   3
   8  -1  -8 1632.75 367.874   1
   8  -1  -7 16394.8 825.779   1
   8  -1  -7 14994.5 936.850   3
   8  -1  -6 7049.96 662.427   3
   8  -1  -6 7316.33 543.926   1
   8  -1  -5 15766.7 746.988   1
   8  -1  -5 13984.4 904.574   3
   8  -1  -4 17237.1 1006.48   3
   8  -1  -4 18996.2 680.984   6
   8  -1  -4 18586.0 789.638   1
   8  -1  -3 3870.83 349.167   1
   8  -1  -3 4450.07 327.937   6
   8  -1  -3 3508.62 495.428   3
   8  -1  -2 6445.83 415.961   6
   8  -1  -2 6524.90 601.343   3
   8  -1  -1 9710.65 721.763   3
   8  -1  -1 9766.22 548.894   6
   8  -1   0 4955.21 531.727   3
   8  -1   1 15898.2 900.648   3
   8  -1   2 16002.5 887.299   3
   8  -1   3 7832.89 610.628   3
   8  -1   3 7956.99 715.741   7
   8  -1   4 15945.8 843.971   3
   8  -1   4 16924.2 1047.04   7
   8  -1   5 2437.98 483.390   7
   8  -1   5 2481.71 350.341   3
   8  -1   6 4615.83 412.183   3
   8  -1   6 5221.34 655.920   7
   8  -1   7 6037.14 717.626   7
   8  -1   8 1917.31 505.452   7
   8  -1   9 5450.14 716.382   7
   8  -2 -12 4145.07 594.747   1
   8  -2 -11 4545.96 501.421   3
   8  -2 -11 3730.34 542.066   1
   8  -2 -10 8979.81 720.619   1
   8  -2 -10 8867.98 694.843   3
   8  -2  -9-201.873 261.848   3
   8  -2  -9 211.997 332.657   1
   8  -2  -8 10237.5 773.935   3
   8  -2  -8 11107.9 753.372   1
   8  -2  -7 613.377 314.194   1
   8  -2  -7 865.415 331.485   3
   8  -2  -6 11922.5 732.980   1
   8  -2  -6 11475.0 826.520   3
   8  -2  -5 4798.19 358.276   6
   8  -2  -5 4778.32 583.858   3
   8  -2  -5 5484.05 482.624   1
   8  -2  -4 6856.24 647.400   3
   8  -2  -4 7605.83 462.013   6
   8  -2  -4 7651.51 548.597   1
   8  -2  -3 2474.11 435.101   3
   8  -2  -3 3122.56 313.128   6
   8  -2  -2 4521.81 385.315   6
   8  -2  -2 3030.22 453.392   3
   8  -2  -1 5475.25 438.607   6
   8  -2  -1 4443.71 516.442   3
   8  -2   0 2470.93 354.685   6
   8  -2   0 2509.93 400.118   3
   8  -2   1 4629.12 520.591   3
   8  -2   2 4594.45 497.699   3
   8  -2   3 11949.4 759.961   3
   8  -2   4 2961.53 515.055   7
   8  -2   4 2929.90 402.329   3
   8  -2   5 11671.4 889.713   7
   8  -2   5 13091.5 736.319   3
   8  -2   6 1498.75 444.538   7
   8  -2   6 967.033 249.275   3
   8  -2   7 11813.9 914.053   7
   8  -2   8 1692.20 477.324   7
   8  -2   9 6929.72 744.744   7
   8  -3 -12 7109.27 689.962   1
   8  -3 -11 1332.61 419.267   1
   8  -3 -10 7632.81 661.472   3
   8  -3 -10 8098.05 725.395   1
   8  -3  -9 5425.30 611.872   1
   8  -3  -9 4928.08 562.179   3
   8  -3  -8 9218.67 733.766   1
   8  -3  -8 8409.81 706.793   3
   8  -3  -7 9462.98 759.728   3
   8  -3  -7 10099.8 740.117   1
   8  -3  -6 1748.49 428.489   3
   8  -3  -6 1889.82 291.006   6
   8  -3  -6 1750.14 393.553   1
   8  -3  -5 24454.2 948.561   6
   8  -3  -5 23523.7 1078.89   1
   8  -3  -5 21609.7 1177.82   3
   8  -3  -4 7410.63 503.449   6
   8  -3  -4 6261.40 647.440   3
   8  -3  -3 9411.84 751.381   3
   8  -3  -3 8934.48 575.624   6
   8  -3  -2 2117.05 335.237   6
   8  -3  -2 2988.89 462.285   3
   8  -3  -1 377.539 308.894   3
   8  -3  -1 502.448 227.959   6
   8  -3   0 1210.90 333.012   3
   8  -3   0 953.190 269.631   6
   8  -3   1 9001.67 642.585   6
   8  -3   1 8756.82 686.906   3
   8  -3   2 9237.44 710.009   3
   8  -3   2 9161.60 669.370   6
   8  -3   3 10502.5 726.912   3
   8  -3   4 6866.29 645.226   7
   8  -3   4 7615.95 602.730   3
   8  -3   5 2622.46 383.073   3
   8  -3   5 2703.33 485.729   7
   8  -3   6 14951.2 979.789   7
   8  -3   6 15143.9 779.969   3
   8  -3   7 1429.60 439.018   7
   8  -3   8 9477.49 831.248   7
   8  -3   9 1046.24 415.320   7
   8  -3  10 6116.58 706.558   7
   8  -4 -11 4453.03 587.738   1
   8  -4 -10-165.210 350.795   1
   8  -4 -10 349.801 301.083   3
   8  -4  -9 7513.93 717.199   1
   8  -4  -9 6347.51 632.019   3
   8  -4  -8 158.091 315.159   3
   8  -4  -8 534.585 388.736   1
   8  -4  -7 5185.89 586.107   1
   8  -4  -7 4864.87 577.480   3
   8  -4  -6 3400.75 496.534   3
   8  -4  -6 3579.82 400.999   6
   8  -4  -6 3838.59 525.150   1
   8  -4  -5 5894.14 603.369   1
   8  -4  -5 5434.33 478.611   6
   8  -4  -4 19989.2 925.278   6
   8  -4  -3 20732.1 961.720   6
   8  -4  -2 6235.50 532.215   6
   8  -4  -1 11107.3 723.442   6
   8  -4   0 2669.74 387.611   6
   8  -4   1 18726.5 988.938   6
   8  -4   2 16819.9 957.306   6
   8  -4   2 16288.3 948.291   3
   8  -4   3 5417.64 564.910   3
   8  -4   3 4504.24 538.161   6
   8  -4   4 3979.38 468.633   3
   8  -4   5 4449.95 537.753   7
   8  -4   5 4260.39 458.661   3
   8  -4   6 314.808 242.818   3
   8  -4   6 17.7513 287.986   7
   8  -4   7 6309.11 647.327   7
   8  -4   8 532.247 366.050   7
   8  -4   9 3666.96 545.158   7
   8  -4  10 624.043 369.455   7
   8  -5 -10 2796.27 447.712   3
   8  -5 -10 1607.04 452.283   1
   8  -5  -9 548.939 342.516   3
   8  -5  -9 1488.95 457.642   1
   8  -5  -8 1638.31 418.850   3
   8  -5  -8 1774.76 479.982   1
   8  -5  -7 5871.44 658.303   1
   8  -5  -7 5079.26 505.744   6
   8  -5  -6 312.712 357.599   1
   8  -5  -6 322.267 254.036   6
   8  -5  -5 4774.62 493.295   6
   8  -5  -4 8666.68 645.005   6
   8  -5  -3 5061.97 518.884   6
   8  -5  -2 26719.8 1204.87   6
   8  -5  -1 5915.03 579.220   6
   8  -5   0 26373.5 1221.49   6
   8  -5   1 8773.48 706.211   6
   8  -5   2 11582.8 812.595   6
   8  -5   3 2317.26 410.251   6
   8  -5   4 5803.20 638.947   6
   8  -5   4 6004.48 565.572   3
   8  -5   5 2488.28 389.245   3
   8  -5   5 2124.96 454.907   6
   8  -5   6 3382.11 472.427   7
   8  -5   6 3184.26 409.552   3
   8  -5   7 988.060 340.493   7
   8  -5   8 1484.50 383.946   7
   8  -5   9 825.060 347.457   7
   8  -5  10 1749.83 448.464   7
   8  -6 -10 1019.19 339.604   3
   8  -6  -9 3186.80 551.372   1
   8  -6  -9 3524.31 535.562   3
   8  -6  -8 1619.47 448.501   1
   8  -6  -7 4213.57 488.620   6
   8  -6  -7 5780.86 691.539   1
   8  -6  -6 794.353 318.492   6
   8  -6  -6 1384.78 477.109   1
   8  -6  -5 2475.55 413.004   6
   8  -6  -4 9722.40 728.618   6
   8  -6  -3 2914.44 448.469   6
   8  -6  -2 22360.9 1150.24   6
   8  -6  -1 38958.6 1607.85   6
   8  -6   0 37689.6 1597.04   6
   8  -6   1 26019.7 1295.43   6
   8  -6   2 3956.52 547.158   6
   8  -6   3 11890.3 871.788   6
   8  -6   4 2074.33 477.555   6
   8  -6   5 882.512 359.563   6
   8  -6   6 6753.80 585.898   3
   8  -6   6 6494.88 695.673   6
   8  -6   7 624.334 338.472   6
   8  -6   8 2426.76 504.837   6
   8  -7  -8 6875.10 751.440   1
   8  -7  -7 1260.67 359.919   6
   8  -7  -7 2503.82 548.973   1
   8  -7  -6 1780.95 406.640   6
   8  -7  -6 2681.08 583.363   1
   8  -7  -5 5678.94 600.037   6
   8  -7  -4 3489.02 512.461   6
   8  -7  -3 3427.24 494.545   6
   8  -7  -2 6654.93 680.372   6
   8  -7  -1 3180.04 496.266   6
   8  -7   0 609.775 337.697   6
   8  -7   1 7449.69 708.941   6
   8  -7   2 2037.69 448.153   6
   8  -7   3 9060.00 788.407   6
   8  -7   4 4455.79 599.316   6
   8  -7   5 7465.19 746.404   6
   8  -7   6 2753.75 527.998   6
   8  -7   7 5534.35 674.948   6
   8  -8  -7 3903.37 530.109   6
   8  -8  -6 3368.52 599.566   1
   8  -8  -6 2482.83 490.031   6
   8  -8  -5 2909.57 485.197   6
   8  -8  -4 4515.31 562.968   6
   8  -8  -3 2584.86 483.083   6
   8  -8  -2 5253.53 611.618   6
   8  -8  -1 844.592 367.133   6
   8  -8   0 3286.68 521.800   6
   8  -8   1 523.091 381.072   6
   8  -8   2 4081.71 587.694   6
   8  -8   3 989.294 393.205   6
   8  -8   4 4370.12 612.829   6
   8  -8   5 1975.71 492.488   6
   8  -9  -5 40679.0 1736.17   6
   8  -9  -4 8118.36 767.557   6
   8  -9  -3 11773.1 914.567   6
   8  -9  -2 25032.8 1337.07   6
   8  -9  -1 6725.11 716.806   6
   8  -9   0 3403.70 554.070   6
   8  -9   1 21254.6 1259.19   6
   8  -9   2 11867.2 937.778   6
   8  -9   3 1012.10 445.608   6
   7  10  -6 615.727 437.248   2
   7  10  -5 599.682 397.160   2
   7  10  -4 286.673 374.285   2
   7  10  -3 2159.40 487.083   2
   7  10  -2 984.573 420.843   2
   7  10  -1 580.257 380.482   2
   7  10   0 4972.21 548.341   5
   7  10   1 2345.78 438.922   5
   7   9  -9 7825.88 795.829   2
   7   9  -8 2979.85 551.079   2
   7   9  -7 6015.22 702.862   2
   7   9  -6 1715.47 488.510   2
   7   9  -5 1022.92 446.138   2
   7   9  -4 1119.91 430.724   2
   7   9  -3 786.414 387.156   2
   7   9  -2 1905.61 462.232   2
   7   9  -1 810.117 320.291   5
   7   9  -1 1308.66 430.576   2
   7   9   0 2992.62 464.398   5
   7   9   0 3572.68 546.538   2
   7   9   1 7298.77 734.529   2
   7   9   1 6927.13 667.862   5
   7   9   2 5443.82 616.918   5
   7   9   2 5204.33 632.561   2
   7   9   3 2887.75 508.144   2
   7   8 -10 6030.26 733.354   2
   7   8  -9 9439.98 872.520   2
   7   8  -9 10668.5 821.480   3
   7   8  -8 13188.4 919.990   3
   7   8  -8 9742.21 865.976   2
   7   8  -7 2808.55 491.618   3
   7   8  -7 3212.83 563.720   2
   7   8  -6 5908.82 688.659   2
   7   8  -6 7080.90 712.177   3
   7   8  -5 1509.61 442.572   2
   7   8  -5 1131.83 429.437   3
   7   8  -4 288.137 304.100   3
   7   8  -4 567.557 373.051   2
   7   8  -3 302.582 332.834   2
   7   8  -3 199.871 347.377   3
   7   8  -2 1516.30 347.540   5
   7   8  -2 2080.25 461.814   2
   7   8  -2 1716.01 437.301   3
   7   8  -1 5564.58 544.382   5
   7   8  -1 5798.75 658.634   2
   7   8   0 1025.96 379.532   2
   7   8   1 12187.3 885.626   2
   7   8   2 10206.8 808.980   2
   7   8   3 9349.96 791.364   2
   7   8   4 2433.67 474.318   2
   7   8   5 3293.83 499.607   2
   7   7 -11 4515.66 526.454   3
   7   7 -10 332.195 297.873   3
   7   7 -10 529.731 415.161   2
   7   7  -9 3270.32 581.960   2
   7   7  -9 4967.27 587.325   3
   7   7  -8 7372.12 683.033   3
   7   7  -8 6820.53 728.677   2
   7   7  -7 947.538 391.089   2
   7   7  -7 1592.56 419.191   3
   7   7  -6 9778.94 830.005   2
   7   7  -6 10776.9 832.324   3
   7   7  -5 1232.71 390.638   3
   7   7  -5 1551.79 401.235   2
   7   7  -4 10189.9 809.478   2
   7   7  -4 9381.08 790.872   3
   7   7  -3 1818.81 436.387   2
   7   7  -3 1317.03 271.524   5
   7   7  -3 1458.49 400.495   3
   7   7  -2 7141.38 704.686   3
   7   7  -2 7059.48 672.350   2
   7   7  -1 6463.81 632.871   2
   7   7  -1 6331.75 650.642   3
   7   7   0 6579.52 658.210   3
   7   7   0 8438.43 715.389   2
   7   7   1 7228.97 671.509   2
   7   7   1 5580.74 601.039   3
   7   7   2 4636.83 556.656   2
   7   7   3 4265.98 534.322   2
   7   7   4 5202.44 598.205   2
   7   7   5 2914.45 494.061   2
   7   7   6 3922.62 527.938   2
   7   7   6 4305.57 563.994   7
   7   7   7 2450.96 438.946   2
   7   6 -11 1448.77 361.845   3
   7   6 -10 2059.20 417.706   3
   7   6  -9 2283.34 424.756   3
   7   6  -9 2310.77 496.427   2
   7   6  -8 2814.15 466.607   3
   7   6  -8 2483.36 494.462   2
   7   6  -7 4978.74 611.167   2
   7   6  -7 5212.13 616.429   3
   7   6  -6 5832.85 617.190   3
   7   6  -6 6229.64 644.301   2
   7   6  -5 15045.0 962.973   3
   7   6  -5 13167.9 891.780   2
   7   6  -4 5850.14 604.225   2
   7   6  -4 5389.44 584.581   3
   7   6  -3 15171.9 958.893   3
   7   6  -3 15446.5 937.063   2
   7   6  -2 5536.70 578.250   2
   7   6  -2 4328.11 564.123   3
   7   6  -1 19351.2 1033.82   2
   7   6  -1 19067.5 1056.91   3
   7   6   0 6235.75 601.656   2
   7   6   0 5746.95 586.189   3
   7   6   1 7306.29 647.231   2
   7   6   1 7128.46 638.852   3
   7   6   2 5798.64 576.254   3
   7   6   2 5104.74 537.545   2
   7   6   3 2598.65 431.215   2
   7   6   3 1776.82 350.878   3
   7   6   4 1282.34 410.678   7
   7   6   4 1114.90 338.308   2
   7   6   5 1520.57 438.750   7
   7   6   5 621.940 330.865   2
   7   6   6 3311.11 465.594   2
   7   6   6 1544.69 447.712   7
   7   6   7 751.310 325.590   2
   7   6   7 1242.40 426.814   7
   7   5 -14 4298.57 520.630   1
   7   5 -13 1435.75 377.916   1
   7   5 -12 2751.19 426.939   1
   7   5 -11 949.372 312.606   1
   7   5 -11 585.976 293.919   3
   7   5 -10 5815.31 495.243   1
   7   5 -10 4542.81 516.520   3
   7   5  -9 3746.98 500.868   3
   7   5  -8 2326.31 426.213   3
   7   5  -8 2158.30 456.600   2
   7   5  -7 1500.15 401.732   2
   7   5  -7 1095.40 323.672   3
   7   5  -6 8603.51 701.104   3
   7   5  -6 9364.93 734.418   2
   7   5  -5 3240.51 465.594   2
   7   5  -5 2580.75 445.948   3
   7   5  -4 4346.24 509.324   2
   7   5  -4 5095.87 556.208   3
   7   5  -3 1229.51 344.642   3
   7   5  -3 1715.24 366.435   2
   7   5  -2 5807.59 577.272   3
   7   5  -2 7162.16 595.529   2
   7   5  -1 1424.13 362.901   3
   7   5  -1 1877.29 396.156   2
   7   5   0 10148.8 750.118   3
   7   5   0 12324.4 751.162   2
   7   5   1 3741.18 491.057   3
   7   5   1 3397.96 434.788   2
   7   5   2 7179.01 614.637   3
   7   5   2 7906.15 607.420   2
   7   5   3 2981.66 405.280   2
   7   5   3 2142.38 376.485   3
   7   5   4 8496.69 637.008   3
   7   5   4 9786.70 671.424   2
   7   5   4 8181.38 755.653   7
   7   5   5 2227.61 480.288   7
   7   5   5 1660.84 366.188   2
   7   5   6 1679.48 472.041   7
   7   5   6 1866.27 381.328   2
   7   5   7 1434.41 443.248   7
   7   5   8 2267.99 511.088   7
   7   4 -14 781.650 368.614   1
   7   4 -13 3412.40 476.249   1
   7   4 -12 5532.20 558.488   1
   7   4 -11 9738.13 673.307   1
   7   4 -11 8746.97 651.954   3
   7   4 -10 3255.94 436.468   3
   7   4 -10 2924.87 389.948   1
   7   4  -9 9609.06 594.245   1
   7   4  -9 9549.34 698.764   3
   7   4  -8 2121.28 381.217   3
   7   4  -8 1522.46 263.713   1
   7   4  -7 7852.83 449.517   1
   7   4  -7 7005.13 648.971   2
   7   4  -6 6417.38 613.534   3
   7   4  -6 8244.27 645.580   2
   7   4  -5 11759.0 762.975   2
   7   4  -5 12463.1 813.399   3
   7   4  -4 7372.38 624.839   3
   7   4  -4 6668.68 570.475   2
   7   4  -3 4076.47 488.450   3
   7   4  -3 5279.28 502.295   2
   7   4  -2 3229.71 448.654   3
   7   4  -2 3415.35 409.104   2
   7   4  -1 6311.27 512.897   2
   7   4  -1 6617.21 591.108   3
   7   4   0 11572.8 691.646   2
   7   4   0 12740.1 800.582   3
   7   4   1 6767.13 580.770   3
   7   4   1 7185.39 541.568   2
   7   4   2 6460.03 502.240   2
   7   4   2 5618.68 523.778   3
   7   4   3 875.640 354.951   7
   7   4   3 1598.42 321.440   3
   7   4   3 1971.48 308.920   2
   7   4   4 8406.41 797.474   7
   7   4   4 10380.2 637.603   2
   7   4   4 8629.49 630.580   3
   7   4   5 5341.71 657.355   7
   7   4   5 4865.09 478.404   2
   7   4   5 4555.80 448.976   3
   7   4   6 10564.3 668.255   2
   7   4   6 9404.11 850.002   7
   7   4   7 3502.06 587.476   7
   7   4   8 5124.15 693.873   7
   7   3 -14 2316.81 442.228   1
   7   3 -13 4200.77 544.464   1
   7   3 -12 4699.60 551.187   1
   7   3 -11 6545.62 570.858   1
   7   3 -11 7530.81 591.015   3
   7   3 -10 11356.5 734.903   3
   7   3 -10 11518.4 705.273   1
   7   3  -9 9136.76 678.875   3
   7   3  -9 8738.61 584.826   1
   7   3  -8 4336.25 506.046   3
   7   3  -8 5112.81 418.242   1
   7   3  -7 249.281 192.447   1
   7   3  -7 614.255 295.935   3
   7   3  -6 14026.6 834.839   2
   7   3  -6 15194.3 602.335   1
   7   3  -5 917.937 158.414   1
   7   3  -5 896.334 321.426   3
   7   3  -5 917.480 305.850   2
   7   3  -4 13477.8 752.330   2
   7   3  -4 12862.8 808.802   3
   7   3  -3 1869.83 347.369   3
   7   3  -3 1697.75 337.387   2
   7   3  -2 579.669 241.255   2
   7   3  -2 185.403 233.749   3
   7   3  -1 7668.23 615.381   3
   7   3  -1 7756.99 525.626   2
   7   3   0 5510.35 521.190   3
   7   3   0 6151.25 454.945   2
   7   3   1 8695.08 644.679   3
   7   3   1 10774.5 588.965   2
   7   3   2 5775.78 518.636   3
   7   3   2 6622.64 472.417   2
   7   3   3 6464.99 516.617   3
   7   3   3 5374.37 602.147   7
   7   3   3 6064.34 451.238   2
   7   3   4 1311.54 438.189   7
   7   3   4 1423.11 270.009   2
   7   3   4 1607.93 314.641   3
   7   3   5 17960.4 850.295   3
   7   3   5 19087.5 834.522   2
   7   3   5 18191.4 1135.02   7
   7   3   6 1065.75 297.810   2
   7   3   6 873.523 440.939   7
   7   3   7 12240.0 970.377   7
   7   3   8 524.124 371.475   7
   7   3   9 7612.73 793.161   7
   7   2 -14 1110.19 392.753   1
   7   2 -13 1350.76 405.876   1
   7   2 -12 13844.6 860.814   1
   7   2 -11 2173.28 391.765   1
   7   2 -11 2955.61 395.814   3
   7   2 -10 10801.6 699.628   3
   7   2 -10 10781.1 699.935   1
   7   2  -9 13485.9 793.755   3
   7   2  -9 12275.9 707.386   1
   7   2  -8 6715.98 579.452   3
   7   2  -8 7311.23 511.073   1
   7   2  -7 5951.34 565.444   3
   7   2  -7 5882.67 430.893   1
   7   2  -6 447.094 270.440   3
   7   2  -6 581.197 194.536   1
   7   2  -5 11157.9 483.338   1
   7   2  -5 11363.8 747.931   3
   7   2  -4 8445.90 660.920   3
   7   2  -4 8576.97 359.496   1
   7   2  -4 9512.91 605.234   2
   7   2  -3 4564.20 401.114   2
   7   2  -3 4071.94 469.012   3
   7   2  -3 3393.83 151.493   1
   7   2  -2 20709.2 1020.68   3
   7   2  -2 22195.3 884.799   2
   7   2  -1 2400.70 309.509   2
   7   2  -1 1999.02 366.158   3
   7   2   0 15739.6 863.299   3
   7   2   0 16041.2 689.187   2
   7   2   1 8492.95 471.617   2
   7   2   1 7932.23 595.828   3
   7   2   2 960.032 207.430   2
   7   2   2 919.760 350.697   7
   7   2   2 1003.00 278.444   3
   7   2   3 4951.54 359.823   2
   7   2   3 4052.02 436.321   3
   7   2   3 5054.52 590.889   7
   7   2   4 9219.36 787.605   7
   7   2   4 9131.34 499.114   2
   7   2   4 8656.40 579.447   3
   7   2   5 10164.9 838.245   7
   7   2   5 8968.74 512.693   2
   7   2   5 8608.56 555.726   3
   7   2   6 11876.7 632.798   3
   7   2   6 11811.9 914.065   7
   7   2   7 2097.74 492.699   7
   7   2   8 16508.8 1124.15   7
   7   2   9 2816.79 555.909   7
   7   1 -14 1120.36 410.422   1
   7   1 -13 4528.92 551.842   1
   7   1 -12 1838.88 393.596   1
   7   1 -11 3772.92 479.322   1
   7   1 -11 3294.94 405.906   3
   7   1 -10 763.185 258.866   3
   7   1 -10 498.604 289.276   1
   7   1  -9 3883.50 440.866   1
   7   1  -9 3192.76 425.334   3
   7   1  -8 4685.25 443.127   1
   7   1  -8 3326.21 424.568   3
   7   1  -7 14833.1 863.059   3
   7   1  -7 14529.4 710.601   1
   7   1  -6 5522.28 403.176   1
   7   1  -6 4520.63 494.925   3
   7   1  -5 8838.28 666.596   3
   7   1  -5 9542.72 485.758   1
   7   1  -4 5843.98 542.192   3
   7   1  -4 5518.31 329.035   1
   7   1  -3 53064.6 1289.69   1
   7   1  -3 48746.5 1229.52   6
   7   1  -3 48789.8 1745.24   3
   7   1  -2 4561.31 215.776   1
   7   1  -2 5229.14 403.122   2
   7   1  -2 4710.65 281.336   6
   7   1  -2 5372.04 555.657   3
   7   1  -1 74594.5 1946.32   2
   7   1  -1 69829.3 2233.42   3
   7   1   0 1696.01 255.923   2
   7   1   0 1324.04 342.985   3
   7   1   1 16480.2 872.200   3
   7   1   1 18341.2 654.647   2
   7   1   2 6378.40 521.749   3
   7   1   2 5880.94 604.434   7
   7   1   2 6262.74 349.138   2
   7   1   3 11352.1 827.422   7
   7   1   3 11312.9 476.778   2
   7   1   3 10730.0 654.816   3
   7   1   4 11693.6 495.096   2
   7   1   4 11500.9 656.989   3
   7   1   4 10812.7 840.167   7
   7   1   5 4762.14 615.343   7
   7   1   5 5385.47 423.059   3
   7   1   6 1760.42 261.781   3
   7   1   6 2018.79 460.922   7
   7   1   7 1107.92 440.186   7
   7   1   8 4394.27 647.808   7
   7   1   9 2181.53 545.774   7
   7   1  10 3660.93 614.367   7
   7   0 -14 4817.88 597.312   1
   7   0 -13 69.7486 317.323   1
   7   0 -12 372.546 360.011   1
   7   0 -11 137.675 281.516   1
   7   0 -11 135.308 207.471   3
   7   0 -10 53.0349 232.680   3
   7   0 -10 297.985 280.416   1
   7   0  -9 3309.38 439.318   1
   7   0  -9 3063.51 423.366   3
   7   0  -8 748.936 295.953   1
   7   0  -8 587.929 274.469   3
   7   0  -7 2540.63 375.516   1
   7   0  -7 1056.36 341.714   3
   7   0  -6 27112.2 1229.27   3
   7   0  -6 29101.4 1060.90   1
   7   0  -5 22501.3 871.231   1
   7   0  -5 22158.0 630.783   6
   7   0  -5 22306.8 1083.47   3
   7   0  -4 12363.6 773.011   3
   7   0  -4 11771.3 569.585   1
   7   0  -4 12470.3 438.532   6
   7   0  -3 823.149 324.378   3
   7   0  -3 904.586 155.516   6
   7   0  -3 615.804 195.322   1
   7   0  -2 25118.3 824.185   6
   7   0  -2 25523.9 795.522   1
   7   0  -2 24555.1 1129.15   3
   7   0  -1 18236.6 942.983   3
   7   0   0 5767.76 533.135   3
   7   0   1 9993.26 667.939   3
   7   0   1 10957.1 397.266   2
   7   0   2 42754.2 1506.13   3
   7   0   2 41952.4 1070.34   2
   7   0   3 11129.7 675.947   3
   7   0   3 11451.6 383.001   2
   7   0   3 12252.3 836.136   7
   7   0   4 6099.07 632.553   7
   7   0   4 6079.32 485.909   3
   7   0   5 1156.09 372.039   7
   7   0   5 880.615 236.654   3
   7   0   6 2246.58 475.234   7
   7   0   6 2312.75 288.875   3
   7   0   7 432.589 363.530   7
   7   0   8 1011.31 426.357   7
   7   0   9 1162.00 464.097   7
   7   0  10 432.255 396.047   7
   7  -1 -13 9924.64 801.263   1
   7  -1 -12 3656.37 532.381   1
   7  -1 -11 2141.70 420.445   1
   7  -1 -11 907.344 275.787   3
   7  -1 -10 3012.82 420.770   3
   7  -1 -10 3448.27 484.653   1
   7  -1  -9 3727.73 454.708   3
   7  -1  -9 4452.06 509.143   1
   7  -1  -8 542.400 287.825   3
   7  -1  -8 256.027 276.333   1
   7  -1  -7 1401.64 338.521   1
   7  -1  -7 996.605 328.031   3
   7  -1  -6 13760.3 738.950   1
   7  -1  -6 14744.9 877.786   3
   7  -1  -6 14482.6 557.349   6
   7  -1  -5 3852.27 284.090   6
   7  -1  -5 3449.67 467.799   3
   7  -1  -5 3763.20 402.367   1
   7  -1  -4 30929.1 947.415   6
   7  -1  -4 28958.4 1273.03   3
   7  -1  -4 30748.6 1081.95   1
   7  -1  -3 7020.06 403.776   6
   7  -1  -3 6615.22 582.274   3
   7  -1  -3 7459.63 477.413   1
   7  -1  -2 22768.5 1088.61   3
   7  -1  -2 24099.2 851.615   6
   7  -1  -1 10973.9 563.642   6
   7  -1  -1 10537.1 717.949   3
   7  -1   0 16549.9 881.609   3
   7  -1   1 15668.1 848.216   3
   7  -1   2 15687.1 897.592   7
   7  -1   2 14051.6 789.570   3
   7  -1   3 16157.4 832.766   3
   7  -1   3 16982.3 982.245   7
   7  -1   4 9589.09 605.157   3
   7  -1   4 9431.42 753.256   7
   7  -1   5 1253.51 266.747   3
   7  -1   5 2668.36 469.141   7
   7  -1   6 1834.41 283.301   3
   7  -1   6 2216.31 470.011   7
   7  -1   7 8373.56 754.675   7
   7  -1   8 1509.23 443.010   7
   7  -1   9 1132.14 425.032   7
   7  -1  10 7295.72 777.923   7
   7  -2 -13 701.328 390.209   1
   7  -2 -12 2531.10 475.369   1
   7  -2 -11 5077.15 597.202   1
   7  -2 -10 3920.18 451.041   3
   7  -2 -10 3222.11 498.799   1
   7  -2  -9 15660.0 891.568   3
   7  -2  -9 15995.5 945.997   1
   7  -2  -8 6626.44 599.462   3
   7  -2  -8 7479.69 642.788   1
   7  -2  -7 39545.0 1492.60   1
   7  -2  -7 38227.9 1525.93   3
   7  -2  -6 47196.7 1748.90   3
   7  -2  -6 46109.4 1623.52   1
   7  -2  -6 48137.3 1418.01   6
   7  -2  -5 8888.68 493.742   6
   7  -2  -5 8297.73 603.467   1
   7  -2  -5 7849.52 670.380   3
   7  -2  -4 58006.0 2032.56   3
   7  -2  -4 60347.1 1851.75   1
   7  -2  -4 62390.8 1726.11   6
   7  -2  -3 35991.8 1188.07   6
   7  -2  -3 35593.4 1446.38   3
   7  -2  -2 3516.83 478.832   3
   7  -2  -2 3335.33 357.204   6
   7  -2  -1 133742. 3352.64   6
   7  -2  -1 128191. 3586.37   3
   7  -2   0 23581.6 1118.68   3
   7  -2   0 25180.1 1015.68   6
   7  -2   1 12899.5 785.464   3
   7  -2   2 44428.5 1591.27   3
   7  -2   3 50822.0 1710.18   3
   7  -2   3 51643.9 1847.29   7
   7  -2   4 5648.15 493.222   3
   7  -2   4 4770.25 556.462   7
   7  -2   5 52829.9 1929.27   7
   7  -2   5 50116.5 1636.61   3
   7  -2   6 2636.86 472.458   7
   7  -2   6 3625.42 372.087   3
   7  -2   7 9955.63 826.587   7
   7  -2   8 4023.04 590.727   7
   7  -2   9 8728.50 816.798   7
   7  -2  10 1368.49 483.019   7
   7  -2  11 3794.44 622.785   7
   7  -3 -12 23891.9 1281.66   1
   7  -3 -11 1771.52 447.259   1
   7  -3 -10 39129.2 1506.29   3
   7  -3 -10 38310.4 1641.42   1
   7  -3  -9 18297.5 1067.63   1
   7  -3  -9 19957.7 1030.01   3
   7  -3  -8 4917.99 586.331   1
   7  -3  -8 5038.23 549.052   3
   7  -3  -7 16591.0 958.021   3
   7  -3  -7 16040.9 938.621   1
   7  -3  -7 16825.8 772.666   6
   7  -3  -6 11378.3 626.547   6
   7  -3  -6 10949.7 783.073   3
   7  -3  -6 10784.6 747.471   1
   7  -3  -5 2356.43 318.668   6
   7  -3  -5 2366.56 399.616   1
   7  -3  -4 2446.41 327.627   6
   7  -3  -3 6448.27 478.984   6
   7  -3  -2 41829.2 1429.35   6
   7  -3  -1 382.490 256.323   6
   7  -3   0 40355.9 1429.70   6
   7  -3   1 5582.29 496.962   6
   7  -3   2 2072.17 367.064   3
   7  -3   3 3426.43 426.829   3
   7  -3   3 3432.30 445.942   7
   7  -3   4 9881.89 714.310   7
   7  -3   4 10430.0 671.625   3
   7  -3   5 17470.0 839.437   3
   7  -3   5 16594.9 971.959   7
   7  -3   6 4915.09 592.691   7
   7  -3   6 5737.53 461.737   3
   7  -3   7 26718.7 1327.00   7
   7  -3   8 36970.6 1635.72   7
   7  -3   9 3379.67 543.212   7
   7  -3  10 27074.6 1407.01   7
   7  -3  11 1925.19 496.934   7
   7  -4 -12 2639.65 513.728   1
   7  -4 -11 5929.20 693.845   1
   7  -4 -10 4453.19 619.536   1
   7  -4 -10 4713.88 521.522   3
   7  -4  -9 31833.8 1502.79   1
   7  -4  -9 32664.2 1401.51   3
   7  -4  -8 4525.50 534.316   3
   7  -4  -8 5295.00 611.216   1
   7  -4  -7 16510.8 838.291   6
   7  -4  -7 16052.7 985.485   1
   7  -4  -6 6147.60 509.737   6
   7  -4  -6 6478.47 644.459   1
   7  -4  -5 7418.27 554.533   6
   7  -4  -4 37351.5 1370.79   6
   7  -4  -3 7890.34 587.305   6
   7  -4  -2 11983.7 722.733   6
   7  -4  -1 18138.2 914.493   6
   7  -4   0 5849.52 537.850   6
   7  -4   1 4175.54 478.501   6
   7  -4   2 29977.7 1289.39   6
   7  -4   3 9981.21 746.389   6
   7  -4   4 15438.4 879.173   7
   7  -4   5 1384.99 340.845   7
   7  -4   5 1371.43 314.731   3
   7  -4   6 7175.98 651.448   7
   7  -4   6 8237.43 576.504   3
   7  -4   7 21345.0 1128.37   7
   7  -4   8 7044.00 676.379   7
   7  -4   9 12236.0 893.235   7
   7  -4  10 1654.50 451.489   7
   7  -4  11 2312.97 503.072   7
   7  -5 -11 2982.17 555.700   1
   7  -5 -10 4101.80 608.954   1
   7  -5 -10 5689.94 569.415   3
   7  -5  -9 5152.56 648.412   1
   7  -5  -8 3734.17 571.063   1
   7  -5  -8 5090.52 512.100   6
   7  -5  -7 3720.09 549.541   1
   7  -5  -7 4014.33 463.438   6
   7  -5  -6 3793.10 565.884   1
   7  -5  -6 3639.93 454.618   6
   7  -5  -5 8311.69 629.624   6
   7  -5  -4 7160.89 582.412   6
   7  -5  -3 6914.36 578.427   6
   7  -5  -2 16715.6 915.258   6
   7  -5  -1 16488.3 926.360   6
   7  -5   0 17877.7 973.316   6
   7  -5   1 14816.3 882.850   6
   7  -5   2 7674.96 653.694   6
   7  -5   3 4045.21 526.836   6
   7  -5   4 8961.88 741.716   6
   7  -5   5 2799.61 407.183   7
   7  -5   6 2902.67 428.678   7
   7  -5   7 5643.83 564.721   7
   7  -5   8 4109.21 503.641   7
   7  -5   9 7654.16 693.494   7
   7  -5  10 4765.48 569.311   7
   7  -5  11 3219.22 502.946   7
   7  -6 -10 258.945 409.662   1
   7  -6  -9 817.738 411.222   1
   7  -6  -8 1281.12 459.998   1
   7  -6  -8 930.490 331.256   6
   7  -6  -7 899.979 332.290   6
   7  -6  -7 1203.11 447.397   1
   7  -6  -6 3022.00 533.665   1
   7  -6  -6 3263.06 466.737   6
   7  -6  -5 4991.08 550.181   6
   7  -6  -4 7728.96 646.988   6
   7  -6  -3 3456.71 479.607   6
   7  -6  -2 31348.2 1379.07   6
   7  -6  -1 6528.42 644.208   6
   7  -6   0 47475.0 1819.29   6
   7  -6   1 15728.5 955.902   6
   7  -6   2 12299.0 856.120   6
   7  -6   3 11666.0 842.050   6
   7  -6   4 2581.64 472.256   6
   7  -6   5 4663.95 459.201   7
   7  -6   5 4329.78 574.391   6
   7  -6   6 1322.36 413.188   6
   7  -6   6 1946.09 360.216   7
   7  -6   7-244.205 335.225   6
   7  -6   7 334.546 296.143   7
   7  -6   8 887.078 323.901   7
   7  -6   9 786.559 334.479   7
   7  -6  10 1166.63 370.492   7
   7  -7  -8 563.893 326.956   6
   7  -7  -8 1478.36 475.975   1
   7  -7  -7 3514.22 615.056   1
   7  -7  -7 2573.46 465.860   6
   7  -7  -6 2438.21 472.900   6
   7  -7  -5 5852.93 611.003   6
   7  -7  -4 7280.56 664.654   6
   7  -7  -3 18405.4 1073.89   6
   7  -7  -2 4644.73 558.657   6
   7  -7  -1 28174.1 1354.66   6
   7  -7   0 651.522 388.208   6
   7  -7   1 27355.8 1363.65   6
   7  -7   2 7539.25 713.738   6
   7  -7   3 13320.9 943.508   6
   7  -7   4 8416.44 757.611   6
   7  -7   5 5220.47 623.771   6
   7  -7   6 1848.53 473.096   6
   7  -7   7 2068.99 482.823   6
   7  -7   8 319.967 391.520   6
   7  -8  -8 9827.30 790.305   6
   7  -8  -7 4986.37 734.739   1
   7  -8  -7 2275.20 446.308   6
   7  -8  -6 11274.5 857.612   6
   7  -8  -5 7171.18 708.947   6
   7  -8  -4 6409.58 675.279   6
   7  -8  -3 7095.92 698.851   6
   7  -8  -2 6927.07 683.390   6
   7  -8  -1 5986.78 654.629   6
   7  -8   0 5538.65 656.492   6
   7  -8   1 533.704 375.710   6
   7  -8   2 12971.1 964.540   6
   7  -8   3 2491.43 491.467   6
   7  -8   4 6770.05 709.345   6
   7  -8   5 11010.8 904.616   6
   7  -8   6 3345.61 548.602   6
   7  -8   7 12421.3 957.770   6
   7  -9  -6 6072.82 688.758   6
   7  -9  -5 5522.42 666.619   6
   7  -9  -4 3505.89 572.536   6
   7  -9  -3 7683.84 765.335   6
   7  -9  -2 5091.57 621.828   6
   7  -9  -1 1176.99 410.594   6
   7  -9   0 2528.42 498.633   6
   7  -9   1 3339.69 572.600   6
   7  -9   2 3488.32 562.870   6
   7  -9   3 2435.27 495.469   6
   7  -9   4 9819.12 869.923   6
   7  -9   5 6425.29 724.822   6
   7  -9   6 6853.54 742.816   6
   7 -10  -2 18633.1 1176.88   6
   7 -10  -1 13963.5 1021.15   6
   7 -10   0 1644.45 478.434   6
   7 -10   1 11747.3 947.008   6
   7 -10   2 14108.9 1039.70   6
   7 -10   3 5580.34 696.068   6
   6  11   0 793.707 312.501   5
   6  10  -8 3928.74 593.804   2
   6  10  -7 3904.61 624.514   2
   6  10  -6 1808.91 497.121   2
   6  10  -5 2260.82 505.716   2
   6  10  -4 1364.30 428.337   2
   6  10  -3 99.7082 365.553   2
   6  10  -2 3221.50 554.701   2
   6  10  -2 2471.26 413.557   5
   6  10  -1 1209.20 353.996   5
   6  10  -1 1462.05 441.559   2
   6  10   0 4438.32 538.963   5
   6  10   0 4499.66 608.587   2
   6  10   1 2725.27 560.349   2
   6  10   1 2439.69 480.340   5
   6  10   2 2741.87 480.080   5
   6  10   2 2979.46 521.418   2
   6   9 -10 143.246 380.301   2
   6   9  -9 5564.77 692.838   2
   6   9  -8 3194.88 561.252   2
   6   9  -7 317.195 375.077   2
   6   9  -6 3281.45 554.865   2
   6   9  -5 840.832 406.259   2
   6   9  -4 1599.30 472.990   2
   6   9  -3 2127.15 483.698   2
   6   9  -2 406.260 265.279   5
   6   9  -2 74.2748 319.786   2
   6   9  -1 3203.07 445.289   5
   6   9  -1 2493.24 495.322   2
   6   9   0 132.896 292.224   5
   6   9   0 618.566 385.374   2
   6   9   1 2944.14 483.437   5
   6   9   1 3028.21 519.124   2
   6   9   2 7448.56 739.287   2
   6   9   2 5659.41 634.614   5
   6   9   3 88.7253 310.117   5
   6   9   3 374.300 386.519   2
   6   9   4 9035.99 800.390   5
   6   9   4 10543.0 865.683   2
   6   8 -11 2689.31 544.074   2
   6   8 -10 6254.15 724.519   2
   6   8  -9 16527.7 1116.76   2
   6   8  -8 8074.45 778.688   2
   6   8  -7 5360.26 676.916   2
   6   8  -6 7103.64 737.841   2
   6   8  -5 5174.93 640.478   2
   6   8  -4-185.758 316.281   2
   6   8  -3 8999.50 604.006   5
   6   8  -3 8710.58 778.015   2
   6   8  -2 2738.34 497.737   2
   6   8  -2 3662.33 428.974   5
   6   8  -1 2945.97 517.151   2
   6   8  -1 2384.26 403.575   5
   6   8   0 4786.19 600.274   2
   6   8   1 15214.1 998.953   2
   6   8   2 1103.55 446.972   2
   6   8   3 25653.5 1324.55   2
   6   8   4 1051.51 442.879   2
   6   8   5 3217.30 508.251   2
   6   8   6 768.488 359.545   2
   6   7 -10 6131.87 701.951   2
   6   7 -10 5499.88 570.824   3
   6   7  -9 1584.02 473.083   2
   6   7  -9 1824.76 389.013   3
   6   7  -8 7734.07 680.657   3
   6   7  -8 6507.21 714.775   2
   6   7  -7 1017.08 402.089   2
   6   7  -7 364.034 309.297   3
   6   7  -6 10549.1 829.542   2
   6   7  -6 10038.8 788.968   3
   6   7  -5 1120.23 373.004   3
   6   7  -5 1084.78 404.779   2
   6   7  -4 3516.58 514.489   3
   6   7  -4 3502.58 514.681   2
   6   7  -4 3180.68 329.130   5
   6   7  -3 648.859 247.106   5
   6   7  -3 116.973 275.625   3
   6   7  -3 43.3675 320.602   2
   6   7  -2 3944.35 526.440   3
   6   7  -2 4725.16 556.513   2
   6   7  -1 910.820 363.284   2
   6   7  -1 738.914 335.590   3
   6   7   0 11198.4 807.168   2
   6   7   0 10091.4 783.558   3
   6   7   1 800.583 363.836   2
   6   7   2 5822.92 632.888   2
   6   7   3 2401.78 456.331   2
   6   7   4 3246.44 475.385   7
   6   7   4 3103.06 515.275   2
   6   7   5 4602.21 577.722   7
   6   7   5 5415.11 621.078   2
   6   7   6 4897.33 588.117   2
   6   7   6 2710.56 486.795   7
   6   7   7 1927.73 432.024   7
   6   7   7 2014.45 445.141   2
   6   7   8 2468.71 463.365   2
   6   7   8 2102.83 429.017   7
   6   6 -14 1560.89 384.073   1
   6   6 -13 890.142 334.418   1
   6   6 -12 197.596 287.254   1
   6   6 -11 11459.9 739.303   1
   6   6 -11 10225.2 711.229   3
   6   6 -10 2283.04 411.842   3
   6   6  -9 4838.31 534.928   3
   6   6  -9 5937.46 659.340   2
   6   6  -8 2240.41 472.190   2
   6   6  -8 1968.62 390.091   3
   6   6  -7 4489.72 528.619   3
   6   6  -7 6082.57 629.969   2
   6   6  -6 2127.91 431.004   2
   6   6  -6 2143.14 413.620   3
   6   6  -5 11528.0 811.684   2
   6   6  -5 10627.1 775.578   3
   6   6  -4 7444.46 453.124   5
   6   6  -4 7052.48 648.497   2
   6   6  -4 7967.69 675.883   3
   6   6  -3 10063.8 748.774   2
   6   6  -3 9017.38 711.600   3
   6   6  -2 3655.63 488.096   3
   6   6  -2 3956.00 501.910   2
   6   6  -1 15903.9 902.563   2
   6   6  -1 13875.7 888.433   3
   6   6   0 5013.96 534.606   3
   6   6   0 3635.70 485.629   2
   6   6   1 8188.36 669.287   2
   6   6   1 8632.11 688.084   3
   6   6   2 3648.03 482.065   2
   6   6   2 4953.06 536.443   3
   6   6   3 5856.82 585.053   2
   6   6   3 7115.91 646.383   7
   6   6   4 1309.72 364.240   7
   6   6   4 1476.94 392.567   2
   6   6   5 12507.2 892.328   7
   6   6   5 14217.6 890.929   2
   6   6   6 5578.71 600.148   2
   6   6   6 4758.75 580.933   7
   6   6   7 2822.15 512.261   7
   6   6   7 4132.59 535.056   2
   6   6   8 1043.48 367.361   2
   6   6   8 1078.12 435.004   7
   6   6   9 980.638 357.879   2
   6   5 -14 7781.65 679.764   1
   6   5 -13 1308.62 400.400   1
   6   5 -12 14277.4 879.810   1
   6   5 -11 4558.67 467.803   3
   6   5 -11 3810.82 468.332   1
   6   5 -10 1967.25 371.841   3
   6   5 -10 2314.36 371.943   1
   6   5  -9 1353.88 308.810   1
   6   5  -9 1595.61 428.066   2
   6   5  -9 817.349 298.855   3
   6   5  -8 14417.5 968.512   2
   6   5  -8 17110.2 775.543   1
   6   5  -8 15044.2 883.941   3
   6   5  -7 1433.72 351.848   3
   6   5  -7 1515.53 401.006   2
   6   5  -6 7795.54 646.098   3
   6   5  -6 6764.30 636.541   2
   6   5  -5 39106.2 1529.14   2
   6   5  -5 39441.3 1094.17   5
   6   5  -5 37793.7 1526.07   3
   6   5  -4 19078.1 1000.20   2
   6   5  -4 19271.2 1011.77   3
   6   5  -3 69548.5 2183.09   2
   6   5  -3 66290.3 2199.38   3
   6   5  -2 89014.8 2575.72   2
   6   5  -2 81785.1 2581.89   3
   6   5  -1 17931.5 943.623   2
   6   5  -1 16206.2 938.249   3
   6   5   0 48407.3 1655.50   2
   6   5   0 44460.5 1666.17   3
   6   5   1 7956.50 636.047   3
   6   5   1 8984.56 643.261   2
   6   5   2 1291.47 322.131   3
   6   5   2 1802.67 361.016   2
   6   5   3 17276.5 912.095   2
   6   5   3 16426.8 964.898   7
   6   5   3 14994.3 838.975   3
   6   5   4 1725.15 370.717   2
   6   5   4 1161.74 300.223   3
   6   5   4 1121.70 378.981   7
   6   5   5 4056.90 476.184   2
   6   5   5 3994.31 548.336   7
   6   5   6 1317.91 361.075   2
   6   5   6 670.368 396.000   7
   6   5   7 18872.3 1159.37   7
   6   5   7 20703.2 1046.84   2
   6   5   8 2105.46 422.748   2
   6   5   8 1991.77 478.533   7
   6   5   9 5797.35 567.845   2
   6   5   9 6182.44 713.647   7
   6   4 -14 6045.70 636.716   1
   6   4 -13 7087.41 668.847   1
   6   4 -12 16664.0 952.164   1
   6   4 -11 12697.6 795.709   1
   6   4 -11 11440.2 696.719   3
   6   4 -10 6488.97 559.188   1
   6   4 -10 6556.87 539.524   3
   6   4  -9 6921.98 543.379   1
   6   4  -9 6465.77 554.109   3
   6   4  -8 16564.2 782.122   1
   6   4  -8 17022.6 998.023   2
   6   4  -8 16692.4 893.237   3
   6   4  -7 2580.65 298.816   1
   6   4  -7 2423.70 395.613   3
   6   4  -7 2270.96 417.851   2
   6   4  -6 9920.29 697.095   3
   6   4  -6 11400.2 536.079   1
   6   4  -6 11403.8 765.623   2
   6   4  -5 13791.9 815.440   2
   6   4  -5 12863.3 452.094   5
   6   4  -5 12945.6 785.968   3
   6   4  -4 16420.6 873.905   2
   6   4  -4 15692.8 867.129   3
   6   4  -3 11037.7 700.120   2
   6   4  -3 10129.4 703.693   3
   6   4  -2 43133.1 1461.78   2
   6   4  -2 36982.0 1460.23   3
   6   4  -1 10296.4 703.410   3
   6   4  -1 10481.9 657.992   2
   6   4   0 21740.2 963.468   2
   6   4   0 20724.2 999.973   3
   6   4   1 5521.87 472.957   2
   6   4   1 4698.13 474.408   3
   6   4   2 16906.1 881.735   3
   6   4   2 19435.7 1041.32   7
   6   4   2 18805.5 880.440   2
   6   4   3 12937.2 745.897   3
   6   4   3 12309.8 721.346   2
   6   4   3 12809.1 856.900   7
   6   4   4 5334.89 474.675   3
   6   4   4 5661.10 619.226   7
   6   4   4 5465.84 510.582   2
   6   4   5 15981.5 1005.82   7
   6   4   5 14371.5 751.652   3
   6   4   5 16723.6 860.560   2
   6   4   6 17381.4 1100.62   7
   6   4   6 19098.2 943.370   2
   6   4   7 5547.25 677.225   7
   6   4   7 6957.92 582.602   2
   6   4   8 16647.2 891.663   2
   6   4   8 15504.2 1086.47   7
   6   4   9 4337.07 639.825   7
   6   3 -14 6444.23 672.281   1
   6   3 -13 2585.20 451.691   1
   6   3 -12 1295.36 362.746   1
   6   3 -11 21104.7 1046.32   1
   6   3 -11 19654.1 911.086   3
   6   3 -10 2069.98 340.711   3
   6   3 -10 1713.53 365.450   1
   6   3  -9 11759.4 694.455   1
   6   3  -9 12333.2 736.172   3
   6   3  -8 4326.01 403.474   1
   6   3  -8 4131.31 454.638   3
   6   3  -7 16387.0 872.181   3
   6   3  -7 16597.0 729.870   1
   6   3  -6 22311.3 820.792   1
   6   3  -6 21278.0 1017.95   3
   6   3  -5 13272.2 765.380   2
   6   3  -5 11958.4 739.782   3
   6   3  -5 12575.1 517.463   1
   6   3  -4 36941.6 1396.03   3
   6   3  -4 39690.0 1372.98   2
   6   3  -4 36044.3 987.940   1
   6   3  -3 5151.84 453.859   2
   6   3  -3 5133.02 492.005   3
   6   3  -2 431.535 249.664   3
   6   3  -2 661.847 248.257   2
   6   3  -2 379.728 91.8353   6
   6   3  -1 9129.82 556.528   2
   6   3  -1 8263.87 599.195   3
   6   3   0 33041.9 1148.42   2
   6   3   0 29300.3 1194.37   3
   6   3   1 19221.5 819.161   2
   6   3   1 16741.4 861.181   3
   6   3   2 21297.9 880.119   2
   6   3   2 20464.7 1055.68   7
   6   3   2 20910.5 944.046   3
   6   3   3 16064.5 961.247   7
   6   3   3 15215.3 781.216   3
   6   3   3 16354.6 767.892   2
   6   3   4 3647.76 399.331   3
   6   3   4 4461.78 413.073   2
   6   3   4 4275.01 533.614   7
   6   3   5 12231.0 881.371   7
   6   3   5 11293.7 658.555   2
   6   3   5 11172.7 626.556   3
   6   3   6 2203.18 476.414   7
   6   3   6 2667.29 325.022   3
   6   3   6 2867.68 365.728   2
   6   3   7 19364.8 1183.61   7
   6   3   7 21223.1 946.966   2
   6   3   8 99.9755 289.416   2
   6   3   8 740.052 401.397   7
   6   3   9 3637.64 589.223   7
   6   3  10 3664.39 607.856   7
   6   2 -14 8059.86 724.153   1
   6   2 -13 1614.01 421.626   1
   6   2 -12 8731.25 706.664   1
   6   2 -11 272.934 205.584   3
   6   2 -11 307.344 289.169   1
   6   2 -10 13657.9 801.646   1
   6   2 -10 12813.1 718.721   3
   6   2  -9 5096.18 471.345   3
   6   2  -9 5150.33 480.316   1
   6   2  -8 7846.97 537.290   1
   6   2  -8 7400.00 568.156   3
   6   2  -7 14517.8 803.896   3
   6   2  -7 15738.8 716.639   1
   6   2  -6 30767.7 1009.05   1
   6   2  -6 26903.4 1168.81   3
   6   2  -5 6289.30 358.541   1
   6   2  -5 5789.73 497.693   2
   6   2  -5 6353.11 532.509   3
   6   2  -4 675.434 245.602   2
   6   2  -4 682.663 143.392   1
   6   2  -4 272.228 241.675   3
   6   2  -4 486.019 100.146   5
   6   2  -3 21678.5 873.547   2
   6   2  -3 19575.2 928.386   3
   6   2  -3 19564.2 565.613   1
   6   2  -2 24507.4 936.810   2
   6   2  -2 24768.6 1057.10   3
   6   2  -1 18470.1 904.627   3
   6   2  -1 20034.3 789.492   2
   6   2   0 1649.94 258.854   2
   6   2   0 1657.93 307.940   3
   6   2   1 5982.03 400.528   2
   6   2   1 6082.50 494.062   3
   6   2   2 9503.32 707.345   7
   6   2   2 8942.15 574.689   3
   6   2   2 9874.70 518.664   2
   6   2   3 34125.8 1101.57   2
   6   2   3 31547.3 1379.26   7
   6   2   3 31483.3 1175.29   3
   6   2   4 2275.19 287.263   2
   6   2   4 2793.14 478.921   7
   6   2   4 2562.83 324.360   3
   6   2   5 10841.9 810.101   7
   6   2   5 9282.38 552.556   3
   6   2   5 10149.3 552.250   2
   6   2   6 10877.4 855.895   7
   6   2   6 12221.9 627.850   2
   6   2   6 11312.8 580.691   3
   6   2   7 4176.80 599.651   7
   6   2   7 3446.56 386.975   2
   6   2   8 14033.2 1029.36   7
   6   2   8 15642.8 764.271   2
   6   2   9 1339.47 467.484   7
   6   2  10 11599.8 947.441   7
   6   1 -14 5025.02 624.045   1
   6   1 -13 5124.00 595.240   1
   6   1 -12 2091.67 428.575   1
   6   1 -11 6994.20 502.513   3
   6   1 -11 4961.91 551.522   1
   6   1 -10 1087.32 273.843   3
   6   1 -10 1378.31 351.022   1
   6   1  -9 2027.94 356.465   1
   6   1  -9 2269.98 338.454   3
   6   1  -8 2872.30 380.089   1
   6   1  -8 2799.08 375.513   3
   6   1  -7 43569.6 1425.27   1
   6   1  -7 43507.1 1531.97   3
   6   1  -6 2810.08 323.127   1
   6   1  -6 2575.10 391.721   3
   6   1  -5 23396.6 1041.41   3
   6   1  -5 22921.1 655.559   5
   6   1  -5 24385.8 843.607   1
   6   1  -4 11868.6 710.187   3
   6   1  -4 11831.7 504.010   1
   6   1  -3 8884.88 601.422   3
   6   1  -3 10936.7 555.475   2
   6   1  -3 8534.73 301.024   6
   6   1  -3 10516.1 401.928   1
   6   1  -2 17916.5 717.087   2
   6   1  -2 17282.5 856.298   3
   6   1  -2 17572.0 518.231   1
   6   1  -1 28615.8 863.022   2
   6   1  -1 26579.2 1049.24   3
   6   1   0 6127.11 358.532   2
   6   1   0 5757.69 476.129   3
   6   1   1 12424.2 509.705   2
   6   1   1 11822.6 673.884   3
   6   1   2 16802.8 932.696   7
   6   1   2 20158.0 652.557   2
   6   1   2 18881.2 839.632   3
   6   1   2 15976.9 455.373   1
   6   1   3 11550.0 498.688   2
   6   1   3 11241.6 627.681   3
   6   1   3 11227.4 774.758   7
   6   1   4 41159.0 1202.97   2
   6   1   4 43336.8 1643.74   7
   6   1   4 39346.7 1324.07   3
   6   1   5 562.159 206.694   3
   6   1   5 85.9027 293.280   7
   6   1   5 509.932 185.984   2
   6   1   6 2496.89 490.243   7
   6   1   6 1893.09 256.798   3
   6   1   6 1837.33 255.861   2
   6   1   7 2474.87 298.871   2
   6   1   7 2568.01 502.673   7
   6   1   8 4597.68 612.070   7
   6   1   9 3525.78 578.469   7
   6   1  10 3856.84 627.834   7
   6   1  11 9626.55 897.796   7
   6   0 -14 6362.14 676.770   1
   6   0 -13 1245.05 430.538   1
   6   0 -12 2309.81 474.678   1
   6   0 -11 4360.12 536.357   1
   6   0 -11 3969.99 394.581   3
   6   0 -10 902.153 261.594   3
   6   0 -10 549.141 300.792   1
   6   0  -9 2491.85 404.219   1
   6   0  -9 2084.10 338.109   3
   6   0  -8 1728.68 336.749   1
   6   0  -8 1762.33 316.633   3
   6   0  -7 8579.13 571.824   1
   6   0  -7 8231.64 594.565   3
   6   0  -6 16727.1 866.825   3
   6   0  -6 17822.0 794.162   1
   6   0  -5 37811.7 975.990   6
   6   0  -5 37570.1 1226.07   1
   6   0  -5 36490.4 1391.87   3
   6   0  -4 12062.2 565.531   1
   6   0  -4 12245.8 423.843   6
   6   0  -4 11808.1 719.605   3
   6   0  -3 34019.3 1317.35   3
   6   0  -3 34939.7 1059.63   1
   6   0  -3 36012.1 975.596   6
   6   0  -2 4542.08 444.772   3
   6   0  -2 5002.80 295.894   6
   6   0  -2 4355.77 299.602   1
   6   0  -1 5985.56 505.700   3
   6   0   0 25487.4 1079.03   3
   6   0   0 27344.3 796.900   2
   6   0   1 14710.6 484.883   2
   6   0   1 14210.0 441.651   1
   6   0   1 14054.7 742.472   3
   6   0   2 33449.6 889.961   2
   6   0   2 34390.8 876.912   1
   6   0   2 31418.2 1195.40   3
   6   0   2 33383.4 1337.60   7
   6   0   3 23607.4 1117.97   7
   6   0   3 23580.5 683.936   2
   6   0   3 25252.4 977.456   3
   6   0   4 8603.40 694.773   7
   6   0   4 8157.44 514.665   3
   6   0   4 8563.54 357.979   2
   6   0   5 3418.17 494.684   7
   6   0   5 4255.80 266.722   2
   6   0   5 4567.20 369.016   3
   6   0   6 49.7463 146.032   2
   6   0   6 206.343 303.597   7
   6   0   6 421.787 173.579   3
   6   0   7 2794.15 497.063   7
   6   0   8 1865.25 450.037   7
   6   0   9 5586.50 669.453   7
   6   0  10 2415.75 527.510   7
   6   0  11 5634.52 718.655   7
   6  -1 -14 2462.98 489.767   1
   6  -1 -13 8769.19 765.408   1
   6  -1 -12 1121.72 397.920   1
   6  -1 -11 3325.66 489.103   1
   6  -1 -10 2061.91 413.557   1
   6  -1 -10 1838.98 313.127   3
   6  -1  -9 3608.52 480.717   1
   6  -1  -9 3933.10 423.412   3
   6  -1  -8 460.459 277.200   1
   6  -1  -8 108.477 231.598   3
   6  -1  -7 6838.47 553.991   1
   6  -1  -7 8020.79 595.868   3
   6  -1  -6 14578.9 574.750   6
   6  -1  -6 13555.4 740.231   1
   6  -1  -6 14379.7 800.491   3
   6  -1  -5 2169.92 355.415   3
   6  -1  -5 1826.43 220.882   6
   6  -1  -5 1701.63 329.507   1
   6  -1  -4 54531.8 1434.26   6
   6  -1  -4 52745.3 1584.26   1
   6  -1  -4 49795.1 1726.37   3
   6  -1  -3 18097.9 897.657   3
   6  -1  -3 18136.3 673.639   6
   6  -1  -2 61260.6 1972.68   3
   6  -1  -2 64464.0 1716.15   6
   6  -1  -1 3696.91 427.079   3
   6  -1  -1 4348.33 342.655   6
   6  -1   0 59182.1 1866.34   3
   6  -1   1 34837.0 1279.38   3
   6  -1   2 30655.2 1173.12   3
   6  -1   2 33339.6 1296.26   7
   6  -1   3 17721.3 821.353   3
   6  -1   3 19138.8 956.733   7
   6  -1   4 3962.12 476.762   7
   6  -1   4 3784.58 370.839   3
   6  -1   5 11789.6 805.187   7
   6  -1   5 10611.0 568.879   3
   6  -1   6 3690.81 509.667   7
   6  -1   6 4275.65 337.937   3
   6  -1   7 5631.79 619.734   7
   6  -1   8 1145.08 391.721   7
   6  -1   9 7010.61 730.928   7
   6  -1  10 6589.86 728.482   7
   6  -1  11 7949.88 799.905   7
   6  -2 -13 10162.7 848.688   1
   6  -2 -12 12534.7 909.979   1
   6  -2 -11 2428.02 469.981   1
   6  -2 -10 14635.8 789.007   3
   6  -2 -10 13480.6 895.099   1
   6  -2  -9 503.928 368.747   1
   6  -2  -9 702.517 278.645   3
   6  -2  -8 24316.6 1160.91   1
   6  -2  -8 25176.9 1121.02   3
   6  -2  -7 23486.7 1081.60   3
   6  -2  -7 23283.4 1089.40   1
   6  -2  -6 6356.96 575.481   3
   6  -2  -6 7273.02 455.055   6
   6  -2  -6 6313.99 539.954   1
   6  -2  -5 44570.4 1536.50   1
   6  -2  -5 48237.1 1667.17   3
   6  -2  -5 45515.4 1397.10   6
   6  -2  -4 48040.1 1680.28   3
   6  -2  -4 47369.0 1418.59   6
   6  -2  -3 31569.6 1060.15   6
   6  -2  -2 10081.3 535.638   6
   6  -2  -1 8882.73 515.155   6
   6  -2   0 11025.9 692.151   3
   6  -2   0 11490.0 613.059   6
   6  -2   1 26059.3 1092.26   3
   6  -2   2 72849.0 2172.27   7
   6  -2   2 70705.5 2129.55   3
   6  -2   3 50108.0 1701.41   7
   6  -2   3 46699.0 1568.35   3
   6  -2   4 5447.27 542.485   7
   6  -2   4 5525.73 461.664   3
   6  -2   5 50314.8 1805.62   7
   6  -2   5 51000.3 1566.13   3
   6  -2   6 23859.8 1177.28   7
   6  -2   6 24697.7 917.388   3
   6  -2   7 4363.15 546.586   7
   6  -2   7 3671.18 311.768   3
   6  -2   8 13448.5 924.996   7
   6  -2   9 2295.04 490.096   7
   6  -2  10 4252.81 606.566   7
   6  -2  11 4538.19 640.234   7
   6  -3 -13 1284.10 475.563   1
   6  -3 -12 9857.46 824.826   1
   6  -3 -11 1025.40 405.748   1
   6  -3 -10 15048.8 821.651   3
   6  -3 -10 14150.7 953.739   1
   6  -3  -9 13340.5 795.233   3
   6  -3  -9 13597.2 911.035   1
   6  -3  -8 16788.0 913.310   3
   6  -3  -8 18015.7 1002.82   1
   6  -3  -7 7006.31 509.397   6
   6  -3  -7 7823.91 676.105   1
   6  -3  -6 93120.0 2746.90   1
   6  -3  -6 93221.3 2560.12   6
   6  -3  -5 4476.51 490.501   1
   6  -3  -5 3855.90 384.316   6
   6  -3  -4 28153.7 1060.77   6
   6  -3  -3 84485.2 2335.24   6
   6  -3  -2 67877.9 1986.84   6
   6  -3  -1 52984.0 1672.22   6
   6  -3   0 162066. 4074.63   6
   6  -3   1 15856.4 815.307   6
   6  -3   3 46374.0 1603.11   7
   6  -3   4 20238.3 922.978   3
   6  -3   4 21244.6 1005.49   7
   6  -3   5 32657.1 1343.87   7
   6  -3   5 31162.2 1162.05   3
   6  -3   6 19673.7 833.383   3
   6  -3   6 20845.2 1064.65   7
   6  -3   7 8403.26 719.588   7
   6  -3   7 8094.64 479.285   3
   6  -3   8 4612.06 570.547   7
   6  -3   9 19013.3 1119.32   7
   6  -3  10 5837.94 678.377   7
   6  -3  11 8612.07 793.732   7
   6  -3  12 3129.15 556.224   7
   6  -4 -12 7568.39 737.600   1
   6  -4 -11 20194.2 1193.92   1
   6  -4 -10 12431.8 749.521   3
   6  -4 -10 10346.8 871.004   1
   6  -4  -9 41907.6 1745.47   1
   6  -4  -8 3859.02 551.796   1
   6  -4  -7 27395.1 1292.75   1
   6  -4  -7 28288.0 1166.45   6
   6  -4  -6 3147.71 461.993   1
   6  -4  -6 1645.82 345.168   6
   6  -4  -5 8163.10 592.405   6
   6  -4  -4 9257.98 614.195   6
   6  -4  -3 9165.34 609.976   6
   6  -4  -2 848.175 268.597   6
   6  -4  -1 3009.62 394.828   6
   6  -4   0 2364.53 362.184   6
   6  -4   1 677.658 272.280   6
   6  -4   2 10111.2 676.049   6
   6  -4   3 10103.1 624.515   7
   6  -4   4 13832.1 773.395   7
   6  -4   5 813.732 287.274   7
   6  -4   6 32297.8 1330.88   7
   6  -4   6 31222.5 1161.22   3
   6  -4   7 8765.51 686.930   7
   6  -4   7 8355.63 519.514   3
   6  -4   8 34598.7 1485.85   7
   6  -4   9 14284.5 934.260   7
   6  -4  10 14561.8 974.221   7
   6  -4  11 6542.36 711.538   7
   6  -4  12 257.581 344.820   7
   6  -5 -11 7548.24 768.979   1
   6  -5 -10 4896.55 643.824   1
   6  -5  -9 10360.4 865.844   1
   6  -5  -8 18841.0 990.760   6
   6  -5  -8 19368.3 1142.37   1
   6  -5  -7 7010.86 719.608   1
   6  -5  -7 6749.01 607.956   6
   6  -5  -6 16923.7 1012.95   1
   6  -5  -6 15196.4 871.041   6
   6  -5  -5 4854.37 514.106   6
   6  -5  -4 5692.20 521.271   6
   6  -5  -3 1889.10 360.827   6
   6  -5  -2 3384.62 434.271   6
   6  -5  -1 7843.73 638.858   6
   6  -5   0 2028.96 362.728   6
   6  -5   1 8540.40 663.954   6
   6  -5   2 581.179 275.528   6
   6  -5   3 2053.57 410.287   6
   6  -5   4 6003.42 486.922   7
   6  -5   4 5580.92 584.971   6
   6  -5   5 6773.78 553.163   7
   6  -5   6 5326.04 513.938   7
   6  -5   7 20504.2 1016.95   7
   6  -5   8 1526.32 363.251   7
   6  -5   9 16994.2 984.588   7
   6  -5  10 2691.97 477.461   7
   6  -5  11 9356.96 757.288   7
   6  -5  12 2331.78 453.856   7
   6  -6 -10 3494.32 617.246   1
   6  -6  -9 1128.67 439.824   1
   6  -6  -8 5234.41 665.883   1
   6  -6  -8 4779.51 538.213   6
   6  -6  -7 6858.38 715.331   1
   6  -6  -7 7263.97 651.118   6
   6  -6  -6 21325.1 1107.75   6
   6  -6  -5 12623.4 835.432   6
   6  -6  -4 11325.8 793.682   6
   6  -6  -3 9882.87 717.970   6
   6  -6  -2 26159.2 1221.21   6
   6  -6  -1 1689.08 382.896   6
   6  -6   0 36020.0 1510.15   6
   6  -6   1 3611.94 484.217   6
   6  -6   2 21239.5 1107.27   6
   6  -6   3 10591.9 783.709   6
   6  -6   4 11269.3 817.139   6
   6  -6   5 10054.3 619.167   7
   6  -6   5 10980.6 842.112   6
   6  -6   6 20176.0 1162.36   6
   6  -6   6 19786.2 917.654   7
   6  -6   7 3028.14 408.899   7
   6  -6   8 5197.19 521.186   7
   6  -6   9 957.622 322.677   7
   6  -6  10 2126.76 413.352   7
   6  -6  11 2638.34 442.929   7
   6  -6  12 787.857 329.760   7
   6  -7  -9 1088.20 431.615   1
   6  -7  -8 221.636 309.375   6
   6  -7  -8 377.917 437.518   1
   6  -7  -7 1763.04 506.602   1
   6  -7  -7 1566.07 401.700   6
   6  -7  -6 2145.53 448.737   6
   6  -7  -5 12118.7 865.187   6
   6  -7  -4 10871.1 811.935   6
   6  -7  -3 14951.0 954.339   6
   6  -7  -2 12513.9 862.477   6
   6  -7  -1 10371.5 786.216   6
   6  -7   0 2325.47 453.540   6
   6  -7   1 14663.9 953.115   6
   6  -7   2 1439.28 407.269   6
   6  -7   3 28492.4 1381.31   6
   6  -7   4 1378.77 390.921   6
   6  -7   5 23037.2 1266.52   6
   6  -7   6 1263.25 426.717   6
   6  -7   7 2666.05 503.380   6
   6  -7   8 486.099 339.190   6
   6  -7   9 667.147 346.870   6
   6  -7  10 730.762 369.120   6
   6  -8  -8 3337.74 589.867   1
   6  -8  -8 3556.39 544.506   6
   6  -8  -7 894.747 372.364   6
   6  -8  -7 1470.37 477.440   1
   6  -8  -6 1898.51 458.938   6
   6  -8  -5 1785.67 444.775   6
   6  -8  -4 1615.86 417.548   6
   6  -8  -3 33675.3 1551.43   6
   6  -8  -2 1296.29 415.192   6
   6  -8  -1 25614.2 1317.25   6
   6  -8   0 18513.5 1119.56   6
   6  -8   1 6626.44 688.447   6
   6  -8   2 30671.2 1492.73   6
   6  -8   3 1827.14 476.063   6
   6  -8   4 30149.5 1487.82   6
   6  -8   5 556.417 349.906   6
   6  -8   6 2095.60 472.256   6
   6  -8   7 1887.68 464.903   6
   6  -8   8 395.081 372.390   6
   6  -8   9 3081.26 565.581   6
   6  -9  -7 10297.8 858.921   6
   6  -9  -6 2803.64 537.719   6
   6  -9  -5 10226.8 871.951   6
   6  -9  -4 5823.50 688.716   6
   6  -9  -3 8301.14 768.392   6
   6  -9  -2 7742.00 754.795   6
   6  -9  -1 631.971 369.306   6
   6  -9   0 9494.40 842.527   6
   6  -9   1 5913.80 688.005   6
   6  -9   2 4473.88 610.178   6
   6  -9   3 9647.69 838.692   6
   6  -9   4 7715.13 781.891   6
   6  -9   5 8786.26 818.722   6
   6  -9   6 11235.0 921.734   6
   6  -9   7 1948.46 484.636   6
   6 -10  -4 3511.66 573.281   6
   6 -10  -3 1826.64 462.595   6
   6 -10  -2 4076.69 611.342   6
   6 -10  -1 635.660 389.732   6
   6 -10   0 244.327 385.103   6
   6 -10   1 796.047 404.689   6
   6 -10   2 561.804 376.710   6
   6 -10   3 1645.37 468.720   6
   6 -10   4 3784.43 595.467   6
   6 -10   5 4496.68 645.652   6
   5  11  -6 1114.73 442.165   2
   5  11  -5 1956.86 512.078   2
   5  11  -4 1571.63 488.683   2
   5  11  -3 1905.30 501.436   2
   5  11  -2 5003.73 539.129   5
   5  11  -2 4334.19 646.705   2
   5  11  -1 1739.69 409.331   5
   5  11  -1 1934.33 471.079   2
   5  11   0 5093.14 586.966   5
   5  11   1 11612.9 866.408   5
   5  10  -9 6499.31 748.069   2
   5  10  -8 1360.88 462.024   2
   5  10  -7 11202.3 929.327   2
   5  10  -6 6619.89 742.444   2
   5  10  -5 7141.00 757.333   2
   5  10  -4 1078.32 443.533   2
   5  10  -3 1733.84 337.930   5
   5  10  -3 1693.28 457.984   2
   5  10  -2 4629.29 636.050   2
   5  10  -2 4369.49 512.028   5
   5  10  -1 6772.68 635.274   5
   5  10  -1 6236.62 727.899   2
   5  10   0 10723.5 899.798   2
   5  10   0 10740.2 819.488   5
   5  10   1 5285.05 676.023   2
   5  10   1 4198.82 572.419   5
   5  10   2 7477.19 717.495   5
   5  10   2 7786.21 779.162   2
   5  10   3 916.352 411.202   5
   5  10   3 3331.56 569.454   2
   5   9 -11 1970.73 514.295   2
   5   9 -10 2016.84 502.188   2
   5   9  -9 3533.24 595.457   2
   5   9  -8 5590.07 683.188   2
   5   9  -7 5680.34 682.035   2
   5   9  -6 7565.03 769.277   2
   5   9  -5 1891.89 457.509   2
   5   9  -4 6860.75 528.188   5
   5   9  -4 7115.59 727.564   2
   5   9  -3 1303.98 311.475   5
   5   9  -3 676.049 386.667   2
   5   9  -2 4109.10 493.069   5
   5   9  -2 3271.72 549.843   2
   5   9  -1 5797.95 674.541   2
   5   9  -1 5292.90 559.948   5
   5   9   0 5848.85 601.518   5
   5   9   0 5741.66 656.543   2
   5   9   1 4078.19 532.688   5
   5   9   1 6166.58 686.966   2
   5   9   2 7547.94 758.578   2
   5   9   2 6676.01 679.493   5
   5   9   3 1395.81 453.464   2
   5   9   3 789.432 348.841   5
   5   9   4 3177.79 544.207   5
   5   9   4 4092.96 612.032   2
   5   9   5 1929.63 469.359   2
   5   9   5 1231.70 408.955   5
   5   8 -11 4130.57 622.195   2
   5   8 -10 1435.74 456.523   2
   5   8  -9 6278.89 720.068   2
   5   8  -8 4269.99 607.489   2
   5   8  -7 10922.5 871.473   2
   5   8  -6 2320.02 471.246   2
   5   8  -5 1009.89 411.412   2
   5   8  -4 2583.77 459.303   2
   5   8  -4 2984.54 359.545   5
   5   8  -3 3484.73 401.820   5
   5   8  -3 3451.19 528.023   2
   5   8  -2 1949.18 346.272   5
   5   8  -2 1967.34 457.871   2
   5   8  -1 878.822 366.984   2
   5   8  -1 481.578 288.897   5
   5   8   0 3402.28 467.891   5
   5   8   0 3753.68 544.092   2
   5   8   1 10064.1 766.674   5
   5   8   1 11380.2 865.189   2
   5   8   2 8582.24 770.222   2
   5   8   3 7798.18 752.945   2
   5   8   4 1828.58 451.233   2
   5   8   5 5991.26 671.328   2
   5   8   6 2095.13 480.919   2
   5   8   7 2570.80 505.489   2
   5   7 -10 12102.4 946.469   2
   5   7  -9 229.704 338.016   2
   5   7  -8 7114.36 634.165   3
   5   7  -8 6052.15 681.732   2
   5   7  -7 4787.20 541.351   3
   5   7  -7 4929.68 594.954   2
   5   7  -6 8334.82 698.846   3
   5   7  -6 9361.64 773.239   2
   5   7  -5 4058.66 518.143   3
   5   7  -5 4172.30 340.260   5
   5   7  -5 3931.77 548.761   2
   5   7  -4 5216.73 578.303   2
   5   7  -4 6180.89 604.707   3
   5   7  -4 5439.53 426.859   5
   5   7  -3 810.754 365.732   2
   5   7  -3 108.872 268.378   3
   5   7  -3 429.098 232.717   5
   5   7  -2 2741.06 365.565   5
   5   7  -2 2552.09 419.918   3
   5   7  -2 3205.83 469.442   2
   5   7  -1 7815.83 679.500   2
   5   7   0 4684.60 561.567   2
   5   7   1 11151.8 819.837   2
   5   7   2 2163.99 434.885   2
   5   7   3 5556.55 618.831   2
   5   7   4 2827.92 449.806   7
   5   7   4 3652.99 537.047   2
   5   7   5 5213.26 555.652   7
   5   7   5 5526.43 634.732   2
   5   7   6 9765.76 749.235   7
   5   7   6 8593.79 769.573   2
   5   7   7 9701.03 797.946   2
   5   7   7 8267.82 720.014   7
   5   7   8 3970.84 532.029   7
   5   7   8 3228.48 522.560   2
   5   6 -14 924.486 359.242   1
   5   6 -13 8086.07 699.281   1
   5   6 -12 2755.84 452.119   1
   5   6 -11 5947.90 568.294   1
   5   6 -10 7901.05 600.400   3
   5   6 -10 7034.00 601.875   1
   5   6  -9 4627.90 493.082   3
   5   6  -9 5106.63 633.596   2
   5   6  -8 3549.40 536.933   2
   5   6  -8 3920.37 469.138   3
   5   6  -7 5455.66 606.960   2
   5   6  -7 5035.09 531.287   3
   5   6  -6 8759.78 708.586   2
   5   6  -6 8276.92 670.215   3
   5   6  -5 23076.3 1146.65   2
   5   6  -5 20650.0 1054.62   3
   5   6  -5 21485.0 759.898   5
   5   6  -4 15992.3 927.183   2
   5   6  -4 16144.7 923.057   3
   5   6  -4 16325.6 694.363   5
   5   6  -3 21098.5 867.718   5
   5   6  -3 21285.9 1084.91   2
   5   6  -3 20909.7 1047.23   3
   5   6  -2 22060.8 1083.27   2
   5   6  -2 19927.1 1032.83   3
   5   6  -1 18767.1 992.418   2
   5   6  -1 18120.8 975.445   3
   5   6   0 23813.7 1113.87   2
   5   6   0 22536.6 1093.59   3
   5   6   1 10276.4 730.723   2
   5   6   1 9720.94 704.669   3
   5   6   2 10627.2 754.077   2
   5   6   3 4050.62 521.827   2
   5   6   3 4583.77 504.847   7
   5   6   4 7091.45 622.184   7
   5   6   4 7427.60 663.396   2
   5   6   5 15076.4 935.105   2
   5   6   5 15513.8 950.152   7
   5   6   6 4715.64 566.957   2
   5   6   6 4675.26 571.268   7
   5   6   7 5638.23 606.625   2
   5   6   7 4349.40 570.302   7
   5   6   8 7254.58 689.110   2
   5   6   8 7159.68 699.411   7
   5   6   9 2152.64 448.039   2
   5   6   9 1266.95 414.099   7
   5   6  10 12104.8 850.441   2
   5   5 -14 3137.20 509.408   1
   5   5 -13 9377.13 763.850   1
   5   5 -12 718.351 356.099   1
   5   5 -11 13713.2 833.450   1
   5   5 -11 12582.4 710.295   3
   5   5 -10 18236.1 944.235   1
   5   5 -10 17621.2 878.310   3
   5   5  -9 20407.1 1147.97   2
   5   5  -9 22141.9 990.711   1
   5   5  -9 20948.6 991.734   3
   5   5  -8 1937.85 337.508   3
   5   5  -8 1771.52 318.040   1
   5   5  -8 1933.18 424.521   2
   5   5  -7 14801.1 931.859   2
   5   5  -7 15884.4 869.028   3
   5   5  -7 16018.3 742.736   1
   5   5  -6 19769.7 1008.77   2
   5   5  -6 18160.7 926.615   3
   5   5  -5 2540.14 419.119   2
   5   5  -5 1997.62 377.820   3
   5   5  -5 2194.99 199.396   5
   5   5  -4 42340.1 1549.92   2
   5   5  -4 40661.2 1529.86   3
   5   5  -4 41019.7 1207.81   5
   5   5  -3 33127.1 1343.47   3
   5   5  -3 33729.1 1332.04   2
   5   5  -2 10673.6 719.825   2
   5   5  -2 10765.8 708.794   3
   5   5  -1 39721.7 1492.45   3
   5   5  -1 40264.4 1480.31   2
   5   5   0 31935.4 1268.17   2
   5   5   0 30809.1 1265.68   3
   5   5   1 30411.1 1263.35   2
   5   5   1 32242.6 1277.70   3
   5   5   2 2124.63 347.414   3
   5   5   2 2527.02 412.431   2
   5   5   2 2587.60 412.382   7
   5   5   3 14630.4 876.647   7
   5   5   3 16365.1 878.462   2
   5   5   3 14711.4 804.016   3
   5   5   4 31764.3 1384.14   7
   5   5   4 33161.9 1349.87   2
   5   5   5 7642.88 675.775   7
   5   5   5 6960.77 610.870   2
   5   5   6 21594.9 1153.34   7
   5   5   6 21001.9 1077.47   2
   5   5   7 14856.2 970.682   7
   5   5   7 14292.0 888.470   2
   5   5   8 2931.96 514.084   7
   5   5   8 3556.81 511.457   2
   5   5   9 6951.00 654.535   2
   5   5   9 5496.97 692.020   7
   5   5  10 12135.0 824.771   2
   5   5  10 13595.6 971.789   7
   5   4 -15 820.971 449.511   1
   5   4 -14 8905.21 757.526   1
   5   4 -13 5005.24 600.661   1
   5   4 -12 14975.3 919.086   1
   5   4 -11 16188.7 781.359   3
   5   4 -11 16841.8 951.099   1
   5   4 -10 2987.27 422.226   1
   5   4 -10 3767.93 401.289   3
   5   4  -9 8558.22 604.283   1
   5   4  -9 8723.69 602.546   3
   5   4  -8 27042.9 1056.11   1
   5   4  -8 26349.1 1102.56   3
   5   4  -8 24398.2 1229.91   2
   5   4  -7 8308.58 668.793   2
   5   4  -7 8842.01 610.756   3
   5   4  -7 9661.55 550.517   1
   5   4  -6 1669.24 269.587   1
   5   4  -6 1623.85 371.907   2
   5   4  -6 1572.03 309.927   3
   5   4  -5 54028.0 1461.20   1
   5   4  -5 51502.9 1717.92   3
   5   4  -5 50514.2 1276.91   5
   5   4  -4 103305. 2831.79   2
   5   4  -4 98415.1 2799.64   3
   5   4  -3 22137.5 965.854   2
   5   4  -3 21030.9 951.452   3
   5   4  -2 336917. 7526.52   2
   5   4  -2 323487. 7021.58   6
   5   4  -2 312200. 7526.36   3
   5   4  -1 57164.9 1756.30   2
   5   4  -1 51144.7 1748.12   3
   5   4   0 73649.5 2128.22   2
   5   4   0 71117.2 2157.63   3
   5   4   1 54173.3 1703.56   2
   5   4   1 52066.4 1719.71   3
   5   4   2 3901.78 468.452   7
   5   4   2 4562.51 451.239   2
   5   4   2 3984.45 422.421   3
   5   4   3 2931.98 449.780   7
   5   4   3 2984.91 366.723   3
   5   4   3 3278.08 408.775   2
   5   4   4 18956.4 929.358   2
   5   4   4 21348.4 1075.82   7
   5   4   4 20290.4 899.138   3
   5   4   5 6613.36 566.903   2
   5   4   5 6977.76 643.081   7
   5   4   6 3073.98 507.273   7
   5   4   6 2957.60 428.396   2
   5   4   7 10982.5 732.250   2
   5   4   7 10461.9 847.527   7
   5   4   8 20286.7 1192.78   7
   5   4   9 2948.43 562.193   7
   5   4  10 7824.24 772.114   7
   5   3 -15 522.059 378.283   1
   5   3 -14 5635.44 633.330   1
   5   3 -13 3027.31 491.114   1
   5   3 -12 4439.27 549.798   1
   5   3 -11 33712.7 1427.18   1
   5   3 -11 35251.0 1214.89   3
   5   3 -10 4475.13 414.678   3
   5   3 -10 4660.62 506.145   1
   5   3  -9 13605.6 760.932   1
   5   3  -9 13282.0 702.419   3
   5   3  -8 11296.1 662.050   3
   5   3  -8 12258.2 679.124   1
   5   3  -7 20072.2 917.543   3
   5   3  -7 22104.1 879.422   1
   5   3  -6 4156.16 472.079   2
   5   3  -6 4806.53 372.154   1
   5   3  -6 4569.78 421.336   3
   5   3  -5 16948.0 813.655   2
   5   3  -5 11843.5 343.867   5
   5   3  -5 17739.7 611.554   1
   5   3  -5 17203.7 788.822   3
   5   3  -4 7806.08 363.615   1
   5   3  -4 6869.52 520.480   2
   5   3  -4 7182.06 535.785   3
   5   3  -3 17735.4 807.883   2
   5   3  -3 15745.2 790.684   3
   5   3  -2 1172.26 302.098   3
   5   3  -2 1291.85 274.538   2
   5   3  -2 1041.58 110.477   6
   5   3  -1 23759.7 906.278   2
   5   3  -1 22784.2 669.611   6
   5   3   0 9750.53 560.209   2
   5   3   0 9775.01 594.837   3
   5   3   1 21966.1 1015.94   7
   5   3   1 22029.2 939.574   3
   5   3   1 24702.4 931.693   2
   5   3   2 7279.59 578.718   7
   5   3   2 7131.45 497.417   2
   5   3   2 6762.51 491.140   3
   5   3   3 17298.9 797.336   2
   5   3   3 16998.7 915.151   7
   5   3   3 17001.0 781.017   3
   5   3   4 24793.6 1150.27   7
   5   3   4 22065.5 926.674   3
   5   3   4 25789.8 1005.97   2
   5   3   5 6000.69 598.121   7
   5   3   5 5535.84 479.743   2
   5   3   5 6216.66 433.956   3
   5   3   6 3972.16 520.090   7
   5   3   7 34049.9 1532.30   7
   5   3   8 1938.65 467.217   7
   5   3   9 3876.57 570.252   7
   5   3  10 2277.38 515.436   7
   5   3  11 672.412 430.068   7
   5   2 -15 523.933 408.970   1
   5   2 -14 8630.32 766.929   1
   5   2 -13 3640.90 538.529   1
   5   2 -12 8206.83 697.865   1
   5   2 -11 3127.39 330.869   3
   5   2 -11 3058.51 464.679   1
   5   2 -10 15538.7 863.204   1
   5   2 -10 15109.0 721.479   3
   5   2  -9 1989.25 314.075   3
   5   2  -9 2670.95 384.277   1
   5   2  -8 23285.9 986.411   3
   5   2  -8 25903.0 1017.66   1
   5   2  -7 4526.30 408.500   1
   5   2  -7 4979.82 430.409   3
   5   2  -6 24584.2 1005.43   3
   5   2  -6 23783.1 883.866   1
   5   2  -5 9755.45 617.710   2
   5   2  -5 9310.26 588.599   3
   5   2  -5 9323.53 464.613   1
   5   2  -4 2116.23 309.244   2
   5   2  -4 2211.50 150.094   5
   5   2  -4 2111.68 210.410   1
   5   2  -4 2601.58 344.295   3
   5   2  -3 5016.24 245.343   1
   5   2  -3 5120.11 402.172   2
   5   2  -2 10733.3 534.932   2
   5   2  -2 9473.35 292.546   6
   5   2  -1 4568.55 354.875   2
   5   2   0 6645.06 410.047   2
   5   2   0 6393.09 465.601   3
   5   2   1 572.982 212.424   3
   5   2   1 851.999 205.019   2
   5   2   1 353.312 256.853   7
   5   2   2 11793.2 570.374   2
   5   2   2 11279.1 604.023   3
   5   2   3 24734.0 1109.42   7
   5   2   3 23765.2 918.523   3
   5   2   3 23887.0 885.128   2
   5   2   4 1754.14 375.469   7
   5   2   4 1973.61 267.230   3
   5   2   4 2265.80 302.327   2
   5   2   5 35134.4 1187.89   2
   5   2   5 34311.7 1432.40   7
   5   2   5 32476.9 1111.20   3
   5   2   6 281.572 159.967   3
   5   2   6 779.252 362.512   7
   5   2   7 14081.4 933.897   7
   5   2   8 10231.0 847.938   7
   5   2   9 3719.58 577.857   7
   5   2  10 7656.43 794.907   7
   5   2  11 1882.37 497.804   7
   5   1 -14 2245.57 452.588   1
   5   1 -13 2936.85 514.840   1
   5   1 -12 8585.33 735.285   1
   5   1 -11 970.463 355.755   1
   5   1 -10 7587.02 608.431   1
   5   1 -10 5914.78 439.559   3
   5   1  -9 24205.5 1073.10   1
   5   1  -9 23019.1 946.213   3
   5   1  -8 5263.71 473.906   1
   5   1  -8 4929.97 425.165   3
   5   1  -7 63822.0 1919.90   3
   5   1  -7 65587.1 1914.71   1
   5   1  -6 5612.78 467.672   3
   5   1  -6 5331.07 410.461   1
   5   1  -5 45406.0 1438.09   3
   5   1  -5 46000.1 1298.68   1
   5   1  -4 8568.22 323.142   5
   5   1  -4 8023.92 543.884   3
   5   1  -4 8822.47 426.151   1
   5   1  -3 13348.9 598.863   2
   5   1  -3 13903.3 464.226   1
   5   1  -3 13279.9 432.878   5
   5   1  -2 6304.95 390.930   2
   5   1  -2 6190.98 265.944   1
   5   1  -1 3106.21 260.809   2
   5   1  -1 2984.36 134.538   1
   5   1   0 10439.6 455.349   2
   5   1   0 9186.99 555.714   3
   5   1   1 16495.2 790.006   7
   5   1   1 15248.2 537.380   2
   5   1   1 15310.7 687.201   3
   5   1   2 30286.4 1192.30   7
   5   1   2 30919.4 916.778   2
   5   1   2 28979.5 747.887   1
   5   1   2 30706.0 1062.15   3
   5   1   3 2351.68 284.629   3
   5   1   3 2842.80 402.221   7
   5   1   3 2407.16 241.833   2
   5   1   3 2459.07 175.687   1
   5   1   4 67607.3 2136.06   7
   5   1   4 67377.6 1757.62   2
   5   1   4 62785.1 1799.33   3
   5   1   5-117.763 289.801   7
   5   1   5 138.929 161.931   3
   5   1   6 31166.6 991.159   3
   5   1   6 34073.2 1424.08   7
   5   1   7 2332.13 225.563   3
   5   1   7 2814.42 462.564   7
   5   1   8 5142.11 610.248   7
   5   1   9 5167.12 641.736   7
   5   1  10 4563.96 644.915   7
   5   1  11 3068.00 571.441   7
   5   1  12 4749.38 658.769   7
   5   0 -14 1609.57 478.883   1
   5   0 -13 4216.53 572.647   1
   5   0 -12 3320.69 514.658   1
   5   0 -11 18753.0 1049.26   1
   5   0 -10 3396.29 349.757   3
   5   0 -10 3640.17 483.552   1
   5   0  -9 5937.94 546.121   1
   5   0  -9 6013.53 458.367   3
   5   0  -8 17904.6 822.519   3
   5   0  -8 15689.9 835.756   1
   5   0  -7 19265.5 876.202   1
   5   0  -7 18230.8 842.453   3
   5   0  -6 3444.39 384.186   1
   5   0  -6 3760.73 398.789   3
   5   0  -5 35048.6 1271.24   3
   5   0  -5 36914.2 950.470   5
   5   0  -5 35517.7 1186.98   1
   5   0  -4 41412.8 1241.91   1
   5   0  -4 40376.3 1394.71   3
   5   0  -4 40049.4 1051.97   6
   5   0  -4 42595.9 1087.23   5
   5   0  -3 42595.0 1222.33   1
   5   0  -3 43033.1 1098.09   6
   5   0  -2 21808.3 679.555   6
   5   0  -2 22010.0 707.112   1
   5   0  -1 6067.96 321.792   2
   5   0   0 31063.5 866.867   2
   5   0   0 31521.7 1124.32   3
   5   0   1 32489.8 842.882   1
   5   0   1 32971.7 1214.97   7
   5   0   1 31474.7 1126.98   3
   5   0   1 33696.3 881.126   2
   5   0   2 48318.1 1194.77   1
   5   0   2 48827.7 1473.56   3
   5   0   2 47825.0 1202.79   2
   5   0   2 48345.8 1604.20   7
   5   0   3 14772.0 511.282   2
   5   0   3 16623.9 695.234   3
   5   0   3 15930.5 836.029   7
   5   0   4 10848.8 549.273   3
   5   0   4 11779.6 454.488   2
   5   0   4 10894.8 713.215   7
   5   0   5 23425.8 1103.59   7
   5   0   5 22213.3 808.969   3
   5   0   6 7354.14 392.206   3
   5   0   6 8392.11 690.074   7
   5   0   7 16439.5 977.977   7
   5   0   7 16050.6 573.325   3
   5   0   8 2561.13 472.461   7
   5   0   9 26874.4 1387.27   7
   5   0  10 771.615 403.077   7
   5   0  11 5272.86 688.530   7
   5   0  12 3623.42 594.909   7
   5  -1 -14 451.621 359.781   1
   5  -1 -13 2520.99 501.733   1
   5  -1 -12 4393.14 575.782   1
   5  -1 -11 2603.80 490.262   1
   5  -1 -10 7373.46 511.131   3
   5  -1 -10 6855.37 630.205   1
   5  -1  -9 6096.41 467.843   3
   5  -1  -9 5714.52 562.986   1
   5  -1  -8 12143.0 759.194   1
   5  -1  -8 13562.5 712.075   3
   5  -1  -7 4093.72 416.280   3
   5  -1  -7 3484.48 432.945   1
   5  -1  -6 1863.98 316.396   3
   5  -1  -6 2005.96 343.507   1
   5  -1  -5 38805.2 1318.31   1
   5  -1  -5 39108.6 1374.67   3
   5  -1  -5 40617.9 1155.02   6
   5  -1  -4 28800.4 1016.40   1
   5  -1  -4 27928.5 876.514   6
   5  -1  -4 28610.1 1104.63   3
   5  -1  -3 83151.6 2072.96   6
   5  -1  -2 56958.4 1526.32   6
   5  -1  -1 1171.55 197.962   6
   5  -1   0 66519.9 1937.98   3
   5  -1   1 58693.3 1776.77   7
   5  -1   1 58461.9 1739.30   3
   5  -1   2 43868.9 1392.75   3
   5  -1   2 43808.4 1484.10   7
   5  -1   3 38790.6 1254.93   3
   5  -1   3 38564.0 1390.44   7
   5  -1   4 7509.94 579.514   7
   5  -1   4 6070.76 239.786   2
   5  -1   4 6359.70 426.079   3
   5  -1   5 3121.95 440.802   7
   5  -1   5 3226.95 300.874   3
   5  -1   6 13324.1 559.607   3
   5  -1   6 13877.8 847.076   7
   5  -1   7 4406.51 279.012   3
   5  -1   7 4666.44 549.894   7
   5  -1   8 7860.61 714.409   7
   5  -1   9 2005.85 467.618   7
   5  -1  10 4251.14 588.884   7
   5  -1  11 3625.21 573.871   7
   5  -1  12 914.409 454.014   7
   5  -2 -14 3622.17 570.999   1
   5  -2 -13 6476.89 694.909   1
   5  -2 -12 7334.78 728.833   1
   5  -2 -11 1380.26 422.148   1
   5  -2 -10 6961.77 498.438   3
   5  -2 -10 5983.61 627.860   1
   5  -2  -9 2909.52 460.826   1
   5  -2  -9 3214.54 378.206   3
   5  -2  -8 7959.93 560.311   3
   5  -2  -8 7926.85 649.653   1
   5  -2  -7 4810.21 509.926   1
   5  -2  -7 4013.46 427.187   3
   5  -2  -6 20323.7 947.954   1
   5  -2  -6 19838.3 808.748   6
   5  -2  -5 1471.54 239.351   6
   5  -2  -5 1721.98 349.824   1
   5  -2  -4 21615.9 814.311   6
   5  -2  -3 38939.4 1208.28   6
   5  -2  -2 23237.8 848.622   6
   5  -2  -1 70199.6 1918.37   6
   5  -2   0 18520.7 778.086   6
   5  -2   2 6872.10 516.026   7
   5  -2   3 30019.7 1161.73   7
   5  -2   3 29626.8 1084.04   3
   5  -2   4 5943.22 509.077   7
   5  -2   4 6138.12 434.329   3
   5  -2   5 11474.7 560.223   3
   5  -2   5 11115.7 714.084   7
   5  -2   6 9643.43 489.867   3
   5  -2   6 8839.41 670.972   7
   5  -2   7 2494.87 416.114   7
   5  -2   7 2820.15 253.035   3
   5  -2   8 4113.18 539.739   7
   5  -2   9 2967.35 507.335   7
   5  -2  10 6820.33 701.285   7
   5  -2  11 786.979 416.680   7
   5  -2  12 14607.2 1046.66   7
   5  -3 -13 3850.00 571.646   1
   5  -3 -12 4878.00 638.081   1
   5  -3 -11 3124.86 530.768   1
   5  -3 -10 6177.65 502.581   3
   5  -3 -10 6246.56 640.392   1
   5  -3  -9 515.240 340.329   1
   5  -3  -9 1448.49 314.312   3
   5  -3  -8 11657.4 805.686   1
   5  -3  -7 18626.9 863.555   6
   5  -3  -7 19225.7 1004.16   1
   5  -3  -6 9180.89 584.698   6
   5  -3  -6 9435.00 679.605   1
   5  -3  -5 13638.7 793.397   1
   5  -3  -5 13097.5 686.765   6
   5  -3  -4 16419.4 758.860   6
   5  -3  -3 15397.9 712.248   6
   5  -3  -2 17964.9 782.428   6
   5  -3  -1 15083.5 709.458   6
   5  -3   0 13311.9 679.528   6
   5  -3   1 18645.5 845.188   6
   5  -3   2 18984.6 813.895   7
   5  -3   3 18156.9 834.690   7
   5  -3   3 18098.4 545.775   9
   5  -3   4 13319.9 727.560   7
   5  -3   5 14204.2 784.852   7
   5  -3   6 20016.7 984.880   7
   5  -3   6 19290.7 785.853   3
   5  -3   7 13602.4 850.169   7
   5  -3   7 14834.1 613.865   3
   5  -3   8 4284.78 527.916   7
   5  -3   9 3211.33 496.854   7
   5  -3  10 2102.93 463.252   7
   5  -3  11 1893.46 482.600   7
   5  -3  12 5825.28 677.493   7
   5  -4 -12 494.227 404.602   1
   5  -4 -11 14640.9 1004.10   1
   5  -4 -10 6658.40 700.592   1
   5  -4 -10 8112.74 578.188   3
   5  -4  -9 6139.22 668.032   1
   5  -4  -8 6246.50 621.856   1
   5  -4  -7 16752.8 972.247   1
   5  -4  -7 17122.7 876.531   6
   5  -4  -6 14296.9 882.337   1
   5  -4  -6 13662.3 775.554   6
   5  -4  -5 7843.40 582.216   6
   5  -4  -4 14119.7 754.626   6
   5  -4  -3 17059.6 839.106   6
   5  -4  -2 22846.4 993.197   6
   5  -4  -1 1666.98 311.769   6
   5  -4   0 11294.9 665.342   6
   5  -4   1 13070.3 725.370   6
   5  -4   2 9807.87 660.192   6
   5  -4   3 19543.0 845.157   7
   5  -4   4 8477.35 563.152   7
   5  -4   5 1763.84 321.072   7
   5  -4   6 25795.4 1117.72   7
   5  -4   7 1319.94 333.635   7
   5  -4   8 14665.4 877.104   7
   5  -4   9 1006.86 374.822   7
   5  -4  10 12598.9 882.760   7
   5  -4  11 1048.18 423.007   7
   5  -4  12 3124.36 508.028   7
   5  -5 -12 1711.36 482.127   1
   5  -5 -11 6730.45 738.139   1
   5  -5 -10 268.523 390.012   1
   5  -5  -9 29451.6 1446.53   1
   5  -5  -8 11014.8 886.295   1
   5  -5  -7 35650.5 1447.57   6
   5  -5  -7 35421.6 1532.13   1
   5  -5  -6 35087.5 1490.02   1
   5  -5  -6 34535.8 1393.57   6
   5  -5  -5 26940.2 1184.27   6
   5  -5  -4 21468.6 1021.03   6
   5  -5  -3 700.479 285.532   6
   5  -5  -2 15105.9 816.079   6
   5  -5  -1 2753.39 389.055   6
   5  -5   0 443.180 268.139   6
   5  -5   1 2864.09 400.426   6
   5  -5   2 14455.3 839.966   6
   5  -5   3 631.662 270.620   6
   5  -5   3 936.524 233.979   7
   5  -5   4 16353.8 910.980   6
   5  -5   4 15491.3 733.027   7
   5  -5   5 24324.2 1002.12   7
   5  -5   6 28090.3 1143.62   7
   5  -5   7 39710.5 1468.47   7
   5  -5   8 9715.03 697.839   7
   5  -5   9 33416.6 1408.46   7
   5  -5  10 312.285 306.500   7
   5  -5  11 8613.46 726.698   7
   5  -5  12 3266.62 531.032   7
   5  -5  13 1173.73 379.966   7
   5  -6 -11 1665.53 473.371   1
   5  -6 -10 15725.0 1062.34   1
   5  -6  -9 4966.37 681.980   1
   5  -6  -8 22000.7 1244.89   1
   5  -6  -7 11724.2 881.052   1
   5  -6  -7 10196.0 772.721   6
   5  -6  -6 16193.9 963.971   6
   5  -6  -5 6285.54 596.184   6
   5  -6  -4 10983.9 776.572   6
   5  -6  -3 23273.4 1122.75   6
   5  -6  -2 6299.50 593.135   6
   5  -6  -1 17404.9 943.462   6
   5  -6   0 51880.2 1843.18   6
   5  -6   1 988.492 351.298   6
   5  -6   2 30636.2 1335.54   6
   5  -6   3 15091.0 899.708   6
   5  -6   4 8682.95 707.381   6
   5  -6   4 7973.94 481.150   7
   5  -6   5 17969.8 810.144   7
   5  -6   5 21182.5 1118.44   6
   5  -6   6 10663.3 626.613   7
   5  -6   6 9205.38 777.613   6
   5  -6   7 23935.5 1029.31   7
   5  -6   8 7046.76 571.545   7
   5  -6   9 17996.4 940.323   7
   5  -6  10 9149.86 698.047   7
   5  -6  11 1502.45 374.340   7
   5  -6  12 5502.73 583.780   7
   5  -7 -10 1026.04 471.619   1
   5  -7  -9 1241.19 476.726   1
   5  -7  -8 2685.73 544.857   1
   5  -7  -7 4236.28 631.154   1
   5  -7  -7 4408.24 572.656   6
   5  -7  -6 4039.34 536.158   6
   5  -7  -5 30369.0 1410.98   6
   5  -7  -4 9665.94 765.221   6
   5  -7  -3 13418.9 899.468   6
   5  -7  -2 20432.7 1101.23   6
   5  -7  -1 7235.72 650.424   6
   5  -7   0 14227.0 921.970   6
   5  -7   1 20158.9 1094.36   6
   5  -7   2 1804.40 410.126   6
   5  -7   3 22814.4 1195.17   6
   5  -7   4 8354.18 744.263   6
   5  -7   5 13819.0 932.700   6
   5  -7   6 15707.6 1033.18   6
   5  -7   7 5005.93 611.742   6
   5  -7   8 1890.88 449.467   6
   5  -7   9 1833.57 444.238   6
   5  -8  -8 1767.26 541.427   1
   5  -8  -7 1284.45 494.414   1
   5  -8  -7 1031.71 425.104   6
   5  -8  -6 6.32744 310.635   6
   5  -8  -5 6087.92 673.682   6
   5  -8  -4 445.813 348.169   6
   5  -8  -3 25988.0 1325.02   6
   5  -8  -2 1333.30 393.384   6
   5  -8  -1 30093.6 1443.60   6
   5  -8   0 5390.17 622.393   6
   5  -8   1 19073.9 1118.26   6
   5  -8   2 23247.6 1255.91   6
   5  -8   3 9867.57 813.208   6
   5  -8   4 20613.7 1177.25   6
   5  -8   5 4208.54 596.291   6
   5  -8   6 5550.76 634.350   6
   5  -8   7 249.599 329.815   6
   5  -8   8 463.030 370.238   6
   5  -8   9 628.941 374.285   6
   5  -8  10 2087.55 484.168   6
   5  -9  -7 3251.88 575.726   1
   5  -9  -7 3387.88 561.519   6
   5  -9  -6 491.761 356.447   6
   5  -9  -5 8103.31 781.446   6
   5  -9  -4 7394.53 760.829   6
   5  -9  -3 1446.84 442.317   6
   5  -9  -2 20943.9 1223.63   6
   5  -9  -1 161.136 347.050   6
   5  -9   0 20305.9 1210.84   6
   5  -9   1 1131.31 400.938   6
   5  -9   2 17920.9 1141.15   6
   5  -9   3 3943.46 580.648   6
   5  -9   4 16178.9 1073.31   6
   5  -9   5 6887.99 733.244   6
   5  -9   6 5185.38 649.544   6
   5  -9   7 7587.30 760.394   6
   5  -9   8 1070.93 411.017   6
   5  -9   9 1865.73 457.537   6
   5 -10  -5 7720.60 788.823   6
   5 -10  -4 7736.36 796.573   6
   5 -10  -3 9873.76 881.617   6
   5 -10  -2 8514.50 828.830   6
   5 -10  -1 9522.27 860.326   6
   5 -10   0 5201.83 660.215   6
   5 -10   1 3628.80 575.314   6
   5 -10   2 2569.77 511.616   6
   5 -10   3 9258.16 867.215   6
   5 -10   4 9401.15 855.893   6
   5 -10   5 6181.18 701.437   6
   5 -10   6 12387.7 970.759   6
   5 -10   7 8211.82 799.785   6
   5 -11  -2 7734.38 806.463   6
   5 -11  -1 5372.22 687.377   6
   5 -11   0 1339.33 454.646   6
   5 -11   1 728.414 400.876   6
   5 -11   2 2087.46 490.726   6
   5 -11   3 3956.66 614.467   6
   5 -11   4 2039.82 492.561   6
   4  12  -2 9108.72 719.583   5
   4  12  -1 6335.71 627.262   5
   4  11  -8 2872.96 558.098   2
   4  11  -7 16674.5 1121.34   2
   4  11  -6 16333.6 1119.33   2
   4  11  -5 1167.32 487.212   2
   4  11  -4 30330.6 1550.39   2
   4  11  -3 25427.9 1431.87   2
   4  11  -3 26320.4 1216.18   5
   4  11  -2 5334.06 585.259   5
   4  11  -2 5927.44 745.158   2
   4  11  -1 20122.0 1242.86   2
   4  11  -1 20679.2 1126.38   5
   4  11   0 12164.0 990.870   2
   4  11   0 12881.2 908.096   5
   4  11   1 1902.26 462.462   5
   4  11   1 2544.69 557.527   2
   4  11   2 17363.9 1091.41   5
   4  10 -10 1471.49 460.875   2
   4  10  -9 6415.41 735.551   2
   4  10  -8 2564.14 508.121   2
   4  10  -7 16221.5 1110.18   2
   4  10  -6 1467.92 454.591   2
   4  10  -5 5089.96 654.780   2
   4  10  -4 1066.65 314.077   5
   4  10  -4 1213.91 435.004   2
   4  10  -3 5511.60 673.276   2
   4  10  -3 5869.51 549.852   5
   4  10  -2 517.900 392.364   2
   4  10  -2 320.964 275.155   5
   4  10  -1 8222.25 781.281   2
   4  10  -1 6737.35 640.098   5
   4  10   0 5246.42 592.681   5
   4  10   0 4294.21 633.774   2
   4  10   1 14619.5 1040.88   2
   4  10   1 15049.0 1002.92   5
   4  10   2 4144.80 573.270   5
   4  10   2 4317.47 614.237   2
   4  10   3 3118.80 574.169   2
   4  10   3 2899.53 510.027   5
   4  10   4 343.544 371.543   5
   4  10   4 734.504 452.327   2
   4   9 -11 776.554 395.221   2
   4   9 -10 341.695 389.754   2
   4   9  -9 3426.51 561.945   2
   4   9  -8 5998.43 681.323   2
   4   9  -7 631.646 372.666   2
   4   9  -6 10652.7 862.611   2
   4   9  -5 2597.12 503.666   2
   4   9  -5 1514.98 282.832   5
   4   9  -4 9355.36 628.155   5
   4   9  -4 10329.3 847.424   2
   4   9  -3 1055.12 313.125   5
   4   9  -3 362.478 378.455   2
   4   9  -2 10510.1 724.702   5
   4   9  -2 10782.9 852.277   2
   4   9  -1 3361.65 462.868   5
   4   9  -1 2666.20 540.123   2
   4   9   0 11000.1 871.112   2
   4   9   0 10387.2 786.387   5
   4   9   1 1132.99 377.626   5
   4   9   1 1451.28 436.229   2
   4   9   2 9770.38 841.608   2
   4   9   2 8575.27 761.090   5
   4   9   3 6764.07 735.730   2
   4   9   3 4613.23 609.999   5
   4   9   4 3260.52 551.316   2
   4   9   4 1273.79 424.832   5
   4   9   5 2015.37 489.622   2
   4   9   5 921.074 383.815   5
   4   9   6 754.330 414.905   2
   4   9   6 1464.13 465.759   5
   4   8 -11 2673.80 532.763   2
   4   8 -10 3369.84 564.904   2
   4   8  -9 7110.21 743.113   2
   4   8  -8 3142.48 537.331   2
   4   8  -7 9269.25 793.538   2
   4   8  -6 3792.47 554.894   2
   4   8  -5 14414.4 950.996   2
   4   8  -5 13689.5 684.757   5
   4   8  -4 1292.68 288.303   5
   4   8  -4 1159.96 399.255   2
   4   8  -3 19870.1 1132.64   2
   4   8  -3 21382.2 973.641   5
   4   8  -2 9781.89 790.513   2
   4   8  -2 8681.05 654.713   5
   4   8  -1 6996.96 679.417   2
   4   8  -1 6792.60 594.637   5
   4   8   0 12916.5 885.672   2
   4   8   0 10571.5 763.350   5
   4   8   1 2378.92 461.185   2
   4   8   1 2840.91 463.295   5
   4   8   2 10502.4 835.961   2
   4   8   2 9661.55 771.698   5
   4   8   3 2449.88 520.065   2
   4   8   3 2088.31 438.909   5
   4   8   4 6786.79 703.528   2
   4   8   5 4634.31 624.116   2
   4   8   6 2085.57 484.010   2
   4   8   7 1088.97 429.410   2
   4   8   8 3760.68 591.793   2
   4   7 -10 10569.8 870.995   2
   4   7  -9 3152.31 533.121   2
   4   7  -8 5379.02 615.433   2
   4   7  -7 3597.51 518.833   2
   4   7  -6 14736.2 943.458   2
   4   7  -6 15667.2 630.026   5
   4   7  -5 6149.35 411.710   5
   4   7  -5 5031.23 578.499   2
   4   7  -4 19665.1 1058.60   2
   4   7  -4 19350.4 832.829   5
   4   7  -3 2703.65 469.438   2
   4   7  -3 2123.44 319.848   5
   4   7  -2 2537.49 359.519   5
   4   7  -2 3134.46 460.518   2
   4   7  -1 16014.9 949.310   2
   4   7  -1 15553.0 832.749   5
   4   7   0 2834.53 417.332   5
   4   7   0 3641.40 528.879   2
   4   7   1 16035.2 973.319   2
   4   7   2 5443.97 609.869   2
   4   7   3 4136.94 541.650   2
   4   7   3 4277.23 444.347   7
   4   7   4 2557.97 475.660   2
   4   7   4 2951.09 408.364   7
   4   7   5 16434.9 1019.33   2
   4   7   5 15630.4 873.896   7
   4   7   6 4583.53 593.744   2
   4   7   6 5022.02 533.865   7
   4   7   7 13539.8 860.359   7
   4   7   7 12157.0 912.878   2
   4   7   8 5279.59 583.361   7
   4   7   8 7082.02 700.426   2
   4   7   9 4967.37 576.579   7
   4   7   9 5803.51 671.235   2
   4   6 -14 3637.35 530.525   1
   4   6 -13 7818.52 715.442   1
   4   6 -12 6004.62 651.825   1
   4   6 -11 5161.34 564.035   1
   4   6 -10 6879.70 609.083   1
   4   6  -9 3247.84 532.510   2
   4   6  -8 6464.06 643.341   2
   4   6  -8 6036.09 534.791   3
   4   6  -7 7871.44 673.244   2
   4   6  -7 6347.34 544.341   3
   4   6  -6 4117.37 266.375   5
   4   6  -6 4145.87 505.540   2
   4   6  -6 4365.00 488.091   3
   4   6  -5 52960.6 1454.73   5
   4   6  -5 52040.5 1855.27   2
   4   6  -5 48413.8 1760.67   3
   4   6  -4 1880.84 363.791   3
   4   6  -4 2249.90 405.176   2
   4   6  -4 2658.91 286.211   5
   4   6  -3 11599.8 773.919   2
   4   6  -3 10716.2 723.582   3
   4   6  -3 12014.1 614.527   5
   4   6  -2 25949.4 1155.24   2
   4   6  -2 24069.2 1115.49   3
   4   6  -2 22832.9 969.651   5
   4   6  -1 1799.20 373.815   3
   4   6  -1 2661.79 444.542   2
   4   6   0 29128.5 1247.08   2
   4   6   1 30769.5 1309.61   2
   4   6   2 5864.77 585.539   2
   4   6   2 5583.12 487.983   7
   4   6   3 419.042 339.943   2
   4   6   3 399.046 252.466   7
   4   6   4 11563.9 808.365   2
   4   6   4 9890.47 693.213   7
   4   6   5 1412.61 406.304   2
   4   6   5 954.813 327.518   7
   4   6   6 10829.2 774.176   7
   4   6   6 12851.6 885.622   2
   4   6   7 2798.60 516.076   2
   4   6   7 1870.55 413.974   7
   4   6   8 13614.0 921.947   7
   4   6   8 15079.4 987.175   2
   4   6   9 1214.19 400.264   7
   4   6  10 6163.65 659.339   7
   4   5 -14 7235.28 722.332   1
   4   5 -13 5613.10 618.046   1
   4   5 -12 8224.01 713.462   1
   4   5 -11 2524.70 423.049   1
   4   5 -10 4070.00 471.769   1
   4   5 -10 4473.29 415.601   3
   4   5  -9 10265.6 671.576   1
   4   5  -9 8893.87 749.090   2
   4   5  -9 9091.80 602.930   3
   4   5  -8 8605.01 716.270   2
   4   5  -8 7723.40 570.258   1
   4   5  -8 8855.36 589.372   3
   4   5  -7 13087.7 834.482   2
   4   5  -7 13342.6 698.608   1
   4   5  -7 12662.4 725.319   3
   4   5  -6 24502.5 683.285   5
   4   5  -6 24849.0 1139.68   2
   4   5  -6 22693.6 1023.60   3
   4   5  -5 12277.8 731.059   3
   4   5  -5 13828.8 808.597   2
   4   5  -5 14020.0 516.543   5
   4   5  -4 15150.1 825.282   2
   4   5  -4 14791.2 793.217   3
   4   5  -4 15283.9 605.068   5
   4   5  -3 22773.6 1019.95   2
   4   5  -3 22468.6 827.558   5
   4   5  -3 21801.1 990.698   3
   4   5  -2 543.645 275.532   3
   4   5  -2 694.289 301.817   2
   4   5  -1 34676.3 1296.05   2
   4   5  -1 31989.2 1260.09   3
   4   5   0 11884.9 713.334   2
   4   5   0 10133.8 655.585   3
   4   5   1 17593.5 877.578   3
   4   5   1 19197.3 932.106   2
   4   5   2 20680.0 958.515   7
   4   5   2 22712.6 1033.40   2
   4   5   2 21197.5 959.775   3
   4   5   3 13385.1 759.855   7
   4   5   3 13833.6 803.380   2
   4   5   4 7111.44 591.989   7
   4   5   4 6459.44 581.670   2
   4   5   5 9129.53 690.816   7
   4   5   5 9591.15 716.449   2
   4   5   6 4525.50 527.655   7
   4   5   7 2693.67 458.512   7
   4   5   8 9519.10 787.809   7
   4   5   9 6553.49 679.531   7
   4   5  10 9111.37 790.976   7
   4   5  11 4341.33 596.588   7
   4   4 -15 3554.17 549.747   1
   4   4 -14 4128.27 565.395   1
   4   4 -13 6280.45 648.822   1
   4   4 -12 1364.36 404.786   1
   4   4 -11 319.814 307.966   1
   4   4 -10 827.866 303.048   1
   4   4 -10 424.232 193.397   3
   4   4  -9 7511.76 513.618   3
   4   4  -9 6992.53 577.627   1
   4   4  -8 4486.60 434.990   1
   4   4  -8 3598.82 505.297   2
   4   4  -8 4342.48 402.669   3
   4   4  -7 6858.83 497.819   1
   4   4  -7 6756.94 589.388   2
   4   4  -7 7763.09 533.671   3
   4   4  -6 28078.0 1188.04   2
   4   4  -6 28916.0 1003.58   1
   4   4  -6 26269.5 1067.82   3
   4   4  -5 15303.9 631.217   1
   4   4  -5 14525.5 799.495   2
   4   4  -5 14768.2 744.262   3
   4   4  -5 13939.9 445.200   5
   4   4  -4 19483.3 902.442   2
   4   4  -4 18265.0 846.957   3
   4   4  -4 19179.9 627.564   5
   4   4  -3 7278.96 533.715   2
   4   4  -3 8056.56 539.990   3
   4   4  -3 6995.15 273.825   6
   4   4  -2 53140.2 1708.22   2
   4   4  -2 56038.3 1373.55   6
   4   4  -1 9614.98 617.945   2
   4   4  -1 10309.2 627.975   3
   4   4   0 36937.7 1281.30   2
   4   4   0 35078.3 1272.25   3
   4   4   1 4028.66 396.546   3
   4   4   1 4219.27 420.381   2
   4   4   1 4354.22 419.430   7
   4   4   2 37035.8 1317.72   3
   4   4   2 40724.1 1385.53   2
   4   4   2 39498.2 1389.70   7
   4   4   3 922.249 258.046   3
   4   4   3 1065.92 300.325   7
   4   4   3 1049.27 298.215   2
   4   4   4 11566.8 742.152   7
   4   4   4 12097.8 725.779   2
   4   4   5 3082.79 450.445   7
   4   4   6 1592.17 370.040   7
   4   4   7 2247.69 435.284   7
   4   4   8 931.334 376.783   7
   4   4   9 3386.00 519.393   7
   4   4  10 9393.08 821.299   7
   4   4  11 7202.07 730.824   7
   4   3 -15 6979.97 718.327   1
   4   3 -14 381.888 408.666   1
   4   3 -13 5868.96 643.784   1
   4   3 -12 1134.60 359.890   1
   4   3 -11 1043.68 337.576   1
   4   3 -10 4140.99 477.260   1
   4   3 -10 4511.17 370.012   3
   4   3  -9 2000.67 281.733   3
   4   3  -9 1575.21 339.806   1
   4   3  -8 1458.59 310.302   1
   4   3  -8 1138.63 236.258   3
   4   3  -7 6162.74 451.838   3
   4   3  -7 6387.58 463.329   1
   4   3  -6 30424.3 1221.25   2
   4   3  -6 31257.7 1056.10   1
   4   3  -6 30076.6 1101.33   3
   4   3  -5 5038.19 449.671   2
   4   3  -5 4855.41 334.752   1
   4   3  -5 5263.85 421.240   3
   4   3  -4 59782.8 1782.60   2
   4   3  -4 57397.1 1507.17   1
   4   3  -4 56204.2 1709.00   3
   4   3  -3 10430.1 588.435   2
   4   3  -3 10640.1 406.811   1
   4   3  -2 23081.2 913.034   2
   4   3  -2 23320.5 629.655   6
   4   3  -1 38883.3 1312.15   2
   4   3  -1 44220.1 1108.84   6
   4   3   0 4633.13 395.743   3
   4   3   0 4384.61 376.221   2
   4   3   1 56670.2 1665.20   2
   4   3   1 57006.4 1721.15   7
   4   3   1 54532.6 1658.49   3
   4   3   2 478.946 237.479   2
   4   3   2 384.082 207.932   3
   4   3   2 548.087 248.746   7
   4   3   3 37901.9 1287.26   2
   4   3   3 38998.4 1393.20   7
   4   3   3 36778.2 1224.95   3
   4   3   4 6428.55 552.044   7
   4   3   4 6461.14 435.519   3
   4   3   5 1668.03 239.278   3
   4   3   5 1306.51 337.982   7
   4   3   6 2830.62 423.623   7
   4   3   7 774.010 355.966   7
   4   3   8 456.143 352.782   7
   4   3   9 14.6205 311.116   7
   4   3  10 4155.04 599.331   7
   4   3  11 1553.18 471.782   7
   4   3  12 4059.85 619.978   7
   4   2 -15 739.849 404.047   1
   4   2 -14 2731.47 522.413   1
   4   2 -13 4764.72 601.135   1
   4   2 -12 7051.47 657.193   1
   4   2 -11 6637.16 635.935   1
   4   2 -10 11382.0 560.305   3
   4   2 -10 11502.4 743.741   1
   4   2  -9 6326.42 540.343   1
   4   2  -9 5998.51 424.591   3
   4   2  -8 63519.8 1912.43   1
   4   2  -8 61569.1 1785.28   3
   4   2  -7 6737.85 479.192   1
   4   2  -7 6321.09 441.944   3
   4   2  -6 19354.0 805.903   3
   4   2  -6 19567.8 783.092   1
   4   2  -5 26593.4 1036.51   2
   4   2  -5 25364.9 866.906   1
   4   2  -5 25168.1 946.973   3
   4   2  -4 6106.35 439.896   2
   4   2  -4 6350.71 333.637   1
   4   2  -4 6906.07 441.365   3
   4   2  -3 108218. 2519.49   1
   4   2  -3 110587. 2776.11   2
   4   2  -2 76381.7 1703.19   1
   4   2  -2 71443.8 1672.26   6
   4   2  -1 150274. 3598.13   2
   4   2  -1 151361. 3379.77   6
   4   2   0 99439.9 2487.11   2
   4   2   1 5722.76 374.092   2
   4   2   1 6042.72 459.097   7
   4   2   1 5658.98 398.149   3
   4   2   2 47833.9 1511.78   7
   4   2   2 45724.9 1337.05   2
   4   2   2 43515.4 1347.85   3
   4   2   3 6676.44 425.791   2
   4   2   3 6694.20 512.825   7
   4   2   3 5567.28 384.706   3
   4   2   4 3786.29 447.335   7
   4   2   4 4387.06 334.710   3
   4   2   5 62854.6 1982.87   7
   4   2   5 56638.8 1596.55   3
   4   2   6 11334.0 763.670   7
   4   2   6 11744.3 507.176   3
   4   2   7 24420.0 1208.94   7
   4   2   8 3705.31 533.733   7
   4   2   9 15817.3 1029.22   7
   4   2  10 7405.49 753.687   7
   4   2  11 4485.96 636.952   7
   4   2  12 2209.09 484.224   7
   4   1 -15 3640.85 579.285   1
   4   1 -14 7638.75 744.692   1
   4   1 -13 3552.25 561.727   1
   4   1 -12 14010.2 922.315   1
   4   1 -11 4012.00 507.743   1
   4   1 -10 5944.54 553.711   1
   4   1 -10 5675.19 377.436   3
   4   1  -9 49357.2 1701.64   1
   4   1  -9 50069.6 1487.07   3
   4   1  -8 35586.7 1168.40   3
   4   1  -8 34184.6 1287.61   1
   4   1  -7 21747.3 845.164   3
   4   1  -7 21076.8 899.487   1
   4   1  -6 32403.8 1109.70   1
   4   1  -6 32507.6 1117.57   3
   4   1  -5 47559.3 1449.91   3
   4   1  -5 47424.3 1384.10   1
   4   1  -4 16300.0 707.739   3
   4   1  -4 16174.9 602.890   1
   4   1  -4 14903.7 422.363   5
   4   1  -3 109967. 2500.98   5
   4   1  -3 111014. 2755.04   2
   4   1  -3 110065. 2582.11   1
   4   1  -2 18632.0 676.077   2
   4   1  -2 18473.8 572.067   5
   4   1  -2 17750.1 528.749   1
   4   1  -1 4710.95 297.379   2
   4   1  -1 4133.05 160.169   1
   4   1   0 15595.3 557.406   2
   4   1   1 108556. 2417.24   2
   4   1   1 115566. 2714.64   7
   4   1   1 110874. 2573.51   3
   4   1   2 48772.4 1509.78   7
   4   1   2 45877.5 1260.49   2
   4   1   2 46225.3 1357.03   3
   4   1   2 46625.7 1118.28   1
   4   1   3 18128.7 554.076   1
   4   1   3 18079.4 846.414   7
   4   1   3 18076.2 689.396   3
   4   1   3 17731.6 657.430   2
   4   1   4 69215.8 1829.22   3
   4   1   4 72157.0 2137.85   7
   4   1   5 16170.5 610.819   3
   4   1   5 16425.1 878.929   7
   4   1   6 61126.1 1590.46   3
   4   1   6 65516.8 2093.12   7
   4   1   7 27283.9 1261.35   7
   4   1   8 11363.0 836.234   7
   4   1   9 878.082 365.985   7
   4   1  10 7426.23 758.962   7
   4   1  11 4907.00 641.674   7
   4   1  12 1027.57 431.668   7
   4   0 -14 1855.12 485.258   1
   4   0 -13 5965.11 652.456   1
   4   0 -12 1614.03 419.892   1
   4   0 -11 8111.87 682.822   1
   4   0 -10 4619.01 528.212   1
   4   0 -10 5237.55 370.852   3
   4   0  -9 35973.7 1398.23   1
   4   0  -9 37414.5 1194.15   3
   4   0  -8 452.143 184.939   3
   4   0  -8 464.411 277.535   1
   4   0  -7 68546.0 1668.81   8
   4   0  -7 72657.8 1969.59   3
   4   0  -7 70740.5 2057.81   1
   4   0  -6 6449.43 447.186   3
   4   0  -6 6491.57 471.462   1
   4   0  -5 63597.1 1783.68   1
   4   0  -5 63534.0 1807.20   3
   4   0  -4 32231.3 1048.78   1
   4   0  -4 33679.8 867.170   5
   4   0  -4 32493.4 1116.21   3
   4   0  -4 32499.7 871.447   6
   4   0  -3 5171.73 330.228   1
   4   0  -3 5577.47 244.502   6
   4   0  -3 5384.03 257.774   5
   4   0  -2 15724.5 522.811   5
   4   0  -2 15573.1 484.981   6
   4   0  -2 14925.3 541.622   1
   4   0  -1 69380.5 1712.26   5
   4   0  -1 67322.3 1681.40   2
   4   0   0 6992.36 291.372   2
   4   0   1 5918.93 237.345   1
   4   0   1 5798.20 389.649   3
   4   0   1 5991.97 250.954   2
   4   0   1 5835.57 419.810   7
   4   0   2 29165.6 803.874   2
   4   0   2 29855.0 1088.67   7
   4   0   2 30823.7 804.599   1
   4   0   2 30272.3 984.357   3
   4   0   3 38930.6 1010.28   1
   4   0   3 37332.5 1144.59   3
   4   0   3 37463.2 1015.89   2
   4   0   3 39155.6 1327.88   7
   4   0   4 14755.4 775.239   7
   4   0   4 14550.7 583.073   3
   4   0   5 50073.9 1669.89   7
   4   0   5 46914.0 1297.27   3
   4   0   6 3933.06 483.096   7
   4   0   6 4380.18 259.116   3
   4   0   7 29031.0 1265.61   7
   4   0   7 24587.2 708.741   3
   4   0   8 16561.6 982.191   7
   4   0   9 11742.5 882.984   7
   4   0  10 2920.71 529.873   7
   4   0  11 13298.7 994.175   7
   4   0  12 3108.94 560.045   7
   4   0  13 3600.68 612.866   7
   4  -1 -14 1078.80 407.109   1
   4  -1 -13 3774.85 555.170   1
   4  -1 -12 6793.37 680.776   1
   4  -1 -11 3687.87 544.246   1
   4  -1 -10 26418.1 937.733   3
   4  -1 -10 26932.7 1225.33   1
   4  -1  -9 3334.18 328.478   3
   4  -1  -9 2713.10 410.943   1
   4  -1  -8 32297.1 1295.21   1
   4  -1  -8 32608.1 1135.49   3
   4  -1  -7 5036.05 247.919   8
   4  -1  -7 5405.93 414.568   3
   4  -1  -7 4679.83 473.631   1
   4  -1  -6 16360.6 801.882   1
   4  -1  -6 15708.5 723.097   3
   4  -1  -5 24755.3 830.614   6
   4  -1  -5 25248.4 959.461   3
   4  -1  -5 24840.4 963.273   1
   4  -1  -4 17839.5 750.500   1
   4  -1  -4 17405.3 642.039   6
   4  -1  -4 19195.6 604.166   5
   4  -1  -3 34387.9 954.329   5
   4  -1  -3 32888.0 967.903   6
   4  -1  -2 11482.6 462.660   6
   4  -1  -1 8893.53 414.750   6
   4  -1   0 27594.4 804.365   9
   4  -1   1 9977.82 533.742   7
   4  -1   1 9324.45 503.282   3
   4  -1   2 35462.7 1201.60   7
   4  -1   2 35174.0 1121.21   3
   4  -1   3 23638.9 915.976   7
   4  -1   3 23907.8 797.781   3
   4  -1   4 21471.4 945.469   7
   4  -1   4 21703.6 764.042   3
   4  -1   5 12948.0 751.594   7
   4  -1   5 13097.7 533.305   3
   4  -1   6 12279.7 479.697   3
   4  -1   6 13026.4 784.359   7
   4  -1   7 16168.1 910.317   7
   4  -1   7 14428.0 481.951   3
   4  -1   8 9654.48 749.912   7
   4  -1   9 18864.2 1083.46   7
   4  -1  10 4136.40 585.046   7
   4  -1  11 6232.29 691.451   7
   4  -1  12 6550.66 726.033   7
   4  -1  13 918.278 409.962   7
   4  -2 -14 1178.11 443.347   1
   4  -2 -13 5716.75 645.222   1
   4  -2 -12 7660.34 723.021   1
   4  -2 -11 6790.83 693.996   1
   4  -2 -10 4741.25 376.442   3
   4  -2 -10 5279.19 580.107   1
   4  -2  -9 7163.78 481.366   3
   4  -2  -9 6941.06 616.148   1
   4  -2  -8 12215.0 653.096   3
   4  -2  -8 12548.0 792.401   1
   4  -2  -7 7247.48 584.089   1
   4  -2  -6 35890.9 1324.90   1
   4  -2  -5 23569.5 965.603   1
   4  -2  -5 21824.0 842.353   6
   4  -2  -4 46231.5 1363.47   6
   4  -2  -3 21989.6 790.349   6
   4  -2  -2 31593.9 1018.14   6
   4  -2  -1 15118.2 629.676   6
   4  -2   0 17974.8 712.599   6
   4  -2   1 30528.1 839.713   9
   4  -2   1 27767.9 992.975   7
   4  -2   2 27788.1 979.970   7
   4  -2   2 27308.7 746.871   9
   4  -2   3 47604.2 1491.65   7
   4  -2   4 23567.9 949.352   7
   4  -2   4 21543.9 546.709   2
   4  -2   5 44284.5 1267.85   3
   4  -2   5 42263.8 1057.86   2
   4  -2   5 44546.0 1502.34   7
   4  -2   6 6543.87 546.271   7
   4  -2   6 5804.27 271.429   2
   4  -2   6 6213.42 356.092   3
   4  -2   7 9781.74 704.259   7
   4  -2   7 10170.1 417.377   3
   4  -2   8 9760.67 738.512   7
   4  -2   9 5735.26 610.577   7
   4  -2  10 2755.43 493.392   7
   4  -2  11 11143.2 884.300   7
   4  -2  12 6471.30 714.503   7
   4  -2  13 1789.96 479.771   7
   4  -3 -13 1679.84 463.151   1
   4  -3 -12 7673.78 777.680   1
   4  -3 -11 2480.79 466.274   1
   4  -3 -10 4756.67 400.038   3
   4  -3 -10 4172.62 554.784   1
   4  -3  -9 360.395 335.054   1
   4  -3  -8 3691.20 493.477   1
   4  -3  -7 4748.38 521.716   1
   4  -3  -6 699.336 318.693   1
   4  -3  -6 482.088 223.167   6
   4  -3  -5 35341.4 1334.44   1
   4  -3  -5 36025.2 1251.28   6
   4  -3  -4 23703.3 937.622   6
   4  -3  -3 63724.3 1827.42   6
   4  -3  -2 17270.9 753.317   6
   4  -3  -1 93498.7 2474.55   6
   4  -3   0 18831.0 798.923   6
   4  -3   1 58425.0 1733.76   6
   4  -3   2 61580.5 1741.38   7
   4  -3   2 62554.1 1539.37   9
   4  -3   3 20368.6 588.373   9
   4  -3   3 19868.3 823.450   7
   4  -3   4 44615.8 928.051   9
   4  -3   4 49295.1 1392.44   7
   4  -3   5 10846.8 342.614   2
   4  -3   5 11577.2 658.731   7
   4  -3   6 8224.08 574.605   7
   4  -3   6 6204.99 264.839   2
   4  -3   7 794.001 283.832   7
   4  -3   7 403.210 156.576   3
   4  -3   8 2878.01 434.577   7
   4  -3   9 993.191 351.881   7
   4  -3  10 8660.29 741.209   7
   4  -3  11 3046.29 525.503   7
   4  -3  12 5310.58 622.889   7
   4  -3  13 3340.84 552.829   7
   4  -4 -13 1772.65 491.421   1
   4  -4 -12 7144.38 734.138   1
   4  -4 -11 4112.71 579.374   1
   4  -4 -10 4767.48 604.613   1
   4  -4  -9 4834.79 603.506   1
   4  -4  -8 7766.12 682.986   1
   4  -4  -7 2342.69 475.407   1
   4  -4  -6 9382.30 715.311   1
   4  -4  -6 8406.79 610.964   6
   4  -4  -5 15571.1 823.568   6
   4  -4  -4 26982.1 1101.00   6
   4  -4  -3 33070.2 1215.94   6
   4  -4  -2 25610.6 1017.89   6
   4  -4  -1 29933.7 1131.00   6
   4  -4   0 46278.7 1508.48   6
   4  -4   1 31743.2 1185.40   6
   4  -4   2 26165.6 883.780   7
   4  -4   2 25697.9 1055.24   6
   4  -4   3 33837.7 1106.62   7
   4  -4   4 27917.9 772.274   9
   4  -4   4 29025.1 1036.89   7
   4  -4   5 17190.9 789.614   7
   4  -4   5 15808.3 465.895   9
   4  -4   5 15776.8 461.595   2
   4  -4   6 13617.3 742.020   7
   4  -4   7 883.962 281.824   7
   4  -4   8 10313.1 707.718   7
   4  -4   9 2072.67 406.786   7
   4  -4  10 4977.78 555.655   7
   4  -4  11 4854.52 577.410   7
   4  -4  12 4502.72 580.626   7
   4  -4  13 771.828 366.858   7
   4  -5 -12 1084.12 430.085   1
   4  -5 -11 5377.69 655.151   1
   4  -5 -10 1340.91 417.254   1
   4  -5  -9 19567.2 1138.11   1
   4  -5  -8 1037.38 419.502   1
   4  -5  -7 17746.4 1032.17   1
   4  -5  -7 16380.1 938.467   6
   4  -5  -6 9761.15 744.575   1
   4  -5  -6 8141.61 648.327   6
   4  -5  -5 24867.4 1139.32   6
   4  -5  -4 19487.6 965.041   6
   4  -5  -3 5951.44 535.903   6
   4  -5  -2 27686.9 1145.82   6
   4  -5  -1 5374.77 491.664   6
   4  -5   0 1743.41 324.297   6
   4  -5   1 11628.2 704.317   6
   4  -5   2 15805.2 845.059   6
   4  -5   3 7693.49 437.268   7
   4  -5   3 7483.66 593.598   6
   4  -5   4 20394.1 809.182   7
   4  -5   4 21240.2 1021.31   6
   4  -5   5 11730.7 615.469   7
   4  -5   6 23257.5 970.773   7
   4  -5   7 7390.49 556.291   7
   4  -5   8 8158.14 607.279   7
   4  -5   9 15867.9 898.486   7
   4  -5  10 7509.80 655.060   7
   4  -5  11 4133.73 533.366   7
   4  -5  12 357.050 337.911   7
   4  -5  13 6333.59 651.303   7
   4  -6 -11 6505.88 721.751   1
   4  -6 -10 4728.56 652.652   1
   4  -6  -9 6075.72 720.824   1
   4  -6  -8 36450.9 1638.59   1
   4  -6  -7 5247.69 601.057   6
   4  -6  -7 5652.69 653.159   1
   4  -6  -6 43476.6 1697.16   6
   4  -6  -5 5264.49 551.737   6
   4  -6  -4 29329.6 1297.43   6
   4  -6  -3 8169.81 644.796   6
   4  -6  -2 12156.4 763.171   6
   4  -6  -1 4016.03 466.817   6
   4  -6   0 1102.25 332.244   6
   4  -6   1 873.786 319.070   6
   4  -6   2 3031.63 428.271   6
   4  -6   3 17700.1 966.827   6
   4  -6   4 3638.02 310.895   7
   4  -6   4 4141.55 494.757   6
   4  -6   5 29799.3 1022.86   7
   4  -6   5 30874.7 1351.45   6
   4  -6   6 2194.60 304.906   7
   4  -6   6 1859.65 414.382   6
   4  -6   7 36421.4 1287.98   7
   4  -6   8 7104.13 547.052   7
   4  -6   9 31104.1 1276.07   7
   4  -6  10 7035.22 602.310   7
   4  -6  11 3026.97 454.751   7
   4  -6  12 7230.69 663.744   7
   4  -6  13 1915.23 415.951   7
   4  -7 -10 9019.65 859.624   1
   4  -7  -9 5778.18 694.679   1
   4  -7  -8 6416.86 738.410   1
   4  -7  -7 29104.8 1443.01   6
   4  -7  -7 31032.9 1494.98   1
   4  -7  -6 1552.58 424.630   6
   4  -7  -5 26604.4 1315.14   6
   4  -7  -4 487.672 322.658   6
   4  -7  -3 6541.61 624.092   6
   4  -7  -2 14389.0 898.951   6
   4  -7  -1 1827.60 395.347   6
   4  -7   0 26982.7 1266.53   6
   4  -7   1 13381.0 866.341   6
   4  -7   2 16064.1 954.863   6
   4  -7   3 10597.2 779.956   6
   4  -7   4 5488.52 572.898   6
   4  -7   5 5971.77 378.205   7
   4  -7   5 6837.73 649.949   6
   4  -7   6 22360.3 845.372   7
   4  -7   6 20935.0 1158.57   6
   4  -7   7 3088.20 335.389   7
   4  -7   7 2385.23 466.562   6
   4  -7   8 35402.4 1245.82   7
   4  -7   8 31557.0 1531.46   6
   4  -7   9 1878.34 436.842   6
   4  -7   9 802.232 267.507   7
   4  -7  10 10964.4 700.653   7
   4  -8  -9 2472.17 532.554   1
   4  -8  -8 1849.63 494.513   1
   4  -8  -7 3156.95 559.853   6
   4  -8  -7 3034.90 599.156   1
   4  -8  -6 4460.97 596.431   6
   4  -8  -5 6489.96 693.235   6
   4  -8  -4 4800.87 605.580   6
   4  -8  -3 3750.02 526.010   6
   4  -8  -2 6099.48 639.461   6
   4  -8  -1 42903.6 1746.73   6
   4  -8   0 2174.78 451.317   6
   4  -8   1 44124.4 1784.65   6
   4  -8   2 14639.6 968.017   6
   4  -8   3 30564.5 1425.37   6
   4  -8   4 8972.24 762.633   6
   4  -8   5 2831.23 477.086   6
   4  -8   6 4167.74 547.897   6
   4  -8   7 10183.8 839.340   6
   4  -8   8 2606.64 495.230   6
   4  -8   9 3769.82 566.295   6
   4  -8  10 172.088 329.121   6
   4  -8  11 1498.03 432.484   6
   4  -9  -8 788.806 458.377   1
   4  -9  -7 593.224 366.640   6
   4  -9  -7 1262.04 486.405   1
   4  -9  -6 986.876 428.829   6
   4  -9  -5 1097.61 419.741   6
   4  -9  -4 3163.41 555.865   6
   4  -9  -3 2162.68 494.353   6
   4  -9  -2 13342.5 972.690   6
   4  -9  -1 7439.97 739.971   6
   4  -9   0 30023.8 1460.30   6
   4  -9   1 2036.63 481.562   6
   4  -9   2 36282.4 1645.45   6
   4  -9   3 1926.62 459.592   6
   4  -9   4 20882.1 1220.90   6
   4  -9   5 1852.39 427.998   6
   4  -9   6 3053.29 525.845   6
   4  -9   7 1081.37 430.366   6
   4  -9   8 86.6436 321.098   6
   4  -9   9 2431.70 511.329   6
   4  -9  10 297.281 350.742   6
   4 -10  -6 5669.37 699.812   6
   4 -10  -5 761.322 408.698   6
   4 -10  -4 6725.96 758.599   6
   4 -10  -3 706.849 404.832   6
   4 -10  -2 8856.83 827.637   6
   4 -10  -1 9471.84 860.686   6
   4 -10   0 19116.3 1174.00   6
   4 -10   1 28522.2 1471.57   6
   4 -10   2 7208.09 761.471   6
   4 -10   3 24188.2 1345.16   6
   4 -10   4 2771.79 555.452   6
   4 -10   5 7033.26 742.444   6
   4 -10   6-279.599 365.907   6
   4 -10   7 6829.59 740.483   6
   4 -10   8 4401.39 599.832   6
   4 -10   9 1380.32 430.621   6
   4 -11  -3 3913.64 604.031   6
   4 -11  -2 14792.8 1079.48   6
   4 -11  -1 4550.48 643.411   6
   4 -11   0 7755.43 796.047   6
   4 -11   1 4313.65 622.775   6
   4 -11   2 3043.65 549.499   6
   4 -11   3 6307.62 722.445   6
   4 -11   4 6848.46 735.676   6
   4 -11   5 11665.0 934.185   6
   4 -11   6 3814.66 605.202   6
   4 -11   7 12479.9 975.376   6
   3  12  -5 2774.56 561.504   2
   3  12  -4 502.821 384.708   2
   3  12  -3 142.505 277.411   5
   3  12  -3 392.652 385.120   2
   3  12  -2 2737.46 447.349   5
   3  12  -2 2650.17 541.747   2
   3  12  -1 2697.15 482.276   5
   3  12   0-129.103 343.128   5
   3  11  -9 3281.43 557.543   2
   3  11  -8 601.835 388.637   2
   3  11  -7 1257.14 456.881   2
   3  11  -6 5763.94 685.384   2
   3  11  -5 1073.79 454.158   2
   3  11  -4 7373.16 769.946   2
   3  11  -4 8900.59 673.371   5
   3  11  -3 2031.29 512.514   2
   3  11  -3 2555.14 437.441   5
   3  11  -2 5953.14 706.142   2
   3  11  -2 6995.14 672.667   5
   3  11  -1 6079.79 643.945   5
   3  11  -1 5596.63 695.600   2
   3  11   0 1933.54 437.621   5
   3  11   0 2009.86 495.117   2
   3  11   1 2020.00 465.909   5
   3  11   1 1830.44 493.831   2
   3  11   2 1701.75 431.672   5
   3  11   2 2053.79 525.239   2
   3  10 -11 5386.39 665.249   2
   3  10 -10 1126.25 428.905   2
   3  10  -9 2469.23 511.977   2
   3  10  -8 1983.29 478.904   2
   3  10  -7 3584.50 552.231   2
   3  10  -6 5502.15 655.836   2
   3  10  -5 7651.74 574.436   5
   3  10  -5 7693.77 748.783   2
   3  10  -4 3619.97 438.930   5
   3  10  -4 3785.88 594.276   2
   3  10  -3 13216.4 829.020   5
   3  10  -3 11986.1 921.299   2
   3  10  -2 2819.49 456.504   5
   3  10  -2 3132.80 588.785   2
   3  10  -1 8555.42 793.263   2
   3  10  -1 8137.31 700.587   5
   3  10   0 4182.05 547.405   5
   3  10   0 3642.77 589.712   2
   3  10   1 6630.96 680.046   5
   3  10   1 5928.31 697.609   2
   3  10   2 1438.08 478.504   2
   3  10   2 1951.75 450.945   5
   3  10   3 2386.24 519.607   2
   3  10   3 1946.24 452.697   5
   3  10   4 912.848 415.784   5
   3  10   4 1077.93 432.663   2
   3  10   5 4480.88 655.994   2
   3  10   5 5098.60 654.362   5
   3   9 -11 1505.27 439.806   2
   3   9 -10 636.303 389.155   2
   3   9  -9 3056.17 533.746   2
   3   9  -8 1874.80 458.188   2
   3   9  -7 3488.94 538.509   2
   3   9  -6 3263.15 355.086   5
   3   9  -6 3289.64 519.828   2
   3   9  -5 18927.0 1106.89   2
   3   9  -5 18615.3 885.708   5
   3   9  -4 29276.0 1436.63   2
   3   9  -4 31718.2 1251.62   5
   3   9  -3 13371.9 946.633   2
   3   9  -3 15087.5 856.913   5
   3   9  -2 40073.2 1728.47   2
   3   9  -2 41694.3 1593.86   5
   3   9  -1 9179.18 809.045   2
   3   9  -1 9640.78 751.772   5
   3   9   0 22426.8 1241.65   2
   3   9   0 22639.6 1167.11   5
   3   9   1 2538.14 522.750   2
   3   9   1 2780.46 470.134   5
   3   9   2 2219.32 478.067   2
   3   9   2 1968.93 433.358   5
   3   9   3 4505.31 621.196   2
   3   9   3 3287.91 527.472   5
   3   9   4 2854.35 500.693   5
   3   9   4 1671.60 484.855   2
   3   9   5 2119.70 465.361   5
   3   9   5 4124.67 636.461   2
   3   9   6 987.421 407.960   5
   3   9   6 2006.24 500.253   2
   3   9   7 2657.63 549.923   2
   3   8 -11 2603.39 494.541   2
   3   8 -10 10779.5 863.343   2
   3   8  -9 5444.19 618.183   2
   3   8  -8 12624.9 910.642   2
   3   8  -7 9064.52 755.585   2
   3   8  -6 1446.48 258.390   5
   3   8  -6 927.982 347.655   2
   3   8  -5 38740.2 1601.32   2
   3   8  -5 38292.1 1320.59   5
   3   8  -4 7324.10 682.856   2
   3   8  -4 7619.20 555.998   5
   3   8  -3 7910.63 690.534   2
   3   8  -3 7019.89 550.884   5
   3   8  -2 8267.33 703.060   2
   3   8  -2 7281.72 595.719   5
   3   8  -1 11049.1 821.019   2
   3   8  -1 10672.7 728.592   5
   3   8   0 38843.7 1613.44   2
   3   8   0 39505.1 1557.14   5
   3   8   1 2107.30 459.182   2
   3   8   1 2325.35 431.615   5
   3   8   2 14705.6 964.683   2
   3   8   2 12977.7 882.900   5
   3   8   3 17243.5 1057.29   2
   3   8   3 13540.8 937.917   5
   3   8   4 7074.57 711.744   2
   3   8   4 8275.78 745.279   5
   3   8   5 14383.9 989.809   2
   3   8   5 12832.5 942.222   5
   3   8   6 2180.43 489.324   2
   3   8   6 636.127 320.524   5
   3   8   7 1612.97 477.729   2
   3   8   7 935.287 406.449   5
   3   8   8 1264.59 451.286   2
   3   8   8 376.105 373.387   5
   3   7 -10 7453.19 717.798   2
   3   7  -9 5672.82 638.586   2
   3   7  -8 5729.34 615.044   2
   3   7  -7 1657.94 208.750   5
   3   7  -7 1339.41 372.027   2
   3   7  -6 7877.58 450.605   5
   3   7  -6 7343.39 663.513   2
   3   7  -5 9894.63 741.323   2
   3   7  -5 11171.0 572.034   5
   3   7  -4 5578.55 583.220   2
   3   7  -4 7312.72 496.045   5
   3   7  -3 32834.7 1385.07   2
   3   7  -3 34560.5 1245.26   5
   3   7  -2 9597.07 727.680   2
   3   7  -2 9617.52 635.187   5
   3   7  -1 23996.1 1159.77   2
   3   7  -1 22612.8 1045.36   5
   3   7   0 14863.6 907.815   2
   3   7   0 14168.7 824.807   5
   3   7   1 6052.61 569.473   5
   3   7   1 5998.66 624.231   2
   3   7   2 2518.48 449.554   2
   3   7   3 6300.02 479.692   7
   3   7   3 5844.03 612.628   2
   3   7   4 425.934 247.071   7
   3   7   4 355.596 373.732   2
   3   7   5 10933.1 854.441   2
   3   7   5 10652.2 680.947   7
   3   7   6 846.175 405.797   2
   3   7   6 373.314 293.298   7
   3   7   7 14273.3 854.048   7
   3   7   7 15611.6 1017.61   2
   3   7   8 1316.04 353.140   7
   3   6 -14 6032.32 662.484   1
   3   6 -13 734.716 377.964   1
   3   6 -12 14339.7 940.303   1
   3   6 -11 6900.94 663.305   1
   3   6 -10 23955.1 1152.77   1
   3   6  -9 6079.83 629.003   2
   3   6  -8 7221.53 658.900   2
   3   6  -7 18229.3 623.458   5
   3   6  -7 16623.4 950.085   2
   3   6  -6 5435.16 554.358   2
   3   6  -6 5782.33 342.336   5
   3   6  -5 7846.35 645.317   2
   3   6  -5 9596.06 476.135   5
   3   6  -4 3003.42 300.363   5
   3   6  -4 2715.86 400.472   2
   3   6  -3 4742.62 501.513   2
   3   6  -3 4692.52 389.633   5
   3   6  -2 3444.53 360.844   5
   3   6  -2 3311.98 430.344   2
   3   6  -1 3150.37 369.658   5
   3   6  -1 2701.23 400.105   2
   3   6   0 2779.26 419.700   2
   3   6   1 9327.23 684.845   2
   3   6   2 9050.85 544.900   7
   3   6   2 8310.03 651.305   2
   3   6   3 14863.5 883.656   2
   3   6   3 14850.7 746.885   7
   3   6   4 14462.7 764.034   7
   3   6   4 12221.7 840.853   2
   3   6   5 3278.96 504.001   2
   3   6   5 2541.68 389.678   7
   3   6   6 22649.4 1068.49   7
   3   6   7 3456.40 477.935   7
   3   6   8 15113.1 920.338   7
   3   6   9 2308.56 434.957   7
   3   6  10 6971.50 676.003   7
   3   6  11 1450.53 417.099   7
   3   5 -15 1852.13 464.621   1
   3   5 -14 3093.17 545.189   1
   3   5 -13 2092.30 434.455   1
   3   5 -12 3741.89 551.166   1
   3   5 -11 16463.5 965.597   1
   3   5 -10 787.073 354.802   1
   3   5  -9 23519.8 1087.33   1
   3   5  -8 14512.9 883.138   2
   3   5  -8 16350.5 839.933   1
   3   5  -8 16341.9 777.794   3
   3   5  -7 41008.9 1545.87   2
   3   5  -7 41529.7 1424.97   1
   3   5  -7 39082.4 1382.70   3
   3   5  -6 13288.3 473.642   5
   3   5  -6 12099.4 771.636   2
   3   5  -6 11878.1 683.259   3
   3   5  -5 7363.63 586.927   2
   3   5  -5 7859.66 545.876   3
   3   5  -5 8141.76 385.486   5
   3   5  -4 2380.69 331.638   3
   3   5  -4 2563.95 361.025   2
   3   5  -4 2638.64 247.409   5
   3   5  -3 1408.19 275.005   3
   3   5  -3 1001.26 201.698   5
   3   5  -3 1320.37 312.337   2
   3   5  -2 469.431 179.837   5
   3   5  -2 378.281 232.662   2
   3   5  -1 525.372 208.680   3
   3   5  -1 749.693 277.539   2
   3   5   0 2969.33 385.971   2
   3   5   0 3265.71 377.678   3
   3   5   1 1910.44 339.535   2
   3   5   1 1828.20 271.000   7
   3   5   2 12523.3 745.508   2
   3   5   2 12507.0 653.293   7
   3   5   3 18670.8 864.034   7
   3   5   3 20964.8 1002.59   2
   3   5   4 45021.1 1545.25   7
   3   5   5 9950.54 672.851   7
   3   5   6 9175.66 674.307   7
   3   5   7 23206.9 1143.60   7
   3   5   8 2111.67 411.645   7
   3   5   9 8967.48 754.570   7
   3   5  10 4090.86 570.271   7
   3   5  11 3646.20 554.124   7
   3   4 -15 2295.72 488.955   1
   3   4 -14 571.525 338.716   1
   3   4 -13 5534.96 644.537   1
   3   4 -12 10090.3 791.423   1
   3   4 -11 2112.77 408.592   1
   3   4 -10 11550.2 769.838   1
   3   4  -9 6549.62 565.769   1
   3   4  -9 6206.12 439.873   3
   3   4  -8 18893.7 892.649   1
   3   4  -8 18533.8 789.570   3
   3   4  -7 18766.3 962.819   2
   3   4  -7 18931.6 856.323   1
   3   4  -7 19643.6 822.240   3
   3   4  -6 15919.8 716.260   1
   3   4  -6 15908.8 818.911   2
   3   4  -6 16480.3 731.786   3
   3   4  -6 14413.5 428.014   5
   3   4  -5 40763.6 1037.70   5
   3   4  -5 38769.6 1239.53   1
   3   4  -5 41215.1 1415.67   2
   3   4  -5 41906.9 1345.93   3
   3   4  -4 3387.85 380.181   2
   3   4  -4 3739.54 359.482   3
   3   4  -4 3130.96 219.748   5
   3   4  -3 100398. 2706.56   2
   3   4  -3 102913. 2345.07   6
   3   4  -3 99170.5 2463.23   5
   3   4  -2 28222.4 1064.55   2
   3   4  -2 29990.2 828.017   6
   3   4  -1 11372.4 626.493   2
   3   4   0 110161. 2875.67   2
   3   4   1 5021.57 399.749   7
   3   4   1 5003.34 432.657   2
   3   4   1 4979.75 411.333   3
   3   4   2 31133.8 1162.06   2
   3   4   2 32170.4 1131.36   7
   3   4   2 31258.7 1109.57   3
   3   4   3 25077.7 1036.38   7
   3   4   3 28781.7 1109.26   2
   3   4   4 12727.5 715.928   7
   3   4   5 21281.8 989.502   7
   3   4   6 3778.42 453.245   7
   3   4   7 11739.4 797.645   7
   3   4   8 5741.88 599.910   7
   3   4   9 9499.48 770.139   7
   3   4  10 5105.24 622.140   7
   3   4  11 2424.41 509.063   7
   3   4  12 1501.83 416.036   7
   3   3 -15 3345.87 550.023   1
   3   3 -14 545.813 393.999   1
   3   3 -13 1386.92 443.407   1
   3   3 -12 197.200 326.441   1
   3   3 -11 529.138 324.302   1
   3   3 -10 2349.49 252.411   3
   3   3 -10 2171.07 382.624   1
   3   3  -9 4397.55 470.821   1
   3   3  -9 5143.25 368.954   3
   3   3  -8 6004.10 501.736   1
   3   3  -8 5353.34 390.537   3
   3   3  -7 11206.2 626.144   1
   3   3  -7 10757.2 548.400   3
   3   3  -6 44673.0 1500.79   2
   3   3  -6 44681.9 1373.80   1
   3   3  -6 42412.9 1333.21   3
   3   3  -5 647.542 199.589   3
   3   3  -5 501.442 193.480   1
   3   3  -5 438.157 247.225   2
   3   3  -4 78159.4 2138.25   2
   3   3  -4 79064.9 1954.13   1
   3   3  -4 79040.8 2074.91   3
   3   3  -4 74331.8 1755.99   5
   3   3  -3 9595.56 547.806   2
   3   3  -3 9435.59 402.452   1
   3   3  -2 48240.8 1457.65   2
   3   3  -2 49236.0 1190.69   6
   3   3  -1 16456.0 709.093   2
   3   3  -1 18074.8 548.446   6
   3   3   0 10363.9 546.820   2
   3   3   0 11508.8 436.168   6
   3   3   1 86651.6 2273.46   7
   3   3   1 85374.2 2271.61   2
   3   3   1 86920.6 2264.23   3
   3   3   2 6288.94 445.277   2
   3   3   2 6209.58 452.249   7
   3   3   2 6494.05 415.816   3
   3   3   3 42367.9 1383.59   7
   3   3   3 41593.2 1280.76   3
   3   3   4 14853.9 765.283   7
   3   3   5 7737.91 584.757   7
   3   3   6 5811.62 534.667   7
   3   3   7 1423.21 367.235   7
   3   3   8 1787.98 412.123   7
   3   3   9 1492.05 394.258   7
   3   3  10 458.745 325.734   7
   3   3  11 4482.78 606.805   7
   3   3  12 3555.96 576.273   7
   3   2 -15 703.884 385.449   1
   3   2 -14 3750.62 572.553   1
   3   2 -13 1509.03 412.644   1
   3   2 -12 2159.98 442.040   1
   3   2 -11 449.718 303.513   1
   3   2 -10 7839.51 631.013   1
   3   2 -10 8319.53 409.361   3
   3   2  -9 7945.87 597.194   1
   3   2  -9 7730.03 418.550   3
   3   2  -8 8028.50 569.967   1
   3   2  -8 7018.36 405.267   3
   3   2  -7 11787.0 544.204   3
   3   2  -7 12239.3 645.990   1
   3   2  -6 9659.60 531.857   1
   3   2  -6 9187.73 480.803   3
   3   2  -5 37980.4 1277.30   2
   3   2  -5 37635.9 1155.70   1
   3   2  -5 37878.4 1170.04   3
   3   2  -4 36538.8 1201.74   2
   3   2  -4 35882.2 1046.64   1
   3   2  -4 36332.4 1131.47   3
   3   2  -3 95099.3 2249.56   1
   3   2  -3 96046.4 2442.44   2
   3   2  -2 16129.4 624.212   2
   3   2  -2 15981.7 440.441   1
   3   2  -1 106654. 2596.13   2
   3   2  -1 106048. 2396.19   6
   3   2   0 66018.5 1759.83   2
   3   2   0 70087.2 1642.96   6
   3   2   0 65282.3 1825.47   7
   3   2   1 36627.0 1167.04   7
   3   2   1 36412.3 1102.44   2
   3   2   1 37347.8 1117.18   3
   3   2   2 69022.8 1914.27   7
   3   2   2 67309.3 1793.65   3
   3   2   2 68535.6 1822.55   2
   3   2   3 21273.1 863.522   7
   3   2   3 19911.7 719.718   3
   3   2   4 10445.9 613.121   7
   3   2   4 9780.41 454.642   3
   3   2   5 23088.9 999.609   7
   3   2   5 20474.3 713.410   3
   3   2   6 1269.67 324.600   7
   3   2   7 20970.2 1054.88   7
   3   2   8 2319.73 433.574   7
   3   2   9 750.266 369.695   7
   3   2  10 3016.79 514.780   7
   3   2  11 1090.83 400.406   7
   3   2  12 3962.01 601.799   7
   3   2  13 626.994 378.774   7
   3   1 -15 550.778 400.518   1
   3   1 -14 3461.47 565.974   1
   3   1 -13 6075.09 639.266   1
   3   1 -12 5641.17 599.531   1
   3   1 -11 12846.5 838.100   1
   3   1 -10 26004.7 821.463   3
   3   1 -10 28094.8 1221.91   1
   3   1  -9 21256.5 1006.24   1
   3   1  -9 20392.8 717.839   3
   3   1  -8 31803.7 1214.21   1
   3   1  -8 31276.4 986.889   3
   3   1  -7 31240.0 986.593   3
   3   1  -7 30863.4 1134.62   1
   3   1  -6 5690.25 360.604   3
   3   1  -6 5642.28 411.504   1
   3   1  -5 30393.1 838.175   8
   3   1  -5 30084.1 966.943   3
   3   1  -5 29300.0 985.950   1
   3   1  -4 28436.5 792.961   8
   3   1  -4 26600.4 894.146   3
   3   1  -4 26296.8 856.732   1
   3   1  -3 82329.2 1871.82   8
   3   1  -3 78796.6 1978.38   2
   3   1  -3 76978.7 1850.41   1
   3   1  -2 74086.0 1849.37   2
   3   1  -2 72161.7 1695.88   1
   3   1  -1 2407.26 206.625   2
   3   1  -1 2301.01 109.624   1
   3   1   0 89426.4 2169.43   2
   3   1   0 94503.7 2312.26   7
   3   1   1 66522.1 1750.22   7
   3   1   1 68660.4 1677.17   3
   3   1   1 64784.0 1585.33   2
   3   1   2 50049.4 1462.71   7
   3   1   2 48495.6 1336.92   3
   3   1   2 49584.1 1185.20   1
   3   1   3 19209.1 576.395   1
   3   1   3 18323.9 787.517   7
   3   1   3 17629.5 623.464   3
   3   1   4 7306.46 358.474   3
   3   1   4 8334.29 544.046   7
   3   1   5 39804.6 1374.94   7
   3   1   5 36445.7 1013.92   3
   3   1   6 14458.6 807.894   7
   3   1   7 38067.1 1486.81   7
   3   1   8 25830.0 1236.00   7
   3   1   9 10272.6 784.534   7
   3   1  10 8298.94 762.710   7
   3   1  11 6181.47 685.701   7
   3   1  12 4235.67 608.561   7
   3   1  13 2464.78 500.620   7
   3   0 -15 383.052 399.062   1
   3   0 -14 3719.02 563.066   1
   3   0 -13 3761.53 578.017   1
   3   0 -12 5325.66 594.940   1
   3   0 -11 12459.1 845.398   1
   3   0 -10 2968.74 448.885   1
   3   0 -10 2888.05 238.920   3
   3   0  -9 60196.7 1969.51   1
   3   0  -9 60482.2 1611.49   3
   3   0  -8 13759.4 765.345   1
   3   0  -8 14326.9 585.161   3
   3   0  -7 70233.9 1858.23   3
   3   0  -7 70282.5 2056.48   1
   3   0  -6 17452.2 515.337   8
   3   0  -6 18550.1 702.163   3
   3   0  -6 18288.9 784.587   1
   3   0  -5 96697.6 2258.06   8
   3   0  -5 96319.6 2440.61   3
   3   0  -5 100145. 2512.56   1
   3   0  -4 2372.94 267.719   1
   3   0  -4 2303.52 181.953   8
   3   0  -4 2226.42 246.567   3
   3   0  -3 9540.97 380.458   8
   3   0  -3 9345.56 320.312   5
   3   0  -3 8962.79 422.302   1
   3   0  -3 9107.12 323.683   6
   3   0  -2 51890.7 1222.99   5
   3   0  -2 52429.1 1301.25   8
   3   0  -2 47649.8 1263.12   1
   3   0  -2 47322.0 1178.62   6
   3   0  -1 11363.3 409.741   5
   3   0  -1 10676.3 392.209   2
   3   0   0 2066.95 144.347   2
   3   0   0 1695.43 225.178   7
   3   0   1 36271.5 896.185   1
   3   0   1 36947.4 905.955   2
   3   0   1 37552.2 1138.98   7
   3   0   1 36158.8 1066.02   3
   3   0   2 15573.2 655.320   7
   3   0   2 14815.6 560.766   3
   3   0   2 15633.7 473.006   1
   3   0   3 18625.1 772.883   7
   3   0   3 17819.7 609.226   3
   3   0   3 18140.1 567.803   1
   3   0   4 95239.9 2505.00   7
   3   0   4 90632.5 2192.88   3
   3   0   5 25490.7 1044.95   7
   3   0   5 24218.2 706.981   3
   3   0   6 64491.2 1967.07   7
   3   0   6 58973.6 1428.23   3
   3   0   7 38533.2 1476.05   7
   3   0   8 29173.9 1300.82   7
   3   0   9 15827.8 983.443   7
   3   0  10 133.976 305.513   7
   3   0  11 5012.46 635.793   7
   3   0  12 3021.14 538.026   7
   3   0  13 644.526 395.559   7
   3  -1 -14 1438.84 458.169   1
   3  -1 -13 2162.49 482.726   1
   3  -1 -12 9486.84 797.337   1
   3  -1 -11 1521.33 415.401   1
   3  -1 -10 18046.1 989.197   1
   3  -1  -9 5325.82 348.519   3
   3  -1  -9 5893.51 572.330   1
   3  -1  -8 31539.9 1011.94   3
   3  -1  -8 29690.7 1224.60   1
   3  -1  -7 10390.7 321.040   8
   3  -1  -7 10554.1 520.271   3
   3  -1  -7 11523.6 670.081   1
   3  -1  -6 58278.6 1393.63   8
   3  -1  -6 56649.4 1619.06   3
   3  -1  -6 60470.5 1785.47   1
   3  -1  -5 8800.64 339.409   8
   3  -1  -5 8052.61 505.915   1
   3  -1  -4 43974.7 1334.29   1
   3  -1  -4 45529.7 1159.07   8
   3  -1  -4 43392.6 1222.94   6
   3  -1  -3 18005.4 694.232   1
   3  -1  -3 18568.7 597.425   8
   3  -1  -3 17289.7 606.402   6
   3  -1  -3 19063.7 586.213   5
   3  -1  -2 6595.16 324.382   8
   3  -1  -2 6065.41 311.890   6
   3  -1  -2 6638.99 308.758   5
   3  -1  -1 90536.0 2166.24   5
   3  -1  -1 86977.7 2179.04   6
   3  -1   0 84578.0 2053.23   5
   3  -1   0 84370.6 1994.92   9
   3  -1   1 4975.64 221.606   9
   3  -1   1 5101.67 334.695   7
   3  -1   2 29267.7 969.054   7
   3  -1   2 29989.8 825.710   1
   3  -1   3 39617.2 1219.92   7
   3  -1   3 36975.1 1075.65   3
   3  -1   4 3592.52 348.363   7
   3  -1   4 3505.11 244.448   3
   3  -1   5 64119.7 1905.88   7
   3  -1   5 62864.8 1564.94   3
   3  -1   6 8850.22 608.822   7
   3  -1   6 7893.16 306.930   3
   3  -1   7 44279.2 1514.78   7
   3  -1   7 34766.3 838.066   3
   3  -1   8 2699.60 423.973   7
   3  -1   9 24774.0 1222.54   7
   3  -1  10 2534.92 463.132   7
   3  -1  11 7789.19 738.002   7
   3  -1  12 3273.09 571.917   7
   3  -1  13 1926.46 486.650   7
   3  -2 -14 5635.40 670.322   1
   3  -2 -13 1992.78 474.313   1
   3  -2 -12 1748.57 457.988   1
   3  -2 -11 17920.0 1043.45   1
   3  -2 -10 4862.85 567.824   1
   3  -2  -9 9084.45 492.816   3
   3  -2  -9 10775.8 756.938   1
   3  -2  -8 2272.44 423.007   1
   3  -2  -7 15025.3 819.042   1
   3  -2  -7 14103.2 435.169   8
   3  -2  -6 26663.8 1091.27   1
   3  -2  -6 26510.2 739.679   8
   3  -2  -5 2867.52 199.364   8
   3  -2  -5 2364.11 281.652   6
   3  -2  -5 2468.09 355.763   1
   3  -2  -4 28902.7 984.292   6
   3  -2  -4 29145.2 1053.77   1
   3  -2  -3 31300.1 1000.24   6
   3  -2  -2 22000.9 768.014   6
   3  -2  -1 33257.5 1023.38   6
   3  -2   0 176556. 3989.05   9
   3  -2   0 166582. 4099.63   6
   3  -2   1 4173.57 224.131   9
   3  -2   1 3970.58 292.354   7
   3  -2   2 23394.2 638.443   9
   3  -2   2 24204.5 827.442   7
   3  -2   3 33646.2 796.915   2
   3  -2   3 32647.2 802.115   9
   3  -2   4 11168.9 364.935   2
   3  -2   4 10004.8 560.681   7
   3  -2   5 7275.38 309.217   2
   3  -2   5 7131.50 500.686   7
   3  -2   6 26746.6 791.957   3
   3  -2   6 28143.8 1109.35   7
   3  -2   7 1553.95 137.644   3
   3  -2   7 1577.19 347.560   7
   3  -2   8 8706.14 671.621   7
   3  -2   9 2275.26 431.614   7
   3  -2  10 22536.2 1199.15   7
   3  -2  11 4413.70 564.120   7
   3  -2  12 5806.86 661.023   7
   3  -2  13 2221.39 473.563   7
   3  -2  14 4934.25 668.056   7
   3  -3 -13 4140.00 612.027   1
   3  -3 -12 11058.2 863.352   1
   3  -3 -11 902.268 395.571   1
   3  -3 -10 9586.46 767.676   1
   3  -3  -9 99.2237 312.534   1
   3  -3  -8 8988.30 690.329   1
   3  -3  -7 34763.5 1375.56   1
   3  -3  -6 11558.2 724.797   1
   3  -3  -6 10887.9 638.432   6
   3  -3  -5 95226.1 2623.34   1
   3  -3  -5 93000.2 2552.57   6
   3  -3  -4 22437.8 886.852   6
   3  -3  -3 44887.9 1381.14   6
   3  -3  -2 69284.7 1904.30   6
   3  -3  -1 167740. 3782.78   4
   3  -3  -1 167453. 4015.07   6
   3  -3   0 66.5147 168.240   6
   3  -3   1 145242. 3340.51   9
   3  -3   1 148905. 3382.42   7
   3  -3   1 147140. 3567.55   6
   3  -3   2 62903.0 1555.34   9
   3  -3   2 64454.2 1667.03   7
   3  -3   3 45301.5 1310.16   7
   3  -3   3 46658.2 1131.44   9
   3  -3   3 43593.2 1066.59   2
   3  -3   4 18479.1 745.736   7
   3  -3   4 16709.5 492.965   9
   3  -3   4 18255.3 515.039   2
   3  -3   5 90762.0 2223.95   7
   3  -3   5 90318.0 1852.46   2
   3  -3   6 11281.9 653.186   7
   3  -3   7 28197.3 1156.69   7
   3  -3   8 11641.3 411.126   3
   3  -3   8 12839.6 770.093   7
   3  -3   9 398.909 296.533   7
   3  -3  10 4566.30 547.331   7
   3  -3  11 1734.06 426.230   7
   3  -3  12 12619.2 926.182   7
   3  -3  13 837.593 395.927   7
   3  -3  14 7530.11 764.692   7
   3  -4 -13 5764.03 672.410   1
   3  -4 -12 5098.88 650.752   1
   3  -4 -11 14752.3 1001.10   1
   3  -4 -10 868.379 373.770   1
   3  -4  -9 6737.69 657.664   1
   3  -4  -8 1568.83 425.159   1
   3  -4  -7 23466.5 1130.47   1
   3  -4  -6 471.301 369.386   1
   3  -4  -6 294.458 257.310   6
   3  -4  -5 25619.2 1071.13   6
   3  -4  -4 39035.3 1373.85   6
   3  -4  -3 75172.2 2167.56   6
   3  -4  -2 52362.3 1308.03   4
   3  -4  -2 53602.3 1640.41   6
   3  -4  -1 42530.7 1125.71   4
   3  -4  -1 41697.7 1378.34   6
   3  -4   0 122629. 3152.34   6
   3  -4   1 34939.4 1224.15   6
   3  -4   2 71809.8 1796.92   7
   3  -4   2 71242.7 2079.22   6
   3  -4   3 54350.7 1486.58   7
   3  -4   4 58423.9 1420.71   9
   3  -4   4 58306.2 1621.04   7
   3  -4   4 55350.3 1389.10   2
   3  -4   5 16212.4 511.959   2
   3  -4   5 15061.1 485.987   9
   3  -4   5 15368.2 709.858   7
   3  -4   6 7237.82 499.134   7
   3  -4   6 6567.40 261.975   9
   3  -4   7 14725.2 443.478   9
   3  -4   7 15936.7 803.186   7
   3  -4   8 6592.97 558.506   7
   3  -4   9 2508.75 395.837   7
   3  -4  10 3314.25 468.934   7
   3  -4  11 14158.6 925.263   7
   3  -4  12 212.961 335.348   7
   3  -4  13 12374.8 916.101   7
   3  -4  14 3722.67 573.259   7
   3  -5 -12 1638.36 463.274   1
   3  -5 -11 10786.3 870.702   1
   3  -5 -10 1305.56 419.659   1
   3  -5  -9 8646.25 780.284   1
   3  -5  -8 1298.87 437.963   1
   3  -5  -7 8178.30 702.907   1
   3  -5  -6 1901.57 384.173   6
   3  -5  -6 1921.03 442.619   1
   3  -5  -5 4338.11 491.873   6
   3  -5  -4 23187.7 1054.61   6
   3  -5  -3 26022.1 1096.51   6
   3  -5  -3 24571.5 675.858   4
   3  -5  -2 54086.0 1364.61   4
   3  -5  -2 55271.1 1771.15   6
   3  -5  -1 22496.2 976.309   6
   3  -5   0 28326.8 1127.41   6
   3  -5   1 37747.3 1360.10   6
   3  -5   2 21079.5 956.408   6
   3  -5   3 56362.7 1504.25   7
   3  -5   3 59835.1 1860.02   6
   3  -5   4 27034.4 899.369   7
   3  -5   4 27310.6 1156.69   6
   3  -5   5 22385.4 838.985   7
   3  -5   6 4342.33 386.684   7
   3  -5   7 4068.98 399.276   7
   3  -5   8 9079.29 621.351   7
   3  -5   9 5361.43 519.411   7
   3  -5  10 5849.10 564.619   7
   3  -5  11 5506.67 588.007   7
   3  -5  12 3252.17 483.016   7
   3  -5  13 711.184 372.845   7
   3  -5  14 1197.84 374.702   7
   3  -6 -11 9620.68 846.010   1
   3  -6 -10 5654.53 673.630   1
   3  -6  -9 10094.2 850.188   1
   3  -6  -8 8813.76 759.605   1
   3  -6  -7 1668.68 435.654   1
   3  -6  -6 25947.5 1275.80   1
   3  -6  -6 23740.1 1199.72   6
   3  -6  -5 3250.37 471.126   6
   3  -6  -4 11495.8 769.551   6
   3  -6  -3 14341.5 855.908   6
   3  -6  -2 32019.9 1322.57   6
   3  -6  -1 10075.2 703.384   6
   3  -6   0 108.018 239.470   6
   3  -6   1 598.782 295.969   6
   3  -6   2 5485.02 520.418   6
   3  -6   3 24208.4 719.634   7
   3  -6   3 24398.5 1113.14   6
   3  -6   4 24538.9 808.481   7
   3  -6   4 27932.9 1192.98   6
   3  -6   5 15154.6 628.063   7
   3  -6   5 15102.4 886.365   6
   3  -6   6 1714.32 258.570   7
   3  -6   6 2520.81 403.409   6
   3  -6   7 25437.8 995.462   7
   3  -6   8 873.371 272.566   7
   3  -6   9 12974.5 742.791   7
   3  -6  10 3038.03 414.137   7
   3  -6  11 12772.3 818.787   7
   3  -6  12 3582.25 484.081   7
   3  -6  13 3616.17 500.561   7
   3  -6  14 1213.02 371.493   7
   3  -7 -11 82.9670 397.197   1
   3  -7 -10 14525.0 1022.90   1
   3  -7  -9 227.573 437.185   1
   3  -7  -8 8739.05 790.934   1
   3  -7  -7 11206.6 883.415   1
   3  -7  -6 14549.6 968.353   6
   3  -7  -5 18190.5 1046.46   6
   3  -7  -4 6532.00 627.576   6
   3  -7  -3 31800.3 1392.52   6
   3  -7  -2 6233.68 589.991   6
   3  -7  -1 6498.42 598.435   6
   3  -7   0 388.076 287.026   6
   3  -7   1 3.84229 254.615   6
   3  -7   2 468.026 307.769   6
   3  -7   3 3387.01 469.013   6
   3  -7   4 10551.9 404.847   7
   3  -7   4 11572.5 788.166   6
   3  -7   5 16954.6 623.245   7
   3  -7   5 17323.6 1002.26   6
   3  -7   6 13248.3 582.342   7
   3  -7   6 13198.8 879.844   6
   3  -7   7 8218.85 493.738   7
   3  -7   7 9213.33 755.510   6
   3  -7   8 21170.2 880.143   7
   3  -7   8 20783.7 1146.44   6
   3  -7   9 4410.58 426.772   7
   3  -7   9 3877.46 546.208   6
   3  -7  10 10053.5 662.307   7
   3  -7  11 2003.84 376.798   7
   3  -7  12 12165.4 776.672   7
   3  -8  -9 6649.75 728.219   1
   3  -8  -8 956.125 474.865   1
   3  -8  -7 14689.0 1048.77   1
   3  -8  -6 1681.30 432.324   6
   3  -8  -5 11713.1 886.502   6
   3  -8  -4 10150.4 832.766   6
   3  -8  -3 13683.1 916.181   6
   3  -8  -2 18433.8 1065.50   6
   3  -8  -1 11694.3 838.251   6
   3  -8   0 3458.40 508.154   6
   3  -8   1 14295.7 911.472   6
   3  -8   2 948.536 348.956   6
   3  -8   3 11893.6 832.089   6
   3  -8   4 18917.8 1076.84   6
   3  -8   5 10861.0 811.178   6
   3  -8   6 14195.8 941.959   6
   3  -8   7 8022.74 718.017   6
   3  -8   8 4844.43 616.407   6
   3  -8   9 6565.11 676.884   6
   3  -8  10 658.257 344.898   6
   3  -8  11 5271.19 640.990   6
   3  -8  12 964.459 377.044   6
   3  -9  -8 4556.50 673.865   1
   3  -9  -7 1490.70 554.147   1
   3  -9  -6 4975.28 662.442   6
   3  -9  -5 2626.45 544.838   6
   3  -9  -4 3066.28 505.602   6
   3  -9  -3 11279.9 912.575   6
   3  -9  -2 10610.2 858.708   6
   3  -9  -1 11402.4 879.243   6
   3  -9   0 17767.1 1085.60   6
   3  -9   1 7484.26 711.385   6
   3  -9   2 15929.5 1031.05   6
   3  -9   3 7349.44 718.278   6
   3  -9   4 20831.8 1187.55   6
   3  -9   5 4947.93 621.410   6
   3  -9   6 11694.1 877.556   6
   3  -9   7 1360.09 410.290   6
   3  -9   8 2777.55 490.158   6
   3  -9   9 2323.99 478.200   6
   3  -9  10 3994.59 578.938   6
   3  -9  11 2102.83 449.187   6
   3 -10  -6 1218.48 528.256   1
   3 -10  -6 961.470 449.977   6
   3 -10  -5 3181.40 541.316   6
   3 -10  -4 1942.22 467.733   6
   3 -10  -3 2743.60 538.937   6
   3 -10  -2 8628.24 824.743   6
   3 -10  -1 2606.83 532.559   6
   3 -10   0 27528.8 1435.94   6
   3 -10   1 26066.0 1376.02   6
   3 -10   2 38846.1 1733.18   6
   3 -10   3 18287.6 1135.70   6
   3 -10   4 4243.83 605.922   6
   3 -10   5 10429.8 864.409   6
   3 -10   6 2542.55 494.366   6
   3 -10   7 1862.22 444.509   6
   3 -10   8 5906.29 660.674   6
   3 -10   9 1159.39 426.410   6
   3 -10  10 747.999 370.996   6
   3 -11  -4 1224.20 458.662   6
   3 -11  -3 2742.27 561.007   6
   3 -11  -2 1801.32 502.180   6
   3 -11  -1 5259.28 677.173   6
   3 -11   0 7293.97 778.765   6
   3 -11   1 9206.45 839.268   6
   3 -11   2 1603.11 453.028   6
   3 -11   3 12438.2 965.864   6
   3 -11   4 1364.19 452.197   6
   3 -11   5 7453.01 756.232   6
   3 -11   6 1343.51 452.022   6
   3 -11   7 2333.21 481.604   6
   3 -11   8 5944.48 685.026   6
   3 -12   0 4711.19 647.202   6
   3 -12   1 1605.40 469.961   6
   3 -12   2 8878.08 821.397   6
   3 -12   3 1900.07 498.822   6
   3 -12   4 4993.64 652.026   6
   3 -12   5 6616.68 725.308   6
   2  12  -7 1947.38 491.869   2
   2  12  -6 1328.12 426.448   2
   2  12  -5 2597.27 505.571   2
   2  12  -4 750.480 314.071   5
   2  12  -4 398.702 356.436   2
   2  12  -3 4401.18 629.826   2
   2  12  -3 4035.61 502.896   5
   2  12  -2 102.461 297.995   5
   2  12  -2 1593.70 437.368   2
   2  12  -1 2173.39 454.828   5
   2  12  -1 2674.84 524.142   2
   2  12   0 2067.41 460.163   5
   2  12   0 1672.03 485.512   2
   2  11 -10 4030.81 566.035   2
   2  11  -9 3522.49 556.112   2
   2  11  -8 3764.02 581.194   2
   2  11  -7 3950.96 575.079   2
   2  11  -6 2675.35 536.458   2
   2  11  -5 7059.27 584.711   5
   2  11  -5 6123.03 684.786   2
   2  11  -4 2018.06 375.945   5
   2  11  -4 1402.95 402.693   2
   2  11  -3 183.553 279.258   5
   2  11  -3 733.668 397.270   2
   2  11  -2 1449.97 371.755   5
   2  11  -2 1634.43 476.071   2
   2  11  -1 6481.88 710.729   2
   2  11  -1 7954.55 716.707   5
   2  11   0 1714.64 425.871   5
   2  11   0 2212.93 521.964   2
   2  11   1 3609.56 548.282   5
   2  11   1 4872.43 643.283   2
   2  11   2 3072.34 574.046   2
   2  11   2 3191.47 552.041   5
   2  11   3 4335.08 637.072   2
   2  11   3 3881.56 576.970   5
   2  10 -11 3488.22 550.578   2
   2  10 -10 491.601 342.359   2
   2  10  -9 7762.11 737.371   2
   2  10  -8 1663.44 421.149   2
   2  10  -7 3624.03 562.706   2
   2  10  -6 5772.76 509.243   5
   2  10  -6 5172.81 627.535   2
   2  10  -5 9958.12 676.441   5
   2  10  -5 10278.4 840.076   2
   2  10  -4 4953.64 625.568   2
   2  10  -4 5971.67 557.183   5
   2  10  -3 1412.15 362.000   5
   2  10  -3 1813.02 460.812   2
   2  10  -2 1527.60 381.158   5
   2  10  -2 1904.43 468.331   2
   2  10  -1 8345.51 783.282   2
   2  10  -1 7161.36 668.743   5
   2  10   0 9332.32 815.929   2
   2  10   0 8640.21 748.785   5
   2  10   1 2503.27 528.712   2
   2  10   1 2067.92 453.592   5
   2  10   2 2800.21 534.922   2
   2  10   2 3325.81 540.872   5
   2  10   3 3710.68 594.504   2
   2  10   3 3889.72 580.102   5
   2  10   4 2974.82 521.716   5
   2  10   4 4857.76 652.533   2
   2  10   5 1866.93 499.435   2
   2  10   5 2129.66 483.713   5
   2   9 -11 150.634 300.452   2
   2   9 -10 2831.84 478.856   2
   2   9  -9 2005.15 458.231   2
   2   9  -8 492.860 340.978   2
   2   9  -7 3459.76 363.603   5
   2   9  -7 2772.52 480.900   2
   2   9  -6 3906.11 410.338   5
   2   9  -6 4971.98 572.583   2
   2   9  -5 17066.9 862.600   5
   2   9  -5 17092.6 1035.79   2
   2   9  -4 9980.41 791.637   2
   2   9  -4 11175.5 707.706   5
   2   9  -3 18754.1 1098.26   2
   2   9  -3 19728.3 995.539   5
   2   9  -2 17746.4 1040.13   2
   2   9  -2 16540.6 942.758   5
   2   9  -1 10910.4 827.771   2
   2   9  -1 9729.70 740.854   5
   2   9   0 17622.0 1066.67   2
   2   9   0 18155.6 1031.75   5
   2   9   1 6560.61 690.165   2
   2   9   1 6418.12 649.880   5
   2   9   2 3153.48 525.867   2
   2   9   2 3819.65 529.379   5
   2   9   3 374.228 330.471   5
   2   9   3 728.471 383.399   2
   2   9   4 1619.65 407.986   5
   2   9   4 1476.42 454.080   2
   2   9   5 3604.15 603.555   2
   2   9   5 2269.66 481.777   5
   2   9   6 343.096 380.747   5
   2   9   6 639.718 411.389   2
   2   9   7 3408.88 553.352   5
   2   9   7 4588.63 658.608   2
   2   8 -10-24.5117 301.453   2
   2   8  -9 3190.24 507.301   2
   2   8  -8 8605.72 730.927   2
   2   8  -7 2175.46 284.320   5
   2   8  -7 2156.18 436.230   2
   2   8  -6 18782.2 842.168   5
   2   8  -6 19139.4 1063.25   2
   2   8  -5 11594.4 666.411   5
   2   8  -5 12966.5 839.687   2
   2   8  -4 20058.3 1065.54   2
   2   8  -4 21590.5 966.942   5
   2   8  -3 4372.82 539.394   2
   2   8  -3 4053.41 455.166   5
   2   8  -2 23585.3 1174.96   2
   2   8  -2 23207.2 1078.35   5
   2   8  -1 5854.69 551.711   5
   2   8  -1 6415.06 626.075   2
   2   8   0 27698.1 1310.29   2
   2   8   0 26350.8 1225.72   5
   2   8   1 12068.1 855.648   2
   2   8   1 12344.4 820.328   5
   2   8   2 13732.3 916.013   2
   2   8   2 13076.8 882.162   5
   2   8   3 10030.7 824.664   2
   2   8   3 8921.03 747.559   5
   2   8   4 1082.54 431.670   2
   2   8   4 316.403 327.959   5
   2   8   5 6852.75 745.431   2
   2   8   5 6677.88 680.181   5
   2   8   6 3871.47 574.868   2
   2   8   6 3047.90 526.089   5
   2   8   7 2626.91 516.275   2
   2   8   7 1684.36 437.720   5
   2   8   8 1786.14 485.777   2
   2   8   8 714.740 385.004   5
   2   7 -10 1470.96 388.710   2
   2   7  -9 10049.1 778.556   2
   2   7  -8 5283.80 577.239   2
   2   7  -8 6025.42 385.213   5
   2   7  -7 30630.1 1381.92   2
   2   7  -7 34045.1 1104.09   5
   2   7  -6 5489.73 399.047   5
   2   7  -6 4759.73 525.454   2
   2   7  -5 26475.7 996.040   5
   2   7  -5 25290.7 1177.75   2
   2   7  -4 6167.19 560.695   2
   2   7  -4 7808.21 514.018   5
   2   7  -3 25778.6 1179.76   2
   2   7  -3 27909.7 1098.69   5
   2   7  -2 388.927 260.911   5
   2   7  -2 566.983 317.433   2
   2   7  -1 28709.5 1247.21   2
   2   7  -1 28232.6 1175.06   5
   2   7   0 8549.55 692.828   2
   2   7   0 8855.37 652.267   5
   2   7   1 30504.1 1320.86   2
   2   7   1 29408.3 1266.98   5
   2   7   2 5339.60 374.801   7
   2   7   2 5926.55 585.292   2
   2   7   2 4906.25 535.678   5
   2   7   3 32787.7 1091.67   7
   2   7   3 33157.1 1436.34   2
   2   7   4 7257.51 502.965   7
   2   7   4 7697.30 696.397   2
   2   7   4 7834.47 670.148   5
   2   7   5 10618.8 624.790   7
   2   7   5 9820.41 803.105   2
   2   7   5 9701.87 778.677   5
   2   7   6 2083.26 338.340   7
   2   7   7 7078.64 568.937   7
   2   7   8 4670.27 491.931   7
   2   7   9 553.942 368.503   5
   2   7  10 2608.14 504.065   5
   2   6 -14 5624.39 652.114   1
   2   6 -13 1685.75 444.675   1
   2   6 -12 10296.3 818.176   1
   2   6 -11 3635.84 522.701   1
   2   6  -9 1351.46 381.789   2
   2   6  -8 21129.9 1073.01   2
   2   6  -7 120.263 135.316   5
   2   6  -7 59.2300 248.464   2
   2   6  -6 39433.1 1186.44   5
   2   6  -6 36056.2 1433.12   2
   2   6  -5 11594.3 558.599   5
   2   6  -5 10597.2 707.293   2
   2   6  -4 3254.39 421.775   2
   2   6  -4 3693.70 336.444   5
   2   6  -3 12362.8 725.784   2
   2   6  -3 11609.0 620.104   5
   2   6  -2 24447.8 1061.06   2
   2   6  -2 25318.3 994.875   5
   2   6  -1 8987.77 627.830   2
   2   6  -1 8478.65 565.514   5
   2   6   0 7938.55 608.877   2
   2   6   0 6306.11 510.838   5
   2   6   1 11989.1 743.226   2
   2   6   1 10914.8 688.349   5
   2   6   2 31563.3 1312.73   2
   2   6   2 31893.1 1054.84   7
   2   6   3 14088.6 676.673   7
   2   6   3 14201.3 885.050   2
   2   6   4 17436.5 797.995   7
   2   6   5 11256.5 667.690   7
   2   6   6 7631.91 575.145   7
   2   6   7 6395.99 566.393   7
   2   6   8 7686.25 646.167   7
   2   6   9 7109.93 633.424   7
   2   6  10 3606.27 520.060   7
   2   6  11 1900.08 450.433   7
   2   5 -14 1991.81 430.496   4
   2   5 -14 2370.69 511.931   1
   2   5 -13 9415.61 810.356   1
   2   5 -13 8790.72 736.477   4
   2   5 -12 567.528 342.305   1
   2   5 -12 159.509 296.575   4
   2   5 -11 17005.2 997.334   4
   2   5 -11 16365.4 987.317   1
   2   5 -10 2354.08 416.164   1
   2   5 -10 1782.39 424.575   4
   2   5  -9 17887.7 981.010   4
   2   5  -9 16647.9 910.309   1
   2   5  -8 2463.10 414.698   4
   2   5  -8 1533.66 358.390   2
   2   5  -8 2111.91 369.687   1
   2   5  -7 61266.1 1995.19   2
   2   5  -7 60740.9 1895.10   1
   2   5  -6 6787.16 359.303   5
   2   5  -6 7580.38 587.070   2
   2   5  -5 19910.7 705.504   5
   2   5  -5 18587.1 902.690   2
   2   5  -4 3330.46 388.699   2
   2   5  -4 3952.16 300.116   5
   2   5  -3 1340.40 214.641   5
   2   5  -3 1729.84 318.119   2
   2   5  -2 4064.98 399.050   2
   2   5  -2 3906.63 335.230   5
   2   5  -1 6787.99 506.932   2
   2   5  -1 7043.24 460.415   5
   2   5   0 3704.47 404.194   2
   2   5   0 4088.71 377.483   5
   2   5   1 851.891 295.896   2
   2   5   1 645.447 184.523   7
   2   5   2 18378.7 745.869   7
   2   5   2 20572.2 944.147   2
   2   5   3 18014.7 770.790   7
   2   5   4 49757.3 1576.58   7
   2   5   5 5476.14 475.334   7
   2   5   6 15466.3 827.878   7
   2   5   7 5898.95 556.075   7
   2   5   8 16816.5 951.696   7
   2   5   9 220.444 295.831   7
   2   5  10 10294.1 799.690   7
   2   5  11 2684.37 509.547   7
   2   5  12 1395.31 401.351   7
   2   4 -15 1166.19 445.343   1
   2   4 -14 5370.95 542.400   4
   2   4 -14 4708.61 641.054   1
   2   4 -13 1906.62 386.848   4
   2   4 -13 1969.53 464.469   1
   2   4 -12 1353.63 358.886   4
   2   4 -12 1519.47 379.901   1
   2   4 -11 16076.9 911.612   4
   2   4 -11 14267.8 894.559   1
   2   4 -10 9886.78 708.201   4
   2   4 -10 9666.00 706.418   1
   2   4  -9 13909.3 820.323   1
   2   4  -9 14798.3 842.664   4
   2   4  -8 62623.3 2019.17   1
   2   4  -8 68639.6 2091.85   4
   2   4  -7 43840.0 1528.61   4
   2   4  -7 42600.8 1462.47   1
   2   4  -7 43712.7 1542.51   2
   2   4  -6 64391.3 1955.09   2
   2   4  -6 63976.7 1862.96   1
   2   4  -6 62420.1 1565.85   5
   2   4  -6 64297.7 1790.64   3
   2   4  -5 19245.3 609.155   5
   2   4  -5 17781.7 837.306   2
   2   4  -5 19182.4 771.463   1
   2   4  -5 18412.8 762.711   3
   2   4  -4 33786.5 1191.46   2
   2   4  -4 33886.7 1145.58   3
   2   4  -4 34592.9 975.494   5
   2   4  -3 11124.3 590.880   2
   2   4  -3 11050.4 473.126   5
   2   4  -2 2756.96 203.301   6
   2   4  -2 2526.51 239.178   5
   2   4  -2 2596.71 307.523   2
   2   4  -1 14235.4 678.286   2
   2   4   0 24869.9 953.966   2
   2   4   1 24048.5 943.636   2
   2   4   1 23075.7 808.850   7
   2   4   2 1471.66 305.293   2
   2   4   2 1465.70 233.155   7
   2   4   3 78542.2 2133.64   7
   2   4   4 20236.8 868.591   7
   2   4   5 74859.9 2196.58   7
   2   4   6 17086.6 877.957   7
   2   4   7 19679.1 987.949   7
   2   4   8 3975.17 488.045   7
   2   4   9 14742.7 935.817   7
   2   4  10 5803.75 639.849   7
   2   4  11 2439.13 469.316   7
   2   4  12 8262.20 777.197   7
   2   3 -15 5539.98 655.900   1
   2   3 -14 3040.48 550.677   1
   2   3 -13 7408.42 599.732   4
   2   3 -13 7657.68 731.180   1
   2   3 -12 9905.40 778.098   1
   2   3 -12 10284.2 699.415   4
   2   3 -11 10634.5 785.904   1
   2   3 -11 12423.6 753.075   4
   2   3 -10 15951.1 910.486   1
   2   3 -10 15655.3 848.972   4
   2   3  -9 36415.2 1390.39   1
   2   3  -9 35062.4 1333.55   4
   2   3  -8 4381.79 443.094   4
   2   3  -8 4325.50 456.130   1
   2   3  -8 3626.69 289.885   3
   2   3  -7 40953.9 1383.04   4
   2   3  -7 40754.7 1372.37   1
   2   3  -7 39597.2 1197.06   3
   2   3  -6 17877.9 788.558   4
   2   3  -6 17547.3 764.706   1
   2   3  -6 17209.5 817.823   2
   2   3  -6 17911.2 682.505   3
   2   3  -5 18781.7 820.418   2
   2   3  -5 18694.4 749.381   1
   2   3  -5 18610.4 715.980   3
   2   3  -4 92381.1 2125.62   5
   2   3  -4 94957.4 2451.51   2
   2   3  -4 92378.1 2317.17   1
   2   3  -4 92330.2 2348.26   3
   2   3  -3 53067.6 1432.60   1
   2   3  -3 55266.3 1578.64   2
   2   3  -3 55619.7 1362.38   5
   2   3  -2 89511.9 2312.29   2
   2   3  -2 93035.7 2092.79   6
   2   3  -2 86936.8 2156.98   5
   2   3  -1 5231.89 368.550   2
   2   3  -1 5472.84 261.913   6
   2   3   0 48949.1 1430.06   2
   2   3   0 49549.6 1340.91   7
   2   3   0 49317.5 1272.79   6
   2   3   1 105228. 2579.55   7
   2   3   1 99932.5 2634.56   2
   2   3   2 45232.4 1334.43   7
   2   3   2 45009.8 1315.48   3
   2   3   3 43366.3 1345.92   7
   2   3   4 10418.4 592.061   7
   2   3   5 29555.8 1139.47   7
   2   3   6 27832.7 1162.53   7
   2   3   7 16889.4 913.925   7
   2   3   8 18256.2 995.069   7
   2   3   9 17217.1 1020.93   7
   2   3  10 5907.19 634.595   7
   2   3  11 5257.61 630.594   7
   2   3  12 6429.88 709.414   7
   2   3  13 1369.78 447.986   7
   2   2 -15 1390.91 498.236   1
   2   2 -14 5803.07 674.371   1
   2   2 -13 790.671 353.063   1
   2   2 -12 230.574 244.890   4
   2   2 -12 95.9081 308.564   1
   2   2 -11 660.258 260.043   4
   2   2 -11 553.639 304.467   1
   2   2 -10 6804.76 594.578   1
   2   2 -10 7219.75 532.219   4
   2   2  -9 12077.1 731.182   1
   2   2  -9 13136.7 668.133   4
   2   2  -9 11013.1 445.427   3
   2   2  -8 1313.83 175.485   3
   2   2  -8 983.851 241.489   4
   2   2  -8 1217.11 308.572   1
   2   2  -7 10675.9 621.659   1
   2   2  -7 10442.0 571.020   4
   2   2  -7 10823.8 459.742   3
   2   2  -6 2521.00 283.450   4
   2   2  -6 2209.62 210.512   3
   2   2  -6 2450.48 293.999   1
   2   2  -5 35270.2 1123.85   4
   2   2  -5 35813.0 1203.29   2
   2   2  -5 36665.6 1131.06   1
   2   2  -5 35666.6 1040.01   3
   2   2  -4 119386. 2822.30   3
   2   2  -4 117219. 2945.83   2
   2   2  -4 118018. 2839.79   1
   2   2  -3 46625.5 1272.42   2
   2   2  -3 45191.8 1154.36   1
   2   2  -3 47276.5 1210.19   3
   2   2  -2 88911.4 2045.76   1
   2   2  -2 89926.3 2195.89   2
   2   2  -2 87677.9 1963.79   6
   2   2  -1 181351. 4076.18   2
   2   2  -1 175860. 3898.96   6
   2   2   0 41321.8 1175.11   7
   2   2   0 41972.9 1191.64   2
   2   2   0 44773.6 1095.06   6
   2   2   1 96527.0 2462.83   2
   2   2   1 102087. 2480.66   7
   2   2   1 106293. 2402.95   6
   2   2   1 101451. 2458.60   3
   2   2   2 96049.3 2411.51   7
   2   2   2 96310.5 2322.12   3
   2   2   3 72057.5 1928.16   7
   2   2   3 69552.5 1769.02   3
   2   2   4 2680.34 303.109   7
   2   2   5 10321.5 611.268   7
   2   2   6 1910.46 324.786   7
   2   2   7 2961.06 415.558   7
   2   2   8 11053.6 762.193   7
   2   2   9 1517.98 401.294   7
   2   2  10 1448.28 416.603   7
   2   2  11 1629.78 427.111   7
   2   2  12 7815.03 765.533   7
   2   2  13 857.232 424.125   7
   2   1 -15 3890.20 606.292   1
   2   1 -14 4993.24 637.305   1
   2   1 -13 6275.08 665.653   1
   2   1 -12 3853.95 387.174   4
   2   1 -12 3602.34 508.233   1
   2   1 -11 2223.08 416.560   1
   2   1 -11 2544.65 317.206   4
   2   1 -10 2291.37 401.395   1
   2   1 -10 3149.96 347.121   4
   2   1  -9 1185.39 309.448   1
   2   1  -9 1546.59 150.803   3
   2   1  -8 9862.98 529.759   4
   2   1  -8 9530.81 624.804   1
   2   1  -8 9103.27 378.956   3
   2   1  -7 16138.0 666.940   4
   2   1  -7 16296.9 774.114   1
   2   1  -7 15249.9 540.968   3
   2   1  -6 16062.0 635.762   4
   2   1  -6 15296.3 691.364   1
   2   1  -6 16260.3 562.601   3
   2   1  -5 30666.7 928.594   4
   2   1  -5 29064.9 980.838   1
   2   1  -5 29990.3 877.823   3
   2   1  -4 26859.1 862.649   1
   2   1  -4 28375.5 828.665   3
   2   1  -3 122702. 2753.25   8
   2   1  -3 117876. 2895.58   2
   2   1  -3 117907. 2803.19   1
   2   1  -3 119118. 2836.19   3
   2   1  -2 13052.5 418.583   1
   2   1  -2 13388.8 500.046   2
   2   1  -1 19961.1 493.727   1
   2   1  -1 20715.6 621.984   2
   2   1   0 49923.6 1285.17   7
   2   1   0 47267.8 1212.90   2
   2   1   1 11637.1 327.687   1
   2   1   1 12590.7 501.194   7
   2   1   1 11863.2 428.919   2
   2   1   2 130258. 2966.27   8
   2   1   2 125870. 2868.12   1
   2   1   2 125984. 3068.13   7
   2   1   2 124050. 2928.06   3
   2   1   3 8935.03 475.213   7
   2   1   3 8162.37 342.288   1
   2   1   3 8281.08 357.821   8
   2   1   3 8157.13 334.894   3
   2   1   4 45436.9 1187.69   8
   2   1   4 45702.7 1416.28   7
   2   1   4 44339.3 1138.45   3
   2   1   5 14631.4 725.285   7
   2   1   6 18043.7 862.203   7
   2   1   7 4838.84 485.433   7
   2   1   8 559.990 268.615   7
   2   1   9 35.7273 300.403   7
   2   1  10 4432.87 554.597   7
   2   1  11 2200.41 445.471   7
   2   1  12 2963.08 545.131   7
   2   1  13 6399.39 744.077   7
   2   0 -15 3490.66 563.284   1
   2   0 -14 2234.90 476.124   1
   2   0 -13 2523.10 505.021   1
   2   0 -12 4960.18 575.534   1
   2   0 -11 12566.4 604.383   4
   2   0 -11 12207.5 840.050   1
   2   0 -10 20422.7 773.520   4
   2   0 -10 17610.9 966.312   1
   2   0  -9 13539.0 606.667   4
   2   0  -9 13977.1 808.583   1
   2   0  -9 13738.0 463.274   3
   2   0  -8 68.6262 147.395   4
   2   0  -8 307.088 257.123   1
   2   0  -8 137.422 108.876   3
   2   0  -7 51140.1 1384.09   4
   2   0  -7 50415.0 1324.33   3
   2   0  -7 50152.8 1598.99   1
   2   0  -6 16061.6 571.354   4
   2   0  -6 16868.0 580.335   3
   2   0  -6 16061.4 733.206   1
   2   0  -5 58370.8 1479.24   3
   2   0  -5 59798.4 1439.46   4
   2   0  -5 55363.6 1304.53   8
   2   0  -5 58228.4 1617.01   1
   2   0  -4 13270.7 394.123   8
   2   0  -4 12895.5 489.542   3
   2   0  -4 13009.7 554.751   1
   2   0  -3 11593.9 475.205   1
   2   0  -3 11622.9 380.243   8
   2   0  -3 11735.4 451.692   3
   2   0  -2 412379. 8536.81   8
   2   0  -2 402362. 8562.39   1
   2   0  -2 382225. 8463.86   6
   2   0  -2 389509. 8461.88   5
   2   0  -1 1540.25 123.911   5
   2   0  -1 1778.80 149.192   2
   2   0  -1 1432.22 106.088   6
   2   0   0 7483.88 245.000   2
   2   0   0 7327.12 338.029   7
   2   0   1 376582. 7849.23   7
   2   0   1 349201. 7662.70   2
   2   0   2 18641.7 665.240   7
   2   0   2 18992.4 568.607   3
   2   0   2 18533.0 590.887   8
   2   0   2 18768.7 536.770   1
   2   0   3 17222.0 567.796   8
   2   0   3 18336.5 703.718   7
   2   0   3 17983.6 559.915   1
   2   0   3 18281.2 528.169   3
   2   0   4 41543.9 1092.13   8
   2   0   4 43335.7 1312.17   7
   2   0   4 40150.7 1002.74   3
   2   0   5 22092.7 648.435   8
   2   0   5 23046.4 905.921   7
   2   0   6 54263.1 1731.15   7
   2   0   6 54215.8 1372.95   8
   2   0   7 1948.72 347.841   7
   2   0   8 14899.3 857.139   7
   2   0   9 13057.4 862.014   7
   2   0  10 16046.9 984.682   7
   2   0  11 5998.65 652.089   7
   2   0  12 2799.06 524.287   7
   2   0  13 6059.62 707.178   7
   2   0  14 2261.92 525.262   7
   2  -1 -14 782.667 416.215   1
   2  -1 -13 3363.44 525.605   1
   2  -1 -12 4652.63 603.623   1
   2  -1 -11 19270.9 1072.28   1
   2  -1 -10 7455.53 389.446   4
   2  -1 -10 7741.60 668.757   1
   2  -1  -9 39523.4 1085.00   4
   2  -1  -9 36879.7 1023.27   3
   2  -1  -8 20273.7 668.771   4
   2  -1  -8 21117.5 685.886   3
   2  -1  -8 19800.2 953.037   1
   2  -1  -7 32399.9 884.914   4
   2  -1  -7 30529.7 938.675   3
   2  -1  -7 31677.0 1196.96   1
   2  -1  -6 56148.7 1198.62   4
   2  -1  -6 54326.4 1556.83   1
   2  -1  -5 2882.36 147.076   8
   2  -1  -5 2970.15 339.157   1
   2  -1  -4 44334.7 1297.08   1
   2  -1  -4 43085.8 1062.72   8
   2  -1  -3 12961.2 419.630   8
   2  -1  -3 12812.8 547.797   1
   2  -1  -3 12663.1 487.477   6
   2  -1  -2 43659.7 1087.26   8
   2  -1  -2 41571.0 1101.10   6
   2  -1  -2 41928.6 1076.52   5
   2  -1  -1 1166.08 135.367   5
   2  -1  -1 1178.68 147.293   6
   2  -1   0 89.1245 105.005   5
   2  -1   0 160.024 91.8355   9
   2  -1   1 11332.0 426.883   5
   2  -1   1 11160.7 335.214   9
   2  -1   1 10983.2 432.785   7
   2  -1   2 57551.9 1358.00   1
   2  -1   2 55404.6 1455.17   7
   2  -1   2 53053.1 1243.19   2
   2  -1   2 57344.3 1433.17   5
   2  -1   3 13823.6 497.398   8
   2  -1   3 14092.8 485.457   1
   2  -1   3 12871.8 561.628   7
   2  -1   4 28913.2 838.523   8
   2  -1   4 28250.8 763.874   3
   2  -1   4 29297.7 1004.49   7
   2  -1   5 40781.2 1276.21   7
   2  -1   5 36027.7 900.827   3
   2  -1   6 19540.0 855.502   7
   2  -1   6 15985.0 446.454   9
   2  -1   7 57501.9 1759.50   7
   2  -1   7 49243.8 1211.18   9
   2  -1   8 1585.95 141.895   9
   2  -1   8 1366.03 347.157   7
   2  -1   9 28928.9 802.390   9
   2  -1   9 30223.6 1325.13   7
   2  -1  10 3480.26 513.077   7
   2  -1  11 13584.8 951.065   7
   2  -1  12 1874.13 457.537   7
   2  -1  13 3057.95 583.787   7
   2  -1  14 1079.90 436.433   7
   2  -2 -14 707.922 376.122   1
   2  -2 -13 3671.91 557.401   1
   2  -2 -12 4056.89 572.034   1
   2  -2 -11 847.972 370.738   1
   2  -2 -10 36776.2 1514.08   1
   2  -2  -9 3615.51 267.140   3
   2  -2  -9 3508.18 467.836   1
   2  -2  -8 51030.0 1244.42   4
   2  -2  -8 52142.4 1754.59   1
   2  -2  -7 21046.9 535.433   4
   2  -2  -7 22146.6 974.602   1
   2  -2  -6 26724.2 1051.54   1
   2  -2  -6 24653.8 662.322   8
   2  -2  -5 28264.6 1054.82   1
   2  -2  -4 2668.28 329.606   1
   2  -2  -4 2274.78 264.060   6
   2  -2  -3 79754.6 2058.54   6
   2  -2  -2 4297.46 303.062   6
   2  -2  -2 4494.80 268.182   5
   2  -2  -1 64742.3 1550.14   4
   2  -2  -1 66995.3 1702.84   6
   2  -2  -1 69389.4 1665.01   5
   2  -2   0 108984. 2571.43   9
   2  -2   0 113415. 2564.78   4
   2  -2   0 109438. 2657.33   6
   2  -2   0 112537. 2618.42   5
   2  -2   1 62822.0 1539.16   5
   2  -2   1 61532.2 1476.45   7
   2  -2   2 4163.59 170.873   2
   2  -2   2 4614.51 271.810   7
   2  -2   2 4063.76 189.455   9
   2  -2   3 77590.4 1692.72   2
   2  -2   3 74696.1 1873.35   7
   2  -2   4 3039.21 295.536   7
   2  -2   4 3285.30 198.387   2
   2  -2   5 23617.5 672.440   2
   2  -2   5 22864.0 880.490   7
   2  -2   6 18027.1 498.713   9
   2  -2   6 23416.2 911.480   7
   2  -2   7 20609.4 519.089   9
   2  -2   7 19527.9 469.580   3
   2  -2   8 42748.0 1081.01   9
   2  -2   8 52062.0 1683.99   7
   2  -2   9 2921.97 175.427   9
   2  -2   9 3183.39 448.316   7
   2  -2  10 50495.0 1893.58   7
   2  -2  11 808.162 357.719   7
   2  -2  12 5420.91 649.562   7
   2  -2  13 5267.99 651.672   7
   2  -2  14 1597.51 464.148   7
   2  -3 -14 2316.25 482.571   1
   2  -3 -13 3487.92 546.106   1
   2  -3 -12 2152.16 489.556   1
   2  -3 -11 12075.4 866.892   1
   2  -3 -10 1918.85 408.995   1
   2  -3  -9 24598.8 1187.62   1
   2  -3  -8 541.322 321.154   1
   2  -3  -7 10546.9 709.290   1
   2  -3  -6 6216.37 544.266   1
   2  -3  -5 62248.8 1888.27   1
   2  -3  -5 60590.6 1838.79   6
   2  -3  -4 2287.55 310.662   6
   2  -3  -3 8824.82 502.916   6
   2  -3  -2 38509.3 952.513   4
   2  -3  -2 40611.6 1228.52   6
   2  -3  -1 326009. 7001.72   4
   2  -3  -1 308208. 7236.44   6
   2  -3   0 72331.0 1724.65   4
   2  -3   0 66528.7 1849.03   6
   2  -3   1 453641. 9576.40   9
   2  -3   1 432068. 9494.96   7
   2  -3   1 430312. 9738.51   6
   2  -3   2 13524.6 433.306   2
   2  -3   2 13327.6 479.120   7
   2  -3   2 13622.7 470.323   9
   2  -3   3 40532.3 1141.35   7
   2  -3   3 41034.9 1032.60   2
   2  -3   3 39669.3 1036.39   9
   2  -3   4 23547.6 832.113   7
   2  -3   4 23516.3 682.192   2
   2  -3   5 26781.0 969.494   7
   2  -3   6 49801.2 1569.10   7
   2  -3   7 7949.48 553.211   7
   2  -3   7 7088.95 296.296   9
   2  -3   8 2982.24 187.984   9
   2  -3   8 3809.91 438.118   7
   2  -3   9 8601.80 334.063   9
   2  -3   9 11845.5 753.672   7
   2  -3  10 16352.5 958.915   7
   2  -3  11 4090.68 531.409   7
   2  -3  12 10143.5 834.689   7
   2  -3  13 4300.83 604.432   7
   2  -3  14 4215.33 595.985   7
   2  -4 -13 4039.91 592.294   1
   2  -4 -12 5492.74 658.315   1
   2  -4 -11 4965.18 613.054   1
   2  -4 -10 2533.69 479.832   1
   2  -4  -9 612.940 361.090   1
   2  -4  -8 2714.99 464.316   1
   2  -4  -7 17644.2 967.425   1
   2  -4  -6 10710.5 716.620   1
   2  -4  -5 25699.2 1112.60   1
   2  -4  -5 25976.6 1081.65   6
   2  -4  -4 49154.2 1151.20   4
   2  -4  -4 76164.6 1869.17   6
   2  -4  -3 13767.8 413.755   4
   2  -4  -3 14994.4 735.967   6
   2  -4  -2 125732. 2851.58   4
   2  -4  -2 125742. 3209.31   6
   2  -4  -1 23437.6 696.529   4
   2  -4  -1 22271.8 896.182   6
   2  -4   0 18980.0 809.818   6
   2  -4   1 16378.0 730.886   6
   2  -4   2 22454.8 653.897   7
   2  -4   2 23258.0 905.763   6
   2  -4   3 123987. 2958.52   7
   2  -4   3 127798. 3248.25   6
   2  -4   3 129483. 2927.60   2
   2  -4   4 31069.3 973.937   7
   2  -4   5 43435.2 1321.03   7
   2  -4   6 26782.3 1008.11   7
   2  -4   7 5514.98 456.154   7
   2  -4   8 16619.6 840.392   7
   2  -4   8 14413.5 522.468   9
   2  -4   9 5253.48 507.432   7
   2  -4  10 396.493 308.079   7
   2  -4  11 546.309 316.073   7
   2  -4  12 4637.14 565.982   7
   2  -4  13 11904.8 891.632   7
   2  -4  14 2992.92 541.524   7
   2  -5 -12 801.282 431.144   1
   2  -5 -11 16941.3 1067.29   1
   2  -5 -10 157.007 325.879   1
   2  -5  -9 631.452 371.755   1
   2  -5  -8 8304.31 714.407   1
   2  -5  -7 290.443 356.515   1
   2  -5  -6 4406.23 515.542   1
   2  -5  -6 3539.68 468.533   6
   2  -5  -5 6410.91 579.663   6
   2  -5  -4 13605.6 778.275   6
   2  -5  -4 11937.8 374.393   4
   2  -5  -3 5587.24 256.270   4
   2  -5  -3 5821.46 518.142   6
   2  -5  -2 117753. 2730.82   4
   2  -5  -2 119698. 3157.05   6
   2  -5  -1 11171.0 657.594   6
   2  -5   0 103236. 2802.58   6
   2  -5   1 41606.0 1443.81   6
   2  -5   2 52198.7 1250.37   7
   2  -5   2 57833.4 1722.86   6
   2  -5   3 76228.7 1848.45   7
   2  -5   3 78453.4 2241.53   6
   2  -5   4 22514.6 750.145   7
   2  -5   4 23275.4 1002.68   6
   2  -5   5 20212.5 755.013   7
   2  -5   6 3024.90 314.073   7
   2  -5   7 4770.01 411.653   7
   2  -5   8 692.336 269.355   7
   2  -5   9 2781.22 392.465   7
   2  -5  10 1650.22 356.420   7
   2  -5  11 1906.89 387.558   7
   2  -5  12 10563.7 789.016   7
   2  -5  13 3184.20 515.899   7
   2  -5  14 13192.7 927.610   7
   2  -6 -12 3625.79 579.097   1
   2  -6 -11 2896.91 569.265   1
   2  -6 -10 1446.14 424.333   1
   2  -6  -9 2498.94 503.454   1
   2  -6  -8 380.581 378.627   1
   2  -6  -7 15666.8 986.813   1
   2  -6  -6 8022.93 698.035   1
   2  -6  -6 7533.83 670.913   6
   2  -6  -5 24791.7 1180.83   6
   2  -6  -4 33628.3 1395.69   6
   2  -6  -3 15210.9 886.287   6
   2  -6  -2 43635.3 1580.23   6
   2  -6  -1 58543.0 1894.14   6
   2  -6   0 6284.22 536.290   6
   2  -6   1 77621.5 2311.03   6
   2  -6   2 35958.0 1370.90   6
   2  -6   3 28809.8 765.838   7
   2  -6   3 34759.9 1258.11   6
   2  -6   4 54293.4 1405.02   7
   2  -6   4 57822.5 1857.88   6
   2  -6   5 28177.1 903.965   7
   2  -6   5 28242.1 1211.20   6
   2  -6   6 16377.8 682.551   7
   2  -6   6 16129.1 882.494   6
   2  -6   7 40306.8 1320.40   7
   2  -6   8 3967.22 392.635   7
   2  -6   9 13064.4 739.423   7
   2  -6  10 4804.66 488.457   7
   2  -6  11 3237.07 443.890   7
   2  -6  12 2801.30 452.167   7
   2  -6  13 4964.16 565.452   7
   2  -6  14 1710.57 411.645   7
   2  -7 -11 3485.05 575.589   1
   2  -7 -10 25536.0 1340.21   1
   2  -7  -9 1576.78 520.413   1
   2  -7  -8 27468.3 1380.03   1
   2  -7  -7 17114.6 1066.81   1
   2  -7  -6 8259.12 752.534   1
   2  -7  -6 6151.38 669.549   6
   2  -7  -5 34042.4 1512.89   6
   2  -7  -4 4412.47 533.053   6
   2  -7  -3 1210.88 359.116   6
   2  -7  -2 2104.97 391.572   6
   2  -7  -1 14088.3 834.961   6
   2  -7   0 28992.3 1252.28   6
   2  -7   1 1842.29 369.554   6
   2  -7   2 38023.0 1490.72   6
   2  -7   3 5878.50 558.775   6
   2  -7   4 4178.94 207.918   7
   2  -7   4 4942.26 508.789   6
   2  -7   5 176.138 115.415   7
   2  -7   5 421.346 292.855   6
   2  -7   6 1806.30 225.126   7
   2  -7   6 2306.79 404.415   6
   2  -7   7 30486.5 1049.80   7
   2  -7   7 33045.2 1395.69   6
   2  -7   8 760.510 240.198   7
   2  -7   8 532.091 298.264   6
   2  -7   9 31641.4 1190.71   7
   2  -7   9 30884.7 1413.93   6
   2  -7  10 18926.2 909.540   7
   2  -7  11 4119.18 465.254   7
   2  -7  12 26730.1 1202.07   7
   2  -7  13 1762.64 395.128   7
   2  -7  14 7295.45 636.402   7
   2  -8 -10 5315.85 668.477   1
   2  -8  -9 4984.05 639.096   1
   2  -8  -8 7519.55 739.750   1
   2  -8  -7 24979.4 1315.63   1
   2  -8  -6 10148.5 831.872   1
   2  -8  -6 9650.46 827.732   6
   2  -8  -5 24518.3 1303.18   6
   2  -8  -4 8553.74 756.882   6
   2  -8  -3 25662.2 1287.33   6
   2  -8  -2 18997.1 1091.89   6
   2  -8  -1 5454.65 582.661   6
   2  -8   0 20867.3 1096.13   6
   2  -8   1 2484.97 449.297   6
   2  -8   2 4478.03 518.706   6
   2  -8   3 10919.9 779.175   6
   2  -8   4 22633.4 1158.84   6
   2  -8   5 4755.05 539.922   6
   2  -8   6 35533.9 1504.07   6
   2  -8   7 1527.50 381.601   6
   2  -8   8 21222.6 1147.41   6
   2  -8   9 17848.3 1063.43   6
   2  -8  10 7554.94 702.586   6
   2  -8  11 11734.9 860.059   6
   2  -8  12 199.713 284.642   6
   2  -8  13 2764.94 459.171   6
   2  -9  -8 6632.04 705.791   1
   2  -9  -7 5387.05 672.663   1
   2  -9  -6 2731.39 525.040   6
   2  -9  -6 4059.59 618.287   1
   2  -9  -5 5426.36 652.851   6
   2  -9  -4 6954.24 735.148   6
   2  -9  -3 6872.66 721.870   6
   2  -9  -2 9613.74 809.285   6
   2  -9  -1 12561.2 908.008   6
   2  -9   0 13945.0 929.742   6
   2  -9   1 6044.16 625.545   6
   2  -9   2 4807.96 568.409   6
   2  -9   3 11865.1 847.030   6
   2  -9   4 12994.3 909.088   6
   2  -9   5 6074.38 626.746   6
   2  -9   6 9177.68 751.284   6
   2  -9   7 6197.07 637.351   6
   2  -9   8 1624.86 414.304   6
   2  -9   9 5541.45 616.028   6
   2  -9  10 4050.66 540.243   6
   2  -9  11 7980.62 725.972   6
   2  -9  12 1831.34 436.095   6
   2 -10  -7 1664.31 506.779   1
   2 -10  -6 3860.61 596.276   1
   2 -10  -5 1165.68 473.088   6
   2 -10  -4 2579.96 529.826   6
   2 -10  -3 3730.32 586.221   6
   2 -10  -2 4510.44 619.602   6
   2 -10  -1 7493.80 757.018   6
   2 -10   0 19524.5 1182.55   6
   2 -10   1 5545.31 660.781   6
   2 -10   2 34734.8 1595.38   6
   2 -10   3 7888.71 755.909   6
   2 -10   4 10676.3 839.877   6
   2 -10   5 12517.3 901.570   6
   2 -10   6 621.735 366.221   6
   2 -10   7 3443.23 524.587   6
   2 -10   8 1918.01 426.243   6
   2 -10   9 910.273 375.461   6
   2 -10  10 2346.08 454.042   6
   2 -10  11 472.667 341.155   6
   2 -11  -4 2837.90 555.319   6
   2 -11  -3 2100.09 499.070   6
   2 -11  -2 5707.23 698.022   6
   2 -11  -1 8612.54 827.891   6
   2 -11   0 1316.92 472.425   6
   2 -11   1 25360.5 1374.06   6
   2 -11   2 567.486 414.650   6
   2 -11   3 25961.4 1363.38   6
   2 -11   4 896.651 385.155   6
   2 -11   5 9171.47 799.625   6
   2 -11   6 4963.36 613.957   6
   2 -11   7 1424.60 415.087   6
   2 -11   8 3053.47 515.565   6
   2 -11   9 657.135 330.895   6
   2 -12  -1 4496.63 656.129   6
   2 -12   0 3602.70 586.562   6
   2 -12   1 1174.58 466.843   6
   2 -12   2 4983.27 664.167   6
   2 -12   3 1222.79 432.409   6
   2 -12   4 5749.44 667.793   6
   2 -12   5 519.409 364.318   6
   2 -12   6 7740.76 734.560   6
   2 -12   7 1821.38 450.098   6
   1  12  -8 730.962 339.628   2
   1  12  -7 2737.06 501.490   2
   1  12  -6 2178.70 453.986   2
   1  12  -5 3468.69 478.070   5
   1  12  -5 4230.16 593.177   2
   1  12  -4 657.635 332.528   5
   1  12  -4 575.366 404.201   2
   1  12  -3 14243.3 947.804   5
   1  12  -3 14857.6 1023.46   2
   1  12  -2 1257.93 392.645   5
   1  12  -2 491.020 378.522   2
   1  12  -1 3713.62 556.536   5
   1  12  -1 5053.27 648.142   2
   1  12   0 2781.51 512.872   5
   1  12   0 2772.26 556.935   2
   1  12   1 3292.28 557.422   5
   1  12   1 3392.03 564.990   2
   1  11 -11 263.592 318.934   2
   1  11 -10 13185.3 924.915   2
   1  11  -9 1922.49 443.264   2
   1  11  -8 7250.68 701.769   2
   1  11  -7 2253.44 445.693   2
   1  11  -6 2216.51 386.792   5
   1  11  -6 2460.04 487.483   2
   1  11  -5 3990.84 487.672   5
   1  11  -5 3940.24 549.623   2
   1  11  -4 7113.78 636.014   5
   1  11  -4 5941.17 664.815   2
   1  11  -3 4805.76 553.431   5
   1  11  -3 4816.31 625.213   2
   1  11  -2 14535.3 1023.59   2
   1  11  -2 16058.5 983.086   5
   1  11  -1 613.143 375.518   5
   1  11  -1 1498.74 462.983   2
   1  11   0 2405.42 476.912   5
   1  11   0 4620.72 616.606   2
   1  11   1 3503.85 556.887   5
   1  11   1 4977.53 655.816   2
   1  11   2 129.272 352.398   2
   1  11   2 1123.32 424.255   5
   1  11   3 7700.82 809.432   2
   1  11   3 7296.99 754.550   5
   1  11   4 2943.47 572.039   2
   1  11   4 2421.38 519.810   5
   1  10 -11 14834.3 958.518   2
   1  10 -10 1506.23 418.125   2
   1  10  -9 19900.4 1134.72   2
   1  10  -8 758.328 348.119   2
   1  10  -7 6553.69 542.181   5
   1  10  -7 5693.13 632.552   2
   1  10  -6 4631.02 481.717   5
   1  10  -6 5175.64 604.779   2
   1  10  -5 4855.00 514.254   5
   1  10  -5 3973.13 546.511   2
   1  10  -4 6359.58 577.349   5
   1  10  -4 6415.01 654.989   2
   1  10  -3 1165.27 338.802   5
   1  10  -3 1421.27 411.237   2
   1  10  -2 694.108 313.076   5
   1  10  -2 432.535 340.484   2
   1  10  -1 4014.63 540.211   5
   1  10  -1 3693.31 535.307   2
   1  10   0 4136.56 556.384   5
   1  10   0 4329.99 572.988   2
   1  10   1 5616.10 668.405   2
   1  10   1 4758.55 590.339   5
   1  10   2 8777.49 819.063   2
   1  10   2 8852.12 782.388   5
   1  10   3 1076.33 407.886   5
   1  10   3 957.510 412.372   2
   1  10   4 23860.0 1347.34   2
   1  10   4 21699.0 1262.70   5
   1  10   5 2260.14 547.484   2
   1  10   5 2637.68 504.937   5
   1  10   6 19849.5 1236.58   2
   1  10   6 20801.3 1245.87   5
   1   9 -10 6636.08 670.847   2
   1   9  -9 3393.75 516.977   2
   1   9  -8 4980.00 444.598   5
   1   9  -8 3433.24 509.371   2
   1   9  -7 2149.35 334.373   5
   1   9  -7 2188.98 427.674   2
   1   9  -6 8374.21 602.376   5
   1   9  -6 7735.11 688.995   2
   1   9  -5 8675.12 624.578   5
   1   9  -5 8633.36 715.823   2
   1   9  -4 3680.26 449.923   5
   1   9  -4 2837.64 467.963   2
   1   9  -3 13954.3 899.259   2
   1   9  -3 15601.8 883.082   5
   1   9  -2 4094.94 551.066   2
   1   9  -2 5200.68 550.317   5
   1   9  -1 7669.32 694.914   2
   1   9  -1 7007.49 650.716   5
   1   9   0 11926.5 882.385   2
   1   9   0 10749.7 800.648   5
   1   9   1 4955.58 591.547   2
   1   9   1 5251.08 601.806   5
   1   9   2 10175.5 837.319   2
   1   9   2 9183.89 768.335   5
   1   9   3 4354.04 594.116   2
   1   9   3 5143.34 607.281   5
   1   9   4 377.672 336.763   5
   1   9   4 1029.04 435.444   2
   1   9   5 8999.93 832.375   2
   1   9   5 8272.33 785.491   5
   1   9   6 332.284 311.996   5
   1   9   6 225.239 361.896   2
   1   9   7 4892.91 641.589   5
   1   9   7 8115.77 792.095   2
   1   8 -12 260.799 365.241   4
   1   8 -11 2071.23 493.024   4
   1   8 -10 6451.65 636.685   2
   1   8  -9 704.405 316.549   2
   1   8  -8 5056.84 419.309   5
   1   8  -8 3646.84 503.247   2
   1   8  -7 3104.02 446.904   2
   1   8  -7 3589.13 377.738   5
   1   8  -6 19648.9 894.582   5
   1   8  -6 18050.9 1020.91   2
   1   8  -5 13132.4 738.144   5
   1   8  -5 13193.4 836.021   2
   1   8  -4 9833.73 638.124   5
   1   8  -4 8738.45 688.243   2
   1   8  -3 1060.12 302.099   5
   1   8  -3 1361.04 351.566   2
   1   8  -2 35273.0 1449.35   2
   1   8  -2 36970.1 1432.12   5
   1   8  -1 1416.42 345.520   5
   1   8  -1 2584.17 490.305   2
   1   8   0 9191.44 711.773   2
   1   8   0 10304.3 733.560   5
   1   8   1 13526.6 885.570   2
   1   8   1 12937.7 842.727   5
   1   8   2 17398.8 1016.84   2
   1   8   2 15501.1 947.184   5
   1   8   3 3234.64 517.180   2
   1   8   3 2541.84 454.839   5
   1   8   4 4867.55 615.954   2
   1   8   4 4443.96 547.601   5
   1   8   5 630.219 354.683   5
   1   8   5 796.552 406.077   2
   1   8   6 6734.39 683.441   5
   1   8   7 2628.23 486.874   5
   1   8   8 1406.01 430.274   5
   1   8   9 2293.95 494.836   5
   1   7 -14 922.631 415.872   4
   1   7 -13 467.731 365.576   4
   1   7 -12 8407.40 796.094   4
   1   7 -11 4476.74 603.753   4
   1   7 -10 108.727 340.939   4
   1   7  -9 1289.11 407.051   4
   1   7  -9 958.193 331.168   2
   1   7  -8 2250.49 294.920   5
   1   7  -8 2497.73 458.511   4
   1   7  -8 2130.63 403.580   2
   1   7  -7 3085.91 485.070   4
   1   7  -7 3414.64 340.961   5
   1   7  -7 2648.31 418.895   2
   1   7  -6 24050.6 1119.13   2
   1   7  -6 24044.3 964.400   5
   1   7  -5 11053.6 618.287   5
   1   7  -5 9586.41 701.003   2
   1   7  -4 19510.2 878.249   5
   1   7  -4 18055.6 942.451   2
   1   7  -3 40271.3 1517.17   2
   1   7  -3 42283.0 1447.07   5
   1   7  -2 7090.21 613.111   2
   1   7  -2 7300.63 565.427   5
   1   7  -1 58952.5 1941.76   2
   1   7  -1 57847.0 1907.52   5
   1   7   0 1961.82 420.576   2
   1   7   0 2154.39 390.878   5
   1   7   1 29446.1 1278.58   2
   1   7   1 28026.2 1235.30   5
   1   7   2 8158.25 400.038   7
   1   7   2 8657.92 691.007   2
   1   7   2 8899.77 664.528   5
   1   7   3 16476.1 648.043   7
   1   7   3 16530.9 963.397   2
   1   7   3 14172.0 900.759   5
   1   7   4 1307.42 361.492   5
   1   7   4 1372.56 242.739   7
   1   7   5 2082.23 403.660   5
   1   7   5 1120.28 245.540   7
   1   7   6 1236.78 273.498   7
   1   7   6 1382.40 409.451   5
   1   7   7 1630.53 335.052   7
   1   7   7 1949.12 402.212   5
   1   7   8 5363.74 508.604   7
   1   7   8 5760.45 643.744   5
   1   7   9 1781.57 439.774   5
   1   7  10 3416.29 545.284   5
   1   6 -15 104.134 337.405   4
   1   6 -14 688.771 366.714   4
   1   6 -13 7012.83 713.152   4
   1   6 -12 4489.51 589.070   4
   1   6 -11 4446.89 588.263   4
   1   6 -10 9403.03 780.836   4
   1   6  -9 2575.76 420.787   2
   1   6  -9 2771.35 478.383   4
   1   6  -8 16930.2 984.657   4
   1   6  -8 16374.2 919.687   2
   1   6  -7 22620.5 848.655   5
   1   6  -7 22173.9 1102.68   4
   1   6  -7 19749.2 1006.15   2
   1   6  -6 12321.2 597.465   5
   1   6  -6 12023.7 776.789   4
   1   6  -6 10661.3 702.646   2
   1   6  -5 27388.7 987.436   5
   1   6  -5 26260.1 1115.26   2
   1   6  -4 14286.5 677.561   5
   1   6  -4 13234.0 746.564   2
   1   6  -3 15309.4 796.163   2
   1   6  -3 15498.5 737.492   5
   1   6  -2 8759.24 594.416   2
   1   6  -2 9151.22 561.818   5
   1   6  -1 6833.33 540.114   2
   1   6  -1 7105.43 517.961   5
   1   6   0 20381.5 956.598   2
   1   6   0 20105.8 918.596   5
   1   6   1 8674.80 635.030   2
   1   6   1 9285.82 622.666   5
   1   6   2 30224.5 951.612   7
   1   6   2 33035.2 1299.71   2
   1   6   2 31997.3 1269.63   5
   1   6   3 10045.3 500.851   7
   1   6   3 9502.08 679.425   5
   1   6   4 26740.8 961.736   7
   1   6   4 24923.8 1168.32   5
   1   6   5 15468.1 735.340   7
   1   6   6 9127.92 590.040   7
   1   6   7 4564.40 465.033   7
   1   6   8 7103.84 594.691   7
   1   6   9 5366.43 551.963   7
   1   6  10 3788.16 486.756   7
   1   6  10 3568.40 534.356   5
   1   6  11 1059.70 367.014   7
   1   6  11 183.274 304.340   5
   1   6  12 168.019 304.275   7
   1   5 -15 969.632 390.327   4
   1   5 -14 2611.72 536.248   1
   1   5 -14 3351.53 502.517   4
   1   5 -13 5463.28 631.279   1
   1   5 -13 5378.88 607.083   4
   1   5 -12 7403.84 687.233   4
   1   5 -12 7175.37 687.842   1
   1   5 -11 12742.3 885.308   1
   1   5 -11 13513.6 897.008   4
   1   5 -10 11568.5 821.344   4
   1   5 -10 10805.3 762.925   1
   1   5  -9 28474.9 1251.61   1
   1   5  -9 30276.2 1319.15   4
   1   5  -8 5352.75 541.271   4
   1   5  -8 5078.79 509.519   1
   1   5  -8 4139.68 470.816   2
   1   5  -7 22650.9 1061.94   4
   1   5  -7 21828.3 1018.27   2
   1   5  -6 30678.6 1180.24   2
   1   5  -6 30702.9 991.586   5
   1   5  -6 30006.8 1229.90   4
   1   5  -5 12493.7 563.688   5
   1   5  -5 11853.8 673.462   2
   1   5  -5 11868.4 714.625   4
   1   5  -4 30860.8 1011.22   5
   1   5  -4 29044.1 1107.00   2
   1   5  -3 5011.29 428.243   2
   1   5  -3 5064.70 368.714   5
   1   5  -2 3802.70 373.460   2
   1   5  -2 3900.79 341.993   5
   1   5  -1 1064.09 262.100   2
   1   5  -1 1043.82 226.668   5
   1   5   0 1907.24 312.315   2
   1   5   0 1450.19 259.399   5
   1   5   1 25699.6 798.675   7
   1   5   1 28310.0 1075.43   2
   1   5   2 5516.33 341.196   7
   1   5   3 34646.0 1102.55   7
   1   5   4 23007.1 886.188   7
   1   5   5 1893.84 287.812   7
   1   5   6 47279.8 1582.08   7
   1   5   7 3567.96 417.178   7
   1   5   8 29538.5 1274.07   7
   1   5   9 4809.06 541.092   7
   1   5  10 10695.6 786.693   7
   1   5  11 2944.90 490.199   7
   1   5  12 919.465 358.397   7
   1   4 -15 3157.39 567.166   1
   1   4 -14 1832.23 487.854   1
   1   4 -14 2782.72 440.625   4
   1   4 -13 15018.2 929.257   4
   1   4 -13 13503.8 968.431   1
   1   4 -12 1235.22 366.295   4
   1   4 -12 1194.87 379.771   1
   1   4 -11 4363.71 519.324   4
   1   4 -11 4775.44 542.297   1
   1   4 -10 13021.5 822.960   4
   1   4 -10 14470.3 863.375   1
   1   4  -9 18693.9 963.568   1
   1   4  -9 19151.4 995.384   4
   1   4  -8 14943.3 824.846   1
   1   4  -8 16832.9 881.817   4
   1   4  -7 70074.4 2094.54   1
   1   4  -7 70195.4 2111.51   2
   1   4  -7 72429.8 2178.49   4
   1   4  -6 42191.1 1460.01   4
   1   4  -6 40094.7 1406.57   2
   1   4  -6 42267.8 1384.78   1
   1   4  -5 49787.1 1345.01   5
   1   4  -5 47067.1 1508.39   2
   1   4  -5 50452.8 1590.28   4
   1   4  -4 35739.8 1046.78   5
   1   4  -4 35886.6 1233.98   4
   1   4  -4 35118.0 1194.35   2
   1   4  -3 17790.8 731.842   2
   1   4  -3 17292.4 642.690   5
   1   4  -2 5020.89 388.403   2
   1   4  -2 4999.04 337.586   5
   1   4  -1 187686. 4451.66   2
   1   4  -1 187400. 4400.05   5
   1   4   0 11593.8 591.756   2
   1   4   1 3024.86 227.026   7
   1   4   1 3528.14 350.778   2
   1   4   2 22671.8 763.637   7
   1   4   3 93079.9 2363.07   7
   1   4   4 9603.11 530.042   7
   1   4   5 112843. 2968.11   7
   1   4   6 1114.00 288.314   7
   1   4   7 27896.3 1173.88   7
   1   4   8 4684.90 504.022   7
   1   4   9 4033.37 498.761   7
   1   4  10 819.866 335.042   7
   1   4  11 9916.14 802.939   7
   1   4  12 1092.55 364.653   7
   1   4  13 2602.37 488.473   7
   1   3 -15 5508.75 651.025   1
   1   3 -14 4628.32 634.866   1
   1   3 -14 5345.31 548.650   4
   1   3 -13 3361.58 453.136   4
   1   3 -13 4220.11 598.795   1
   1   3 -12 8635.90 658.094   4
   1   3 -12 8502.74 742.173   1
   1   3 -11 1194.46 316.269   4
   1   3 -11 1044.49 390.837   1
   1   3 -10 11916.9 789.424   1
   1   3 -10 11970.8 749.296   4
   1   3  -9 22195.6 1007.38   4
   1   3  -9 21659.6 1031.49   1
   1   3  -8 48542.8 1596.67   4
   1   3  -8 44963.9 1577.43   1
   1   3  -7 19033.0 871.176   1
   1   3  -7 19275.9 876.628   4
   1   3  -6 69677.7 2009.31   2
   1   3  -6 71240.2 2005.20   1
   1   3  -6 72232.1 2037.20   4
   1   3  -5 20117.4 784.746   1
   1   3  -5 19781.4 813.488   2
   1   3  -5 19790.8 814.736   4
   1   3  -4 76838.3 1877.31   5
   1   3  -4 80925.9 2106.90   4
   1   3  -4 79208.5 2083.00   2
   1   3  -4 76889.2 2026.91   1
   1   3  -3 36894.8 995.378   5
   1   3  -3 36829.5 1124.88   2
   1   3  -3 36049.1 1140.04   4
   1   3  -2 23451.4 681.828   6
   1   3  -2 23618.3 806.697   2
   1   3  -2 23471.7 726.323   5
   1   3  -1 1475.67 182.338   5
   1   3  -1 1147.66 139.168   6
   1   3  -1 1245.43 214.981   2
   1   3   0 22336.0 655.002   7
   1   3   0 21610.7 770.604   2
   1   3   0 23482.2 694.321   6
   1   3   1 40742.1 1088.41   7
   1   3   2 44585.5 1231.27   7
   1   3   3 33281.5 1041.64   7
   1   3   4 40746.6 1283.08   7
   1   3   5 29789.7 1091.83   7
   1   3   6 23347.9 992.091   7
   1   3   7 43404.5 1549.77   7
   1   3   8 10413.5 730.427   7
   1   3   9 6592.71 616.095   7
   1   3  10 14717.1 945.388   7
   1   3  11 5456.09 615.792   7
   1   3  12 10178.1 850.180   7
   1   3  13 8700.40 805.613   7
   1   2 -15 13375.1 980.428   1
   1   2 -14 1288.68 415.024   1
   1   2 -13 8137.80 606.451   4
   1   2 -13 8382.09 758.027   1
   1   2 -12 9341.08 643.145   4
   1   2 -12 7683.56 696.665   1
   1   2 -11 5989.61 520.648   4
   1   2 -11 5868.71 609.819   1
   1   2 -10 1728.43 326.401   4
   1   2 -10 1927.02 391.415   1
   1   2  -9 44252.3 1492.27   4
   1   2  -9 41642.3 1550.25   1
   1   2  -8 5547.38 442.774   4
   1   2  -8 4738.10 467.298   1
   1   2  -7 44186.1 1410.87   4
   1   2  -7 44722.1 1454.09   1
   1   2  -6 18470.8 755.740   4
   1   2  -6 18356.8 773.766   1
   1   2  -6 17780.6 579.019   3
   1   2  -5 9694.68 506.405   4
   1   2  -5 9864.08 506.900   1
   1   2  -5 9832.92 393.080   3
   1   2  -4 52606.5 1466.42   2
   1   2  -4 50359.5 1413.23   1
   1   2  -4 50616.2 1436.91   4
   1   2  -4 53028.3 1330.60   3
   1   2  -3 90571.7 2063.41   5
   1   2  -3 89967.9 2244.18   4
   1   2  -3 90748.6 2198.13   1
   1   2  -3 87362.1 2245.19   2
   1   2  -3 94680.1 2173.90   3
   1   2  -2 333678. 7577.58   2
   1   2  -2 342642. 7511.70   1
   1   2  -2 350280. 7455.78   5
   1   2  -1 74095.7 1826.26   2
   1   2  -1 75024.7 1724.95   6
   1   2   0 27119.0 731.939   7
   1   2   0 27197.2 810.385   2
   1   2   1 396027. 8629.75   7
   1   2   2 7071.29 361.471   7
   1   2   3 31022.5 979.464   7
   1   2   4 27674.7 968.357   7
   1   2   5 17473.9 774.545   7
   1   2   6 39838.8 1374.51   7
   1   2   6 38583.8 1209.55   9
   1   2   7 19425.4 947.488   7
   1   2   7 20241.9 795.434   9
   1   2   8 24045.5 917.036   9
   1   2   8 24785.7 1132.00   7
   1   2   9 7799.65 654.392   7
   1   2  10 717.247 345.822   7
   1   2  11 4996.62 599.740   7
   1   2  12 5394.55 669.170   7
   1   2  13 876.525 388.706   7
   1   2  14 14340.0 1050.76   7
   1   1 -15 3246.91 552.724   1
   1   1 -14 3829.77 584.288   1
   1   1 -13 486.993 385.416   1
   1   1 -12 14082.4 752.842   4
   1   1 -12 11854.0 865.270   1
   1   1 -11 3376.44 394.764   4
   1   1 -11 2771.06 479.871   1
   1   1 -10 12464.6 679.864   4
   1   1 -10 13946.2 830.450   1
   1   1  -9 6331.86 464.696   4
   1   1  -9 5839.95 542.722   1
   1   1  -8 3284.97 379.179   1
   1   1  -8 3840.41 348.863   4
   1   1  -7 770.139 265.113   1
   1   1  -7 990.272 214.524   4
   1   1  -7 842.882 95.8252   3
   1   1  -6 45111.7 1311.45   4
   1   1  -6 45656.7 1406.23   1
   1   1  -6 45716.7 1118.69   3
   1   1  -5 11443.2 381.034   3
   1   1  -5 11861.3 507.174   4
   1   1  -5 11938.9 553.565   1
   1   1  -4 15901.1 574.426   4
   1   1  -4 15342.0 596.696   1
   1   1  -4 15799.9 477.381   3
   1   1  -3 300176. 6557.77   4
   1   1  -3 291194. 6608.43   2
   1   1  -3 292472. 6557.65   1
   1   1  -3 302843. 6483.02   3
   1   1  -2 27997.2 755.722   1
   1   1  -2 28474.9 805.472   2
   1   1  -2 29470.7 782.089   4
   1   1   0 340350. 7372.75   7
   1   1   1 68901.3 1640.03   7
   1   1   2 377750. 8315.87   7
   1   1   2 372254. 8210.22   1
   1   1   2 397006. 8220.93   8
   1   1   2 370475. 8190.73   3
   1   1   3 9238.96 371.444   1
   1   1   3 9180.52 335.213   8
   1   1   3 8885.85 437.348   7
   1   1   4 20795.0 776.904   7
   1   1   4 20431.5 591.794   8
   1   1   4 20322.3 653.982   9
   1   1   5 53407.0 1318.77   8
   1   1   5 55722.8 1438.51   9
   1   1   5 53892.2 1625.32   7
   1   1   6 4625.63 413.331   7
   1   1   6 5087.10 324.472   9
   1   1   7 1695.03 230.361   9
   1   1   7 1569.86 319.598   7
   1   1   8 14806.6 835.673   7
   1   1   8 14851.1 637.008   9
   1   1   9 15876.6 925.717   7
   1   1   9 16655.4 692.152   9
   1   1  10 6451.17 429.625   9
   1   1  10 6574.11 637.558   7
   1   1  11 18430.6 1103.05   7
   1   1  12 199.140 313.695   7
   1   1  13 5616.52 688.348   7
   1   1  14 1818.68 480.661   7
   1   0 -15 5714.44 670.047   1
   1   0 -14 2826.30 532.939   1
   1   0 -13 5856.25 658.378   1
   1   0 -12 20401.0 1121.12   1
   1   0 -11 13098.7 650.266   4
   1   0 -11 12314.3 843.282   1
   1   0 -10 16448.0 737.977   4
   1   0 -10 16526.8 920.454   1
   1   0  -9 14216.5 643.785   4
   1   0  -9 13563.9 804.384   1
   1   0  -8 8997.74 460.946   4
   1   0  -8 8521.23 582.689   1
   1   0  -7 21942.3 763.633   4
   1   0  -7 21038.3 905.551   1
   1   0  -7 21071.7 568.610   3
   1   0  -6 68439.1 1774.74   4
   1   0  -6 68088.6 1937.97   1
   1   0  -6 69614.0 1613.83   3
   1   0  -5 2240.04 204.439   4
   1   0  -5 2260.66 156.433   3
   1   0  -5 2390.12 281.528   1
   1   0  -4 8247.81 343.921   4
   1   0  -4 8792.80 377.021   9
   1   0  -4 8854.86 313.848   3
   1   0  -4 9082.11 447.458   1
   1   0  -3 164435. 3711.81   4
   1   0  -3 169188. 3715.83   3
   1   0  -3 172615. 3832.76   1
   1   0  -2 104662. 2299.50   8
   1   0  -2 103699. 2321.11   4
   1   0  -2 107501. 2408.52   1
   1   0   2 159902. 3578.96   7
   1   0   2 153964. 3474.61   8
   1   0   2 158340. 3420.09   3
   1   0   3 42993.7 1035.23   8
   1   0   3 44543.8 1199.96   7
   1   0   4 29473.2 797.665   9
   1   0   4 30702.4 784.858   8
   1   0   4 29764.7 985.286   7
   1   0   5 61905.6 1460.68   8
   1   0   5 60118.6 1517.72   9
   1   0   5 62672.2 1772.20   7
   1   0   6 8698.77 307.445   8
   1   0   6 7496.34 365.681   9
   1   0   6 8008.73 535.229   7
   1   0   7 51364.6 1231.75   8
   1   0   7 50847.9 1391.25   9
   1   0   7 54697.5 1725.69   7
   1   0   8 12838.7 773.233   7
   1   0   8 11775.2 521.567   9
   1   0   9 5207.44 541.398   7
   1   0   9 4532.68 332.642   9
   1   0  10 18898.8 728.556   9
   1   0  10 18462.1 1050.61   7
   1   0  11 21056.5 1179.00   7
   1   0  12 2132.96 478.252   7
   1   0  13 11367.9 911.283   7
   1   0  14 2987.09 557.460   7
   1  -1 -14 4099.62 579.549   1
   1  -1 -13 3060.06 508.768   1
   1  -1 -12 16424.3 1010.08   1
   1  -1 -11 8141.02 695.494   1
   1  -1 -10 16914.0 684.922   4
   1  -1 -10 16447.5 938.514   1
   1  -1  -9 34096.0 1073.83   4
   1  -1  -9 34138.8 1358.89   1
   1  -1  -8 12013.5 526.883   4
   1  -1  -8 12764.6 402.820   3
   1  -1  -8 12482.7 739.906   1
   1  -1  -7 27193.4 856.961   4
   1  -1  -7 28101.6 767.799   3
   1  -1  -7 28129.9 1092.39   1
   1  -1  -6 24733.9 753.540   4
   1  -1  -6 24913.6 968.176   1
   1  -1  -5 28766.1 791.768   4
   1  -1  -5 28795.7 1000.87   1
   1  -1  -4 140438. 3340.56   1
   1  -1  -4 132628. 3081.36   4
   1  -1  -3 29157.1 704.542   4
   1  -1  -3 34600.1 947.601   1
   1  -1  -2 436401. 9487.40   6
   1  -1  -1 120992. 2703.27   6
   1  -1  -1 118976. 2696.39   5
   1  -1   0 83.4515 84.6558   6
   1  -1   1 121867. 2704.26   5
   1  -1   1 117770. 2667.13   7
   1  -1   2 402503. 8721.46   5
   1  -1   2 404454. 8635.00   2
   1  -1   2 393324. 8723.93   7
   1  -1   3 36583.8 1031.29   7
   1  -1   3 34827.9 840.676   9
   1  -1   3 37614.9 926.335   2
   1  -1   3 34906.9 919.542   8
   1  -1   4 123377. 2734.14   9
   1  -1   4 126152. 2983.33   7
   1  -1   4 119110. 2778.47   8
   1  -1   5 23701.9 677.718   9
   1  -1   5 25170.3 919.596   7
   1  -1   5 24470.6 690.463   8
   1  -1   6 24532.2 729.945   9
   1  -1   6 24290.4 966.949   7
   1  -1   6 24894.0 693.154   8
   1  -1   7 22088.6 700.687   9
   1  -1   7 21898.2 618.637   8
   1  -1   7 21580.0 952.652   7
   1  -1   8 11683.8 480.744   9
   1  -1   8 10698.6 361.560   8
   1  -1   8 11769.9 727.156   7
   1  -1   9 34209.2 1032.79   9
   1  -1   9 35207.8 1418.84   7
   1  -1  10 15054.0 601.142   9
   1  -1  10 15589.0 944.005   7
   1  -1  11 7191.98 682.573   7
   1  -1  12 12920.7 940.609   7
   1  -1  13 4294.10 606.334   7
   1  -1  14 1955.80 500.196   7
   1  -2 -14 1622.55 457.203   1
   1  -2 -13 826.513 397.607   1
   1  -2 -12 11891.1 861.503   1
   1  -2 -11 883.611 357.601   1
   1  -2 -10 31442.7 1365.37   1
   1  -2  -9 1577.55 199.357   4
   1  -2  -9 1795.34 385.846   1
   1  -2  -8 40111.8 1132.98   4
   1  -2  -8 42232.9 1501.47   1
   1  -2  -7 6561.00 320.003   4
   1  -2  -7 6872.70 535.443   1
   1  -2  -6 6810.40 510.290   1
   1  -2  -6 6683.31 252.478   8
   1  -2  -6 7085.00 306.528   4
   1  -2  -5 25165.7 963.140   1
   1  -2  -5 24828.6 676.070   4
   1  -2  -4 57827.8 1578.05   1
   1  -2  -4 52281.7 1240.07   4
   1  -2  -3 207664. 4790.88   6
   1  -2  -2 50250.5 1153.95   4
   1  -2  -2 54303.9 1397.47   6
   1  -2  -1 201429. 4371.72   4
   1  -2  -1 194341. 4537.04   6
   1  -2  -1 204123. 4497.89   5
   1  -2   0 210478. 4501.89   4
   1  -2   0 207958. 4560.01   5
   1  -2   1 219487. 4793.98   2
   1  -2   1 220320. 4761.62   7
   1  -2   1 211358. 4907.54   6
   1  -2   1 222881. 4878.54   5
   1  -2   2 39493.6 1015.12   5
   1  -2   2 35939.3 967.067   7
   1  -2   2 37596.8 940.109   2
   1  -2   3 204722. 4509.64   5
   1  -2   3 194483. 4524.07   7
   1  -2   3 201198. 4447.34   2
   1  -2   4 66382.1 1620.59   2
   1  -2   4 65082.5 1740.09   7
   1  -2   5 73757.5 1776.70   9
   1  -2   5 75171.9 2012.60   7
   1  -2   6 361.958 118.301   9
   1  -2   6 514.481 124.614   8
   1  -2   6 366.542 63.2035   3
   1  -2   6 619.267 225.375   7
   1  -2   7 2207.62 315.094   7
   1  -2   7 1869.54 192.068   9
   1  -2   7 1441.03 162.215   8
   1  -2   8 37039.1 996.789   8
   1  -2   8 38145.8 1075.81   9
   1  -2   8 40217.0 1443.17   7
   1  -2   9 14899.7 575.695   9
   1  -2   9 15316.5 875.750   7
   1  -2  10 26583.8 1232.79   7
   1  -2  10 24333.4 810.773   9
   1  -2  11 8146.96 714.146   7
   1  -2  12 14296.7 982.230   7
   1  -2  13 1868.29 441.007   7
   1  -2  14 2939.46 539.412   7
   1  -3 -14-123.915 383.315   1
   1  -3 -13 2395.39 476.248   1
   1  -3 -12 9685.82 796.984   1
   1  -3 -11 11116.9 832.902   1
   1  -3 -10 8392.25 703.646   1
   1  -3  -9 19879.1 1030.24   1
   1  -3  -8 4112.17 485.722   1
   1  -3  -8 3445.02 223.633   4
   1  -3  -7 22550.7 1033.65   1
   1  -3  -7 20910.7 645.285   4
   1  -3  -7 22259.7 649.295   8
   1  -3  -6 15782.5 799.436   1
   1  -3  -6 14575.3 476.007   4
   1  -3  -5 73118.7 1991.48   1
   1  -3  -5 64802.9 1566.22   4
   1  -3  -4 9812.36 584.558   1
   1  -3  -4 9716.57 555.592   6
   1  -3  -3 85055.2 1943.25   4
   1  -3  -3 87552.4 2283.04   6
   1  -3  -2 24176.1 646.081   4
   1  -3  -2 23726.1 861.849   6
   1  -3  -1 74231.9 1727.02   4
   1  -3  -1 70624.0 1906.41   6
   1  -3   0 56808.0 1646.17   6
   1  -3   0 65391.8 1532.80   4
   1  -3   1 89717.7 2090.77   9
   1  -3   1 88748.5 2102.66   4
   1  -3   1 83228.7 2183.91   6
   1  -3   1 90369.5 2127.50   5
   1  -3   2 75293.3 1796.64   7
   1  -3   2 79574.5 1848.89   2
   1  -3   2 76413.1 1993.59   6
   1  -3   2 79206.8 1920.32   5
   1  -3   3 17837.7 558.842   2
   1  -3   3 16225.6 564.201   7
   1  -3   4 100350. 2313.34   2
   1  -3   4 93022.4 2385.86   7
   1  -3   5 8321.86 459.463   7
   1  -3   6 74606.9 2055.51   7
   1  -3   6 72683.8 1748.77   3
   1  -3   7 9322.87 420.759   9
   1  -3   7 8964.14 575.774   7
   1  -3   7 9298.99 328.629   3
   1  -3   8 12735.0 506.365   9
   1  -3   8 12619.3 723.966   7
   1  -3   8 11341.2 348.127   3
   1  -3   9 6888.62 374.221   9
   1  -3   9 7808.55 599.356   7
   1  -3  10 15177.7 907.101   7
   1  -3  10 14526.3 580.519   9
   1  -3  11 9244.23 741.227   7
   1  -3  12 11318.2 862.310   7
   1  -3  13 12898.0 945.428   7
   1  -3  14 3088.18 535.250   7
   1  -4 -13 3036.75 518.788   1
   1  -4 -12 9734.79 802.226   1
   1  -4 -11 7679.96 709.502   1
   1  -4 -10 4695.43 567.705   1
   1  -4  -9 6985.13 635.915   1
   1  -4  -8 304.996 311.643   1
   1  -4  -7 667.364 151.863   8
   1  -4  -7 615.214 118.143   4
   1  -4  -7 851.937 350.489   1
   1  -4  -6 24703.1 1046.94   1
   1  -4  -6 20515.5 621.504   4
   1  -4  -5 14356.4 796.414   1
   1  -4  -4 48525.8 1197.83   4
   1  -4  -4 50482.2 1617.53   6
   1  -4  -3 34311.6 899.819   4
   1  -4  -3 34146.6 1225.55   6
   1  -4  -2 38306.0 1006.05   4
   1  -4  -2 37084.9 1260.66   6
   1  -4  -1 57203.1 1429.49   4
   1  -4  -1 55814.1 1642.67   6
   1  -4   0 18517.0 767.823   6
   1  -4   1 60697.8 1726.28   6
   1  -4   2 25648.1 666.810   7
   1  -4   2 27088.8 952.407   6
   1  -4   3 62089.8 1528.40   7
   1  -4   3 61661.1 1765.86   6
   1  -4   4 13554.8 532.090   7
   1  -4   5 51203.3 1448.33   7
   1  -4   6 22078.6 866.832   7
   1  -4   7 21739.6 918.664   7
   1  -4   8 1926.02 220.227   9
   1  -4   8 1897.32 318.391   7
   1  -4   9 3484.89 285.194   9
   1  -4   9 3604.30 446.677   7
   1  -4  10 5220.95 540.232   7
   1  -4  10 5117.15 341.004   9
   1  -4  11 5184.77 569.393   7
   1  -4  12 6101.65 635.058   7
   1  -4  13 12047.7 899.780   7
   1  -4  14 4015.75 581.724   7
   1  -5 -13 9588.02 803.110   1
   1  -5 -12 5756.04 641.695   1
   1  -5 -11 3761.29 552.846   1
   1  -5 -10 2018.86 449.671   1
   1  -5  -9 966.913 384.680   1
   1  -5  -8 2251.38 419.964   1
   1  -5  -7 235.770 163.376   8
   1  -5  -7 700.973 336.989   1
   1  -5  -6 785.501 348.967   1
   1  -5  -5 1213.83 412.186   1
   1  -5  -5 762.903 323.328   6
   1  -5  -4 31295.9 848.374   4
   1  -5  -4 31382.3 1278.51   6
   1  -5  -3 4225.25 240.171   4
   1  -5  -3 4678.18 478.652   6
   1  -5  -2 92597.4 2591.73   6
   1  -5  -1 2179.27 324.940   6
   1  -5   0 41428.2 1387.50   6
   1  -5   1 1539.81 279.068   6
   1  -5   2 40790.3 1353.26   6
   1  -5   3 16040.4 495.640   7
   1  -5   3 16152.5 756.484   6
   1  -5   4 67545.0 1705.72   7
   1  -5   4 69007.0 2004.90   6
   1  -5   5 18541.2 697.000   7
   1  -5   5 19560.4 879.657   6
   1  -5   6 15426.5 675.990   7
   1  -5   7 3556.51 348.027   7
   1  -5   8 1273.11 268.015   7
   1  -5   9 1258.23 220.011   9
   1  -5   9 1029.83 288.006   7
   1  -5  10 2878.05 283.605   9
   1  -5  10 2634.98 394.626   7
   1  -5  11 4173.31 503.575   7
   1  -5  12 3766.17 507.647   7
   1  -5  13 3605.34 514.547   7
   1  -5  14 15486.8 1015.77   7
   1  -6 -12 17691.2 1078.72   1
   1  -6 -11 14354.3 959.810   1
   1  -6 -10 7477.49 696.520   1
   1  -6  -9 4318.50 573.349   1
   1  -6  -8 11879.3 851.389   1
   1  -6  -7 2962.83 322.281   8
   1  -6  -7 2368.90 451.471   1
   1  -6  -6 18135.3 993.723   1
   1  -6  -5 7717.71 666.455   6
   1  -6  -4 3136.46 463.352   6
   1  -6  -3 82596.8 2514.74   6
   1  -6  -2 16528.5 886.387   6
   1  -6  -1 32601.3 1274.29   6
   1  -6   0 3082.04 394.858   6
   1  -6   1 7843.82 563.409   6
   1  -6   2 4667.02 441.692   6
   1  -6   3 12768.7 373.504   7
   1  -6   3 14491.0 754.142   6
   1  -6   4 17979.9 577.927   7
   1  -6   4 18200.8 881.832   6
   1  -6   5 91923.6 2304.39   7
   1  -6   5 97199.8 2681.71   6
   1  -6   6 3261.76 295.574   7
   1  -6   6 2978.61 400.543   6
   1  -6   7 33929.8 1164.21   7
   1  -6   7 35594.8 1375.62   6
   1  -6   8 12105.5 659.330   7
   1  -6   9 4058.20 425.191   7
   1  -6  10 10123.7 540.536   9
   1  -6  10 10409.0 690.109   7
   1  -6  11 9495.36 692.983   7
   1  -6  12 3039.89 441.361   7
   1  -6  13 2521.72 450.730   7
   1  -6  14 20500.7 1132.53   7
   1  -7 -11 1389.27 427.716   1
   1  -7 -10 5043.87 638.663   1
   1  -7  -9 427.935 347.567   1
   1  -7  -8 12935.4 898.671   1
   1  -7  -7 8311.37 725.728   1
   1  -7  -7 8697.39 562.697   8
   1  -7  -6 11886.7 856.289   1
   1  -7  -5 9008.05 772.384   6
   1  -7  -4 115608. 3391.60   6
   1  -7  -3 2051.59 435.422   6
   1  -7  -2 49684.1 1791.92   6
   1  -7  -1 88014.5 2636.94   6
   1  -7   0 58368.9 1959.30   6
   1  -7   1 99772.0 2880.15   6
   1  -7   2 213284. 5315.62   6
   1  -7   3 5009.17 526.358   6
   1  -7   4 43059.4 1069.79   7
   1  -7   4 50196.0 1675.51   6
   1  -7   5 68538.0 1726.07   7
   1  -7   5 73898.0 2237.45   6
   1  -7   6 26894.5 894.922   7
   1  -7   6 29580.9 1231.94   6
   1  -7   7 60668.6 1709.42   7
   1  -7   7 61248.6 2031.73   6
   1  -7   8 23839.6 931.334   7
   1  -7   8 24350.1 1152.44   6
   1  -7   9 6788.98 496.109   7
   1  -7   9 7000.19 625.646   6
   1  -7  10 2581.38 370.498   7
   1  -7  10 2872.31 441.340   6
   1  -7  11 18414.2 933.986   7
   1  -7  12 4857.80 508.798   7
   1  -7  13 6949.51 621.242   7
   1  -7  14 2182.59 439.212   7
   1  -8 -10 9993.04 804.618   1
   1  -8  -9 24732.5 1291.91   1
   1  -8  -8 18191.4 1100.04   1
   1  -8  -7 40007.4 1685.08   1
   1  -8  -6 7406.94 707.646   1
   1  -8  -5 24744.3 1308.32   6
   1  -8  -4 4423.96 586.062   6
   1  -8  -3 27.6162 313.320   6
   1  -8  -2 9296.91 741.125   6
   1  -8  -1 5899.42 588.106   6
   1  -8   0 7602.25 645.810   6
   1  -8   1 7806.37 654.610   6
   1  -8   2 13198.0 819.159   6
   1  -8   3 4509.39 504.705   6
   1  -8   4 5564.78 553.817   6
   1  -8   5 9438.22 693.157   6
   1  -8   6 837.171 310.128   6
   1  -8   7 3399.23 466.472   6
   1  -8   8 24052.1 1170.45   6
   1  -8   9 9472.61 732.612   6
   1  -8  10 33235.1 1440.42   6
   1  -8  11 11484.1 829.272   6
   1  -8  12 19504.8 1069.78   6
   1  -8  13 3177.33 483.491   6
   1  -8  14 791.594 314.071   6
   1  -9  -9 3748.17 538.734   1
   1  -9  -8 2355.05 503.057   1
   1  -9  -7 24459.8 1296.16   1
   1  -9  -6 7796.82 765.546   1
   1  -9  -5 13298.1 995.317   6
   1  -9  -4 12851.5 953.224   6
   1  -9  -3 2597.51 502.652   6
   1  -9  -2 10075.8 828.677   6
   1  -9  -1 1490.52 412.928   6
   1  -9   0 7349.58 688.072   6
   1  -9   1 664.305 315.191   6
   1  -9   2 361.439 327.404   6
   1  -9   3 3147.19 479.384   6
   1  -9   4 5630.64 590.836   6
   1  -9   5 2643.72 467.097   6
   1  -9   6 4909.70 564.210   6
   1  -9   7 10870.7 790.905   6
   1  -9   8 699.929 342.863   6
   1  -9   9 17308.4 1008.13   6
   1  -9  10 189.227 304.368   6
   1  -9  11 16704.8 1001.70   6
   1  -9  12 581.823 316.819   6
   1  -9  13 4275.65 507.823   6
   1 -10  -7 2322.10 475.139   1
   1 -10  -6 10255.1 836.621   1
   1 -10  -5 4223.13 626.210   6
   1 -10  -4 7788.59 775.676   6
   1 -10  -3 6491.56 728.408   6
   1 -10  -2 2893.71 530.922   6
   1 -10  -1 7037.02 745.878   6
   1 -10   0 8441.54 760.247   6
   1 -10   1 1112.95 418.224   6
   1 -10   2 23631.5 1250.80   6
   1 -10   3 830.112 347.033   6
   1 -10   4 10144.1 787.937   6
   1 -10   5 7416.46 699.773   6
   1 -10   6 2716.55 481.455   6
   1 -10   7 7203.44 685.177   6
   1 -10   8 7628.44 701.023   6
   1 -10   9 3348.78 491.378   6
   1 -10  10 8294.10 705.603   6
   1 -10  11 2010.93 429.167   6
   1 -10  12 3666.51 480.263   6
   1 -11  -5 3991.57 593.939   1
   1 -11  -5 3263.39 479.515   8
   1 -11  -4 4085.99 624.766   6
   1 -11  -3 6551.46 733.973   6
   1 -11  -2 3429.44 587.949   6
   1 -11  -1 5649.29 687.505   6
   1 -11   0 3407.84 592.873   6
   1 -11   1 9517.32 819.877   6
   1 -11   2 2467.28 505.777   6
   1 -11   3 10953.9 864.570   6
   1 -11   4 291.170 326.904   6
   1 -11   5 10674.8 841.202   6
   1 -11   6 705.070 369.059   6
   1 -11   7 7813.03 719.191   6
   1 -11   8 2505.94 473.504   6
   1 -11   9 4010.54 533.808   6
   1 -11  10 331.655 302.912   6
   1 -11  11 57.7025 267.148   6
   1 -12  -1 13879.1 1023.79   6
   1 -12   0 1259.22 454.427   6
   1 -12   1 19817.6 1216.42   6
   1 -12   2 4531.12 618.871   6
   1 -12   3 4406.94 608.584   6
   1 -12   4 19644.0 1154.78   6
   1 -12   5 746.817 351.578   6
   1 -12   6 12177.1 884.674   6
   1 -12   7 569.871 345.943   6
   1 -12   8 1414.76 390.684   6
   0  12  -8 2610.24 438.531   2
   0  12  -7 1525.19 390.389   2
   0  12  -6 4740.53 523.290   5
   0  12  -6 3596.14 509.310   2
   0  12  -5 5397.45 587.858   5
   0  12  -5 5661.41 615.816   2
   0  12  -4 5507.38 596.757   5
   0  12  -4 4966.66 597.848   2
   0  12  -3 4241.16 553.427   5
   0  12  -3 4125.24 573.940   2
   0  12  -2 1650.94 439.803   5
   0  12  -2 945.765 412.831   2
   0  12  -1 10126.5 832.091   2
   0  12  -1 8895.39 797.309   5
   0  12   0 997.546 400.926   5
   0  12   0 1470.19 457.113   2
   0  12   1 10428.2 868.685   2
   0  12   1 9235.46 839.302   5
   0  11  -9 5706.95 595.761   2
   0  11  -8 11695.0 834.333   2
   0  11  -7 3841.19 470.035   5
   0  11  -7 3171.20 482.801   2
   0  11  -6 15562.5 913.018   5
   0  11  -6 14554.5 957.196   2
   0  11  -5 4479.87 532.432   5
   0  11  -5 4594.42 563.870   2
   0  11  -4 1615.76 394.224   5
   0  11  -4 1070.99 364.283   2
   0  11  -3 8105.67 708.138   5
   0  11  -3 7821.12 716.990   2
   0  11  -2 7852.73 713.592   5
   0  11  -2 8208.99 742.494   2
   0  11  -1 2742.40 480.703   5
   0  11  -1 2324.03 480.533   2
   0  11   0 5287.67 631.097   5
   0  11   0 5774.00 673.513   2
   0  11   1 14911.5 1031.17   2
   0  11   1 16605.2 1090.10   5
   0  11   2 3399.73 601.238   2
   0  11   2 2463.03 515.322   5
   0  11   3 16807.8 1113.60   2
   0  11   3 15383.3 1071.02   5
   0  11   4 7670.06 770.892   5
   0  11   4 6071.40 736.146   2
   0  10 -10 3081.17 479.344   2
   0  10  -9 9158.35 741.537   2
   0  10  -8 1834.05 339.378   5
   0  10  -8 2749.30 463.256   2
   0  10  -7 10072.9 689.427   5
   0  10  -7 8281.62 705.310   2
   0  10  -6 3035.06 430.433   5
   0  10  -6 2502.39 438.274   2
   0  10  -5 402.844 252.961   5
   0  10  -5 1227.28 359.375   2
   0  10  -4 12765.6 835.540   5
   0  10  -4 11666.4 829.907   2
   0  10  -3 517.310 303.346   5
   0  10  -3 456.992 342.370   2
   0  10  -2 10547.3 787.530   2
   0  10  -2 9636.56 756.681   5
   0  10  -1 8786.98 750.636   2
   0  10  -1 9078.00 760.233   5
   0  10   0 3031.80 512.133   2
   0  10   0 2091.26 459.434   5
   0  10   1 2096.52 478.000   2
   0  10   1 1834.22 443.095   5
   0  10   2 6269.59 687.478   2
   0  10   2 5961.15 659.192   5
   0  10   3 2212.36 488.762   2
   0  10   3 2072.16 471.434   5
   0  10   4 5751.82 667.443   5
   0  10   4 5296.12 683.078   2
   0  10   5 3360.13 588.437   2
   0  10   5 3437.28 571.559   5
   0  10   6 19569.1 1230.36   2
   0  10   6 17565.4 1135.56   5
   0   9 -12 891.250 452.358   4
   0   9 -11 23423.7 1372.21   4
   0   9 -10 5528.06 719.230   4
   0   9 -10 4403.55 519.951   2
   0   9  -9 21777.1 1112.01   2
   0   9  -9 20219.1 1247.97   4
   0   9  -8 12262.8 822.533   2
   0   9  -8 13046.1 752.492   5
   0   9  -7 8034.53 600.209   5
   0   9  -7 8245.42 677.685   2
   0   9  -6 13592.1 791.624   5
   0   9  -6 12260.7 823.787   2
   0   9  -5 453.314 268.468   5
   0   9  -5 255.044 306.813   2
   0   9  -4 5276.78 533.359   5
   0   9  -4 5817.67 584.285   2
   0   9  -3 1287.58 324.915   5
   0   9  -3 1814.10 375.882   2
   0   9  -2 251.226 256.430   5
   0   9  -2 459.648 315.392   2
   0   9  -1 1127.19 332.132   5
   0   9  -1 1482.37 397.226   2
   0   9   0 7578.87 673.282   2
   0   9   0 7087.16 658.782   5
   0   9   1 1055.85 389.600   2
   0   9   1 765.068 326.180   5
   0   9   2 10417.6 826.787   2
   0   9   2 9458.32 778.234   5
   0   9   3 11259.5 854.386   2
   0   9   3 10278.8 826.891   5
   0   9   4 9098.28 829.785   2
   0   9   4 8780.31 775.488   5
   0   9   5 21042.4 1221.00   2
   0   9   5 18616.5 1164.16   5
   0   9   6 2371.86 487.693   5
   0   9   6 4678.58 636.792   2
   0   9   7 23986.4 1319.51   5
   0   9   8 1205.29 416.921   5
   0   8 -13 4509.47 650.402   4
   0   8 -12 11311.0 938.540   4
   0   8 -11 3135.23 569.953   4
   0   8 -10 8478.64 812.795   4
   0   8  -9 1671.90 493.262   4
   0   8  -9 1678.02 372.972   2
   0   8  -8 9064.32 698.483   2
   0   8  -8 9949.14 831.051   4
   0   8  -8 10039.1 632.749   5
   0   8  -7 6716.00 592.640   2
   0   8  -7 6222.33 649.856   4
   0   8  -7 7576.79 559.925   5
   0   8  -6 5809.82 565.322   2
   0   8  -6 6289.10 532.273   5
   0   8  -6 6133.95 643.961   4
   0   8  -5 17371.4 883.318   5
   0   8  -5 18090.7 943.288   2
   0   8  -4 12948.0 767.490   5
   0   8  -4 13038.4 800.843   2
   0   8  -3 15712.0 861.015   5
   0   8  -3 14777.6 862.696   2
   0   8  -2 48172.2 1700.90   2
   0   8  -2 45719.8 1687.17   5
   0   8  -1 3215.39 495.532   2
   0   8  -1 2742.04 442.340   5
   0   8   0 39195.1 1525.30   2
   0   8   0 36233.8 1494.83   5
   0   8   1 12104.7 821.885   2
   0   8   1 11887.9 817.691   5
   0   8   2 4644.94 546.254   2
   0   8   2 5169.74 560.614   5
   0   8   3 19133.1 1074.04   2
   0   8   3 16551.5 1011.92   5
   0   8   4 10104.9 800.865   2
   0   8   4 9230.55 762.772   5
   0   8   5 4058.70 545.090   5
   0   8   6 9111.42 789.155   5
   0   8   7 9242.20 797.118   5
   0   8   8 3204.37 531.435   5
   0   8   9 16063.9 1066.58   5
   0   7 -14 8303.85 806.017   4
   0   7 -13 1656.38 457.804   4
   0   7 -12 2012.31 499.147   4
   0   7 -11 437.625 362.657   4
   0   7 -10 4542.98 605.130   4
   0   7  -9 3099.03 444.356   2
   0   7  -9 3601.75 543.011   4
   0   7  -8 21786.8 934.484   5
   0   7  -8 21429.5 1036.12   2
   0   7  -8 21382.6 1173.51   4
   0   7  -7 19534.8 885.798   5
   0   7  -7 18435.6 1068.29   4
   0   7  -7 18930.2 948.451   2
   0   7  -6 12151.4 759.855   2
   0   7  -6 14163.0 725.705   5
   0   7  -6 13233.2 876.646   4
   0   7  -5 22632.1 969.345   5
   0   7  -5 22208.3 1098.46   4
   0   7  -5 21225.2 996.268   2
   0   7  -4 1075.42 261.924   5
   0   7  -4 622.202 296.164   2
   0   7  -3 24555.8 1041.85   5
   0   7  -3 23231.9 1032.76   2
   0   7  -2 7602.89 581.803   2
   0   7  -2 6332.54 539.451   5
   0   7  -1 10094.3 685.759   2
   0   7  -1 11236.6 712.911   5
   0   7   0 26207.7 1146.48   2
   0   7   0 24108.2 1111.58   5
   0   7   1 5400.62 529.457   2
   0   7   1 4853.04 512.773   5
   0   7   2 14005.5 459.588   7
   0   7   2 14453.8 850.424   5
   0   7   3 27030.8 820.580   7
   0   7   3 25397.1 1217.16   5
   0   7   4 7197.70 404.723   7
   0   7   4 6584.24 609.683   5
   0   7   5 26561.1 930.109   7
   0   7   5 23423.2 1223.65   5
   0   7   6 2511.46 460.773   5
   0   7   6 1853.77 288.669   7
   0   7   7 2166.07 447.642   5
   0   7   7 1871.31 309.502   7
   0   7   8 1405.90 380.657   5
   0   7   9 4039.00 560.030   5
   0   7  10 7503.92 711.847   5
   0   7  11 8360.52 747.223   5
   0   6 -15 1631.95 435.146   4
   0   6 -14 13844.9 983.908   4
   0   6 -13 727.581 389.121   4
   0   6 -12 9493.76 817.523   4
   0   6 -11 3055.59 519.147   4
   0   6 -10 870.181 364.407   4
   0   6  -9 6062.02 632.702   4
   0   6  -8 7107.39 569.152   2
   0   6  -8 7731.96 667.610   4
   0   6  -7 15111.7 806.742   2
   0   6  -7 14588.9 904.214   4
   0   6  -7 15580.1 734.533   5
   0   6  -6 1524.59 269.907   5
   0   6  -6 2055.02 399.207   4
   0   6  -6 1614.35 317.749   2
   0   6  -5 47222.8 1492.05   5
   0   6  -5 45193.6 1639.94   4
   0   6  -5 45655.0 1550.96   2
   0   6  -4 18782.8 829.595   5
   0   6  -4 18454.6 929.992   4
   0   6  -4 20228.1 875.790   2
   0   6  -3 61170.6 1828.65   5
   0   6  -3 60792.8 1891.94   4
   0   6  -3 59181.2 1830.87   2
   0   6  -2 12255.5 671.896   2
   0   6  -2 12468.4 683.413   5
   0   6  -1 28367.4 1123.96   2
   0   6  -1 27919.4 1109.91   5
   0   6   0 40619.8 1433.45   2
   0   6   0 41165.6 1432.14   5
   0   6   1 36472.5 1335.91   2
   0   6   1 33520.5 1310.24   5
   0   6   2 42840.5 1121.71   7
   0   6   2 42104.5 1525.58   5
   0   6   3 4581.13 301.295   7
   0   6   3 4467.91 472.471   5
   0   6   4 28202.9 932.054   7
   0   6   4 25051.3 1164.15   5
   0   6   5 4925.02 396.005   7
   0   6   5 5352.52 554.763   5
   0   6   6 9325.32 570.375   7
   0   6   6 9679.29 720.007   5
   0   6   7 632.956 324.060   5
   0   6   7 758.236 276.402   7
   0   6   8 2801.29 382.766   7
   0   6   8 2690.38 449.867   5
   0   6   9 2771.31 478.533   5
   0   6   9 3557.85 451.706   7
   0   6  10 7230.48 628.074   7
   0   6  10 7194.23 676.458   5
   0   6  11 5249.77 600.394   5
   0   6  11 6797.86 629.936   7
   0   6  12 1713.54 401.356   5
   0   6  12 1242.80 382.376   7
   0   5 -15 2618.56 487.808   4
   0   5 -14 3416.21 566.755   1
   0   5 -14 1670.13 429.460   4
   0   5 -13 1400.35 461.609   1
   0   5 -13 969.716 360.474   4
   0   5 -12 9313.95 802.164   1
   0   5 -12 9623.02 792.497   4
   0   5 -11 1180.26 360.281   1
   0   5 -11 1658.88 408.875   4
   0   5 -10 6724.59 640.879   1
   0   5 -10 7147.97 663.123   4
   0   5  -9 7344.94 647.561   1
   0   5  -9 7786.39 666.413   4
   0   5  -8 10939.2 747.836   4
   0   5  -7 2195.18 390.311   4
   0   5  -7 2006.59 336.517   2
   0   5  -6 22223.0 1034.21   4
   0   5  -6 22411.5 858.363   5
   0   5  -6 20008.4 907.642   2
   0   5  -5 54195.9 1583.95   5
   0   5  -5 52432.6 1639.69   2
   0   5  -5 53280.6 1757.40   4
   0   5  -4 55751.7 1625.61   5
   0   5  -4 55742.3 1661.85   2
   0   5  -4 55787.4 1767.58   4
   0   5  -3 57209.1 1665.60   5
   0   5  -3 58010.0 1750.30   4
   0   5  -3 56444.1 1686.87   2
   0   5  -2 42493.2 1362.17   4
   0   5  -2 42068.4 1334.54   2
   0   5  -2 41749.6 1349.63   5
   0   5  -1 3750.67 357.174   5
   0   5  -1 3692.20 371.212   2
   0   5   0 24944.2 967.192   2
   0   5   1 83179.0 1955.27   7
   0   5   1 92575.9 2386.53   2
   0   5   2 30692.7 874.764   7
   0   5   3 56911.5 1531.90   7
   0   5   3 58258.1 1819.38   5
   0   5   4 21718.7 800.854   7
   0   5   4 21364.0 992.832   5
   0   5   5 268.925 211.832   7
   0   5   5 592.721 301.372   5
   0   5   6 12836.0 673.588   7
   0   5   7 3673.81 408.543   7
   0   5   8 10082.8 681.938   7
   0   5   9 1207.66 322.583   7
   0   5  10 9256.51 719.424   7
   0   5  11 757.222 337.835   7
   0   5  11 1217.22 363.719   5
   0   5  12 2807.52 460.461   5
   0   5  12 3287.64 507.652   7
   0   5  13 806.501 340.212   5
   0   5  13 1149.32 380.549   7
   0   4 -15 2778.65 445.986   4
   0   4 -14 3878.73 515.746   4
   0   4 -14 4360.60 589.920   1
   0   4 -13 16261.0 988.131   4
   0   4 -13 14778.9 1008.18   1
   0   4 -12 3054.67 500.286   4
   0   4 -12 2670.21 511.470   1
   0   4 -11 17824.6 1013.53   4
   0   4 -11 16647.9 998.745   1
   0   4 -10 2259.67 402.854   4
   0   4 -10 2740.36 446.779   1
   0   4  -9 13991.5 836.332   1
   0   4  -9 13200.8 822.904   4
   0   4  -8 12624.1 779.184   4
   0   4  -8 13887.8 790.992   1
   0   4  -7 36584.9 1340.22   1
   0   4  -7 36733.0 1377.40   4
   0   4  -6 11965.2 633.545   2
   0   4  -6 12024.5 668.101   1
   0   4  -6 11327.2 685.179   4
   0   4  -5 40609.0 1298.50   2
   0   4  -5 39336.3 1371.32   4
   0   4  -5 40497.4 1222.23   5
   0   4  -4 63283.2 1689.37   5
   0   4  -4 61422.6 1816.81   4
   0   4  -4 61186.9 1736.81   2
   0   4  -3 14984.3 621.413   5
   0   4  -3 16152.3 704.467   4
   0   4  -3 15438.5 649.103   2
   0   4  -2 2659.72 284.768   4
   0   4  -2 3111.77 291.006   2
   0   4  -2 3006.86 281.534   5
   0   4  -1 36317.9 1137.04   2
   0   4   0 3147.75 308.337   2
   0   4   1 4688.26 214.719   7
   0   4   2 65488.9 1624.12   7
   0   4   3 46161.5 1287.14   7
   0   4   4 28133.4 948.878   7
   0   4   5 28268.5 1026.09   7
   0   4   6 19598.9 875.132   7
   0   4   7 10077.6 639.929   7
   0   4   8 4500.15 479.779   7
   0   4   9 13320.8 834.344   7
   0   4  10 380.632 284.476   7
   0   4  11 20339.1 1136.68   7
   0   4  12 2447.55 460.933   7
   0   4  13 3947.39 567.802   7
   0   3 -15-466.292 369.588   1
   0   3 -14 5937.30 586.837   4
   0   3 -14 5665.17 674.826   1
   0   3 -13 2010.47 401.650   4
   0   3 -13 2390.82 475.358   1
   0   3 -12 8688.01 689.171   4
   0   3 -12 9792.96 795.168   1
   0   3 -11 9836.56 770.242   1
   0   3 -11 10345.2 728.030   4
   0   3 -10 15450.0 873.028   4
   0   3 -10 15134.1 905.575   1
   0   3  -9 1049.72 309.204   4
   0   3  -9 1174.95 329.203   1
   0   3  -8 58120.8 1875.56   1
   0   3  -8 60217.2 1895.30   4
   0   3  -7 1021.55 269.695   4
   0   3  -7 1253.17 299.563   1
   0   3  -6 67937.2 1983.11   1
   0   3  -6 71502.4 2022.80   4
   0   3  -5 22655.9 886.728   4
   0   3  -5 22063.9 832.275   2
   0   3  -5 22069.5 852.483   1
   0   3  -4 62277.8 1638.12   5
   0   3  -4 63469.6 1705.29   2
   0   3  -4 63243.9 1763.16   4
   0   3  -4 62842.5 1732.97   1
   0   3  -3 2109.23 207.474   5
   0   3  -3 2459.23 269.379   4
   0   3  -3 2044.51 231.385   2
   0   3  -2 403.425 138.415   5
   0   3  -2 492.789 165.330   4
   0   3  -2 332.395 152.787   2
   0   3  -1 5600.32 336.787   4
   0   3  -1 5122.34 318.311   2
   0   3   0 10297.1 472.031   2
   0   3   1 2694.68 158.694   7
   0   3   2 5910.76 293.057   7
   0   3   3 93301.5 2292.37   7
   0   3   4 4165.63 325.621   7
   0   3   4 4483.63 369.854   9
   0   3   5 67877.4 1948.51   9
   0   3   5 68985.6 1924.33   7
   0   3   6 15447.3 747.057   9
   0   3   6 14638.8 737.106   7
   0   3   7 36446.5 1304.88   9
   0   3   7 37927.9 1372.43   7
   0   3   8 15737.4 852.292   7
   0   3   8 14303.4 765.962   9
   0   3   9 5088.33 464.906   9
   0   3   9 4824.42 522.460   7
   0   3  10 19386.5 916.916   9
   0   3  10 18183.3 1043.96   7
   0   3  11 3981.37 526.311   7
   0   3  12 9314.13 802.728   7
   0   3  13 2491.57 504.835   7
   0   2 -15 7279.86 753.158   1
   0   2 -14 1157.10 423.547   1
   0   2 -13 7759.44 739.789   1
   0   2 -13 7982.83 625.634   4
   0   2 -12 2406.66 390.816   4
   0   2 -12 1542.41 394.187   1
   0   2 -11 14648.6 824.279   4
   0   2 -11 13197.4 866.703   1
   0   2 -10 11297.4 700.046   4
   0   2 -10 10535.1 738.135   1
   0   2  -9 26561.5 1098.36   4
   0   2  -9 25223.6 1122.52   1
   0   2  -8 10078.3 622.258   4
   0   2  -8 10915.3 663.856   1
   0   2  -7 22105.2 936.822   1
   0   2  -7 23086.0 929.263   4
   0   2  -6 1670.86 269.593   4
   0   2  -6 1606.19 272.321   1
   0   2  -5 15739.1 671.797   4
   0   2  -5 15692.7 679.341   1
   0   2  -4 94699.9 2336.97   2
   0   2  -4 92803.5 2361.31   4
   0   2  -4 94530.6 2357.29   1
   0   2  -3 34207.3 989.246   1
   0   2  -3 33262.3 1007.78   4
   0   2  -3 32844.6 968.534   2
   0   2  -3 34767.2 921.744   5
   0   2  -2 81677.6 1932.91   5
   0   2  -2 83911.8 2011.82   4
   0   2  -2 80657.1 1956.55   2
   0   2  -1 42137.7 1108.31   4
   0   2  -1 42426.5 1089.82   2
   0   2   0 60414.5 1492.90   2
   0   2   1 75371.4 1723.42   7
   0   2   2 40921.9 1152.13   9
   0   2   2 41886.7 1084.55   7
   0   2   3 114928. 2776.25   9
   0   2   3 114866. 2743.23   7
   0   2   4 20841.0 770.331   9
   0   2   4 21653.0 779.129   7
   0   2   5 2846.44 296.802   9
   0   2   5 2850.00 302.899   7
   0   2   6 30076.5 1111.65   7
   0   2   6 28577.1 1024.27   9
   0   2   7 15707.5 722.452   9
   0   2   7 14687.8 771.211   7
   0   2   8 34225.7 1200.69   9
   0   2   8 31432.4 1293.63   7
   0   2   9 10137.3 716.667   7
   0   2   9 8839.72 576.314   9
   0   2  10 13380.0 879.434   7
   0   2  10 13764.9 723.441   9
   0   2  11 1340.34 309.472   9
   0   2  11 1631.27 396.444   7
   0   2  12 20662.6 1199.65   7
   0   2  13 1262.16 437.018   7
   0   2  14 14328.1 1042.52   7
   0   1 -15 3670.17 591.458   1
   0   1 -14 21039.7 1201.90   1
   0   1 -13 4528.70 458.027   4
   0   1 -13 4525.24 601.244   1
   0   1 -12 5959.59 500.731   4
   0   1 -12 5865.24 626.085   1
   0   1 -11 14715.4 798.443   4
   0   1 -11 14589.2 897.029   1
   0   1 -10 3803.41 413.904   4
   0   1 -10 3445.98 465.188   1
   0   1  -9 64003.1 1906.69   4
   0   1  -9 62070.0 2010.75   1
   0   1  -8 49581.8 1543.64   4
   0   1  -8 47375.5 1600.14   1
   0   1  -7 28711.4 1029.60   4
   0   1  -7 27781.9 1071.24   1
   0   1  -6 14772.8 685.429   1
   0   1  -6 14022.7 631.399   4
   0   1  -5 120008. 2951.96   4
   0   1  -5 122327. 2977.84   1
   0   1  -4 65004.7 1706.03   4
   0   1  -4 67352.1 1727.14   1
   0   1  -3 36467.0 1016.74   4
   0   1  -3 37009.0 1014.64   1
   0   1  -2 216909. 4827.75   2
   0   1  -2 221879. 4833.05   1
   0   1  -2 218751. 4846.41   4
   0   1   2 141626. 3276.86   9
   0   1   2 148553. 3280.92   7
   0   1   3 107710. 2559.62   9
   0   1   3 110654. 2602.46   7
   0   1   4 51734.8 1405.50   9
   0   1   4 54291.5 1489.93   7
   0   1   5 115215. 2791.79   9
   0   1   5 113180. 2884.35   7
   0   1   6 27022.0 924.205   9
   0   1   6 28438.3 1051.30   7
   0   1   7 33731.9 1275.06   7
   0   1   7 33684.1 1115.55   9
   0   1   8 48022.8 1684.38   7
   0   1   8 49173.6 1494.01   9
   0   1   9 68793.4 1956.67   9
   0   1   9 66162.6 2191.11   7
   0   1  10 3585.02 373.105   9
   0   1  10 3603.17 481.578   7
   0   1  11 14745.1 726.019   9
   0   1  11 14286.5 940.059   7
   0   1  12 13931.1 970.850   7
   0   1  13 3769.96 561.438   7
   0   1  14 16604.5 1126.28   7
   0   0 -15 2535.54 493.316   1
   0   0 -14 398.215 380.263   1
   0   0 -13 1538.73 432.881   1
   0   0 -12 11824.9 847.425   1
   0   0 -12 12657.1 699.495   4
   0   0 -11 9532.90 732.723   1
   0   0 -11 10409.2 627.274   4
   0   0 -10 39370.3 1341.53   4
   0   0 -10 37317.1 1481.41   1
   0   0  -9 39665.5 1314.32   4
   0   0  -9 36829.8 1425.46   1
   0   0  -8 3894.26 369.907   4
   0   0  -8 4397.98 441.510   1
   0   0  -7 2194.93 305.747   1
   0   0  -7 2181.82 267.020   4
   0   0  -6 217451. 4897.55   4
   0   0  -6 210482. 4982.78   1
   0   0  -5 16880.3 630.137   4
   0   0  -5 18165.0 574.198   9
   0   0  -5 16108.5 678.892   1
   0   0  -4 75541.8 1905.16   4
   0   0  -4 78712.7 1847.92   9
   0   0  -4 78884.5 1971.96   1
   0   0  -2 369543. 8069.30   4
   0   0  -2 378147. 8097.64   1
   0   0   2 362832. 7829.74   9
   0   0   4 75476.0 1896.36   9
   0   0   4 81116.4 1890.38   4
   0   0   4 79987.1 2031.02   7
   0   0   5 16420.8 600.779   9
   0   0   5 18064.9 589.834   4
   0   0   5 17317.3 718.146   7
   0   0   6 211393. 5006.36   9
   0   0   6 219963. 5211.05   7
   0   0   7 2203.35 250.938   9
   0   0   7 2465.90 338.693   7
   0   0   8 4669.97 362.853   9
   0   0   8 4300.49 454.218   7
   0   0   9 38645.3 1254.74   9
   0   0   9 38428.9 1500.04   7
   0   0  10 38936.0 1285.01   9
   0   0  10 40252.2 1601.72   7
   0   0  11 9364.13 760.855   7
   0   0  11 8917.79 533.946   9
   0   0  12 13304.8 951.555   7
   0   0  13 1182.14 408.893   7
   0   0  14 263.094 373.651   7
   0  -1 -14 16708.2 1047.56   1
   0  -1 -13 3180.30 521.268   1
   0  -1 -12 14220.6 932.785   1
   0  -1 -11 13926.5 680.676   4
   0  -1 -11 13321.1 857.289   1
   0  -1 -10 2983.24 440.376   1
   0  -1 -10 3008.79 322.186   4
   0  -1  -9 67258.7 1889.01   4
   0  -1  -9 65908.9 2107.05   1
   0  -1  -8 48850.8 1438.46   4
   0  -1  -8 45427.2 1587.57   1
   0  -1  -7 33558.3 963.453   4
   0  -1  -7 33810.1 1132.15   1
   0  -1  -7 25176.4 594.663   3
   0  -1  -6 27399.9 795.523   4
   0  -1  -6 26758.0 909.323   1
   0  -1  -5 110418. 2469.21   4
   0  -1  -5 111816. 2601.96   1
   0  -1  -4 49450.3 1186.37   8
   0  -1  -4 54082.3 1319.61   9
   0  -1  -4 51474.3 1311.11   4
   0  -1  -4 50999.9 1416.53   1
   0  -1  -3 111143. 2653.34   1
   0  -1  -3 112934. 2583.03   9
   0  -1  -3 108382. 2485.31   8
   0  -1  -3 104973. 2544.28   4
   0  -1  -2 143082. 3244.65   1
   0  -1   2 214394. 4696.88   5
   0  -1   2 216398. 4670.31   3
   0  -1   3 35448.2 832.485   3
   0  -1   4 64658.4 1618.23   9
   0  -1   4 69125.1 1662.90   4
   0  -1   4 67111.2 1653.93   2
   0  -1   5 121876. 3005.78   7
   0  -1   5 119556. 2835.70   9
   0  -1   6 11446.0 354.031   8
   0  -1   6 12776.8 515.773   9
   0  -1   7 27878.0 869.282   9
   0  -1   7 28880.4 1069.73   7
   0  -1   8 52456.9 1729.38   7
   0  -1   8 49864.1 1457.49   9
   0  -1   9 63673.2 1792.18   9
   0  -1   9 66818.4 2136.94   7
   0  -1  10 3667.68 332.718   9
   0  -1  10 3472.97 477.012   7
   0  -1  11 15356.6 707.559   9
   0  -1  11 17756.0 1027.93   7
   0  -1  12 6924.41 701.314   7
   0  -1  13 4821.08 624.645   7
   0  -1  14 23270.4 1322.19   7
   0  -1  15 4666.03 652.203   7
   0  -2 -14 14453.2 969.879   1
   0  -2 -13 1429.26 419.367   1
   0  -2 -12 16826.0 1008.63   1
   0  -2 -11 844.617 352.053   1
   0  -2 -10 13038.7 831.042   1
   0  -2 -10 12526.4 605.723   4
   0  -2  -9 9358.63 510.408   4
   0  -2  -9 9314.41 669.528   1
   0  -2  -8 32924.0 1067.16   4
   0  -2  -8 32730.1 1268.49   1
   0  -2  -7 14220.3 436.900   8
   0  -2  -7 15741.8 633.341   4
   0  -2  -7 14900.6 769.325   1
   0  -2  -7 16119.3 474.747   3
   0  -2  -6 28254.2 905.908   4
   0  -2  -6 28005.0 773.519   8
   0  -2  -6 30011.0 1086.24   1
   0  -2  -6 29280.8 786.847   3
   0  -2  -5 2910.94 238.719   4
   0  -2  -5 2344.09 303.220   1
   0  -2  -5 2733.59 188.396   8
   0  -2  -4 19952.5 767.260   1
   0  -2  -4 19984.6 616.463   8
   0  -2  -3 113961. 2841.48   1
   0  -2  -3 122294. 2792.20   9
   0  -2  -2 42650.1 1205.09   6
   0  -2  -1 78859.6 1779.32   7
   0  -2  -1 77928.5 1923.21   6
   0  -2   0 62217.3 1560.19   6
   0  -2   0 65189.7 1546.73   5
   0  -2   1 42335.5 1107.23   6
   0  -2   1 44599.0 1098.24   5
   0  -2   2 85610.4 1987.40   5
   0  -2   3 35406.3 925.607   5
   0  -2   3 35459.4 961.134   2
   0  -2   3 36052.6 920.066   3
   0  -2   4 96543.0 2239.15   5
   0  -2   4 95885.5 2286.22   2
   0  -2   4 94888.5 2193.10   3
   0  -2   5 14716.3 509.833   5
   0  -2   5 14629.9 640.278   7
   0  -2   5 15177.4 445.540   3
   0  -2   6 1539.27 197.628   9
   0  -2   6 1704.40 268.821   7
   0  -2   6 1526.55 112.261   3
   0  -2   7 21454.2 732.392   9
   0  -2   7 23064.4 932.313   7
   0  -2   8 9417.19 492.850   9
   0  -2   8 9448.75 338.355   8
   0  -2   8 10553.7 655.294   7
   0  -2   9 25076.1 907.846   9
   0  -2   9 27215.3 1178.71   7
   0  -2  10 10827.1 553.089   9
   0  -2  10 11754.3 791.702   7
   0  -2  11 14972.2 937.173   7
   0  -2  11 13062.3 632.774   9
   0  -2  12 1963.13 454.955   7
   0  -2  13 8486.44 779.180   7
   0  -2  14 1477.33 441.203   7
   0  -2  15 8230.97 806.435   7
   0  -3 -14 105.798 299.154   1
   0  -3 -13 3023.47 502.879   1
   0  -3 -12 9752.38 784.055   1
   0  -3 -11 3549.73 505.598   1
   0  -3 -10 16355.2 945.624   1
   0  -3  -9 6014.10 379.519   4
   0  -3  -9 5024.84 541.726   1
   0  -3  -8 13708.4 461.148   8
   0  -3  -8 15532.8 621.085   4
   0  -3  -8 15467.5 846.034   1
   0  -3  -7 36184.3 1009.33   8
   0  -3  -7 38134.0 1120.64   4
   0  -3  -7 36824.2 1357.50   1
   0  -3  -6 14478.4 747.260   1
   0  -3  -6 14373.4 529.648   8
   0  -3  -6 13347.4 561.093   4
   0  -3  -5 70333.7 1984.70   1
   0  -3  -5 68297.2 1757.66   8
   0  -3  -4 4609.48 398.949   1
   0  -3  -3 93200.6 2454.14   6
   0  -3  -2 5964.15 405.282   6
   0  -3  -1 2553.57 142.177   7
   0  -3  -1 2631.05 267.829   6
   0  -3   0 9194.82 257.826   7
   0  -3   0 9807.59 447.701   6
   0  -3   1 5053.62 318.922   6
   0  -3   1 5558.86 291.123   5
   0  -3   2 223.042 125.113   2
   0  -3   2 360.904 121.670   5
   0  -3   2 421.223 145.499   6
   0  -3   3 2355.41 202.341   2
   0  -3   3 2661.32 211.825   3
   0  -3   3 2550.52 195.939   5
   0  -3   4 64735.9 1588.78   5
   0  -3   4 62288.8 1575.46   3
   0  -3   5 23574.8 711.732   5
   0  -3   5 22522.1 681.621   3
   0  -3   6 67231.2 1908.06   7
   0  -3   6 67154.0 1624.05   3
   0  -3   7 928.236 114.779   3
   0  -3   7 997.110 191.277   9
   0  -3   7 845.503 249.011   7
   0  -3   8 60559.3 1650.36   9
   0  -3   8 64408.2 1910.32   7
   0  -3   9 846.970 203.383   9
   0  -3   9 932.978 289.910   7
   0  -3  10 15800.9 684.249   9
   0  -3  10 14814.5 890.648   7
   0  -3  11 9552.73 517.983   9
   0  -3  11 8409.73 702.951   7
   0  -3  12 9964.96 793.590   7
   0  -3  13 2641.67 470.512   7
   0  -3  14 6163.77 686.933   7
   0  -3  15 1324.27 424.426   7
   0  -4 -13 3692.73 540.878   1
   0  -4 -12 2419.72 479.591   1
   0  -4 -11 18857.9 1055.10   1
   0  -4 -10 1001.35 361.777   1
   0  -4  -9 10998.5 756.711   1
   0  -4  -8 4104.95 314.143   4
   0  -4  -8 4015.26 475.279   1
   0  -4  -7 10050.0 679.408   1
   0  -4  -7 10136.2 471.402   8
   0  -4  -7 10076.8 479.398   4
   0  -4  -6 20607.1 752.276   8
   0  -4  -6 20389.9 941.029   1
   0  -4  -5 29219.7 1117.39   1
   0  -4  -5 28187.9 958.143   8
   0  -4  -4 28254.1 1076.15   1
   0  -4  -3 44249.6 1442.27   6
   0  -4  -2 70609.7 2000.21   6
   0  -4  -1 4745.54 276.620   4
   0  -4  -1 4605.91 374.435   6
   0  -4   0 2288.82 104.084   7
   0  -4   0 3093.51 296.747   6
   0  -4   1 38073.2 1178.85   6
   0  -4   2 2820.95 278.154   6
   0  -4   3 14399.0 614.343   6
   0  -4   4 61131.4 1721.62   6
   0  -4   5 40870.2 1222.11   7
   0  -4   6 10759.5 563.095   7
   0  -4   7 37340.4 1281.80   7
   0  -4   8 12093.7 692.764   7
   0  -4   9 13775.0 647.226   9
   0  -4   9 13767.5 792.402   7
   0  -4  10 2247.05 285.680   9
   0  -4  10 2183.96 379.020   7
   0  -4  11 17094.3 741.746   9
   0  -4  11 17246.3 985.915   7
   0  -4  12 3132.64 487.472   7
   0  -4  13 14773.1 973.195   7
   0  -4  14 3361.77 535.386   7
   0  -4  15 3022.05 539.692   7
   0  -5 -13 1725.61 419.554   1
   0  -5 -12 3753.92 552.997   1
   0  -5 -11 1446.26 442.933   1
   0  -5 -10 8720.62 714.068   1
   0  -5  -9 1929.01 417.263   1
   0  -5  -8 9401.68 711.641   1
   0  -5  -7 4178.22 333.895   8
   0  -5  -7 3057.95 273.144   4
   0  -5  -7 3344.35 459.928   1
   0  -5  -6 12904.7 768.097   1
   0  -5  -6 11968.7 606.997   8
   0  -5  -5 502.073 287.691   1
   0  -5  -4 21888.9 1030.26   6
   0  -5  -3 55455.0 1796.95   6
   0  -5  -2 31701.9 1203.37   6
   0  -5  -1 87026.6 2407.99   6
   0  -5   0 22888.3 915.768   6
   0  -5   1 3482.48 345.186   6
   0  -5   2 43464.6 1374.36   6
   0  -5   3 57518.5 1692.49   6
   0  -5   4 55900.8 1670.45   6
   0  -5   5 50660.8 1433.45   7
   0  -5   5 54101.2 1608.38   6
   0  -5   6 21160.3 814.368   7
   0  -5   7 2551.83 308.377   7
   0  -5   8 10662.1 636.099   7
   0  -5   9 7560.62 568.537   7
   0  -5  10 7175.22 481.926   9
   0  -5  10 6470.27 573.629   7
   0  -5  11 1045.56 228.457   9
   0  -5  11 736.894 299.538   7
   0  -5  12 8878.58 720.107   7
   0  -5  13 2097.12 435.175   7
   0  -5  14 2907.64 480.937   7
   0  -5  15 2497.08 484.202   7
   0  -6 -12 1812.38 421.958   1
   0  -6 -11 8357.82 735.637   1
   0  -6 -10 6098.06 634.661   1
   0  -6  -9 2720.75 479.187   1
   0  -6  -8 3439.41 483.407   1
   0  -6  -7 767.787 372.585   1
   0  -6  -7 185.695 185.840   8
   0  -6  -6 9934.27 701.082   1
   0  -6  -6 9305.76 572.146   8
   0  -6  -5 5680.01 545.167   1
   0  -6  -4 25087.1 1182.69   6
   0  -6  -3 4088.30 492.976   6
   0  -6  -2 44498.6 1582.33   6
   0  -6  -1 34485.8 1309.54   6
   0  -6   0 41645.5 1440.00   6
   0  -6   1 27581.4 1084.57   6
   0  -6   2 12713.0 691.469   6
   0  -6   3 57281.3 1377.08   7
   0  -6   3 62978.1 1834.14   6
   0  -6   4 18209.1 592.912   7
   0  -6   4 18802.5 852.407   6
   0  -6   5 44231.3 1257.03   7
   0  -6   5 45475.5 1500.22   6
   0  -6   6 1830.41 240.395   7
   0  -6   6 1535.03 303.022   6
   0  -6   7 15899.0 710.603   7
   0  -6   7 15725.9 810.327   6
   0  -6   8 7268.49 517.412   7
   0  -6   9 5458.28 474.320   7
   0  -6  10 154.338 223.147   7
   0  -6  11 3018.84 336.161   9
   0  -6  11 2632.03 394.638   7
   0  -6  12 7316.65 632.053   7
   0  -6  13 1202.16 343.056   7
   0  -6  14 13592.5 907.820   7
   0  -6  15 1422.88 399.008   7
   0  -7 -11 10783.0 799.460   1
   0  -7 -10 7046.23 672.907   1
   0  -7  -9 3889.39 533.341   1
   0  -7  -8 1962.19 446.614   1
   0  -7  -7 1581.69 414.267   1
   0  -7  -7 1616.86 279.975   8
   0  -7  -6 2873.59 472.416   1
   0  -7  -6 1893.15 322.836   8
   0  -7  -5 28219.1 1252.93   1
   0  -7  -4 7341.21 667.395   6
   0  -7  -3 26076.8 1216.68   6
   0  -7  -2 14202.8 878.148   6
   0  -7  -1 4530.11 504.891   6
   0  -7   0 26609.8 1166.03   6
   0  -7   1 9945.21 669.955   6
   0  -7   2 6616.51 547.816   6
   0  -7   3 25005.2 1084.85   6
   0  -7   4 818.448 114.827   7
   0  -7   4 1234.23 309.590   6
   0  -7   5 20941.4 690.223   7
   0  -7   5 23270.2 1015.36   6
   0  -7   6 13342.8 570.282   7
   0  -7   6 13794.6 768.574   6
   0  -7   7 17622.1 732.287   7
   0  -7   7 20141.0 957.684   6
   0  -7   8 21216.1 868.958   7
   0  -7   8 21894.1 1025.66   6
   0  -7   9 3343.28 362.193   7
   0  -7   9 3652.64 446.511   6
   0  -7  10 4130.00 427.620   7
   0  -7  10 4632.13 497.647   6
   0  -7  11 512.035 265.429   7
   0  -7  11-218.927 276.614   6
   0  -7  12 2472.23 387.960   7
   0  -7  13 1247.98 343.169   7
   0  -7  14 8991.15 712.408   7
   0  -7  15 1274.65 385.327   7
   0  -8 -10 613.636 359.393   1
   0  -8  -9 15513.7 978.110   1
   0  -8  -8 3391.34 539.068   1
   0  -8  -7 8239.91 722.516   1
   0  -8  -6 9245.90 651.843   8
   0  -8  -6 9852.56 761.847   1
   0  -8  -5 5299.03 623.157   1
   0  -8  -5 4016.50 470.826   8
   0  -8  -4 8209.92 747.907   6
   0  -8  -3 18271.7 1063.83   6
   0  -8  -2 4451.43 554.081   6
   0  -8  -1 12887.2 850.144   6
   0  -8   0 38308.8 1518.75   6
   0  -8   1 2658.35 462.090   6
   0  -8   2 46444.8 1682.88   6
   0  -8   3 14893.7 868.310   6
   0  -8   4 14149.4 836.535   6
   0  -8   5 17705.0 942.287   6
   0  -8   6 7416.59 596.127   6
   0  -8   7 6204.92 384.262   7
   0  -8   7 7133.84 579.050   6
   0  -8   8 9060.89 513.579   7
   0  -8   8 10869.3 715.998   6
   0  -8   9 1043.02 229.831   7
   0  -8   9 1148.02 322.724   6
   0  -8  10 7829.77 538.484   7
   0  -8  10 8210.80 653.994   6
   0  -8  11 3387.56 446.060   6
   0  -8  12 11110.7 766.265   6
   0  -8  13 2608.84 415.640   6
   0  -9  -9 4874.57 576.137   1
   0  -9  -8 628.207 385.042   1
   0  -9  -7 25325.5 1260.53   1
   0  -9  -6 2758.58 506.724   1
   0  -9  -6 3433.29 453.656   8
   0  -9  -5 22558.1 1108.86   8
   0  -9  -5 22977.5 1172.62   1
   0  -9  -4 10237.5 864.848   6
   0  -9  -3 9252.07 795.082   6
   0  -9  -2 11216.6 856.492   6
   0  -9  -1 948.545 386.616   6
   0  -9   0 7504.56 679.353   6
   0  -9   1 1021.63 339.153   6
   0  -9   2 111.049 276.307   6
   0  -9   3 1163.33 340.968   6
   0  -9   4 6020.70 573.949   6
   0  -9   5 695.559 316.158   6
   0  -9   6 13791.5 851.984   6
   0  -9   7 8148.05 659.013   6
   0  -9   8 11758.3 783.630   6
   0  -9   9 20678.0 1052.82   6
   0  -9  10 5017.40 541.977   6
   0  -9  11 23380.9 1130.48   6
   0  -9  12 402.253 288.044   6
   0 -10  -8 6974.02 659.376   1
   0 -10  -7 934.683 415.448   1
   0 -10  -6 19635.2 1107.01   1
   0 -10  -5 3728.15 586.205   1
   0 -10  -5 2518.33 442.488   8
   0 -10  -4 5042.17 671.040   6
   0 -10  -3 2926.70 552.499   6
   0 -10  -2 5612.05 651.249   6
   0 -10  -1 1285.09 401.164   6
   0 -10   0 2560.11 467.368   6
   0 -10   1 8642.74 744.702   6
   0 -10   2 10099.4 785.237   6
   0 -10   3 629.526 326.981   6
   0 -10   4 13022.4 869.979   6
   0 -10   5 1273.99 386.054   6
   0 -10   6 1930.65 415.723   6
   0 -10   7 9138.98 724.627   6
   0 -10   8 2879.17 448.725   6
   0 -10   9 9530.60 729.954   6
   0 -10  10 3417.60 478.718   6
   0 -10  11 14908.5 881.007   6
   0 -11  -6 1442.38 419.381   1
   0 -11  -5 4921.86 559.920   8
   0 -11  -5 4149.05 564.898   1
   0 -11  -4 6766.38 671.173   8
   0 -11  -3 14821.2 1054.72   6
   0 -11  -2 1755.50 478.114   6
   0 -11  -1 16028.1 1066.87   6
   0 -11   0 6473.06 708.359   6
   0 -11   1 2691.94 503.952   6
   0 -11   2 8708.46 761.570   6
   0 -11   3 7321.64 701.334   6
   0 -11   4 2112.58 434.600   6
   0 -11   5 4766.04 571.408   6
   0 -11   6 13906.9 906.475   6
   0 -11   7 3219.50 483.738   6
   0 -11   8 11507.6 810.387   6
   0 -11   9 7302.19 659.962   6
   0 -11  10 2853.26 446.949   6
   0 -12  -3 3308.10 531.288   8
   0 -12  -2 531.543 408.810   6
   0 -12  -1 10405.9 887.909   6
   0 -12   0 1342.22 455.475   6
   0 -12   1 9876.00 843.275   6
   0 -12   2 2297.03 486.347   6
   0 -12   3 4480.65 595.057   6
   0 -12   4 6208.49 670.512   6
   0 -12   5 7299.97 693.906   6
   0 -12   6 4959.80 579.764   6
   0 -12   7 2002.46 404.092   6
   0 -12   8 3068.76 469.749   6
   0 -13   3 307.590 375.848   6
   0 -13   4 6379.62 648.248   6
   0 -13   5 291.627 310.457   6
  -1  13  -4 1844.75 431.073   2
  -1  13  -3 1603.61 410.054   2
  -1  12  -7 424.076 282.043   5
  -1  12  -6 11425.3 809.331   5
  -1  12  -6 11361.2 802.846   2
  -1  12  -5 991.388 389.843   5
  -1  12  -5 866.151 331.722   2
  -1  12  -4 19978.9 1124.94   5
  -1  12  -4 17680.2 1029.44   2
  -1  12  -3 3697.00 545.612   5
  -1  12  -3 3458.60 527.323   2
  -1  12  -2 5001.28 615.670   5
  -1  12  -2 4508.79 576.368   2
  -1  12  -1 20124.4 1182.34   5
  -1  12  -1 18547.3 1099.68   2
  -1  12   0 1277.92 445.478   5
  -1  12   0 1877.92 458.975   2
  -1  12   1 14336.7 989.125   2
  -1  12   1 12331.6 944.427   5
  -1  12   2 95.2763 322.246   2
  -1  11  -8 1835.60 383.580   5
  -1  11  -7 7090.97 617.398   2
  -1  11  -7 6936.91 618.957   5
  -1  11  -6 477.194 293.207   5
  -1  11  -6 346.373 297.875   2
  -1  11  -5 10659.4 790.383   5
  -1  11  -5 9462.92 744.158   2
  -1  11  -4 173.279 309.101   5
  -1  11  -4-149.079 317.687   2
  -1  11  -3 8100.65 731.490   5
  -1  11  -3 9190.36 723.318   2
  -1  11  -2 1918.62 446.894   5
  -1  11  -2 2407.82 450.273   2
  -1  11  -1 7857.54 734.578   5
  -1  11  -1 8788.72 746.353   2
  -1  11   0 2702.42 507.684   5
  -1  11   0 4464.57 597.737   2
  -1  11   1 5159.29 654.399   5
  -1  11   1 7377.36 720.346   2
  -1  11   2 3924.85 578.424   2
  -1  11   2 3214.47 544.478   5
  -1  11   3 7169.26 736.592   2
  -1  11   3 5640.12 655.277   5
  -1  11   4 3539.85 587.796   2
  -1  11   4 3817.82 610.149   5
  -1  10 -10 9445.75 879.478   4
  -1  10  -9 3020.69 557.277   4
  -1  10  -8 9013.03 674.487   5
  -1  10  -8 8124.60 818.319   4
  -1  10  -8 8268.02 660.352   2
  -1  10  -7 6790.37 607.187   5
  -1  10  -7 7525.64 629.027   2
  -1  10  -6 2973.88 441.413   5
  -1  10  -6 2957.49 440.188   2
  -1  10  -5 6365.73 609.010   5
  -1  10  -5 6959.71 616.426   2
  -1  10  -4 9306.90 730.597   5
  -1  10  -4 8698.55 693.086   2
  -1  10  -3 656.745 333.618   5
  -1  10  -3 1029.86 338.809   2
  -1  10  -2 22558.0 1200.91   5
  -1  10  -2 23739.5 1173.25   2
  -1  10  -1 864.050 360.225   5
  -1  10  -1 917.967 409.979   2
  -1  10   0 10407.9 797.098   2
  -1  10   0 9260.49 792.435   5
  -1  10   1 8178.14 744.343   2
  -1  10   1 6774.98 703.829   5
  -1  10   2 2301.11 456.000   5
  -1  10   2 2923.46 497.425   2
  -1  10   3 6276.76 691.601   2
  -1  10   3 6744.46 704.710   5
  -1  10   4 8117.42 775.665   2
  -1  10   4 8286.43 775.841   5
  -1  10   5 3641.04 552.527   5
  -1  10   5 4357.68 634.277   2
  -1  10   6 11357.5 919.670   2
  -1  10   6 9991.15 868.036   5
  -1   9 -11 16956.5 1150.46   4
  -1   9 -10 686.476 441.294   4
  -1   9  -9 17224.9 1147.96   4
  -1   9  -9 15204.2 880.438   2
  -1   9  -8 1994.66 355.438   5
  -1   9  -8 1208.92 426.499   4
  -1   9  -8 1136.04 345.801   2
  -1   9  -7 8490.78 637.872   2
  -1   9  -7 8248.87 782.568   4
  -1   9  -7 8266.55 642.579   5
  -1   9  -6 5510.05 538.625   2
  -1   9  -6 4393.59 492.010   5
  -1   9  -6 4603.92 590.203   4
  -1   9  -5 2841.82 413.283   5
  -1   9  -5 2466.10 397.614   2
  -1   9  -4 5861.40 577.758   5
  -1   9  -4 4997.08 510.197   2
  -1   9  -3 2992.70 433.512   5
  -1   9  -3 3955.07 476.370   2
  -1   9  -2 187.074 268.146   5
  -1   9  -2 174.182 286.009   2
  -1   9  -1 1475.77 353.455   5
  -1   9  -1 1224.67 342.781   2
  -1   9   0 7526.08 655.049   2
  -1   9   0 7378.10 665.865   5
  -1   9   1 1040.21 391.642   5
  -1   9   1 1421.86 390.578   2
  -1   9   2 11016.5 813.813   2
  -1   9   2 10148.9 812.491   5
  -1   9   3 3028.75 527.474   5
  -1   9   3 3247.53 527.364   2
  -1   9   4 15185.0 1015.29   2
  -1   9   4 12303.6 909.119   5
  -1   9   5 15841.2 1029.71   2
  -1   9   5 14160.6 994.135   5
  -1   9   6 6092.26 680.100   5
  -1   9   7 23203.5 1285.93   5
  -1   9   8 2474.05 491.760   5
  -1   8 -13 4991.34 673.706   4
  -1   8 -12 20722.6 1296.30   4
  -1   8 -11 12530.6 994.301   4
  -1   8 -10 32834.4 1632.81   4
  -1   8  -9 10348.1 706.397   2
  -1   8  -9 10157.9 877.771   4
  -1   8  -8 24561.5 1102.93   2
  -1   8  -8 24938.2 1116.93   5
  -1   8  -8 24632.1 1326.52   4
  -1   8  -7 3279.27 425.911   5
  -1   8  -7 3013.49 520.851   4
  -1   8  -7 3320.87 434.360   2
  -1   8  -6 1520.70 325.938   5
  -1   8  -6 1651.39 404.963   4
  -1   8  -6 1244.08 326.700   2
  -1   8  -5 9588.94 669.865   5
  -1   8  -5 9868.43 763.311   4
  -1   8  -5 9426.57 642.064   2
  -1   8  -4 6153.12 546.649   5
  -1   8  -4 5127.96 541.628   4
  -1   8  -4 5421.87 493.385   2
  -1   8  -3 5342.39 521.576   5
  -1   8  -3 5377.07 498.268   2
  -1   8  -2 12014.0 779.236   5
  -1   8  -2 11841.4 734.019   2
  -1   8  -1 7762.61 609.603   2
  -1   8  -1 7650.74 634.815   5
  -1   8   0 7771.25 621.029   2
  -1   8   0 6842.85 626.580   5
  -1   8   1 5917.08 581.257   2
  -1   8   1 5687.47 570.986   5
  -1   8   2 8267.08 682.522   2
  -1   8   2 8456.83 698.288   5
  -1   8   3 541.987 315.288   5
  -1   8   3 742.339 365.394   2
  -1   8   4 3459.32 506.938   5
  -1   8   5 25796.8 1300.50   5
  -1   8   6 6851.09 692.946   5
  -1   8   7 43049.4 1797.91   5
  -1   8   8 17492.0 1086.16   5
  -1   8   9 23352.1 1267.76   5
  -1   8  10 7972.67 731.622   5
  -1   7 -13 7773.21 793.726   4
  -1   7 -12 4961.33 658.800   4
  -1   7 -11 18743.6 1186.77   4
  -1   7 -10 3079.72 530.255   4
  -1   7  -9 6493.37 680.383   4
  -1   7  -8 22210.2 1029.08   2
  -1   7  -8 24103.9 1253.78   4
  -1   7  -7 58040.2 1882.63   2
  -1   7  -7 61096.7 2154.08   4
  -1   7  -7 60602.2 1923.38   5
  -1   7  -6 27259.5 1139.40   5
  -1   7  -6 28416.5 1299.47   4
  -1   7  -6 27073.2 1106.64   2
  -1   7  -5 69740.8 2140.82   5
  -1   7  -5 68939.0 2087.30   2
  -1   7  -5 70324.2 2282.60   4
  -1   7  -4 52155.3 1750.77   5
  -1   7  -4 51669.7 1817.97   4
  -1   7  -4 52312.4 1676.89   2
  -1   7  -3 4287.61 479.297   5
  -1   7  -3 4699.23 506.246   4
  -1   7  -3 4176.69 440.966   2
  -1   7  -2 209834. 5240.58   5
  -1   7  -2 209832. 5138.32   2
  -1   7  -1 102506. 2829.94   2
  -1   7  -1 99233.2 2882.76   5
  -1   7   0 61996.3 1981.56   2
  -1   7   0 63690.6 2063.84   5
  -1   7   1 89767.8 2623.20   2
  -1   7   1 89948.4 2693.98   5
  -1   7   2 52688.1 1793.22   2
  -1   7   2 49091.5 1790.69   5
  -1   7   3 1959.09 389.230   5
  -1   7   4 115646. 2749.38   7
  -1   7   4 112576. 3331.89   5
  -1   7   5 8824.80 469.394   7
  -1   7   5 9390.86 745.567   5
  -1   7   6 12014.8 842.276   5
  -1   7   7 8237.76 708.517   5
  -1   7   8 14087.7 943.010   5
  -1   7   9 568.284 370.978   5
  -1   7  10 7656.84 713.543   5
  -1   7  11 852.632 353.644   5
  -1   6 -14 19229.5 1187.25   4
  -1   6 -13 2734.74 529.635   4
  -1   6 -12 2918.57 533.743   4
  -1   6 -11 9446.05 819.607   4
  -1   6 -10 9568.19 802.917   4
  -1   6  -9 4488.46 566.947   4
  -1   6  -8 12451.5 866.552   4
  -1   6  -7 37182.0 1522.95   4
  -1   6  -7 35615.3 1298.58   2
  -1   6  -7 36878.4 1339.74   5
  -1   6  -6 2969.38 367.135   5
  -1   6  -6 3814.09 471.244   4
  -1   6  -6 2866.85 359.964   2
  -1   6  -5 96415.9 2646.21   5
  -1   6  -5 94304.1 2576.96   2
  -1   6  -5 94943.8 2787.84   4
  -1   6  -4 19502.9 870.885   5
  -1   6  -4 18096.9 915.977   4
  -1   6  -4 18026.2 815.795   2
  -1   6  -3 15990.4 791.404   5
  -1   6  -3 15352.7 809.098   4
  -1   6  -3 15501.2 742.973   2
  -1   6  -2 5020.62 445.545   5
  -1   6  -2 5421.09 438.173   2
  -1   6  -2 5198.04 453.111   4
  -1   6  -1 8987.71 572.712   2
  -1   6  -1 9368.27 607.407   5
  -1   6   0 2778.23 368.677   5
  -1   6   0 2857.87 356.031   2
  -1   6   1 35399.9 1262.85   2
  -1   6   1 31264.6 1257.05   5
  -1   6   2 14947.9 448.219   7
  -1   6   2 16213.3 837.446   5
  -1   6   3 87093.7 2097.62   7
  -1   6   3 86726.9 2583.84   5
  -1   6   4 3808.43 289.970   7
  -1   6   4 4252.37 483.164   5
  -1   6   5 8287.86 469.901   7
  -1   6   5 8341.33 646.881   5
  -1   6   6 17599.4 766.616   7
  -1   6   6 16311.4 940.036   5
  -1   6   7 2300.83 429.807   5
  -1   6   7 2730.23 346.927   7
  -1   6   8 11859.2 695.233   7
  -1   6   8 10612.6 785.197   5
  -1   6   9 4552.41 539.101   5
  -1   6   9 5258.17 496.304   7
  -1   6  10 7321.94 609.215   7
  -1   6  10 8226.72 692.620   5
  -1   6  11 13478.3 846.458   7
  -1   6  11 11568.1 829.958   5
  -1   6  12 19698.9 1066.17   5
  -1   5 -15 3578.02 546.742   4
  -1   5 -14 18729.5 1138.80   4
  -1   5 -13 5505.76 644.121   1
  -1   5 -13 5496.48 635.960   4
  -1   5 -12 4632.88 592.249   4
  -1   5 -12 4380.74 578.255   1
  -1   5 -11 3357.06 511.965   4
  -1   5 -10 2870.39 468.115   4
  -1   5  -9 1528.82 376.132   4
  -1   5  -8 1024.02 337.505   4
  -1   5  -7 3422.27 373.106   2
  -1   5  -7 3254.04 457.777   4
  -1   5  -6 14372.8 699.697   2
  -1   5  -6 15144.5 844.962   4
  -1   5  -6 15159.9 728.151   5
  -1   5  -5 19474.1 834.188   5
  -1   5  -5 18598.2 916.088   4
  -1   5  -5 18253.1 776.983   2
  -1   5  -4 69433.9 1953.29   5
  -1   5  -4 65884.6 2028.60   4
  -1   5  -4 68031.6 1883.43   2
  -1   5  -3 16536.4 751.757   5
  -1   5  -3 16030.6 694.288   2
  -1   5  -3 16505.7 776.818   4
  -1   5  -2 41795.7 1363.45   5
  -1   5  -2 41838.8 1347.76   4
  -1   5  -2 40612.4 1275.15   2
  -1   5  -1 1821.12 256.436   2
  -1   5  -1 1348.86 244.240   4
  -1   5   0 42352.6 1341.01   2
  -1   5   2 89131.6 2074.10   7
  -1   5   3 4654.02 282.272   7
  -1   5   3 4633.98 455.034   5
  -1   5   4 32584.7 1030.15   7
  -1   5   4 34484.1 1292.83   5
  -1   5   5 1547.96 324.433   5
  -1   5   5 1276.08 226.365   7
  -1   5   6 179.733 224.429   5
  -1   5   6 87.9955 172.774   7
  -1   5   7 403.814 266.194   5
  -1   5   7 236.426 217.681   7
  -1   5   8 2120.23 367.416   5
  -1   5   8 2583.83 367.880   7
  -1   5   9 1709.45 371.525   5
  -1   5   9 1582.25 327.323   7
  -1   5  10 1779.53 384.251   5
  -1   5  10 1717.56 386.080   7
  -1   5  11 3615.53 471.571   5
  -1   5  11 3333.23 481.456   7
  -1   5  12 4677.23 528.541   5
  -1   5  12 5663.30 618.145   7
  -1   5  13 9478.02 776.443   7
  -1   5  13 9242.82 699.855   5
  -1   4 -15 4807.85 588.477   4
  -1   4 -14 3498.39 556.189   1
  -1   4 -14 4117.92 548.503   4
  -1   4 -13 13125.0 912.683   4
  -1   4 -13 11914.0 908.416   1
  -1   4 -12 7040.50 706.662   1
  -1   4 -12 7439.26 688.132   4
  -1   4 -11 4222.22 560.557   1
  -1   4 -11 5190.61 572.418   4
  -1   4 -10 4820.32 547.107   4
  -1   4 -10 4594.84 524.195   1
  -1   4  -9 3267.00 467.103   1
  -1   4  -9 2606.22 430.272   4
  -1   4  -8 1866.33 352.013   1
  -1   4  -8 2110.80 386.778   4
  -1   4  -7 21504.1 1001.67   1
  -1   4  -7 21793.7 1012.34   4
  -1   4  -6 21548.4 860.014   2
  -1   4  -6 23041.8 1003.26   4
  -1   4  -5 52164.8 1630.20   4
  -1   4  -5 47124.6 1449.10   2
  -1   4  -5 51140.6 1516.71   5
  -1   4  -4 13767.2 694.324   4
  -1   4  -4 14943.7 652.763   5
  -1   4  -4 13352.9 589.354   2
  -1   4  -3 62664.0 1735.14   5
  -1   4  -3 62151.6 1780.80   4
  -1   4  -3 59964.6 1640.78   2
  -1   4  -2 26828.3 946.326   4
  -1   4  -2 25848.6 864.302   2
  -1   4  -1 59339.6 1613.73   4
  -1   4  -1 57003.8 1578.77   2
  -1   4   0 17771.9 669.369   4
  -1   4   0 18502.8 708.111   2
  -1   4   1 48643.8 1126.28   7
  -1   4   2 36339.2 955.275   7
  -1   4   3 33685.8 992.599   7
  -1   4   3 36129.8 1229.43   9
  -1   4   4 51781.6 1655.12   9
  -1   4   4 51095.3 1455.96   7
  -1   4   4 53949.2 1655.29   5
  -1   4   5 14102.2 778.883   9
  -1   4   5 14709.5 661.239   7
  -1   4   5 14900.3 760.140   5
  -1   4   6 25967.5 1096.78   9
  -1   4   6 23135.7 945.098   7
  -1   4   6 24083.6 1030.01   5
  -1   4   7 656.730 227.150   7
  -1   4   7 725.557 304.442   9
  -1   4   7 876.887 277.340   5
  -1   4   8 480.705 267.175   9
  -1   4   8 1191.38 295.366   7
  -1   4   8 746.457 263.622   5
  -1   4   9 7739.07 634.567   9
  -1   4   9 7371.00 611.349   7
  -1   4   9 8110.02 626.160   5
  -1   4  10 4141.66 489.237   9
  -1   4  10 4623.37 523.986   7
  -1   4  10 5033.88 504.834   5
  -1   4  11 7076.30 660.574   7
  -1   4  11 7758.05 638.210   9
  -1   4  11 6887.42 597.728   5
  -1   4  12 9593.31 792.626   7
  -1   4  12 9442.03 693.319   5
  -1   4  13 4078.07 481.143   5
  -1   4  13 3695.94 556.330   7
  -1   3 -14 4446.52 543.190   4
  -1   3 -14 2837.89 516.475   1
  -1   3 -13 11635.1 890.205   1
  -1   3 -13 13202.4 868.457   4
  -1   3 -12 9479.03 739.814   4
  -1   3 -12 8910.66 755.894   1
  -1   3 -11 7325.10 658.404   1
  -1   3 -11 9283.94 712.019   4
  -1   3 -10 16500.6 933.643   4
  -1   3 -10 15835.0 920.142   1
  -1   3  -9 6295.47 574.064   4
  -1   3  -9 6784.65 574.303   1
  -1   3  -8 13200.9 779.742   4
  -1   3  -8 11358.3 709.203   1
  -1   3  -7 8928.44 605.008   4
  -1   3  -7 8772.31 598.164   1
  -1   3  -6 76438.7 2160.45   1
  -1   3  -6 75519.7 2201.98   4
  -1   3  -5 8014.11 523.872   4
  -1   3  -5 7954.23 501.006   1
  -1   3  -4 93704.8 2371.97   5
  -1   3  -4 91936.1 2303.64   2
  -1   3  -4 93966.1 2461.57   4
  -1   3  -3 15882.2 626.467   5
  -1   3  -3 15793.7 666.100   4
  -1   3  -3 15387.3 565.204   2
  -1   3  -2 72044.2 1900.95   4
  -1   3  -2 73345.6 1794.15   2
  -1   3  -1 81976.5 2033.84   4
  -1   3  -1 80952.6 1984.70   2
  -1   3   0 60060.8 1524.26   4
  -1   3   1 71851.6 1887.40   9
  -1   3   2 24375.2 852.564   9
  -1   3   2 22144.6 656.459   7
  -1   3   3 87701.5 2307.95   9
  -1   3   3 85555.6 2118.23   7
  -1   3   4 8373.05 440.169   7
  -1   3   4 9541.46 546.006   9
  -1   3   4 9457.45 512.268   5
  -1   3   5 78549.8 2180.02   9
  -1   3   5 74012.7 2051.70   7
  -1   3   6 15370.9 774.030   9
  -1   3   6 15877.5 749.149   7
  -1   3   7 22439.8 991.982   9
  -1   3   7 22667.1 988.164   7
  -1   3   8 4025.38 439.614   9
  -1   3   8 3511.35 423.554   7
  -1   3   9 20776.1 1006.91   9
  -1   3   9 21003.9 1040.45   7
  -1   3  10 9278.03 671.459   9
  -1   3  10 9787.76 732.170   7
  -1   3  11 11482.8 743.637   9
  -1   3  11 11493.6 846.756   7
  -1   3  12 10120.8 708.480   9
  -1   3  12 9617.96 798.806   7
  -1   3  13 2163.63 452.705   7
  -1   3  13 2074.02 368.313   5
  -1   3  14 1114.21 424.681   7
  -1   2 -15 639.709 417.656   1
  -1   2 -14 2171.44 399.024   4
  -1   2 -14 2226.47 463.859   1
  -1   2 -13 1285.26 433.592   1
  -1   2 -13 1067.12 330.718   4
  -1   2 -12 13154.3 830.004   4
  -1   2 -12 13381.6 912.068   1
  -1   2 -11 7322.36 623.113   4
  -1   2 -11 8604.37 712.233   1
  -1   2 -10 23500.1 1135.95   1
  -1   2 -10 25718.7 1147.85   4
  -1   2  -9 14329.9 824.244   1
  -1   2  -9 14640.8 827.573   4
  -1   2  -8 40495.2 1444.09   4
  -1   2  -8 38089.1 1402.89   1
  -1   2  -7 1772.43 315.466   4
  -1   2  -7 2290.65 339.141   1
  -1   2  -6 104.464 202.604   4
  -1   2  -6 375.822 226.502   1
  -1   2  -5 74097.0 2024.63   1
  -1   2  -5 75362.7 2060.82   4
  -1   2  -4 65152.4 1763.47   1
  -1   2  -4 66359.7 1809.94   4
  -1   2  -3 191280. 4412.54   5
  -1   2  -3 188566. 4324.62   2
  -1   2  -3 193750. 4478.68   4
  -1   2  -3 192914. 4439.30   1
  -1   2  -2 36985.1 960.081   2
  -1   2  -2 37407.6 1078.20   4
  -1   2  -2 38156.7 954.228   7
  -1   2  -1 220133. 4865.20   4
  -1   2  -1 211933. 4773.78   2
  -1   2  -1 220172. 4719.24   7
  -1   2   0 196743. 4396.17   4
  -1   2   0 201618. 4453.10   9
  -1   2   1 198877. 4489.04   9
  -1   2   1 197969. 4330.76   4
  -1   2   2 55112.8 1481.87   9
  -1   2   3 202285. 4766.49   9
  -1   2   3 209976. 4736.60   5
  -1   2   4 57894.5 1643.79   9
  -1   2   5 26866.3 980.718   9
  -1   2   5 27612.4 979.072   7
  -1   2   6 7205.42 489.965   9
  -1   2   6 6956.63 482.876   7
  -1   2   7 7151.05 512.334   9
  -1   2   7 7178.84 537.819   7
  -1   2   8 40768.4 1506.87   7
  -1   2   8 42451.1 1447.23   9
  -1   2   9 1826.23 331.110   9
  -1   2   9 2018.00 386.400   7
  -1   2  10 34408.1 1316.88   9
  -1   2  10 33972.8 1457.01   7
  -1   2  11 522.847 315.542   7
  -1   2  11 884.682 293.850   9
  -1   2  12 14747.9 816.353   9
  -1   2  12 14194.3 967.460   7
  -1   2  13 879.134 405.196   7
  -1   2  14 2046.09 473.759   7
  -1   1 -15 3018.52 526.711   1
  -1   1 -14 2094.36 457.637   1
  -1   1 -13 4497.14 486.358   4
  -1   1 -13 4208.80 560.958   1
  -1   1 -12 10812.2 818.736   1
  -1   1 -12 12863.3 784.218   4
  -1   1 -11 6208.27 550.427   4
  -1   1 -11 5998.42 583.962   1
  -1   1 -10 15702.7 841.767   4
  -1   1 -10 13698.1 840.030   1
  -1   1  -9 36671.2 1334.33   4
  -1   1  -9 33297.9 1339.19   1
  -1   1  -8 10804.8 656.232   1
  -1   1  -8 10500.3 640.899   4
  -1   1  -7 21680.4 913.638   4
  -1   1  -7 21622.0 912.218   1
  -1   1  -6 23189.2 924.128   4
  -1   1  -6 24368.3 909.965   1
  -1   1  -5 26118.0 928.310   4
  -1   1  -5 25879.1 902.537   1
  -1   1  -4 124308. 3009.80   1
  -1   1  -4 127651. 3063.77   4
  -1   1  -3 36789.4 1093.43   4
  -1   1  -3 37800.2 1045.17   1
  -1   1  -2 409545. 8874.38   1
  -1   1  -2 405644. 8918.73   4
  -1   1  -1 115841. 2645.57   4
  -1   1   1 115108. 2631.06   9
  -1   1   2 427086. 9320.54   9
  -1   1   3 34620.1 1017.46   9
  -1   1   4 139840. 3338.11   9
  -1   1   5 30828.9 1014.98   9
  -1   1   6 24488.3 910.452   9
  -1   1   7 29456.8 1056.48   9
  -1   1   7 27933.5 1115.69   7
  -1   1   8 12261.3 740.173   7
  -1   1   8 12513.2 673.092   9
  -1   1   9 35059.2 1279.56   9
  -1   1   9 34738.5 1404.51   7
  -1   1  10 15393.7 926.245   7
  -1   1  10 18451.1 863.628   9
  -1   1  11 8979.08 601.307   9
  -1   1  11 7501.72 677.343   7
  -1   1  12 17352.1 870.625   9
  -1   1  12 16595.8 1055.80   7
  -1   1  13 5373.72 639.738   7
  -1   1  14 5109.69 652.865   7
  -1   0 -14 2881.98 503.737   1
  -1   0 -13 11322.6 841.812   1
  -1   0 -12 1068.02 287.294   4
  -1   0 -12 870.082 360.844   1
  -1   0 -11 21374.6 989.539   4
  -1   0 -11 20809.1 1083.03   1
  -1   0 -10 18477.3 887.017   4
  -1   0 -10 15942.9 900.646   1
  -1   0  -9 4889.89 447.954   4
  -1   0  -9 4477.06 489.022   1
  -1   0  -8 13761.2 715.032   4
  -1   0  -8 13217.6 722.900   1
  -1   0  -7 54298.9 1608.82   4
  -1   0  -7 48646.5 1583.26   1
  -1   0  -6 9019.87 361.182   9
  -1   0  -6 8941.70 520.013   4
  -1   0  -6 9403.22 528.573   1
  -1   0  -5 63213.9 1735.53   4
  -1   0  -5 63541.7 1516.95   9
  -1   0  -5 61088.4 1712.38   1
  -1   0  -4 33016.1 816.804   9
  -1   0  -4 30913.6 842.698   8
  -1   0  -4 30278.9 979.657   4
  -1   0  -4 31345.3 964.692   1
  -1   0  -3 43275.8 1014.42   9
  -1   0  -3 44313.8 1194.81   4
  -1   0  -3 44472.3 1150.27   1
  -1   0  -2 151280. 3441.72   8
  -1   0  -2 157525. 3524.04   4
  -1   0  -2 157616. 3462.49   1
  -1   0  -1 66448.2 1554.50   8
  -1   0  -1 67530.6 1517.93   3
  -1   0   2 98784.6 2184.18   8
  -1   0   2 96959.3 2194.38   4
  -1   0   3 172611. 3900.17   9
  -1   0   3 170538. 3769.47   4
  -1   0   4 8901.38 430.876   9
  -1   0   4 9386.97 336.747   4
  -1   0   5 2626.42 271.984   9
  -1   0   5 1875.82 177.841   4
  -1   0   6 70800.2 1933.36   9
  -1   0   6 72456.1 1764.87   4
  -1   0   7 21754.4 851.053   9
  -1   0   8 9120.25 545.433   9
  -1   0   8 9679.89 652.503   7
  -1   0   9 13719.5 703.812   9
  -1   0   9 13707.7 821.701   7
  -1   0  10 16264.9 963.626   7
  -1   0  10 17754.3 832.264   9
  -1   0  11 12777.6 706.490   9
  -1   0  11 12583.2 881.996   7
  -1   0  12 22733.9 980.881   9
  -1   0  12 21367.9 1201.31   7
  -1   0  13 7110.12 720.344   7
  -1   0  14 2734.66 520.761   7
  -1   0  15 6286.78 711.498   7
  -1  -1 -14 2424.78 493.372   1
  -1  -1 -13 4362.05 545.178   1
  -1  -1 -12 633.148 370.748   1
  -1  -1 -11 20095.8 914.613   4
  -1  -1 -11 18973.7 1025.38   1
  -1  -1 -10 6753.96 516.588   4
  -1  -1 -10 5976.58 564.163   1
  -1  -1  -9 14595.3 737.192   4
  -1  -1  -9 13741.8 786.930   1
  -1  -1  -8 13843.5 696.730   4
  -1  -1  -8 13308.9 738.760   1
  -1  -1  -7 1716.78 297.260   1
  -1  -1  -7 1838.83 278.340   4
  -1  -1  -6 5125.80 246.997   8
  -1  -1  -6 4557.60 360.029   4
  -1  -1  -6 4999.23 385.589   1
  -1  -1  -6 3861.10 143.490   3
  -1  -1  -5 53298.8 1351.44   8
  -1  -1  -5 55592.7 1536.98   4
  -1  -1  -5 56159.2 1550.29   1
  -1  -1  -5 51943.9 1248.37   3
  -1  -1  -4 20030.7 624.470   8
  -1  -1  -4 21778.9 631.561   9
  -1  -1  -4 20486.3 731.364   4
  -1  -1  -4 20520.2 723.359   1
  -1  -1  -4 21071.0 551.362   3
  -1  -1  -3 8676.85 327.262   9
  -1  -1  -3 7726.43 330.935   8
  -1  -1  -3 8310.52 283.594   3
  -1  -1  -3 8379.43 372.669   1
  -1  -1  -2 378724. 8231.27   9
  -1  -1  -2 389650. 8269.79   8
  -1  -1  -2 378958. 8208.25   3
  -1  -1  -2 374906. 8257.45   1
  -1  -1  -1 74481.4 1719.42   8
  -1  -1  -1 73474.6 1681.13   3
  -1  -1   0 376505. 8155.04   8
  -1  -1   0 376105. 8130.83   3
  -1  -1   1 440603. 9500.08   3
  -1  -1   2 31225.0 783.180   8
  -1  -1   2 30014.9 786.843   3
  -1  -1   3 305336. 6297.27   8
  -1  -1   3 300484. 6314.99   3
  -1  -1   4 15383.0 576.988   9
  -1  -1   4 16082.1 531.907   4
  -1  -1   4 16294.2 442.826   8
  -1  -1   4 15128.1 464.006   3
  -1  -1   5 11691.3 513.135   9
  -1  -1   5 11573.9 334.946   8
  -1  -1   5 12141.8 459.827   4
  -1  -1   5 11518.8 374.694   3
  -1  -1   6 45692.6 1282.54   9
  -1  -1   6 40951.0 946.864   8
  -1  -1   7 856.350 210.489   9
  -1  -1   8 3693.37 339.712   9
  -1  -1   8 2937.50 378.570   7
  -1  -1   9 6069.52 458.615   9
  -1  -1   9 7100.70 589.392   7
  -1  -1  10 12411.6 667.816   9
  -1  -1  10 12356.6 824.005   7
  -1  -1  11 3173.88 372.761   9
  -1  -1  11 3439.77 496.956   7
  -1  -1  12 11959.7 679.299   9
  -1  -1  12 12735.2 911.497   7
  -1  -1  13 696.808 360.463   7
  -1  -1  14 4032.49 615.940   7
  -1  -1  15 2835.91 546.051   7
  -1  -2 -14 14962.6 975.075   1
  -1  -2 -13 2281.23 460.353   1
  -1  -2 -12 6155.60 633.605   1
  -1  -2 -11 5581.69 574.170   1
  -1  -2 -10 427.269 301.219   1
  -1  -2 -10 385.847 241.620   4
  -1  -2  -9 7007.47 496.680   4
  -1  -2  -9 7021.78 579.035   1
  -1  -2  -8 21389.0 648.984   8
  -1  -2  -8 23018.3 1005.81   1
  -1  -2  -7 19892.5 624.848   8
  -1  -2  -7 19709.3 803.715   4
  -1  -2  -7 19404.6 868.740   1
  -1  -2  -7 18838.8 537.544   3
  -1  -2  -6 36301.8 1026.05   8
  -1  -2  -6 38171.6 1205.17   4
  -1  -2  -6 37774.8 1254.90   1
  -1  -2  -6 37689.1 953.100   3
  -1  -2  -5 16940.1 593.635   8
  -1  -2  -5 17079.0 523.189   3
  -1  -2  -5 17609.8 726.896   1
  -1  -2  -4 25886.8 791.593   8
  -1  -2  -4 26401.5 729.182   3
  -1  -2  -4 24025.3 862.471   1
  -1  -2  -3 30684.5 943.139   1
  -1  -2  -3 30294.0 908.274   8
  -1  -2  -3 32652.1 899.988   9
  -1  -2  -3 31475.9 856.650   3
  -1  -2  -2 7105.96 348.304   1
  -1  -2  -2 6956.97 316.992   9
  -1  -2  -2 6606.09 341.993   8
  -1  -2  -2 6743.21 314.573   7
  -1  -2  -2 7127.80 313.465   3
  -1  -2  -1 421893. 9041.12   8
  -1  -2  -1 410192. 8959.30   7
  -1  -2  -1 405488. 9048.99   6
  -1  -2  -1 415561. 8988.63   3
  -1  -2   0 27740.1 771.200   6
  -1  -2   0 29425.7 791.614   3
  -1  -2   1 73058.7 1737.55   6
  -1  -2   1 76829.3 1790.80   3
  -1  -2   2 329822. 7444.52   6
  -1  -2   2 342813. 7427.17   5
  -1  -2   3 90025.9 2050.55   3
  -1  -2   3 85308.9 1969.71   5
  -1  -2   4 50126.0 1203.06   5
  -1  -2   4 51231.1 1264.25   3
  -1  -2   5 10042.9 350.653   5
  -1  -2   5 10053.9 372.688   3
  -1  -2   6 17613.6 713.372   9
  -1  -2   6 18821.1 559.236   5
  -1  -2   6 17820.1 550.272   3
  -1  -2   7 42502.4 1327.96   9
  -1  -2   7 43918.9 1122.61   5
  -1  -2   7 42394.9 1074.03   3
  -1  -2   8 5345.12 222.154   8
  -1  -2   8 5780.15 426.245   9
  -1  -2   9 40987.0 1364.60   9
  -1  -2   9 43288.7 1582.19   7
  -1  -2  10 1567.78 279.019   9
  -1  -2  10 1592.32 375.362   7
  -1  -2  11 5213.84 440.186   9
  -1  -2  11 5261.00 592.709   7
  -1  -2  12 8407.84 557.190   9
  -1  -2  12 7848.59 719.140   7
  -1  -2  13 8372.59 776.412   7
  -1  -2  14 723.804 399.440   7
  -1  -2  15 13691.9 1012.62   7
  -1  -3 -14 3067.04 493.058   1
  -1  -3 -13 8711.14 738.583   1
  -1  -3 -12 10442.5 782.164   1
  -1  -3 -11 4733.87 550.000   1
  -1  -3 -10 14808.7 883.791   1
  -1  -3  -9 6600.81 475.913   4
  -1  -3  -9 6449.63 568.463   1
  -1  -3  -8 10090.6 567.416   4
  -1  -3  -8 9282.86 402.543   8
  -1  -3  -8 9299.47 639.642   1
  -1  -3  -7 42303.7 1200.00   8
  -1  -3  -7 43102.7 1367.57   4
  -1  -3  -7 44943.7 1485.81   1
  -1  -3  -6 22223.8 768.739   8
  -1  -3  -6 22780.6 940.778   1
  -1  -3  -5 29967.0 1057.03   1
  -1  -3  -5 28958.4 936.331   8
  -1  -3  -4 37547.4 1233.86   1
  -1  -3  -4 41616.0 1181.97   8
  -1  -3  -3 31137.5 993.109   1
  -1  -3  -3 31059.4 984.605   8
  -1  -3  -2 47070.2 1330.33   8
  -1  -3  -2 48056.1 1215.53   7
  -1  -3  -2 44448.0 1373.64   6
  -1  -3  -1 42202.6 1070.78   7
  -1  -3  -1 41155.3 1213.96   6
  -1  -3   0 21175.2 591.476   7
  -1  -3   0 20978.3 709.519   6
  -1  -3   1 1217.14 119.466   7
  -1  -3   1 1176.60 166.713   6
  -1  -3   2 21393.1 658.138   1
  -1  -3   2 21824.0 694.758   6
  -1  -3   2 23411.8 711.894   3
  -1  -3   2 22786.4 667.592   5
  -1  -3   3 35097.5 1006.33   6
  -1  -3   3 37070.7 1009.73   3
  -1  -3   3 36399.8 951.837   5
  -1  -3   4 76712.6 1881.32   3
  -1  -3   4 77560.6 1827.45   5
  -1  -3   5 17967.7 594.127   3
  -1  -3   5 18968.6 565.875   5
  -1  -3   6 69827.4 1645.53   5
  -1  -3   6 65632.7 1656.51   3
  -1  -3   7 19539.6 595.135   5
  -1  -3   7 18701.8 788.062   9
  -1  -3   7 18667.9 589.600   3
  -1  -3   8 44358.0 1389.31   9
  -1  -3   8 42405.8 1100.06   3
  -1  -3   9 21584.1 908.803   9
  -1  -3   9 23405.5 1076.14   7
  -1  -3  10 11839.3 650.987   9
  -1  -3  10 11846.8 789.103   7
  -1  -3  11 977.007 248.081   9
  -1  -3  11 1094.77 379.126   7
  -1  -3  12 9020.05 569.493   9
  -1  -3  12 9635.00 795.298   7
  -1  -3  13 4544.31 598.058   7
  -1  -3  14 5011.89 623.373   7
  -1  -3  15 4265.63 606.313   7
  -1  -4 -13 2281.27 446.208   1
  -1  -4 -12 1108.19 362.037   1
  -1  -4 -11 8510.43 686.930   1
  -1  -4 -10 249.395 302.985   1
  -1  -4  -9 4313.02 498.409   1
  -1  -4  -8 4091.55 378.033   4
  -1  -4  -8 4588.16 493.610   1
  -1  -4  -7 28338.8 1026.66   4
  -1  -4  -7 29997.6 970.973   8
  -1  -4  -7 28180.4 1161.42   1
  -1  -4  -6 1841.30 256.497   8
  -1  -4  -6 1248.74 333.069   1
  -1  -4  -5 117339. 2896.31   8
  -1  -4  -5 111549. 2982.69   1
  -1  -4  -4 9158.15 503.507   8
  -1  -4  -4 9618.02 557.537   1
  -1  -4  -3 95004.2 2473.27   8
  -1  -4  -2 25352.9 738.562   7
  -1  -4  -2 24035.5 944.149   6
  -1  -4  -1 3075.06 195.804   7
  -1  -4  -1 3527.29 349.146   6
  -1  -4   0 12126.5 402.658   7
  -1  -4   0 12332.9 569.023   6
  -1  -4   1 190172. 4198.37   7
  -1  -4   1 185614. 4405.23   6
  -1  -4   2 4356.06 307.525   6
  -1  -4   3 17392.3 651.356   6
  -1  -4   3 17088.6 583.109   5
  -1  -4   4 35339.9 1093.61   6
  -1  -4   4 36978.9 1003.99   5
  -1  -4   5 50626.3 1304.11   5
  -1  -4   6 43209.7 1136.58   5
  -1  -4   9 18588.4 846.845   9
  -1  -4   9 18786.2 933.112   7
  -1  -4  10 13438.4 704.716   9
  -1  -4  10 14269.7 856.128   7
  -1  -4  11 3375.89 372.343   9
  -1  -4  11 4260.57 507.146   7
  -1  -4  12 832.940 355.084   7
  -1  -4  12 1557.56 293.232   9
  -1  -4  13 13668.0 948.803   7
  -1  -4  14 1190.95 391.457   7
  -1  -4  15 3457.71 574.477   7
  -1  -5 -13 3281.72 483.825   1
  -1  -5 -12 492.672 321.883   1
  -1  -5 -11 2409.56 462.079   1
  -1  -5 -10 9303.85 716.201   1
  -1  -5  -9 3975.44 480.502   1
  -1  -5  -8 29289.0 1247.83   1
  -1  -5  -7 3044.93 432.911   1
  -1  -5  -7 3232.11 320.309   8
  -1  -5  -6 43562.5 1398.97   8
  -1  -5  -6 44509.7 1539.24   1
  -1  -5  -5 1457.21 272.591   8
  -1  -5  -5 2198.26 360.469   1
  -1  -5  -4 22367.0 922.540   8
  -1  -5  -4 23095.4 957.686   1
  -1  -5  -3 33355.0 1278.91   6
  -1  -5  -2 6210.47 499.334   6
  -1  -5  -1 26968.9 745.451   7
  -1  -5  -1 25839.2 1022.41   6
  -1  -5   0 1430.16 128.369   7
  -1  -5   0 1417.60 259.725   6
  -1  -5   1 734.047 104.029   7
  -1  -5   1 540.534 210.058   6
  -1  -5   2 3273.40 189.890   7
  -1  -5   2 3313.27 314.629   6
  -1  -5   3 4453.33 353.105   6
  -1  -5   4 29228.8 1002.61   6
  -1  -5   5 11720.7 585.212   6
  -1  -5   6 29698.6 1057.16   6
  -1  -5   9 30039.4 1213.83   7
  -1  -5  10 11144.9 660.807   9
  -1  -5  10 12260.9 765.768   7
  -1  -5  11 12705.7 702.666   9
  -1  -5  11 12668.1 825.285   7
  -1  -5  12 8045.16 554.223   9
  -1  -5  12 7762.92 681.086   7
  -1  -5  13 5088.77 587.764   7
  -1  -5  14 1992.05 416.990   7
  -1  -5  15 588.038 379.286   7
  -1  -6 -12-42.1058 300.652   1
  -1  -6 -11 1299.74 381.288   1
  -1  -6 -10 3056.30 474.130   1
  -1  -6  -9 6314.64 595.309   1
  -1  -6  -8 5929.35 567.883   1
  -1  -6  -7 5470.14 434.091   8
  -1  -6  -7 4890.27 520.245   1
  -1  -6  -6 9200.60 648.677   1
  -1  -6  -6 7838.30 548.421   8
  -1  -6  -5 14095.1 796.094   1
  -1  -6  -5 14692.7 760.203   8
  -1  -6  -4 24671.9 1041.22   8
  -1  -6  -3 9362.00 677.599   6
  -1  -6  -2 31423.4 1248.15   6
  -1  -6  -1 9134.34 338.464   7
  -1  -6  -1 8862.72 607.661   6
  -1  -6   0 20690.4 574.917   7
  -1  -6   0 19477.2 890.015   6
  -1  -6   1 6239.01 244.425   7
  -1  -6   1 6842.49 491.793   6
  -1  -6   2 8225.33 303.971   7
  -1  -6   2 9504.28 551.364   6
  -1  -6   3 16032.9 748.122   6
  -1  -6   4 13987.8 688.294   6
  -1  -6   5 26433.4 1006.56   6
  -1  -6   6 12043.5 638.219   6
  -1  -6   7 23034.7 953.007   6
  -1  -6   8 17716.7 812.639   7
  -1  -6   8 17510.2 825.282   6
  -1  -6   9 2454.54 353.697   7
  -1  -6  10 10173.9 677.836   7
  -1  -6  11 4436.22 447.082   9
  -1  -6  11 4595.82 489.870   7
  -1  -6  12 4591.04 450.620   9
  -1  -6  12 5549.22 565.587   7
  -1  -6  13 7078.22 655.270   7
  -1  -6  14 1349.71 385.448   7
  -1  -6  15 0.52713 291.269   7
  -1  -7 -11 445.820 307.751   1
  -1  -7 -10 4226.48 529.389   1
  -1  -7  -9 1887.96 418.967   1
  -1  -7  -8 5332.18 581.564   1
  -1  -7  -7 1313.08 297.399   8
  -1  -7  -7 1744.80 402.510   1
  -1  -7  -6 1299.72 310.227   8
  -1  -7  -6 1926.47 396.856   1
  -1  -7  -5 1834.35 402.663   1
  -1  -7  -5 1278.19 310.669   8
  -1  -7  -4 1180.69 299.934   8
  -1  -7  -3 15375.4 918.836   6
  -1  -7  -2 9690.53 716.873   6
  -1  -7  -1 25664.3 1151.86   6
  -1  -7   0 1386.26 113.925   7
  -1  -7   0 1333.91 358.508   6
  -1  -7   1 46631.9 1117.18   7
  -1  -7   1 56783.0 1710.25   6
  -1  -7   2 5780.04 224.223   7
  -1  -7   2 7574.11 556.568   6
  -1  -7   3 37171.8 949.718   7
  -1  -7   3 42298.6 1409.25   6
  -1  -7   4 19343.6 884.448   6
  -1  -7   5 10106.1 621.706   6
  -1  -7   6 25028.4 1037.57   6
  -1  -7   7 3353.30 380.627   6
  -1  -7   8 1843.22 279.550   7
  -1  -7   8 2014.37 319.794   6
  -1  -7   9 524.630 218.764   7
  -1  -7   9 1127.89 277.498   6
  -1  -7  10 607.093 237.773   7
  -1  -7  10 389.227 236.084   6
  -1  -7  11 3981.77 444.462   9
  -1  -7  11 3807.37 434.869   7
  -1  -7  11 4432.59 454.003   6
  -1  -7  12 8320.12 636.285   7
  -1  -7  12 7535.46 587.889   6
  -1  -7  13 913.048 336.810   7
  -1  -7  14 2288.92 415.755   7
  -1  -7  15 3026.48 453.464   7
  -1  -8 -10 3099.83 452.798   1
  -1  -8  -9 2134.11 423.598   1
  -1  -8  -8 1491.11 389.312   1
  -1  -8  -7 1562.18 396.452   1
  -1  -8  -6 7145.17 581.400   8
  -1  -8  -6 7973.64 652.169   1
  -1  -8  -5 1169.75 339.042   8
  -1  -8  -5 777.562 353.496   1
  -1  -8  -4 3542.25 471.409   8
  -1  -8  -3 2622.48 467.922   6
  -1  -8  -2 17354.0 987.716   6
  -1  -8  -1 12744.5 833.194   6
  -1  -8   0 10138.2 718.708   6
  -1  -8   1 1669.28 392.088   6
  -1  -8   2 35718.0 1379.41   6
  -1  -8   3 1607.13 320.133   6
  -1  -8   4 9534.03 641.081   6
  -1  -8   5 13915.1 783.945   6
  -1  -8   6 19068.4 686.951   7
  -1  -8   6 20214.3 954.649   6
  -1  -8   7 3082.12 289.054   7
  -1  -8   7 3409.06 404.892   6
  -1  -8   8 4949.06 390.208   7
  -1  -8   8 4735.75 466.209   6
  -1  -8   9 571.608 246.818   6
  -1  -8   9 462.663 220.849   7
  -1  -8  10 6546.31 506.041   7
  -1  -8  10 7117.44 564.276   6
  -1  -8  11 1931.17 328.654   7
  -1  -8  11 1267.22 318.859   6
  -1  -8  12 79.8243 238.494   7
  -1  -9  -9 3666.09 485.532   1
  -1  -9  -8 1549.70 402.306   1
  -1  -9  -7 6287.96 624.609   1
  -1  -9  -6 966.360 311.863   8
  -1  -9  -6 907.268 358.125   1
  -1  -9  -5 8984.77 710.513   8
  -1  -9  -5 10015.3 767.551   1
  -1  -9  -4 544.729 328.736   8
  -1  -9  -3 5393.72 584.553   8
  -1  -9  -3 4435.23 583.650   6
  -1  -9  -2 8118.99 741.925   6
  -1  -9  -1 5055.06 579.621   6
  -1  -9   0 11739.0 817.033   6
  -1  -9   1 7093.61 648.628   6
  -1  -9   2 4242.92 510.135   6
  -1  -9   3 15260.9 867.734   6
  -1  -9   4 3459.60 447.305   6
  -1  -9   5 9686.26 691.533   6
  -1  -9   6 10191.2 694.395   6
  -1  -9   7 3130.02 422.094   6
  -1  -9   8 4867.93 507.130   6
  -1  -9   9 3415.43 440.588   6
  -1  -9  10 6293.61 555.481   6
  -1 -10  -7 7001.15 633.941   1
  -1 -10  -6 17416.3 983.238   1
  -1 -10  -5 2723.30 471.253   1
  -1 -10  -5 2755.26 456.262   8
  -1 -10  -4 22299.2 1177.14   8
  -1 -10  -3 1273.32 411.851   8
  -1 -10  -3 610.530 388.793   6
  -1 -10  -2 8698.96 751.109   8
  -1 -10  -2 7927.96 749.086   6
  -1 -10  -1 5262.22 614.878   6
  -1 -10   0 4136.77 553.978   6
  -1 -10   1 4328.49 548.336   6
  -1 -10   2 973.814 361.773   6
  -1 -10   3 1032.06 350.502   6
  -1 -10   4 6225.99 582.321   6
  -1 -10   5 5066.48 523.656   6
  -1 -10   6 4432.21 491.322   6
  -1 -10   7 6595.62 579.880   6
  -1 -10   8 1160.41 331.996   6
  -1 -10   9 20537.9 1016.52   6
  -1 -11  -5 14449.1 920.514   8
  -1 -11  -4 3253.67 508.977   1
  -1 -11  -4 2877.14 504.454   8
  -1 -11  -3 7739.71 727.053   8
  -1 -11  -2 128.276 331.356   8
  -1 -11  -2 601.432 385.313   6
  -1 -11  -1 3309.53 544.610   6
  -1 -11   0 2170.88 454.627   6
  -1 -11   1 352.703 339.581   6
  -1 -11   2 14090.7 943.860   6
  -1 -11   3 4443.29 562.211   6
  -1 -11   4 7609.57 674.063   6
  -1 -11   5 3854.81 498.129   6
  -1 -11   6 2525.74 438.957   6
  -1 -11   7 2183.72 415.144   6
  -1 -11   8 6731.91 604.280   6
  -1 -12  -2 1153.19 419.761   6
  -1 -12  -2 1469.95 438.132   8
  -1 -12  -1 2916.55 534.223   8
  -1 -12  -1 3050.89 525.726   6
  -1 -12   0 3355.36 570.250   8
  -1 -12   0 3609.95 542.005   6
  -1 -12   1 4288.89 576.991   6
  -1 -12   2 1023.56 428.542   6
  -1 -12   3 16102.9 1005.43   6
  -1 -12   4 354.486 335.305   6
  -1 -12   5 4218.83 548.107   6
  -1 -12   6 2618.37 451.936   6
  -1 -12   7 3776.63 495.856   6
  -1 -13   2 7912.24 719.494   6
  -1 -13   3 1708.47 428.941   6
  -1 -13   4 8758.96 733.162   6
  -1 -13   5 454.393 315.514   6
  -2  12  -7 1457.78 361.003   5
  -2  12  -6 7864.28 702.679   5
  -2  12  -5 681.559 367.801   5
  -2  12  -4 4680.27 595.975   5
  -2  12  -3 643.769 358.472   5
  -2  12  -3 1298.12 369.504   2
  -2  12  -2 4846.60 622.489   5
  -2  12  -2 4491.74 540.268   2
  -2  12  -1 1277.44 407.854   5
  -2  12  -1 1176.07 393.499   2
  -2  12   0 4431.25 619.367   5
  -2  12   0 4975.22 566.370   2
  -2  12   1 3620.03 518.384   2
  -2  12   2 4586.57 598.353   2
  -2  11  -8 2802.68 420.380   5
  -2  11  -8 3060.89 538.196   4
  -2  11  -7 2369.73 425.572   5
  -2  11  -6 5707.86 600.567   5
  -2  11  -5 10094.7 790.599   5
  -2  11  -5 8979.91 680.029   2
  -2  11  -4 1343.63 410.927   5
  -2  11  -4 537.590 311.502   2
  -2  11  -3 23656.2 1294.68   5
  -2  11  -3 27852.6 1236.09   2
  -2  11  -2 268.836 342.424   5
  -2  11  -2 485.937 373.739   2
  -2  11  -1 25556.3 1363.70   5
  -2  11  -1 27941.3 1298.49   2
  -2  11   0 1296.72 453.296   5
  -2  11   0 1411.53 403.249   2
  -2  11   1 9524.16 793.821   2
  -2  11   1 9106.86 812.704   5
  -2  11   2 5184.03 605.707   2
  -2  11   2 3930.86 578.543   5
  -2  11   3 3475.10 548.545   5
  -2  11   3 2895.38 531.694   2
  -2  11   4 2899.87 515.076   5
  -2  11   4 3702.84 569.680   2
  -2  11   5 1810.05 484.645   2
  -2  10 -10 2519.99 555.966   4
  -2  10  -9 1813.65 496.617   4
  -2  10  -8 1870.59 373.441   5
  -2  10  -8 2712.02 547.239   4
  -2  10  -7 3088.98 460.241   5
  -2  10  -7 2883.16 531.828   4
  -2  10  -6 656.427 312.704   5
  -2  10  -6 1075.26 395.825   4
  -2  10  -6 1325.04 337.683   2
  -2  10  -5 11995.1 847.664   5
  -2  10  -5 11585.8 741.218   2
  -2  10  -4 11962.9 857.998   5
  -2  10  -4 11141.5 736.398   2
  -2  10  -3 9189.35 766.734   5
  -2  10  -3 7968.81 640.515   2
  -2  10  -2 34897.6 1579.55   5
  -2  10  -2 36139.3 1456.67   2
  -2  10  -1 4961.68 612.323   5
  -2  10  -1 4601.15 548.667   2
  -2  10   0 20602.5 1196.78   5
  -2  10   0 22889.3 1171.00   2
  -2  10   1 7707.75 694.979   2
  -2  10   1 7429.27 722.203   5
  -2  10   2 3936.27 534.685   2
  -2  10   2 4517.87 592.739   5
  -2  10   3 3309.44 538.201   5
  -2  10   3 3594.41 549.160   2
  -2  10   4 1572.67 454.223   2
  -2  10   4 2493.61 461.839   5
  -2  10   5 1893.48 510.871   2
  -2  10   5 1056.30 410.713   5
  -2  10   6 2687.42 520.190   2
  -2  10   6 2198.76 482.997   5
  -2   9 -11 9346.66 878.847   4
  -2   9 -10 3745.46 601.741   4
  -2   9  -9 5504.91 674.300   4
  -2   9  -8 1535.33 365.113   5
  -2   9  -8 1294.42 435.736   4
  -2   9  -7 5208.33 489.344   2
  -2   9  -7 5365.85 645.583   4
  -2   9  -7 5290.14 554.168   5
  -2   9  -6 8141.98 587.859   2
  -2   9  -6 8294.68 745.032   4
  -2   9  -6 7580.56 661.337   5
  -2   9  -5 7423.73 646.823   5
  -2   9  -5 6733.88 552.915   2
  -2   9  -5 6228.84 634.219   4
  -2   9  -4 12263.7 856.452   5
  -2   9  -4 12664.1 859.303   4
  -2   9  -4 14264.3 783.097   2
  -2   9  -3 11993.6 822.425   5
  -2   9  -3 11291.3 720.226   2
  -2   9  -2 5209.24 563.396   5
  -2   9  -2 4369.04 477.459   2
  -2   9  -1 5292.79 578.215   5
  -2   9  -1 6718.36 577.901   2
  -2   9   0 14092.5 856.188   2
  -2   9   0 13736.0 922.041   5
  -2   9   1 11715.7 807.813   2
  -2   9   1 11188.9 836.313   5
  -2   9   2 11904.9 815.505   2
  -2   9   2 9429.70 792.921   5
  -2   9   3 6865.31 645.238   2
  -2   9   3 6342.06 675.569   5
  -2   9   4 7072.15 682.170   2
  -2   9   4 6258.78 672.641   5
  -2   9   5 4837.30 616.099   5
  -2   9   6 3020.21 507.073   5
  -2   9   7 5912.60 682.350   5
  -2   9   8 7829.03 749.260   5
  -2   8 -12 864.323 436.237   4
  -2   8 -11 14296.6 1070.12   4
  -2   8 -10 7168.00 768.443   4
  -2   8  -9 18518.3 1187.32   4
  -2   8  -8 22316.6 976.334   2
  -2   8  -8 21382.0 1249.92   4
  -2   8  -7 1797.05 365.837   5
  -2   8  -7 1780.51 464.761   4
  -2   8  -7 1367.85 304.599   2
  -2   8  -6 35927.8 1439.01   5
  -2   8  -6 32830.7 1506.96   4
  -2   8  -6 32964.1 1245.22   2
  -2   8  -5 5118.16 526.639   5
  -2   8  -5 4683.17 446.850   2
  -2   8  -5 4583.90 550.919   4
  -2   8  -4 23841.6 1142.65   5
  -2   8  -4 22745.0 1135.59   4
  -2   8  -4 22447.9 987.070   2
  -2   8  -3 12901.6 832.611   5
  -2   8  -3 11470.0 766.874   4
  -2   8  -3 13122.9 731.655   2
  -2   8  -2 4660.79 517.739   5
  -2   8  -2 4977.82 492.640   4
  -2   8  -2 5113.78 478.341   2
  -2   8  -1 2831.24 397.770   2
  -2   8  -1 2308.53 410.286   5
  -2   8   0 20954.5 1003.11   2
  -2   8   0 21050.3 1089.43   5
  -2   8   1 6284.13 575.645   2
  -2   8   1 6962.20 623.016   5
  -2   8   2 21359.7 1064.27   2
  -2   8   2 20029.1 1095.95   5
  -2   8   3 28127.7 1292.51   2
  -2   8   3 26278.8 1298.21   5
  -2   8   4 7886.53 707.660   5
  -2   8   5 24920.1 1279.47   5
  -2   8   6 8856.81 766.714   5
  -2   8   7 24596.4 1276.12   5
  -2   8   8 6894.75 685.017   5
  -2   8   9 5895.40 645.880   5
  -2   8  10 5769.97 622.708   5
  -2   7 -13 1365.70 482.368   4
  -2   7 -12 30138.6 1547.13   4
  -2   7 -11 2906.58 564.216   4
  -2   7 -10 20312.8 1230.94   4
  -2   7  -9 31933.8 1544.01   4
  -2   7  -8 1294.20 424.195   4
  -2   7  -7 33173.2 1342.35   5
  -2   7  -7 32200.5 1186.79   2
  -2   7  -7 31058.9 1471.97   4
  -2   7  -6 1682.51 345.013   5
  -2   7  -6 2018.79 429.963   4
  -2   7  -6 1293.99 275.850   2
  -2   7  -5 336.376 263.007   5
  -2   7  -5 124.275 276.735   4
  -2   7  -5 574.718 230.725   2
  -2   7  -4 4450.87 476.051   5
  -2   7  -4 4541.86 501.971   4
  -2   7  -4 5190.26 429.164   2
  -2   7  -3 6063.92 559.751   5
  -2   7  -3 6790.56 570.166   4
  -2   7  -3 6106.34 470.223   2
  -2   7  -2 35374.5 1400.47   5
  -2   7  -2 34190.4 1318.66   4
  -2   7  -2 36740.5 1272.50   2
  -2   7  -1 2288.14 359.837   2
  -2   7  -1 2042.94 371.767   5
  -2   7  -1 2033.47 340.919   4
  -2   7   0 28444.5 1135.06   2
  -2   7   0 27574.2 1222.28   5
  -2   7   1 13980.6 791.175   2
  -2   7   1 14955.3 868.109   5
  -2   7   2 1701.83 334.235   5
  -2   7   3 673.690 307.495   5
  -2   7   4 4235.24 516.648   5
  -2   7   5 35279.0 1489.31   5
  -2   7   6 6465.79 613.808   5
  -2   7   7 17593.7 1032.11   5
  -2   7   8 26478.0 1302.42   5
  -2   7   9 1290.01 389.282   5
  -2   7  10 27295.8 1324.39   5
  -2   7  11 4870.67 557.873   5
  -2   6 -14 1580.33 461.185   4
  -2   6 -13 3737.53 580.147   4
  -2   6 -12 2335.22 510.711   4
  -2   6 -11 3327.04 548.993   4
  -2   6 -10 4805.94 624.994   4
  -2   6  -9 12688.9 906.842   4
  -2   6  -8 4552.59 560.747   4
  -2   6  -7 39518.2 1327.95   2
  -2   6  -7 40672.6 1628.88   4
  -2   6  -6 16385.5 866.415   5
  -2   6  -6 16144.2 735.777   2
  -2   6  -6 16236.1 934.260   4
  -2   6  -5 28249.6 1014.06   2
  -2   6  -5 27361.7 1207.66   4
  -2   6  -5 28350.9 1163.69   5
  -2   6  -4 57902.5 1844.09   5
  -2   6  -4 53775.2 1822.45   4
  -2   6  -4 57085.6 1651.76   2
  -2   6  -3 31587.4 1235.06   5
  -2   6  -3 31784.5 1237.25   4
  -2   6  -3 33103.1 1108.18   2
  -2   6  -2 35576.8 1326.28   5
  -2   6  -2 34583.1 1262.49   4
  -2   6  -2 35845.7 1185.66   2
  -2   6  -1 78413.8 2309.78   5
  -2   6  -1 76984.6 2173.30   4
  -2   6  -1 77441.7 2158.38   2
  -2   6   0 6470.87 454.657   4
  -2   6   0 6626.11 493.743   2
  -2   6   0 6420.58 534.332   5
  -2   6   1 57389.5 1775.41   2
  -2   6   1 57974.9 1888.98   5
  -2   6   2 35455.9 878.398   7
  -2   6   2 44275.5 1492.33   5
  -2   6   3 14503.4 500.936   7
  -2   6   3 15178.5 850.755   5
  -2   6   4 34996.9 1036.94   7
  -2   6   4 35292.6 1407.00   5
  -2   6   5 25131.0 879.111   7
  -2   6   5 24890.1 1158.62   5
  -2   6   6 6914.82 457.246   7
  -2   6   6 7413.25 628.463   5
  -2   6   7 16624.3 771.140   7
  -2   6   7 14890.0 898.416   5
  -2   6   8 672.813 307.864   5
  -2   6   8 578.432 245.498   7
  -2   6   9 2343.65 420.582   5
  -2   6   9 3613.60 411.533   7
  -2   6  10 1798.11 398.969   5
  -2   6  10 2328.43 393.742   7
  -2   6  11 2793.38 451.725   5
  -2   6  11 2019.24 396.740   7
  -2   6  12 4222.79 517.035   5
  -2   5 -14 13643.7 986.422   4
  -2   5 -13 2772.80 496.632   4
  -2   5 -12 11261.3 884.172   4
  -2   5 -11 1522.31 406.391   4
  -2   5 -10 1160.94 365.855   4
  -2   5  -9 2628.15 449.292   4
  -2   5  -8 25.0091 269.256   4
  -2   5  -7 5591.45 566.122   4
  -2   5  -6 2984.29 310.383   2
  -2   5  -6 3015.20 434.155   4
  -2   5  -5 22300.2 964.977   5
  -2   5  -5 20880.0 793.085   2
  -2   5  -5 21990.7 1012.37   4
  -2   5  -4 21731.5 932.984   5
  -2   5  -4 22329.0 988.986   4
  -2   5  -4 22992.5 821.549   2
  -2   5  -3 78795.2 2231.12   5
  -2   5  -3 74148.5 2190.69   4
  -2   5  -3 77873.6 2019.81   2
  -2   5  -2 58350.6 1736.51   5
  -2   5  -2 54466.3 1662.01   4
  -2   5  -2 55016.5 1550.85   2
  -2   5  -1 41606.9 1317.36   4
  -2   5  -1 40853.0 1266.57   2
  -2   5   0 96062.3 2478.37   4
  -2   5   0 99575.5 2530.98   2
  -2   5   1 8480.65 247.319   7
  -2   5   1 8308.37 246.317   7
  -2   5   2 109671. 2543.95   7
  -2   5   2 120683. 3046.47   5
  -2   5   3 6305.55 526.419   9
  -2   5   3 5942.24 312.049   7
  -2   5   3 6072.26 507.931   5
  -2   5   4 14726.6 829.068   9
  -2   5   4 14424.0 586.689   7
  -2   5   4 15028.5 791.546   5
  -2   5   5 6178.22 562.943   9
  -2   5   5 6208.72 407.257   7
  -2   5   5 7098.88 554.897   5
  -2   5   6 3514.06 485.624   9
  -2   5   6 4084.53 375.093   7
  -2   5   6 4827.47 477.451   5
  -2   5   7 224.316 233.817   5
  -2   5   7 438.784 307.045   9
  -2   5   7-76.2630 189.401   7
  -2   5   8 9143.11 732.845   9
  -2   5   8 7958.73 583.102   7
  -2   5   8 8271.95 631.247   5
  -2   5   9 815.451 310.293   5
  -2   5   9 1181.22 371.655   9
  -2   5   9 1043.37 293.455   7
  -2   5  10 1137.10 374.693   9
  -2   5  10 267.734 265.746   5
  -2   5  10 434.576 288.847   7
  -2   5  11 17925.7 1036.55   9
  -2   5  11 19646.6 1038.24   7
  -2   5  11 16665.1 946.594   5
  -2   5  12 758.150 313.194   5
  -2   5  12 1023.25 372.248   7
  -2   5  13 18005.1 1049.62   7
  -2   4 -15 11895.2 870.768   4
  -2   4 -14 3955.25 564.417   1
  -2   4 -14 3337.18 535.248   4
  -2   4 -13 9240.14 794.157   1
  -2   4 -13 10033.4 812.101   4
  -2   4 -12 4243.36 565.449   1
  -2   4 -12 5159.97 625.044   4
  -2   4 -11 716.491 340.511   1
  -2   4 -11 65.5817 296.066   4
  -2   4 -10-55.9311 304.260   1
  -2   4 -10 1054.44 380.788   4
  -2   4  -9 5258.73 545.583   4
  -2   4  -9 3685.43 479.109   1
  -2   4  -8 15027.5 880.856   4
  -2   4  -7 5268.44 525.653   4
  -2   4  -6 28197.8 1183.41   4
  -2   4  -5 41828.4 1238.26   2
  -2   4  -5 42982.4 1489.95   4
  -2   4  -4 32491.8 1153.94   5
  -2   4  -4 31200.9 964.558   2
  -2   4  -4 32409.0 1189.40   4
  -2   4  -3 124133. 3078.11   5
  -2   4  -3 120215. 3083.39   4
  -2   4  -3 117498. 2839.77   2
  -2   4  -2 20532.6 816.534   4
  -2   4  -2 21212.8 690.662   2
  -2   4  -2 20263.2 579.797   7
  -2   4  -1 16127.8 653.706   4
  -2   4  -1 14787.2 416.624   7
  -2   4  -1 15465.5 580.273   2
  -2   4   0 18769.1 656.663   4
  -2   4   0 16148.8 429.461   7
  -2   4   1 22076.0 862.027   9
  -2   4   1 21143.4 705.376   4
  -2   4   2 125954. 3244.52   9
  -2   4   3 16267.8 790.370   9
  -2   4   3 16664.7 758.024   5
  -2   4   4 79719.5 2307.63   9
  -2   4   4 78754.2 2239.76   5
  -2   4   5 26472.5 1114.47   9
  -2   4   5 23669.3 905.379   7
  -2   4   5 25479.7 1023.44   5
  -2   4   6 10807.4 717.320   9
  -2   4   6 11175.8 613.615   7
  -2   4   6 11173.5 659.330   5
  -2   4   7 17702.4 844.039   7
  -2   4   7 18177.7 948.202   9
  -2   4   7 18315.9 883.361   5
  -2   4   8 1811.25 392.026   9
  -2   4   8 2149.38 343.719   5
  -2   4   8 2215.57 361.895   7
  -2   4   9 685.664 263.867   5
  -2   4   9 212.426 273.552   9
  -2   4   9 496.136 260.937   7
  -2   4  10 1692.67 332.799   5
  -2   4  10 2322.14 410.754   9
  -2   4  10 2974.62 437.325   7
  -2   4  11 4905.71 578.208   9
  -2   4  11 5522.83 580.221   7
  -2   4  11 5961.30 533.440   5
  -2   4  12 5364.24 522.558   5
  -2   4  12 6228.31 618.788   9
  -2   4  12 5392.49 616.477   7
  -2   4  13 3572.66 484.275   9
  -2   4  13 4303.88 573.060   7
  -2   3 -15 1811.73 414.676   4
  -2   3 -14 2797.96 509.345   1
  -2   3 -14 3535.86 516.634   4
  -2   3 -13 2941.95 511.767   1
  -2   3 -13 3583.88 524.143   4
  -2   3 -12 11055.5 835.281   1
  -2   3 -12 11143.6 812.071   4
  -2   3 -11 3902.36 521.308   1
  -2   3 -11 3203.98 495.313   4
  -2   3 -10 15937.2 919.661   1
  -2   3 -10 16268.8 964.946   4
  -2   3  -9 11168.1 738.203   1
  -2   3  -9 10742.2 761.023   4
  -2   3  -8 3215.40 424.022   1
  -2   3  -8 3119.75 443.870   4
  -2   3  -7 7552.16 564.293   1
  -2   3  -7 7048.09 581.906   4
  -2   3  -6 50964.4 1687.70   4
  -2   3  -6 49573.5 1599.97   1
  -2   3  -5 27126.3 1080.45   4
  -2   3  -4 23838.0 957.824   4
  -2   3  -3 39723.5 1072.73   2
  -2   3  -3 42296.5 1322.50   4
  -2   3  -3 41914.4 1098.94   7
  -2   3  -2 14029.6 606.609   4
  -2   3  -2 12148.3 438.707   2
  -2   3  -2 13652.8 446.743   7
  -2   3  -1 427820. 9360.39   4
  -2   3  -1 426325. 9143.75   7
  -2   3  -1 416122. 9207.37   2
  -2   3   0 66329.7 1762.55   9
  -2   3   0 69527.7 1701.57   4
  -2   3   0 66120.2 1550.32   7
  -2   3   1 313944. 6908.15   9
  -2   3   1 300107. 6680.08   4
  -2   3   2 41268.9 1268.90   9
  -2   3   2 39216.9 981.555   4
  -2   3   3 9315.29 544.687   9
  -2   3   3 8862.94 489.302   5
  -2   3   4 2483.60 328.962   9
  -2   3   4 2382.43 286.416   5
  -2   3   5 65370.7 1933.05   9
  -2   3   5 63128.0 1827.97   5
  -2   3   6 6690.79 537.207   9
  -2   3   6 6461.95 459.506   5
  -2   3   7 9533.22 670.431   9
  -2   3   7 10731.6 651.819   7
  -2   3   7 11893.9 637.356   5
  -2   3   8 277.682 231.813   5
  -2   3   8 461.699 285.011   9
  -2   3   8 527.307 243.808   7
  -2   3   9 23130.6 1100.57   9
  -2   3   9 22190.2 1080.40   7
  -2   3   9 23289.8 981.607   5
  -2   3  10 1570.71 376.715   9
  -2   3  10 1447.25 293.570   5
  -2   3  10 1214.95 340.216   7
  -2   3  11 13413.7 845.897   9
  -2   3  11 12735.9 872.585   7
  -2   3  11 13174.2 738.027   5
  -2   3  12 2242.16 343.255   5
  -2   3  12 2518.94 423.130   9
  -2   3  12 2450.14 468.151   7
  -2   3  13 5128.33 549.569   9
  -2   3  13 4298.16 571.718   7
  -2   3  14 1975.46 439.623   7
  -2   2 -14 323.782 332.559   4
  -2   2 -14 943.911 400.074   1
  -2   2 -13 6118.28 615.878   4
  -2   2 -13 5161.16 612.084   1
  -2   2 -12 5850.14 618.937   1
  -2   2 -12 4774.88 562.075   4
  -2   2 -11 1398.03 363.060   4
  -2   2 -11 1301.30 382.966   1
  -2   2 -10 46882.9 1737.97   4
  -2   2 -10 44962.6 1670.49   1
  -2   2  -9 4012.03 497.118   4
  -2   2  -9 3747.08 447.937   1
  -2   2  -8 48289.6 1622.38   1
  -2   2  -8 50360.4 1732.20   4
  -2   2  -7 25006.3 1017.35   1
  -2   2  -7 26715.4 1113.59   4
  -2   2  -6 23095.4 921.669   1
  -2   2  -6 23213.6 995.047   4
  -2   2  -5 23911.3 883.391   1
  -2   2  -5 22325.6 933.584   4
  -2   2  -4 3049.91 302.309   1
  -2   2  -4 2871.15 328.137   4
  -2   2  -3 75593.2 2027.83   4
  -2   2  -2 4332.42 183.436   2
  -2   2  -2 4391.86 327.624   4
  -2   2  -2 4689.68 248.196   7
  -2   2  -1 56982.7 1444.98   9
  -2   2  -1 57667.1 1537.37   4
  -2   2  -1 61727.3 1428.19   7
  -2   2  -1 57237.1 1351.90   2
  -2   2   0 107963. 2573.96   9
  -2   2   0 106798. 2545.92   4
  -2   2   0 112017. 2482.05   7
  -2   2   1 62578.5 1496.89   4
  -2   2   1 64180.0 1640.51   9
  -2   2   2 3792.10 149.115   4
  -2   2   2 4149.47 323.780   9
  -2   2   2 4946.47 269.459   6
  -2   2   2 4172.08 284.243   5
  -2   2   3 81071.1 2135.53   9
  -2   2   3 80147.6 2042.80   5
  -2   2   4 1771.67 267.841   9
  -2   2   4 2448.98 242.143   5
  -2   2   5 26809.2 1024.56   9
  -2   2   5 27253.5 914.259   5
  -2   2   6 26571.1 1074.02   9
  -2   2   6 28546.2 966.409   5
  -2   2   7 23713.2 1021.56   9
  -2   2   7 23927.1 892.789   5
  -2   2   8 54109.3 1758.06   9
  -2   2   8 51454.1 1755.41   7
  -2   2   8 51793.9 1580.94   5
  -2   2   9 4217.83 460.763   9
  -2   2   9 3285.19 463.936   7
  -2   2   9 3780.99 359.520   5
  -2   2  10 41917.2 1536.25   9
  -2   2  10 39839.9 1594.37   7
  -2   2  10 37548.6 1320.59   5
  -2   2  11 1502.69 350.580   9
  -2   2  11 505.312 306.473   7
  -2   2  11 905.420 253.655   5
  -2   2  12 3439.20 382.386   5
  -2   2  12 3913.96 473.044   9
  -2   2  12 3782.17 524.596   7
  -2   2  13 5067.13 535.255   9
  -2   2  13 4707.74 599.733   7
  -2   2  14 912.557 407.743   7
  -2   1 -14 821.465 393.732   1
  -2   1 -13 1707.72 368.384   4
  -2   1 -13 1053.46 373.751   1
  -2   1 -12 1819.90 385.634   4
  -2   1 -12 1465.07 388.703   1
  -2   1 -11 13756.7 851.211   4
  -2   1 -11 13103.7 854.650   1
  -2   1 -10 3760.54 474.147   4
  -2   1 -10 2969.15 460.596   1
  -2   1  -9 32329.9 1301.77   4
  -2   1  -9 30531.6 1247.43   1
  -2   1  -8 1361.12 337.202   4
  -2   1  -8 1923.06 335.373   1
  -2   1  -7 55147.1 1790.35   4
  -2   1  -7 55846.3 1713.85   1
  -2   1  -6 19439.4 810.185   1
  -2   1  -6 19695.3 884.338   4
  -2   1  -5 39498.5 1244.53   1
  -2   1  -5 41314.4 1336.44   4
  -2   1  -4 29494.2 949.801   1
  -2   1  -4 30258.4 1045.21   4
  -2   1  -3 13251.7 525.743   1
  -2   1  -3 13729.1 603.225   4
  -2   1  -2 53954.2 1464.98   4
  -2   1  -1 10480.8 328.786   9
  -2   1  -1 10516.5 447.208   4
  -2   1   0 70.7844 104.835   9
  -2   1   0 363.149 139.935   4
  -2   1   1 1252.85 167.293   9
  -2   1   1 1015.51 118.569   6
  -2   1   2 42382.2 1193.66   9
  -2   1   2 43274.4 1087.01   6
  -2   1   2 42962.5 1105.95   5
  -2   1   3 13495.6 573.537   9
  -2   1   3 14086.4 468.307   6
  -2   1   3 13226.5 470.963   5
  -2   1   4 46035.4 1312.12   9
  -2   1   4 46406.0 1123.83   6
  -2   1   4 45347.1 1137.19   5
  -2   1   5 2960.67 318.111   9
  -2   1   5 3061.09 150.699   4
  -2   1   5 2848.95 230.283   5
  -2   1   6 55220.3 1672.81   9
  -2   1   7 32466.3 1201.22   9
  -2   1   8 21233.7 952.644   9
  -2   1   9 37569.8 1399.59   9
  -2   1   9 38248.5 1479.85   7
  -2   1  10 6819.06 573.509   9
  -2   1  10 6732.42 619.673   7
  -2   1  11 19608.4 988.061   9
  -2   1  11 19691.6 1115.45   7
  -2   1  12 3138.20 431.165   9
  -2   1  12 2820.71 516.160   7
  -2   1  13 4686.39 502.366   9
  -2   1  13 3021.73 515.868   7
  -2   1  14 122.219 317.499   7
  -2   0 -14 1729.02 420.280   1
  -2   0 -13 5488.34 605.885   1
  -2   0 -12 2037.52 383.109   4
  -2   0 -12 2390.70 427.495   1
  -2   0 -11 7002.73 601.499   4
  -2   0 -11 6387.61 607.090   1
  -2   0 -10 16435.7 897.656   4
  -2   0 -10 15944.6 891.810   1
  -2   0  -9 12788.3 770.827   4
  -2   0  -9 13554.0 774.980   1
  -2   0  -8 17451.7 877.206   4
  -2   0  -8 16900.4 825.468   1
  -2   0  -7 2056.12 342.573   4
  -2   0  -7 2303.47 320.368   1
  -2   0  -6 54404.0 1302.95   9
  -2   0  -6 54248.9 1687.34   4
  -2   0  -6 54093.4 1599.09   1
  -2   0  -5 21207.6 720.737   8
  -2   0  -5 21652.7 872.723   4
  -2   0  -5 21919.9 794.582   1
  -2   0  -5 21189.4 568.526   9
  -2   0  -4 38299.6 1079.87   8
  -2   0  -4 35946.0 882.993   9
  -2   0  -4 39900.7 1221.07   4
  -2   0  -4 39900.8 1106.74   1
  -2   0  -3 16920.6 541.675   1
  -2   0  -3 16815.9 566.786   8
  -2   0  -3 16827.1 647.345   4
  -2   0  -2 17055.2 597.053   8
  -2   0  -2 17222.4 525.926   1
  -2   0  -1 374692. 8220.52   8
  -2   0   0 8377.81 361.132   8
  -2   0   0 7767.88 297.762   9
  -2   0   0 7518.44 246.955   2
  -2   0   1 1892.72 182.551   9
  -2   0   1 2096.68 190.841   8
  -2   0   2 372619. 8336.63   5
  -2   0   2 403480. 8520.51   9
  -2   0   2 393226. 8437.74   8
  -2   0   2 393330. 8329.82   6
  -2   0   3 11226.5 363.470   4
  -2   0   3 11393.8 389.897   8
  -2   0   3 12123.5 516.840   9
  -2   0   3 11511.4 361.586   6
  -2   0   3 11111.0 337.594   5
  -2   0   4 12233.7 560.874   9
  -2   0   4 12375.0 393.249   8
  -2   0   4 12364.6 399.668   4
  -2   0   4 13417.4 432.817   6
  -2   0   4 12451.1 392.446   5
  -2   0   5 57333.7 1678.73   9
  -2   0   5 58530.0 1438.34   4
  -2   0   5 60970.8 1488.29   6
  -2   0   6 15135.7 709.731   9
  -2   0   6 17315.6 541.149   4
  -2   0   7 50439.3 1607.39   9
  -2   0   7 52686.7 1335.24   4
  -2   0   8 233.440 214.858   9
  -2   0   9 15330.5 802.335   9
  -2   0  10 18011.3 904.347   9
  -2   0  10 19000.5 1034.91   7
  -2   0  11 13237.5 778.546   9
  -2   0  11 13377.7 903.189   7
  -2   0  12 6425.83 554.941   9
  -2   0  12 4491.35 571.551   7
  -2   0  13 2241.53 370.367   9
  -2   0  13 2969.42 531.225   7
  -2   0  14 1777.10 454.216   7
  -2   0  15 3738.61 586.116   7
  -2  -1 -14-249.633 317.883   1
  -2  -1 -13 6562.37 645.455   1
  -2  -1 -12 2812.10 408.024   4
  -2  -1 -12 2748.64 446.226   1
  -2  -1 -11 1611.47 341.612   4
  -2  -1 -11 2529.90 435.109   1
  -2  -1 -10 4879.29 505.936   4
  -2  -1 -10 4641.03 503.674   1
  -2  -1  -9 204.056 253.028   1
  -2  -1  -9 463.800 271.007   4
  -2  -1  -8 940.202 283.157   1
  -2  -1  -8 797.195 277.971   4
  -2  -1  -7 5633.30 333.075   8
  -2  -1  -7 5860.99 453.400   1
  -2  -1  -7 5932.31 498.757   4
  -2  -1  -6 18627.1 574.655   9
  -2  -1  -6 17857.9 654.887   8
  -2  -1  -6 17638.0 822.298   4
  -2  -1  -6 18816.7 763.488   1
  -2  -1  -5 13938.5 464.437   9
  -2  -1  -5 13812.7 554.996   8
  -2  -1  -5 14632.9 693.894   4
  -2  -1  -5 13949.8 607.755   1
  -2  -1  -5 13808.9 426.743   3
  -2  -1  -4 45054.3 1127.35   9
  -2  -1  -4 43220.9 1239.55   8
  -2  -1  -4 44503.0 1243.17   1
  -2  -1  -4 45070.0 1112.30   3
  -2  -1  -3 8510.51 313.746   9
  -2  -1  -3 8449.43 403.033   8
  -2  -1  -3 8374.85 370.449   1
  -2  -1  -3 8400.06 324.518   3
  -2  -1  -2 126689. 3048.11   8
  -2  -1  -2 124831. 2923.85   1
  -2  -1  -2 130823. 2957.11   3
  -2  -1  -1 12043.8 476.677   8
  -2  -1  -1 11619.0 323.959   1
  -2  -1  -1 12486.7 426.660   3
  -2  -1   0 51013.3 1346.60   8
  -2  -1   0 52565.8 1300.36   3
  -2  -1   1 21865.1 669.307   8
  -2  -1   1 20891.4 632.453   3
  -2  -1   1 20104.6 501.679   1
  -2  -1   2 13387.4 480.275   8
  -2  -1   2 13554.4 470.835   3
  -2  -1   2 13177.4 409.409   1
  -2  -1   3 116866. 2760.76   4
  -2  -1   3 123950. 2777.52   8
  -2  -1   3 117713. 2887.38   9
  -2  -1   3 120797. 2779.30   3
  -2  -1   3 123303. 2762.77   1
  -2  -1   4 27570.4 928.865   9
  -2  -1   4 28778.0 810.556   4
  -2  -1   4 28009.8 774.634   8
  -2  -1   4 28078.5 803.949   3
  -2  -1   5 29560.2 844.657   4
  -2  -1   5 28302.4 769.008   8
  -2  -1   5 29696.3 1004.63   9
  -2  -1   5 29506.7 827.397   3
  -2  -1   6 16027.4 710.889   9
  -2  -1   6 15326.6 446.354   8
  -2  -1   7 16071.4 702.811   9
  -2  -1   7 10302.2 290.318   8
  -2  -1   8 8841.43 571.075   9
  -2  -1   9 1351.10 298.942   9
  -2  -1  10 2837.76 372.656   9
  -2  -1  11 2908.54 395.190   9
  -2  -1  11 3190.90 487.378   7
  -2  -1  12 3688.23 433.118   9
  -2  -1  12 4312.35 560.924   7
  -2  -1  13 6202.07 536.906   9
  -2  -1  13 7080.43 736.746   7
  -2  -1  14 5903.38 697.938   7
  -2  -1  15 3289.16 553.693   7
  -2  -2 -14 4326.06 536.715   1
  -2  -2 -13 1135.80 370.353   1
  -2  -2 -12 7500.92 659.722   1
  -2  -2 -11 1159.05 352.557   1
  -2  -2 -11 1134.20 291.962   4
  -2  -2 -10 909.655 310.335   1
  -2  -2 -10 1050.16 306.190   4
  -2  -2  -9 2006.52 361.262   1
  -2  -2  -9 1772.68 331.424   4
  -2  -2  -8 10276.5 458.831   8
  -2  -2  -8 10847.0 657.371   4
  -2  -2  -8 10011.5 631.586   1
  -2  -2  -7 3530.50 281.962   8
  -2  -2  -7 3164.42 367.744   1
  -2  -2  -7 2652.51 371.591   4
  -2  -2  -6 2030.73 232.969   8
  -2  -2  -6 2140.13 288.823   1
  -2  -2  -6 2103.14 333.538   4
  -2  -2  -6 1809.41 151.400   3
  -2  -2  -5 11330.8 514.504   8
  -2  -2  -5 11290.8 558.001   1
  -2  -2  -5 11652.9 411.513   3
  -2  -2  -4 2493.83 248.746   8
  -2  -2  -4 3033.33 201.290   3
  -2  -2  -4 3181.06 276.385   1
  -2  -2  -3 74776.4 1788.12   9
  -2  -2  -3 70846.0 1887.66   8
  -2  -2  -3 73954.3 1771.45   3
  -2  -2  -3 70597.2 1808.19   1
  -2  -2  -2 101698. 2349.36   1
  -2  -2  -2 102244. 2497.84   8
  -2  -2  -2 100177. 2380.27   3
  -2  -2  -1 97618.5 2368.63   1
  -2  -2  -1 106070. 2572.62   8
  -2  -2  -1 106692. 2489.90   7
  -2  -2  -1 105266. 2477.79   3
  -2  -2   0 44963.1 1255.29   8
  -2  -2   0 42905.3 1164.45   7
  -2  -2   0 47110.1 1193.58   3
  -2  -2   1 188670. 4058.03   8
  -2  -2   1 175945. 3863.35   6
  -2  -2   1 183515. 3983.09   3
  -2  -2   2 95478.4 2212.68   8
  -2  -2   2 89364.6 2047.96   1
  -2  -2   2 86616.4 1997.40   6
  -2  -2   2 94438.5 2161.29   3
  -2  -2   3 47071.5 1234.82   8
  -2  -2   3 46608.0 1151.95   1
  -2  -2   3 46340.4 1199.37   3
  -2  -2   3 42813.4 1053.86   6
  -2  -2   4 117138. 2780.09   8
  -2  -2   4 118962. 2763.20   3
  -2  -2   5 33874.6 794.405   8
  -2  -2   5 35091.7 798.722   3
  -2  -2   6 2036.04 114.064   5
  -2  -2   6 3003.45 207.136   8
  -2  -2   6 2551.55 306.600   9
  -2  -2   6 2468.58 193.461   3
  -2  -2   7 9912.68 332.271   5
  -2  -2   7 10569.1 387.428   8
  -2  -2   7 10679.7 586.657   9
  -2  -2   7 10770.8 410.140   3
  -2  -2   8 612.169 232.326   9
  -2  -2   8 1214.00 119.540   8
  -2  -2   8 988.885 110.417   5
  -2  -2   9 9904.63 343.073   5
  -2  -2   9 11495.1 647.955   9
  -2  -2  10 6620.67 526.677   9
  -2  -2  11 150.302 237.824   9
  -2  -2  11 104.734 299.167   7
  -2  -2  12 317.116 252.833   9
  -2  -2  12 210.745 291.040   7
  -2  -2  13 1144.53 327.182   9
  -2  -2  13 591.274 351.671   7
  -2  -2  14 5537.26 659.267   7
  -2  -2  15 562.452 404.294   7
  -2  -3 -13 2021.24 402.844   1
  -2  -3 -12 4997.56 550.899   1
  -2  -3 -11 5610.70 560.124   1
  -2  -3 -10 6416.59 524.715   4
  -2  -3 -10 6058.30 544.479   1
  -2  -3  -9 12809.6 732.001   4
  -2  -3  -9 14273.6 793.213   1
  -2  -3  -8 17533.6 674.805   8
  -2  -3  -8 17591.7 862.898   1
  -2  -3  -8 17736.9 851.412   4
  -2  -3  -7 17457.0 695.249   8
  -2  -3  -7 17421.4 828.317   4
  -2  -3  -7 17373.7 816.346   1
  -2  -3  -6 28183.1 964.427   8
  -2  -3  -6 28653.5 1048.74   1
  -2  -3  -5 28688.0 1002.90   8
  -2  -3  -5 31415.3 1043.43   1
  -2  -3  -4 11308.4 548.494   8
  -2  -3  -4 10909.3 529.826   1
  -2  -3  -3 45093.7 1257.26   1
  -2  -3  -3 43895.1 1334.11   8
  -2  -3  -2 44604.0 1312.26   8
  -2  -3  -2 42343.2 1178.13   1
  -2  -3  -1 105320. 2648.30   8
  -2  -3   0 49762.9 1432.19   8
  -2  -3   0 49615.4 1277.32   7
  -2  -3   0 48744.9 1335.42   6
  -2  -3   1 5114.18 278.356   7
  -2  -3   1 5543.78 372.780   8
  -2  -3   1 4884.71 279.526   6
  -2  -3   2 90263.7 2249.15   8
  -2  -3   2 86516.1 2042.60   1
  -2  -3   2 86903.1 2054.06   6
  -2  -3   3 56785.8 1548.26   8
  -2  -3   3 55256.8 1392.68   1
  -2  -3   3 55547.8 1373.99   6
  -2  -3   4 89790.0 2276.96   8
  -2  -3   4 90663.6 2135.15   6
  -2  -3   5 18830.2 682.978   8
  -2  -3   5 17897.2 498.697   5
  -2  -3   6 17132.0 635.679   8
  -2  -3   6 16192.5 462.658   5
  -2  -3   7 39312.4 1319.02   9
  -2  -3   7 39955.9 1104.91   8
  -2  -3   7 36018.5 925.408   5
  -2  -3   8 3789.97 399.112   9
  -2  -3   8 4417.33 275.967   8
  -2  -3   9 36061.0 980.937   8
  -2  -3   9 34195.3 1292.50   9
  -2  -3  10 16322.5 836.844   9
  -2  -3  11 11450.1 705.023   9
  -2  -3  11 11334.0 809.890   7
  -2  -3  12 9561.85 641.384   9
  -2  -3  12 8556.41 740.153   7
  -2  -3  13 7269.81 566.327   9
  -2  -3  13 6279.97 676.804   7
  -2  -3  14 3244.20 556.435   7
  -2  -3  15 4626.24 650.358   7
  -2  -4 -13 2292.00 409.164   1
  -2  -4 -12 6345.37 600.437   1
  -2  -4 -11 2608.34 422.430   1
  -2  -4 -10 5088.21 523.950   1
  -2  -4  -9 13652.6 728.112   4
  -2  -4  -9 14187.3 811.544   1
  -2  -4  -8 3445.87 405.903   4
  -2  -4  -8 3661.32 429.751   1
  -2  -4  -7 20643.2 814.524   8
  -2  -4  -7 20889.9 921.899   1
  -2  -4  -6 16163.7 733.227   8
  -2  -4  -6 17225.2 789.954   1
  -2  -4  -5 73755.4 2043.30   8
  -2  -4  -5 71692.4 2038.04   1
  -2  -4  -4 20240.8 798.238   1
  -2  -4  -4 20115.8 842.175   8
  -2  -4  -3 73622.3 1990.95   1
  -2  -4  -3 79386.8 2133.30   8
  -2  -4  -2 1692.83 277.208   8
  -2  -4  -1 23354.0 898.976   8
  -2  -4  -1 21834.5 847.371   6
  -2  -4   0 23273.3 906.661   8
  -2  -4   0 24417.6 726.885   7
  -2  -4   0 23836.4 849.376   6
  -2  -4   1 13741.8 487.907   7
  -2  -4   1 13313.8 559.933   6
  -2  -4   2 2542.98 232.760   6
  -2  -4   3 10222.9 435.985   6
  -2  -4   4 33028.0 963.131   6
  -2  -4   5 19505.9 681.873   6
  -2  -4   6 62795.3 1510.12   5
  -2  -4   7 42181.7 1064.21   5
  -2  -4   8 61130.1 1657.47   8
  -2  -4   8 59197.1 1435.55   5
  -2  -4   9 14032.1 767.482   9
  -2  -4   9 13461.7 573.725   8
  -2  -4  10 8740.79 412.830   8
  -2  -4  10 8954.46 620.931   9
  -2  -4  11 14517.7 802.672   9
  -2  -4  11 14527.9 924.435   7
  -2  -4  12 1369.45 315.543   9
  -2  -4  12 1763.05 405.534   7
  -2  -4  13 1050.77 373.788   7
  -2  -4  13 1820.51 332.946   9
  -2  -4  14 4765.24 616.348   7
  -2  -4  15 732.957 350.222   7
  -2  -5 -12 653.509 313.545   1
  -2  -5 -11 2807.28 430.821   1
  -2  -5 -10 9876.88 709.178   1
  -2  -5  -9 1020.70 336.246   1
  -2  -5  -8 15782.9 783.956   4
  -2  -5  -8 15686.4 845.055   1
  -2  -5  -7 5894.13 444.955   8
  -2  -5  -7 7036.83 541.105   1
  -2  -5  -6 14721.1 735.448   8
  -2  -5  -6 15878.6 786.801   1
  -2  -5  -5 4843.94 434.227   1
  -2  -5  -5 4991.19 443.017   8
  -2  -5  -4 48497.0 1487.48   1
  -2  -5  -4 45917.7 1537.21   8
  -2  -5  -3 16154.4 788.258   8
  -2  -5  -3 17186.1 731.978   1
  -2  -5  -2 18884.6 856.431   8
  -2  -5  -1 697.179 243.620   8
  -2  -5  -1 741.150 245.264   6
  -2  -5   0 3707.90 383.318   8
  -2  -5   0 3986.78 360.777   6
  -2  -5   1 6626.72 313.458   7
  -2  -5   1 7581.82 451.973   6
  -2  -5   2 4083.25 245.592   7
  -2  -5   2 3957.49 317.284   6
  -2  -5   3 1447.90 216.950   6
  -2  -5   4 3484.83 293.973   6
  -2  -5   5 18999.8 718.254   6
  -2  -5   6 6749.64 414.655   6
  -2  -5   7 60369.6 1661.07   6
  -2  -5   7 57317.2 1437.35   5
  -2  -5   9 16966.1 727.271   8
  -2  -5  10 1686.25 322.857   9
  -2  -5  10 2117.47 259.398   8
  -2  -5  11 16038.0 851.113   9
  -2  -5  11 15923.8 939.680   7
  -2  -5  12 736.065 277.228   9
  -2  -5  12 508.541 326.066   7
  -2  -5  13 8320.24 610.088   9
  -2  -5  13 8759.92 740.147   7
  -2  -5  14 2015.70 435.461   7
  -2  -5  15 2707.30 501.125   7
  -2  -6 -11 1572.88 371.222   1
  -2  -6 -10 4461.22 496.754   1
  -2  -6  -9 7245.91 598.619   1
  -2  -6  -8 7790.98 609.914   1
  -2  -6  -7 6759.09 501.038   8
  -2  -6  -7 6229.22 544.070   1
  -2  -6  -6 7079.43 555.770   1
  -2  -6  -6 7150.93 531.561   8
  -2  -6  -5 10067.3 629.915   1
  -2  -6  -5 10928.5 673.019   8
  -2  -6  -4 15852.2 772.042   1
  -2  -6  -4 15204.9 807.087   8
  -2  -6  -3 13178.8 758.787   8
  -2  -6  -2 27663.0 1166.70   8
  -2  -6  -2 29082.3 1185.67   6
  -2  -6  -1 10505.8 670.684   8
  -2  -6  -1 10097.5 644.555   6
  -2  -6   0 7599.26 544.147   6
  -2  -6   1 8388.24 539.517   6
  -2  -6   2 25181.8 950.779   6
  -2  -6   3 11381.4 583.926   6
  -2  -6   4 3293.73 328.758   6
  -2  -6   5 11082.4 575.070   6
  -2  -6   6 36902.6 1206.71   6
  -2  -6   7 337.842 205.795   6
  -2  -6   8 21956.3 877.038   6
  -2  -6   9 1232.58 244.902   6
  -2  -6  10 8369.63 521.764   8
  -2  -6  10 7888.97 522.661   6
  -2  -6  11 2226.07 371.100   9
  -2  -6  11 2506.37 412.096   7
  -2  -6  12 10500.4 703.803   9
  -2  -6  12 10926.8 783.817   7
  -2  -6  13 1654.08 342.595   9
  -2  -6  13 1345.41 370.642   7
  -2  -6  14 5238.91 591.969   7
  -2  -6  15 2427.98 453.470   7
  -2  -7 -10 4600.02 496.964   1
  -2  -7  -9 309.097 287.825   1
  -2  -7  -8 5058.72 527.153   1
  -2  -7  -7 6827.40 573.196   1
  -2  -7  -6 1536.18 313.074   8
  -2  -7  -6 1493.75 339.304   1
  -2  -7  -5 10831.7 683.225   1
  -2  -7  -5 10080.4 680.085   8
  -2  -7  -4 6859.58 531.108   1
  -2  -7  -4 7252.96 588.603   8
  -2  -7  -3 30807.1 1289.87   8
  -2  -7  -2 5413.35 537.605   6
  -2  -7  -2 5178.73 531.075   8
  -2  -7  -1 28948.8 1241.76   8
  -2  -7  -1 27931.7 1193.58   6
  -2  -7   0 9000.29 625.371   6
  -2  -7   1 28122.6 1122.74   6
  -2  -7   2 720.017 299.987   6
  -2  -7   3 27105.4 1050.01   6
  -2  -7   4 6751.40 482.874   6
  -2  -7   5 25893.7 991.525   6
  -2  -7   6 5708.49 444.193   6
  -2  -7   7 32624.6 1166.57   6
  -2  -7   8 5923.58 443.352   6
  -2  -7   9 11042.9 624.486   6
  -2  -7  10 1348.95 284.053   8
  -2  -7  10 2113.49 338.190   7
  -2  -7  10 1713.00 281.485   6
  -2  -7  11 5775.75 523.957   7
  -2  -7  11 4898.64 440.582   6
  -2  -7  12 2952.61 412.879   9
  -2  -7  12 2646.58 412.479   7
  -2  -7  13 635.966 307.030   7
  -2  -7  14 4213.92 527.566   7
  -2  -7  15 1611.51 401.984   7
  -2  -8  -8 1772.15 386.256   1
  -2  -8  -7 1590.23 371.031   1
  -2  -8  -6 2971.85 426.728   8
  -2  -8  -6 3384.38 441.723   1
  -2  -8  -5 6322.36 561.666   1
  -2  -8  -5 5359.19 539.725   8
  -2  -8  -4 266.880 267.875   8
  -2  -8  -4 551.714 318.198   1
  -2  -8  -3 9574.12 733.384   8
  -2  -8  -2 13913.8 881.157   8
  -2  -8  -2 13113.1 861.353   6
  -2  -8  -1 9675.40 752.583   8
  -2  -8  -1 11241.9 770.423   6
  -2  -8   0 26284.2 1171.81   6
  -2  -8   1 5612.95 528.552   6
  -2  -8   2 22356.4 1025.19   6
  -2  -8   3 4677.15 457.022   6
  -2  -8   4 22397.1 970.311   6
  -2  -8   5 11358.9 661.531   6
  -2  -8   6 18172.2 846.849   6
  -2  -8   7 1993.11 330.197   6
  -2  -8   8 8336.14 560.691   6
  -2  -8   9 2803.58 350.215   6
  -2  -8  10 510.370 271.486   8
  -2  -8  10 778.562 253.386   7
  -2  -8  10 885.779 252.533   6
  -2  -8  11 5001.75 469.502   7
  -2  -8  11 4890.70 459.028   8
  -2  -8  12 1447.80 323.705   9
  -2  -8  12 1861.99 338.051   7
  -2  -8  13 5397.25 526.749   7
  -2  -9  -6 417.107 291.380   8
  -2  -9  -6 288.513 302.685   1
  -2  -9  -5 2447.16 431.026   8
  -2  -9  -5 2903.64 427.617   1
  -2  -9  -4 1292.34 373.623   8
  -2  -9  -4 2069.64 399.493   1
  -2  -9  -3 63.1993 293.212   8
  -2  -9  -2 2962.56 493.409   8
  -2  -9  -2 2360.24 449.223   6
  -2  -9  -1 6532.80 648.945   8
  -2  -9  -1 6792.25 633.713   6
  -2  -9   0 16866.0 1024.33   8
  -2  -9   0 17335.5 980.626   6
  -2  -9   1 9931.36 726.891   6
  -2  -9   2 15592.5 879.657   6
  -2  -9   3 19514.7 971.721   6
  -2  -9   4 10967.2 696.592   6
  -2  -9   5 17656.5 876.953   6
  -2  -9   6 4152.13 434.347   6
  -2  -9   7 2942.70 377.515   6
  -2  -9   8 929.753 283.252   6
  -2  -9   9 1555.08 309.255   6
  -2  -9  10 3318.64 456.750   8
  -2  -9  11 682.116 306.843   8
  -2 -10  -5 2632.19 458.279   8
  -2 -10  -4 3763.38 537.109   8
  -2 -10  -4 4296.68 509.700   1
  -2 -10  -3 3332.74 507.256   8
  -2 -10  -2 3863.70 565.507   8
  -2 -10  -1 3032.29 544.964   8
  -2 -10  -1 2201.70 443.672   6
  -2 -10   0 7857.13 764.824   8
  -2 -10   0 8886.79 734.484   6
  -2 -10   1 6221.84 685.882   8
  -2 -10   1 6831.30 636.759   6
  -2 -10   2 1460.69 364.699   6
  -2 -10   3 2172.51 385.314   6
  -2 -10   4 6096.89 559.924   6
  -2 -10   5 10669.8 701.060   6
  -2 -10   6 5653.34 508.344   6
  -2 -10   7 4884.61 486.451   6
  -2 -10   8 1735.82 339.835   6
  -2 -10  10 739.062 329.680   8
  -2 -11  -4 4730.95 579.806   8
  -2 -11  -3 4257.09 585.056   8
  -2 -11  -2 3756.85 559.538   8
  -2 -11  -1 4486.45 597.679   8
  -2 -11  -1 4194.76 561.124   6
  -2 -11   0 1415.59 446.364   8
  -2 -11   0 2391.91 456.367   6
  -2 -11   1 7763.20 763.300   8
  -2 -11   1 8342.16 728.677   6
  -2 -11   2 1797.46 490.990   8
  -2 -11   2 2031.73 417.849   6
  -2 -11   3 1024.07 354.303   6
  -2 -11   4 2514.75 422.787   6
  -2 -11   5 6370.64 588.920   6
  -2 -11   6 2183.98 399.346   6
  -2 -11   9 1955.04 440.530   8
  -2 -11  10 3618.77 523.722   8
  -2 -12   0 1201.59 462.334   8
  -2 -12   0 1239.86 386.398   6
  -2 -12   1 2008.46 508.872   8
  -2 -12   1 1975.23 429.865   6
  -2 -12   2 767.738 411.099   8
  -2 -12   2 11.2023 285.790   6
  -2 -12   3 4411.03 655.119   8
  -2 -12   3 4632.63 552.528   6
  -2 -12   4 608.935 374.695   8
  -2 -12   4 566.068 310.365   6
  -2 -12   5 1217.48 424.301   8
  -2 -12   5 1845.05 375.274   6
  -2 -12   6 1317.90 429.162   8
  -2 -12   7 1783.47 445.797   8
  -2 -13   2 1087.48 363.040   6
  -2 -13   3 829.768 339.821   6
  -3  12  -5 6526.24 670.136   5
  -3  12  -4 6486.84 685.353   5
  -3  12  -3 2307.64 491.582   5
  -3  12  -2 9608.40 830.698   5
  -3  12  -1 2769.81 510.175   5
  -3  12   0 6152.01 606.057   2
  -3  12   1 7477.55 678.984   2
  -3  12   2 1551.49 376.959   2
  -3  11  -8 4856.74 564.121   5
  -3  11  -8 4133.49 621.473   4
  -3  11  -7 3304.26 487.961   5
  -3  11  -7 2322.03 514.128   4
  -3  11  -6 1210.05 392.591   5
  -3  11  -6 903.519 370.099   4
  -3  11  -5 5800.45 630.107   5
  -3  11  -4 764.877 346.055   5
  -3  11  -3 11927.4 902.787   5
  -3  11  -2 1263.05 426.106   5
  -3  11  -2 1256.04 353.227   2
  -3  11  -1 11230.4 883.287   5
  -3  11  -1 9437.98 710.520   2
  -3  11   0 7204.60 725.745   5
  -3  11   0 5951.21 600.165   2
  -3  11   1 4014.07 532.801   2
  -3  11   1 3886.11 567.588   5
  -3  11   2 1326.67 401.401   2
  -3  11   2 968.461 358.171   5
  -3  11   3 4726.87 587.748   2
  -3  11   3 4860.45 615.580   5
  -3  11   4 2337.08 467.183   2
  -3  11   4 1319.86 446.829   5
  -3  11   5 2453.39 479.892   2
  -3  10  -9 794.679 418.228   4
  -3  10  -8 4187.80 529.636   5
  -3  10  -8 4689.85 631.822   4
  -3  10  -7 726.400 312.335   5
  -3  10  -7 796.893 391.240   4
  -3  10  -6 2323.83 452.451   5
  -3  10  -6 2995.16 499.594   4
  -3  10  -5 12004.5 868.530   5
  -3  10  -5 10865.5 847.828   4
  -3  10  -4 4030.74 559.244   5
  -3  10  -4 3693.70 508.040   4
  -3  10  -3 21349.6 1206.36   5
  -3  10  -3 20915.2 978.133   2
  -3  10  -2 38997.3 1718.55   5
  -3  10  -2 39649.5 1483.71   2
  -3  10  -1 26177.9 1374.69   5
  -3  10  -1 27341.0 1209.42   2
  -3  10   0 27450.9 1407.60   5
  -3  10   0 28490.0 1262.39   2
  -3  10   1 2008.03 430.363   2
  -3  10   1 1332.45 390.223   5
  -3  10   2 8361.03 768.512   5
  -3  10   2 8814.21 712.579   2
  -3  10   3 2155.95 447.097   2
  -3  10   3 1983.33 469.226   5
  -3  10   4 1853.56 422.995   2
  -3  10   4 1124.44 377.169   5
  -3  10   5 2504.43 484.013   5
  -3  10   5 1764.07 450.234   2
  -3  10   6 145.962 325.366   5
  -3  10   6 87.3990 331.557   2
  -3   9 -10 5021.98 669.531   4
  -3   9  -9 3312.27 559.383   4
  -3   9  -8 3092.34 548.423   4
  -3   9  -7 1573.37 393.325   5
  -3   9  -7 1823.62 453.870   4
  -3   9  -6 11798.6 898.932   4
  -3   9  -6 12522.3 867.550   5
  -3   9  -5 4683.31 557.544   5
  -3   9  -5 3556.26 522.415   4
  -3   9  -5 4560.26 426.482   2
  -3   9  -4 20143.5 1114.74   5
  -3   9  -4 17471.4 1018.85   4
  -3   9  -4 18570.4 866.887   2
  -3   9  -3 6493.63 609.999   4
  -3   9  -3 7077.42 535.978   2
  -3   9  -2 16479.8 1018.86   5
  -3   9  -2 16849.9 906.716   4
  -3   9  -2 17204.6 859.072   2
  -3   9  -1 6504.49 663.427   5
  -3   9  -1 7701.83 584.484   2
  -3   9   0 17598.0 1071.30   5
  -3   9   0 19244.2 971.958   2
  -3   9   1 11592.2 871.177   5
  -3   9   1 13233.7 816.450   2
  -3   9   2 10435.9 765.184   2
  -3   9   2 10935.4 841.930   5
  -3   9   3 12945.0 871.004   2
  -3   9   3 12261.5 901.387   5
  -3   9   4 3227.69 508.585   2
  -3   9   4 3144.06 501.356   5
  -3   9   5 1599.98 406.619   5
  -3   9   6 3523.68 556.151   5
  -3   9   7 2770.22 505.153   5
  -3   9   8 3429.44 522.429   5
  -3   8 -11 5730.76 708.786   4
  -3   8 -10 788.669 407.619   4
  -3   8  -9 7673.06 781.616   4
  -3   8  -8 4806.44 621.067   4
  -3   8  -7 8401.56 778.838   4
  -3   8  -7 8141.67 686.731   5
  -3   8  -6 16206.5 738.211   2
  -3   8  -6 15124.4 981.591   4
  -3   8  -6 14643.4 911.966   5
  -3   8  -5 11142.5 806.978   4
  -3   8  -5 11264.4 803.034   5
  -3   8  -5 10521.2 592.236   2
  -3   8  -4 18842.5 1049.01   5
  -3   8  -4 18175.9 1010.12   4
  -3   8  -4 18922.7 827.144   2
  -3   8  -3 11361.5 797.124   5
  -3   8  -3 10442.1 728.844   4
  -3   8  -3 11731.6 638.685   2
  -3   8  -2 915.713 330.493   5
  -3   8  -2 1685.02 339.712   4
  -3   8  -2 1090.55 266.285   2
  -3   8  -1 13186.4 868.748   5
  -3   8  -1 13507.3 748.129   4
  -3   8  -1 13632.0 731.998   2
  -3   8   0 2706.36 387.812   2
  -3   8   0 2195.81 413.734   5
  -3   8   1 12486.3 847.101   5
  -3   8   1 13593.0 790.949   2
  -3   8   2 20104.7 1005.82   2
  -3   8   2 16843.3 1008.61   5
  -3   8   3 13673.0 908.962   5
  -3   8   4 11124.1 819.938   5
  -3   8   5 11051.8 830.455   5
  -3   8   6 1751.12 393.904   5
  -3   8   7 11769.7 872.384   5
  -3   8   8 449.759 335.970   5
  -3   8   9 5711.56 618.808   5
  -3   8  10 1475.40 396.092   5
  -3   7 -12 12136.2 978.091   4
  -3   7 -11 2210.91 500.151   4
  -3   7 -10 8224.00 805.590   4
  -3   7  -9 4854.88 654.248   4
  -3   7  -8 20317.3 1178.87   4
  -3   7  -7 7026.87 461.887   2
  -3   7  -7 6738.29 674.844   4
  -3   7  -6 12995.2 822.659   5
  -3   7  -6 12106.5 603.956   2
  -3   7  -6 11624.0 842.424   4
  -3   7  -5 18154.4 982.647   5
  -3   7  -5 17081.3 737.364   2
  -3   7  -5 18203.6 1011.89   4
  -3   7  -4 11733.6 775.032   5
  -3   7  -4 11777.1 757.556   4
  -3   7  -4 10835.2 572.629   2
  -3   7  -3 3080.80 427.110   5
  -3   7  -3 3674.06 351.397   2
  -3   7  -3 3184.84 411.907   4
  -3   7  -2 310.694 263.066   5
  -3   7  -2 583.235 259.277   4
  -3   7  -2 388.858 209.116   2
  -3   7  -1 182.367 206.183   2
  -3   7  -1-208.432 239.669   5
  -3   7  -1 88.5660 214.685   4
  -3   7   0 542.670 259.021   5
  -3   7   0 610.305 226.372   4
  -3   7   0 419.488 243.423   2
  -3   7   1 6356.05 580.276   5
  -3   7   1 7007.88 539.006   2
  -3   7   2 5194.90 533.315   5
  -3   7   3 33000.9 1409.18   5
  -3   7   4 6043.18 594.588   5
  -3   7   5 17189.5 999.543   5
  -3   7   6 14333.0 910.418   5
  -3   7   7 11100.1 805.324   5
  -3   7   8 8202.31 698.838   5
  -3   7   9 568.843 297.521   5
  -3   7  10 12812.3 860.023   5
  -3   7  11-123.754 300.821   5
  -3   6 -13 4350.75 622.794   4
  -3   6 -12 3523.82 572.276   4
  -3   6 -11 12853.4 983.705   4
  -3   6 -10 2781.04 534.234   4
  -3   6  -9 12655.2 932.240   4
  -3   6  -8 1074.97 383.449   4
  -3   6  -7 25761.1 1271.08   4
  -3   6  -6 1867.11 259.148   2
  -3   6  -6 1790.00 362.655   5
  -3   6  -6 1370.08 372.576   4
  -3   6  -5 16218.7 895.224   5
  -3   6  -5 15514.5 651.104   2
  -3   6  -5 15889.8 903.032   4
  -3   6  -4 26393.7 909.083   2
  -3   6  -4 26567.1 1164.39   5
  -3   6  -4 25945.0 1129.38   4
  -3   6  -3 26021.1 1146.50   5
  -3   6  -3 27610.9 1118.56   4
  -3   6  -3 24677.3 880.309   2
  -3   6  -2 4434.59 473.169   5
  -3   6  -2 4452.71 429.131   4
  -3   6  -2 4682.51 355.971   2
  -3   6  -1 1031.50 227.314   2
  -3   6  -1 1309.20 310.674   5
  -3   6  -1 937.662 246.257   4
  -3   6   0 277.967 216.286   2
  -3   6   0 165.874 200.584   5
  -3   6   0 91.4138 189.258   4
  -3   6   1 9091.07 630.534   5
  -3   6   1 8733.15 456.575   4
  -3   6   2 30153.5 793.598   7
  -3   6   2 33961.9 1309.06   5
  -3   6   3 13577.3 487.052   7
  -3   6   3 13988.7 820.773   5
  -3   6   4 11499.0 769.738   9
  -3   6   4 11313.5 489.931   7
  -3   6   4 12221.0 778.751   5
  -3   6   5 2471.41 396.383   5
  -3   6   5 3127.43 462.259   9
  -3   6   5 2355.78 260.269   7
  -3   6   6 25432.4 1270.38   9
  -3   6   6 25133.6 931.069   7
  -3   6   6 23216.5 1136.85   5
  -3   6   7 1470.09 343.716   5
  -3   6   7 1457.62 401.368   9
  -3   6   7 1352.33 259.526   7
  -3   6   8 12244.3 891.560   9
  -3   6   8 10350.0 633.921   7
  -3   6   8 10978.4 766.655   5
  -3   6   9 9952.52 643.248   7
  -3   6   9 10305.6 831.886   9
  -3   6   9 8912.33 691.569   5
  -3   6  10 5432.56 649.695   9
  -3   6  10 6041.52 539.687   7
  -3   6  10 5793.43 574.433   5
  -3   6  11 11684.5 882.622   9
  -3   6  11 9442.02 713.908   5
  -3   5 -13 1106.27 447.800   4
  -3   5 -12 4755.11 645.463   4
  -3   5 -11 5887.91 687.946   4
  -3   5 -10 6042.42 658.696   4
  -3   5  -9 4569.00 587.787   4
  -3   5  -8 9112.72 736.547   4
  -3   5  -7 3942.34 503.965   4
  -3   5  -6 5266.93 545.019   4
  -3   5  -5 22235.9 760.869   2
  -3   5  -5 22275.2 1057.70   4
  -3   5  -5 22180.0 1027.82   5
  -3   5  -4 27693.8 1145.81   5
  -3   5  -4 27312.2 859.787   2
  -3   5  -4 27036.7 1135.91   4
  -3   5  -3 58174.8 1823.34   5
  -3   5  -3 56426.5 1504.85   2
  -3   5  -3 55928.5 1791.00   4
  -3   5  -2 20208.5 927.706   5
  -3   5  -2 21714.6 894.363   4
  -3   5  -2 20777.5 714.907   2
  -3   5  -2 20078.0 592.123   7
  -3   5  -1 35805.3 1200.41   4
  -3   5  -1 35422.4 899.379   7
  -3   5  -1 37863.4 1108.84   2
  -3   5   0 26544.0 936.323   4
  -3   5   0 26297.4 684.960   7
  -3   5   0 27126.9 923.812   2
  -3   5   1 21457.5 945.247   5
  -3   5   1 22484.3 768.468   4
  -3   5   1 20572.8 581.173   7
  -3   5   2 58442.7 1856.09   9
  -3   5   2 56265.8 1477.02   4
  -3   5   2 55887.7 1800.97   5
  -3   5   3 27199.3 1153.33   9
  -3   5   3 25729.8 1089.75   5
  -3   5   4 25048.7 1132.32   9
  -3   5   4 24328.6 1060.73   5
  -3   5   5 5048.05 536.558   9
  -3   5   5 4322.99 441.392   5
  -3   5   6 2124.58 416.098   9
  -3   5   6 1965.18 349.361   5
  -3   5   6 1698.86 272.295   7
  -3   5   7 8968.50 566.807   7
  -3   5   7 7758.91 602.768   5
  -3   5   8 807.882 304.469   5
  -3   5   8 900.531 359.224   9
  -3   5   8 1426.14 291.675   7
  -3   5   9 7870.56 709.359   9
  -3   5   9 7330.72 584.452   7
  -3   5   9 7702.85 608.890   5
  -3   5  10 2046.12 364.087   5
  -3   5  10 1296.18 414.748   9
  -3   5  10 1541.79 330.723   7
  -3   5  11 12431.2 891.522   9
  -3   5  11 10096.1 744.305   7
  -3   5  11 10913.4 721.757   5
  -3   5  12 2469.95 482.616   9
  -3   5  12 884.420 331.528   7
  -3   5  13 2914.39 478.758   9
  -3   5  13 2876.85 466.054   7
  -3   4 -14 3197.49 538.650   4
  -3   4 -13 12596.8 931.998   4
  -3   4 -12 129.038 382.106   4
  -3   4 -11 14747.1 998.331   4
  -3   4 -10 2630.09 469.796   4
  -3   4  -9 2773.39 474.450   4
  -3   4  -8 6320.84 617.491   4
  -3   4  -7 15640.0 915.681   4
  -3   4  -6 6152.80 565.416   4
  -3   4  -5 15601.4 854.111   4
  -3   4  -4 57013.0 1808.61   5
  -3   4  -4 58788.8 1840.34   4
  -3   4  -4 57091.8 1458.92   2
  -3   4  -3 52720.1 1341.83   2
  -3   4  -3 53580.6 1675.37   4
  -3   4  -2 69544.3 1996.75   4
  -3   4  -2 69309.6 1718.21   2
  -3   4  -2 71368.5 1711.17   7
  -3   4  -1 33169.9 1108.40   4
  -3   4  -1 33163.7 884.463   7
  -3   4  -1 33060.2 946.525   2
  -3   4   0 120217. 2870.07   4
  -3   4   0 114418. 2657.17   7
  -3   4   0 119400. 2965.07   9
  -3   4   1 39459.0 1138.50   4
  -3   4   1 40464.0 1046.07   7
  -3   4   2 52911.3 1367.30   4
  -3   4   2 56367.2 1693.49   9
  -3   4   2 54778.0 1660.32   5
  -3   4   3 80519.8 2330.58   9
  -3   4   3 81285.2 2259.79   5
  -3   4   4 40617.7 1452.08   9
  -3   4   4 40493.1 1380.56   5
  -3   4   5 26132.9 1145.20   9
  -3   4   5 24781.3 1011.20   5
  -3   4   6 632.589 237.815   5
  -3   4   6 362.159 282.584   9
  -3   4   7 24147.5 1166.40   9
  -3   4   7 22941.4 999.008   5
  -3   4   8 1897.44 336.682   5
  -3   4   8 1987.35 399.205   9
  -3   4   8 1357.79 297.824   7
  -3   4   9 8369.50 700.474   9
  -3   4   9 7569.53 600.955   7
  -3   4   9 7420.91 567.422   5
  -3   4  10 546.455 235.398   5
  -3   4  10 607.827 355.613   9
  -3   4  10 939.298 328.170   7
  -3   4  11 14851.1 970.359   9
  -3   4  11 13837.7 896.147   7
  -3   4  11 14244.6 788.826   5
  -3   4  12 5652.91 617.076   9
  -3   4  12 6482.62 640.416   7
  -3   4  13 6915.87 669.157   9
  -3   4  13 6755.86 672.621   7
  -3   4  14 9059.16 726.216   9
  -3   3 -14 7616.01 722.042   1
  -3   3 -14 8760.88 769.941   4
  -3   3 -13-95.9830 312.395   1
  -3   3 -13 463.857 356.577   4
  -3   3 -12 12459.1 874.621   1
  -3   3 -12 13720.9 941.085   4
  -3   3 -11 1615.43 381.622   1
  -3   3 -11 2089.19 429.067   4
  -3   3 -10 2641.55 438.345   1
  -3   3 -10 3235.73 499.640   4
  -3   3  -9 232.955 266.411   1
  -3   3  -9 368.848 321.810   4
  -3   3  -8 12093.1 738.264   1
  -3   3  -8 12465.3 814.589   4
  -3   3  -7 28221.3 1239.97   4
  -3   3  -6 11223.0 725.783   4
  -3   3  -5 93913.8 2666.24   4
  -3   3  -4 17584.8 832.272   4
  -3   3  -3 46753.7 1488.68   4
  -3   3  -2 61031.2 1424.88   2
  -3   3  -2 63124.6 1768.24   4
  -3   3  -1 135049. 3307.75   9
  -3   3  -1 140682. 3401.25   4
  -3   3  -1 143800. 3209.99   7
  -3   3  -1 138315. 3138.74   2
  -3   3   0 285.752 163.335   9
  -3   3   0 310.997 167.721   4
  -3   3   0 316.311 110.400   7
  -3   3   1 159872. 3791.56   9
  -3   3   1 156195. 3614.11   4
  -3   3   2 65211.9 1877.54   9
  -3   3   2 66713.9 1593.81   4
  -3   3   2 66992.3 1849.15   5
  -3   3   3 46514.6 1416.94   9
  -3   3   3 48278.5 1339.17   5
  -3   3   4 22719.1 975.009   9
  -3   3   4 23757.2 889.226   5
  -3   3   5 96603.8 2689.61   9
  -3   3   5 95061.1 2520.52   5
  -3   3   6 11945.0 726.741   9
  -3   3   6 12251.0 624.151   5
  -3   3   7 34633.0 1379.36   9
  -3   3   7 34694.9 1211.35   5
  -3   3   8 8796.58 678.781   9
  -3   3   8 9250.89 563.694   5
  -3   3   9 576.799 324.009   9
  -3   3   9 539.632 221.216   5
  -3   3   9 838.843 278.458   7
  -3   3  10 11438.6 807.955   9
  -3   3  10 11011.2 787.332   7
  -3   3  10 11333.5 647.235   5
  -3   3  11 875.285 255.336   5
  -3   3  11 589.333 343.143   9
  -3   3  11 382.503 316.785   7
  -3   3  12 12768.9 878.202   9
  -3   3  12 12631.1 889.249   7
  -3   3  13 3902.41 527.506   9
  -3   3  13 4855.67 595.078   7
  -3   3  14 5944.65 610.169   9
  -3   3  14 6068.26 655.261   7
  -3   2 -14 4949.96 602.078   1
  -3   2 -14 4522.15 574.922   4
  -3   2 -13 2617.59 466.550   1
  -3   2 -13 2187.94 428.871   4
  -3   2 -12 6264.98 631.475   1
  -3   2 -12 6320.83 649.744   4
  -3   2 -11 5638.62 574.159   1
  -3   2 -11 5276.60 590.807   4
  -3   2 -10 21250.9 1073.59   1
  -3   2 -10 25083.4 1229.34   4
  -3   2  -9 1961.77 351.895   1
  -3   2  -9 2151.38 410.987   4
  -3   2  -8 8025.89 596.027   1
  -3   2  -8 9021.66 695.181   4
  -3   2  -7 1554.08 311.844   1
  -3   2  -7 1777.03 381.076   4
  -3   2  -6 28325.2 1067.92   1
  -3   2  -6 28130.0 1175.76   4
  -3   2  -5 8588.92 596.513   4
  -3   2  -4 11006.9 642.361   4
  -3   2  -3 40486.0 1327.74   4
  -3   2  -2 23596.9 664.424   9
  -3   2  -2 25032.2 904.468   4
  -3   2  -1 4051.34 254.245   9
  -3   2  -1 4018.27 324.384   4
  -3   2  -1 4296.14 256.810   7
  -3   2   0 170020. 3930.07   9
  -3   2   0 173928. 3950.52   4
  -3   2   0 170322. 3865.18   7
  -3   2   1 34454.3 1070.06   5
  -3   2   1 35755.5 1077.29   9
  -3   2   1 34565.7 973.296   4
  -3   2   2 22264.1 773.100   5
  -3   2   2 23553.1 839.646   9
  -3   2   2 22075.7 637.126   4
  -3   2   3 31922.7 1044.86   9
  -3   2   3 31707.6 933.852   5
  -3   2   4 30642.1 1106.25   9
  -3   2   4 29529.3 957.619   5
  -3   2   5 2369.21 335.377   9
  -3   2   5 2466.50 258.186   5
  -3   2   6 27627.4 1137.27   9
  -3   2   6 27897.0 947.473   5
  -3   2   7 14513.2 810.502   9
  -3   2   7 15524.9 664.429   5
  -3   2   8 2563.85 292.169   5
  -3   2   8 2250.80 376.641   9
  -3   2   9 9973.62 725.905   9
  -3   2   9 10048.4 548.688   5
  -3   2  10 4866.88 547.884   9
  -3   2  10 5626.30 577.901   7
  -3   2  10 5344.75 407.331   5
  -3   2  11 19224.8 1036.30   9
  -3   2  11 17298.7 1048.07   7
  -3   2  11 19195.7 814.689   5
  -3   2  12 2958.09 467.390   9
  -3   2  12 2478.63 477.079   7
  -3   2  13 1619.16 382.223   9
  -3   2  13 1030.36 383.939   7
  -3   2  14 5802.88 579.127   9
  -3   2  14 6038.47 668.805   7
  -3   1 -14 3472.43 489.170   4
  -3   1 -14 2571.86 459.533   1
  -3   1 -13 1632.75 415.046   4
  -3   1 -13 1878.49 441.238   1
  -3   1 -12 4322.84 535.001   4
  -3   1 -12 3493.55 488.607   1
  -3   1 -11 6642.19 612.321   1
  -3   1 -11 8021.25 688.954   4
  -3   1 -10 2233.09 431.825   4
  -3   1 -10 2595.99 433.837   1
  -3   1  -9 20247.3 984.453   1
  -3   1  -9 22942.9 1116.61   4
  -3   1  -8 2448.37 414.600   4
  -3   1  -8 2686.76 366.577   1
  -3   1  -7 44184.3 1471.37   1
  -3   1  -7 46609.5 1633.50   4
  -3   1  -6 8284.21 509.353   1
  -3   1  -6 7991.56 593.139   4
  -3   1  -5 61920.6 1729.52   1
  -3   1  -5 62053.5 1906.45   4
  -3   1  -4 3357.07 292.428   1
  -3   1  -4 3600.01 379.570   4
  -3   1  -3 38850.4 1276.87   4
  -3   1  -2 25253.2 651.410   9
  -3   1  -2 29982.8 964.413   4
  -3   1  -1 4710.78 235.232   9
  -3   1  -1 4845.13 343.415   4
  -3   1   0 76738.0 1739.89   2
  -3   1   0 78367.7 1906.01   9
  -3   1   1 90302.8 2241.42   5
  -3   1   1 92932.4 2275.78   9
  -3   1   1 93383.2 2118.28   2
  -3   1   2 6317.45 317.955   5
  -3   1   2 6437.88 384.590   9
  -3   1   2 6385.60 281.296   6
  -3   1   3 18661.6 614.734   5
  -3   1   3 18689.5 745.960   9
  -3   1   3 19291.8 591.517   6
  -3   1   4 45100.0 1394.52   9
  -3   1   4 41986.1 1034.85   4
  -3   1   4 47416.0 1161.64   6
  -3   1   4 44206.9 1174.71   5
  -3   1   5 9244.46 545.644   9
  -3   1   5 7502.24 255.626   4
  -3   1   5 8582.66 381.110   5
  -3   1   6 56727.7 1743.89   9
  -3   1   6 54182.3 1302.07   4
  -3   1   6 59594.4 1492.66   5
  -3   1   7 11432.7 696.648   9
  -3   1   7 10899.4 355.256   4
  -3   1   7 11498.0 487.629   5
  -3   1   8 31667.4 1272.45   9
  -3   1   8 31934.5 1002.01   5
  -3   1   9 4706.23 508.237   9
  -3   1   9 5904.46 374.024   5
  -3   1  10 18994.0 993.023   9
  -3   1  10 18456.5 723.154   5
  -3   1  11 1712.06 246.043   5
  -3   1  11 1518.78 367.367   9
  -3   1  11 1513.49 371.787   7
  -3   1  12 10462.3 744.209   9
  -3   1  12 8906.68 785.668   7
  -3   1  13 2452.85 438.303   9
  -3   1  13 2357.98 467.057   7
  -3   1  14 1720.11 374.731   9
  -3   1  14 1804.88 455.847   7
  -3   0 -14 337.617 327.417   1
  -3   0 -13-11.6190 277.501   4
  -3   0 -13-142.569 288.237   1
  -3   0 -12 3023.44 452.838   4
  -3   0 -12 3434.87 483.135   1
  -3   0 -11 5546.20 558.569   1
  -3   0 -11 6138.28 600.149   4
  -3   0 -10 831.876 336.785   4
  -3   0 -10 328.159 277.526   1
  -3   0  -9 15275.8 824.638   1
  -3   0  -9 15575.4 915.057   4
  -3   0  -8 29615.8 1148.81   1
  -3   0  -8 30321.3 1297.96   4
  -3   0  -7 38847.5 1320.84   1
  -3   0  -7 40367.0 1483.55   4
  -3   0  -6 63990.2 1808.06   1
  -3   0  -6 62897.4 1984.85   4
  -3   0  -5 24855.0 889.881   8
  -3   0  -5 25686.7 888.715   1
  -3   0  -5 26275.2 1058.85   4
  -3   0  -4 89738.0 2367.31   8
  -3   0  -4 93013.9 2287.80   1
  -3   0  -4 94418.6 2520.26   4
  -3   0  -3 18105.9 667.006   8
  -3   0  -3 17760.0 542.184   1
  -3   0  -2 17772.7 696.160   8
  -3   0  -1 38635.4 991.350   9
  -3   0  -1 38172.9 1156.26   8
  -3   0   0 2108.59 194.801   9
  -3   0   0 2247.18 257.114   8
  -3   0   0 1872.50 136.850   2
  -3   0   1 11060.3 466.641   9
  -3   0   1 11177.6 382.714   2
  -3   0   1 12334.0 515.052   8
  -3   0   2 50972.7 1422.84   9
  -3   0   2 50931.5 1392.23   8
  -3   0   2 52050.9 1301.01   2
  -3   0   3 9080.88 325.796   5
  -3   0   3 9773.06 498.708   9
  -3   0   3 9499.78 423.738   8
  -3   0   3 9739.33 315.611   6
  -3   0   4 2233.33 146.237   5
  -3   0   4 2133.21 283.681   9
  -3   0   4 2668.45 219.808   8
  -3   0   4 2671.98 180.270   4
  -3   0   4 2328.50 159.556   6
  -3   0   5 98748.3 2600.73   9
  -3   0   5 95607.7 2294.79   8
  -3   0   5 97345.4 2254.39   4
  -3   0   5 100469. 2275.21   6
  -3   0   5 95316.6 2220.41   5
  -3   0   6 17394.7 816.182   9
  -3   0   6 17904.4 555.004   4
  -3   0   6 17721.6 543.525   5
  -3   0   7 71103.8 2099.45   9
  -3   0   7 69985.3 1691.10   4
  -3   0   7 69091.1 1700.35   5
  -3   0   8 13748.2 777.557   9
  -3   0   8 14422.1 518.150   5
  -3   0   9 59752.2 1957.60   9
  -3   0   9 59298.4 1540.35   5
  -3   0  10 3396.71 448.678   9
  -3   0  10 3345.74 256.601   5
  -3   0  11 11877.4 776.126   9
  -3   0  12 7132.17 629.453   9
  -3   0  12 6303.90 680.799   7
  -3   0  13 3152.95 443.275   9
  -3   0  13 4097.70 562.759   7
  -3   0  14 2971.47 457.115   9
  -3   0  14 3550.65 560.668   7
  -3   0  15 72.9468 366.148   7
  -3  -1 -14 928.725 338.459   1
  -3  -1 -13 1543.95 385.457   1
  -3  -1 -12 3340.84 470.522   4
  -3  -1 -12 3766.01 488.069   1
  -3  -1 -11 6625.64 612.853   4
  -3  -1 -11 6075.75 575.053   1
  -3  -1 -10 10262.8 736.132   4
  -3  -1 -10 9668.90 681.106   1
  -3  -1  -9 9949.58 722.270   4
  -3  -1  -9 10411.0 661.505   1
  -3  -1  -8 23557.5 1095.36   4
  -3  -1  -8 22994.1 970.272   1
  -3  -1  -7 38706.0 1216.38   8
  -3  -1  -7 40660.4 1473.79   4
  -3  -1  -7 37985.1 1301.38   1
  -3  -1  -6 13489.8 429.560   9
  -3  -1  -6 13031.8 609.188   8
  -3  -1  -6 12956.1 750.318   4
  -3  -1  -6 12820.7 611.214   1
  -3  -1  -5 38225.4 962.066   9
  -3  -1  -5 38430.1 1207.88   8
  -3  -1  -5 39346.2 1363.00   4
  -3  -1  -5 37302.7 1149.91   1
  -3  -1  -5 36515.5 992.691   3
  -3  -1  -4 7986.35 307.463   9
  -3  -1  -4 7869.83 464.715   8
  -3  -1  -4 8407.39 402.621   1
  -3  -1  -4 8566.80 353.058   3
  -3  -1  -3 17453.1 698.296   8
  -3  -1  -3 16637.3 563.296   1
  -3  -1  -3 17347.5 573.734   3
  -3  -1  -2 49199.7 1389.78   8
  -3  -1  -2 45683.4 1156.95   1
  -3  -1  -2 49998.2 1267.98   3
  -3  -1  -1 68218.4 1827.58   8
  -3  -1  -1 68895.0 1713.87   3
  -3  -1   0 92062.0 2330.09   8
  -3  -1   0 91631.5 2166.74   2
  -3  -1   0 95317.1 2249.06   3
  -3  -1   1 2836.84 276.594   8
  -3  -1   1 2870.87 204.937   2
  -3  -1   2 73329.7 1855.54   8
  -3  -1   2 70571.4 1672.96   1
  -3  -1   2 75367.1 1783.52   2
  -3  -1   3 78304.2 1854.62   1
  -3  -1   3 77887.5 2060.56   9
  -3  -1   3 77781.9 1960.02   8
  -3  -1   4 28049.4 780.228   4
  -3  -1   4 26957.9 945.700   9
  -3  -1   4 26813.5 808.187   8
  -3  -1   5 29483.9 1061.92   9
  -3  -1   5 28611.9 862.562   8
  -3  -1   5 30104.5 774.829   6
  -3  -1   6 6458.13 472.367   9
  -3  -1   6 5449.80 285.468   8
  -3  -1   6 6063.85 275.578   6
  -3  -1   7 32462.6 1126.94   9
  -3  -1   7 30209.2 732.744   8
  -3  -1   8 32955.5 1233.72   9
  -3  -1   8 27722.5 737.407   5
  -3  -1   9 20891.4 993.460   9
  -3  -1   9 19737.3 592.351   5
  -3  -1  10 27535.7 1167.11   9
  -3  -1  10 24122.8 722.622   5
  -3  -1  11 12803.2 799.853   9
  -3  -1  12 6680.07 604.163   9
  -3  -1  12 6766.57 695.734   7
  -3  -1  13 7108.53 605.951   9
  -3  -1  13 6581.70 705.276   7
  -3  -1  14 3802.17 492.152   9
  -3  -1  14 4396.22 623.210   7
  -3  -1  15 180.898 342.905   7
  -3  -2 -14 4505.09 517.030   1
  -3  -2 -13 1628.38 391.803   1
  -3  -2 -12 2985.53 449.584   1
  -3  -2 -11 1146.79 333.702   4
  -3  -2 -11 110.020 265.525   1
  -3  -2 -10 3040.25 437.094   4
  -3  -2 -10 2848.79 395.522   1
  -3  -2  -9 621.469 295.332   4
  -3  -2  -9 838.601 265.022   1
  -3  -2  -8 1881.16 309.269   1
  -3  -2  -8 1651.98 244.994   8
  -3  -2  -8 1943.88 380.423   4
  -3  -2  -7 20451.3 811.392   8
  -3  -2  -7 20124.8 978.023   4
  -3  -2  -7 21318.4 872.704   1
  -3  -2  -6 833.102 232.637   1
  -3  -2  -6 1011.11 229.823   8
  -3  -2  -6 857.738 326.748   4
  -3  -2  -5 21476.7 848.545   8
  -3  -2  -5 21872.6 789.559   1
  -3  -2  -4 10087.0 542.234   8
  -3  -2  -4 9966.29 447.101   1
  -3  -2  -3 21571.3 814.327   8
  -3  -2  -3 19804.1 634.972   1
  -3  -2  -2 68062.2 1838.22   8
  -3  -2  -2 65532.3 1560.63   1
  -3  -2  -1 38581.9 1171.65   8
  -3  -2  -1 34706.6 828.305   1
  -3  -2   0 67496.9 1837.12   8
  -3  -2   1 105877. 2417.83   8
  -3  -2   1 90894.4 2023.36   1
  -3  -2   2 17075.4 683.540   8
  -3  -2   2 17099.4 481.212   1
  -3  -2   3 98185.8 2420.59   8
  -3  -2   3 95585.8 2233.12   1
  -3  -2   4 37608.2 1120.20   8
  -3  -2   5 36899.7 1261.22   9
  -3  -2   5 36892.1 1088.96   8
  -3  -2   6 10150.7 597.984   9
  -3  -2   6 9450.14 433.343   8
  -3  -2   7 11558.0 673.989   9
  -3  -2   7 11316.6 454.068   8
  -3  -2   8 7797.63 579.908   9
  -3  -2   8 8138.44 344.538   8
  -3  -2   9 8033.70 588.771   9
  -3  -2   9 7149.15 253.552   8
  -3  -2  10 8534.12 636.406   9
  -3  -2  11-58.0541 247.359   9
  -3  -2  12 3048.70 440.956   9
  -3  -2  13 1168.93 348.013   9
  -3  -2  13 881.307 397.799   7
  -3  -2  14 4136.86 495.753   9
  -3  -2  14 4119.47 591.929   7
  -3  -2  15 216.694 344.420   7
  -3  -3 -13 1910.73 382.643   1
  -3  -3 -12 2372.51 403.802   1
  -3  -3 -11 3714.66 459.351   1
  -3  -3 -10 390.395 259.154   1
  -3  -3 -10 134.215 273.885   4
  -3  -3  -9 1498.47 317.997   1
  -3  -3  -9 1032.54 310.905   4
  -3  -3  -8 2274.65 328.123   1
  -3  -3  -8 2515.10 293.598   8
  -3  -3  -8 2567.77 397.928   4
  -3  -3  -7 1140.53 260.024   1
  -3  -3  -7 1406.20 247.322   8
  -3  -3  -7 1604.68 359.269   4
  -3  -3  -6 5274.51 416.648   8
  -3  -3  -6 5877.29 424.907   1
  -3  -3  -5 7121.59 488.567   8
  -3  -3  -5 6996.02 427.553   1
  -3  -3  -4 14290.2 686.136   8
  -3  -3  -4 14436.5 583.503   1
  -3  -3  -3 41539.2 1339.70   8
  -3  -3  -3 40897.4 1132.79   1
  -3  -3  -2 6470.63 444.883   8
  -3  -3  -2 5736.86 288.385   1
  -3  -3  -1 82889.7 1918.98   1
  -3  -3  -1 84203.2 2265.12   8
  -3  -3   0 11268.9 592.490   8
  -3  -3   1 15914.3 449.120   1
  -3  -3   1 17011.4 726.067   8
  -3  -3   2 47539.8 1408.84   8
  -3  -3   2 46115.2 1135.58   1
  -3  -3   2 46488.5 1156.18   6
  -3  -3   3 9582.00 509.448   8
  -3  -3   3 9011.03 353.967   1
  -3  -3   3 9146.43 304.464   6
  -3  -3   4 75816.6 1954.48   8
  -3  -3   4 69877.8 1632.84   6
  -3  -3   5 863.931 194.028   8
  -3  -3   5 466.203 92.5248   6
  -3  -3   6 40722.5 1230.50   8
  -3  -3   7 11031.9 505.724   8
  -3  -3   7 9524.47 620.846   9
  -3  -3   8 4898.09 484.394   9
  -3  -3   8 5464.74 332.426   8
  -3  -3   9 4953.48 484.202   9
  -3  -3   9 4803.31 294.239   8
  -3  -3  10 2118.78 366.364   9
  -3  -3  11 800.714 303.170   9
  -3  -3  12 839.112 307.727   9
  -3  -3  13 944.755 336.309   9
  -3  -3  13 1069.65 385.380   7
  -3  -3  14 1253.11 341.362   9
  -3  -3  14 872.829 414.366   7
  -3  -3  15 3151.49 549.525   7
  -3  -4 -12 1310.48 344.350   1
  -3  -4 -11 2317.22 395.336   1
  -3  -4 -10 5257.43 513.864   1
  -3  -4  -9 6942.76 582.136   4
  -3  -4  -9 6963.61 543.050   1
  -3  -4  -8 5973.03 546.795   4
  -3  -4  -8 5764.34 482.647   1
  -3  -4  -7 10310.0 590.391   8
  -3  -4  -7 10953.1 610.567   1
  -3  -4  -6 3739.31 374.914   8
  -3  -4  -6 3551.21 349.091   1
  -3  -4  -5 21451.8 930.237   8
  -3  -4  -5 22037.9 833.651   1
  -3  -4  -4 12741.4 693.787   8
  -3  -4  -4 13275.7 584.072   1
  -3  -4  -3 26451.2 857.313   1
  -3  -4  -3 25733.9 1041.81   8
  -3  -4  -2 33131.6 970.782   1
  -3  -4  -2 32360.3 1191.99   8
  -3  -4  -1 5029.18 440.625   8
  -3  -4   0 106627. 2826.87   8
  -3  -4   1 10215.6 364.709   1
  -3  -4   1 11096.2 620.617   8
  -3  -4   1 10527.0 474.271   6
  -3  -4   2 28512.4 787.415   1
  -3  -4   2 28306.0 1057.27   8
  -3  -4   2 29869.1 871.760   6
  -3  -4   3 99083.3 2607.29   8
  -3  -4   3 97394.2 2310.94   6
  -3  -4   4 2770.14 316.028   8
  -3  -4   4 3074.04 205.492   6
  -3  -4   5 41123.9 1328.42   8
  -3  -4   5 41995.9 1101.22   6
  -3  -4   6 16011.5 722.372   8
  -3  -4   6 16738.9 567.517   6
  -3  -4   7 17180.9 740.821   8
  -3  -4   7 18792.3 640.929   6
  -3  -4   8 16050.8 675.919   8
  -3  -4   9 6493.80 575.882   9
  -3  -4   9 6356.28 392.446   8
  -3  -4  10 11124.6 737.899   9
  -3  -4  10 11503.2 499.846   8
  -3  -4  11 1445.30 360.975   9
  -3  -4  12 9371.72 687.991   9
  -3  -4  13 5086.90 528.161   9
  -3  -4  13 5712.11 646.550   7
  -3  -4  14 1581.90 357.143   9
  -3  -4  14 1287.80 408.637   7
  -3  -4  15 2578.47 498.534   7
  -3  -5 -10 3558.43 441.507   1
  -3  -5  -9 8697.19 611.942   1
  -3  -5  -8 2886.70 377.206   1
  -3  -5  -8 2638.29 403.668   4
  -3  -5  -7 23269.8 967.846   8
  -3  -5  -7 22611.9 950.867   1
  -3  -5  -6 8451.07 588.085   8
  -3  -5  -6 9395.79 560.691   1
  -3  -5  -5 8481.49 585.372   8
  -3  -5  -5 8568.46 507.610   1
  -3  -5  -4 44547.2 1343.60   1
  -3  -5  -4 41566.6 1485.59   8
  -3  -5  -3 18835.4 732.843   1
  -3  -5  -3 18668.6 901.536   8
  -3  -5  -2 11586.2 691.692   8
  -3  -5  -1 1740.66 326.933   8
  -3  -5   0 3070.82 384.989   8
  -3  -5   1 1020.33 281.213   8
  -3  -5   1 970.771 207.765   6
  -3  -5   2 335.600 232.713   8
  -3  -5   2 556.870 171.912   6
  -3  -5   3 780.125 264.018   8
  -3  -5   3 1316.99 199.539   6
  -3  -5   4 2584.48 352.490   8
  -3  -5   4 2446.95 225.991   6
  -3  -5   5 8081.17 545.536   8
  -3  -5   5 8002.29 394.787   6
  -3  -5   6 11671.1 657.699   8
  -3  -5   6 13100.5 519.711   6
  -3  -5   7 37393.2 1301.32   8
  -3  -5   7 38426.0 1121.24   6
  -3  -5   8 14817.8 717.678   8
  -3  -5   8 15615.2 622.431   6
  -3  -5   9 21702.6 866.531   8
  -3  -5   9 22699.9 810.597   6
  -3  -5  10 789.686 322.195   9
  -3  -5  10 1023.23 217.016   8
  -3  -5  11 15097.1 899.053   9
  -3  -5  12 2930.06 429.287   9
  -3  -5  13 1999.84 409.768   9
  -3  -5  13 2199.78 437.533   7
  -3  -5  14 4033.20 484.032   9
  -3  -5  14 3857.78 563.586   7
  -3  -5  15 1503.68 407.239   7
  -3  -6  -9 2553.09 388.350   1
  -3  -6  -8 13506.4 741.494   1
  -3  -6  -7 2944.32 380.866   8
  -3  -6  -7 3766.77 412.003   1
  -3  -6  -6 21096.2 995.640   8
  -3  -6  -6 22870.0 938.552   1
  -3  -6  -5 2551.49 393.083   8
  -3  -6  -5 2626.64 326.709   1
  -3  -6  -4 11935.5 610.675   1
  -3  -6  -4 10537.6 712.627   8
  -3  -6  -3 16187.2 701.089   1
  -3  -6  -3 14074.4 832.254   8
  -3  -6  -2 8386.58 628.764   8
  -3  -6  -1 8967.60 653.520   8
  -3  -6   0 3692.23 443.491   8
  -3  -6   0 3720.31 379.725   6
  -3  -6   1 2735.56 408.077   8
  -3  -6   1 2466.86 310.678   6
  -3  -6   2 2528.06 387.526   8
  -3  -6   2 2879.74 310.763   6
  -3  -6   3 4249.07 467.014   8
  -3  -6   3 4675.15 356.463   6
  -3  -6   4 2302.90 368.280   8
  -3  -6   4 2949.19 291.072   6
  -3  -6   5 8580.06 617.680   8
  -3  -6   5 8990.69 460.414   6
  -3  -6   6 5443.76 495.534   8
  -3  -6   6 6092.74 381.003   6
  -3  -6   7 17475.5 861.801   8
  -3  -6   7 18101.8 698.804   6
  -3  -6   8 6702.24 515.782   8
  -3  -6   8 7432.07 418.611   6
  -3  -6   9 5796.36 468.890   8
  -3  -6   9 6120.57 395.900   6
  -3  -6  10 21621.7 902.455   8
  -3  -6  10 22657.9 855.612   6
  -3  -6  11 5217.32 557.796   9
  -3  -6  12 12540.9 819.304   9
  -3  -6  13 866.782 319.014   9
  -3  -6  13 531.313 310.038   7
  -3  -6  14 5780.98 623.058   7
  -3  -6  15 1380.64 382.791   7
  -3  -7  -7 13952.4 748.056   1
  -3  -7  -6 146.434 245.541   1
  -3  -7  -6 693.645 299.591   8
  -3  -7  -5 10156.1 625.849   1
  -3  -7  -5 11289.9 760.446   8
  -3  -7  -4 208.772 245.336   1
  -3  -7  -4 277.229 295.426   8
  -3  -7  -3 5374.35 547.424   8
  -3  -7  -3 7321.96 497.960   1
  -3  -7  -2 2521.56 427.770   8
  -3  -7  -1 6112.47 573.937   8
  -3  -7   0 13513.4 842.215   8
  -3  -7   0 13838.5 754.612   6
  -3  -7   1 22509.2 1104.45   8
  -3  -7   1 22042.1 962.747   6
  -3  -7   2 9637.78 727.265   8
  -3  -7   2 10431.1 605.111   6
  -3  -7   3 31960.0 1371.85   8
  -3  -7   3 34767.1 1190.82   6
  -3  -7   4 6799.66 607.296   8
  -3  -7   4 6911.45 465.096   6
  -3  -7   5 9806.21 701.918   8
  -3  -7   5 12059.6 585.473   6
  -3  -7   6 6673.84 587.574   8
  -3  -7   6 8881.34 493.036   6
  -3  -7   7 1200.65 312.569   8
  -3  -7   7 1777.13 256.840   6
  -3  -7   8 6446.87 550.789   8
  -3  -7   8 5628.33 397.851   6
  -3  -7   9 5702.18 511.935   8
  -3  -7   9 6133.46 416.568   6
  -3  -7  10 6728.76 523.694   8
  -3  -7  11 4101.01 519.432   9
  -3  -7  12 6275.52 597.696   9
  -3  -7  12 7127.03 617.405   7
  -3  -7  13 4333.44 505.923   9
  -3  -7  13 4377.27 526.559   7
  -3  -7  14 3847.42 506.447   7
  -3  -8  -6 908.101 324.127   8
  -3  -8  -5 14022.1 732.008   1
  -3  -8  -5 11894.4 829.675   8
  -3  -8  -4 6591.84 624.215   8
  -3  -8  -4 7449.15 529.959   1
  -3  -8  -3 13188.6 882.539   8
  -3  -8  -3 16451.9 787.210   1
  -3  -8  -2 13406.5 892.603   8
  -3  -8  -1 2402.89 443.219   8
  -3  -8   0 38000.3 1563.52   8
  -3  -8   0 39549.6 1472.11   6
  -3  -8   1 10506.1 792.794   8
  -3  -8   1 11140.2 689.867   6
  -3  -8   2 8656.74 723.847   8
  -3  -8   2 8030.38 567.752   6
  -3  -8   3 7642.07 684.069   8
  -3  -8   3 8126.01 556.704   6
  -3  -8   4 6913.54 654.528   8
  -3  -8   4 7030.89 502.159   6
  -3  -8   5 33472.7 1467.71   8
  -3  -8   5 37246.1 1247.80   6
  -3  -8   6 1879.86 407.083   8
  -3  -8   6 2147.34 301.012   6
  -3  -8   7 9748.05 728.044   8
  -3  -8   7 9448.13 541.637   6
  -3  -8   8 12473.7 815.925   8
  -3  -8   8 14396.2 671.719   6
  -3  -8   9 4972.19 514.680   8
  -3  -8  10 10045.4 685.615   8
  -3  -8  12 652.443 322.317   9
  -3  -8  12 1569.68 346.883   7
  -3  -8  13-85.4721 292.179   9
  -3  -8  13 378.394 255.481   7
  -3  -8  14 2517.15 394.933   7
  -3  -9  -6 1162.69 352.578   8
  -3  -9  -5 3403.83 492.520   8
  -3  -9  -4 2679.61 462.442   8
  -3  -9  -3 4427.59 452.721   1
  -3  -9  -3 3081.22 490.563   8
  -3  -9  -2 1891.31 430.342   8
  -3  -9  -1 2455.81 503.591   8
  -3  -9   0 21843.5 1206.26   8
  -3  -9   0 22440.6 1090.08   6
  -3  -9   1 9350.18 813.253   8
  -3  -9   1 8974.75 672.727   6
  -3  -9   2 39531.2 1712.99   8
  -3  -9   2 43108.7 1523.55   6
  -3  -9   3 13616.7 950.036   8
  -3  -9   3 13421.0 779.619   6
  -3  -9   4 29698.2 1428.30   8
  -3  -9   4 30617.1 1176.75   6
  -3  -9   5 17346.6 1063.48   8
  -3  -9   5 18938.0 856.668   6
  -3  -9   6 3887.90 538.449   8
  -3  -9   6 3425.60 379.114   6
  -3  -9   7 3999.27 534.623   8
  -3  -9   7 4111.82 392.717   6
  -3  -9   8 2109.94 392.831   8
  -3  -9   9 2906.75 448.199   8
  -3  -9  10 304.085 284.074   8
  -3  -9  13 795.966 332.093   9
  -3 -10  -5 3186.02 503.376   8
  -3 -10  -4 1152.16 400.283   8
  -3 -10  -3 2403.11 477.756   8
  -3 -10  -2 1553.76 426.462   8
  -3 -10  -1 5299.51 656.297   8
  -3 -10   0 3456.67 541.660   8
  -3 -10   0 3691.67 499.883   6
  -3 -10   1 7752.51 760.665   8
  -3 -10   1 9099.19 694.158   6
  -3 -10   2 1882.96 486.252   8
  -3 -10   2 3120.06 434.796   6
  -3 -10   3 13324.9 983.633   8
  -3 -10   3 12357.3 756.961   6
  -3 -10   4 3803.69 570.743   8
  -3 -10   4 3972.26 444.763   6
  -3 -10   5 8868.77 782.946   8
  -3 -10   5 7799.08 578.214   6
  -3 -10   6 5554.96 640.504   8
  -3 -10   6 5234.08 464.676   6
  -3 -10   7 3050.86 498.459   8
  -3 -10   8 2392.78 483.377   8
  -3 -10   9 2648.56 463.550   8
  -3 -10  10 562.529 308.265   8
  -3 -11  -4 2998.84 499.247   8
  -3 -11  -3 5156.19 633.998   8
  -3 -11  -2 1240.07 428.732   8
  -3 -11  -1 3030.12 568.450   8
  -3 -11   0 3013.91 554.737   8
  -3 -11   1 5373.04 666.738   8
  -3 -11   1 5289.97 579.084   6
  -3 -11   2 7053.57 762.801   8
  -3 -11   2 6625.26 601.071   6
  -3 -11   3 2487.11 536.862   8
  -3 -11   3 2115.50 402.585   6
  -3 -11   4 9445.58 838.931   8
  -3 -11   4 8411.42 645.198   6
  -3 -11   5 2003.73 505.923   8
  -3 -11   6 4760.85 623.103   8
  -3 -11   7 148.961 310.999   8
  -3 -11   8 34.3111 345.193   8
  -3 -11   9 4078.40 568.490   8
  -3 -11  10 616.918 332.970   8
  -3 -12   1 2184.48 422.909   6
  -3 -12   2 3531.14 604.284   8
  -3 -12   2 3894.84 507.205   6
  -3 -12   3 509.485 375.795   8
  -3 -12   4 650.809 468.548   8
  -3 -12   5 2691.12 529.244   8
  -4  11  -7 13614.8 948.898   5
  -4  11  -7 12046.5 937.781   4
  -4  11  -6 5184.60 629.748   5
  -4  11  -6 4638.82 594.917   4
  -4  11  -5 12598.1 924.904   5
  -4  11  -5 11842.8 878.772   4
  -4  11  -4 6671.45 711.842   5
  -4  11  -3 6544.29 720.371   5
  -4  11  -2 3983.33 581.801   5
  -4  11  -1 2910.98 514.341   5
  -4  11   0 8495.69 797.318   5
  -4  11   1 5307.93 653.347   5
  -4  11   2 14340.7 1009.20   5
  -4  11   2 13456.1 880.063   2
  -4  11   3 3696.07 530.361   2
  -4  11   3 3737.78 574.693   5
  -4  11   4 12615.1 881.363   2
  -4  11   5 4775.50 583.148   2
  -4  10  -8 5141.81 660.073   4
  -4  10  -7 6595.87 676.774   5
  -4  10  -7 6570.82 713.357   4
  -4  10  -6 514.613 330.195   5
  -4  10  -6-31.5593 324.131   4
  -4  10  -5 6581.70 680.537   5
  -4  10  -5 6854.08 665.864   4
  -4  10  -4 3521.14 524.634   5
  -4  10  -4 4559.82 551.154   4
  -4  10  -3 23004.7 1265.21   5
  -4  10  -3 22287.7 1130.87   4
  -4  10  -2 6696.17 716.443   5
  -4  10  -1 29931.5 1478.29   5
  -4  10   0 16847.5 1088.14   5
  -4  10   0 15936.4 872.018   2
  -4  10   1 8659.13 794.430   5
  -4  10   1 9819.07 709.958   2
  -4  10   2 9981.23 837.869   5
  -4  10   2 8515.95 688.104   2
  -4  10   3 1209.59 377.716   2
  -4  10   3 893.312 357.228   5
  -4  10   4 7042.87 724.953   5
  -4  10   4 7690.07 705.557   2
  -4  10   5 1257.61 381.013   2
  -4  10   5 922.844 380.938   5
  -4  10   6 5363.45 644.354   5
  -4  10   6 5517.82 622.750   2
  -4   9 -10-141.129 337.459   4
  -4   9  -9 651.086 413.855   4
  -4   9  -8 592.266 358.361   4
  -4   9  -7 1320.43 376.993   5
  -4   9  -7 1789.52 450.469   4
  -4   9  -6 2863.77 477.445   5
  -4   9  -6 3880.90 546.711   4
  -4   9  -5 1911.63 427.856   5
  -4   9  -5 2195.56 440.836   4
  -4   9  -4 18778.7 1113.85   5
  -4   9  -4 19344.6 1073.01   4
  -4   9  -3 1285.30 401.760   5
  -4   9  -3 1901.21 407.714   4
  -4   9  -2 34696.6 1592.06   5
  -4   9  -2 34882.2 1399.83   4
  -4   9  -2 37231.4 1287.10   2
  -4   9  -1 2196.15 469.979   5
  -4   9  -1 2126.18 373.940   4
  -4   9  -1 1691.97 330.023   2
  -4   9   0 31026.0 1487.96   5
  -4   9   0 33565.9 1277.55   2
  -4   9   1 6704.14 679.982   5
  -4   9   1 6624.13 559.189   2
  -4   9   2 11614.7 886.961   5
  -4   9   2 14659.6 845.813   2
  -4   9   3 1503.10 384.671   2
  -4   9   3 1273.13 367.621   5
  -4   9   4 3371.75 530.339   5
  -4   9   4 2577.17 453.530   2
  -4   9   5 880.163 342.773   5
  -4   9   6 1049.87 386.916   5
  -4   9   7 752.458 349.909   5
  -4   9   8 674.097 362.376   5
  -4   8 -11 1250.11 470.338   4
  -4   8 -10 202.493 389.361   4
  -4   8  -9 4850.82 644.341   4
  -4   8  -8 2013.87 473.158   4
  -4   8  -7 9712.65 834.008   4
  -4   8  -6 4158.39 543.034   5
  -4   8  -6 3874.10 537.094   4
  -4   8  -5 2038.26 416.909   5
  -4   8  -5 2612.00 451.586   4
  -4   8  -4 8489.71 721.504   5
  -4   8  -4 8688.48 704.101   4
  -4   8  -3 28899.6 1362.30   5
  -4   8  -3 30523.8 1304.45   4
  -4   8  -3 28802.0 1030.83   2
  -4   8  -2 13070.0 892.352   5
  -4   8  -2 14245.2 823.840   4
  -4   8  -2 14141.2 682.360   2
  -4   8  -1 43754.7 1737.41   5
  -4   8  -1 41014.1 1500.88   4
  -4   8  -1 45692.2 1457.11   2
  -4   8   0 1543.53 321.142   2
  -4   8   0 1903.25 418.473   5
  -4   8   0 1776.97 308.438   4
  -4   8   1 42166.8 1737.87   5
  -4   8   1 45298.8 1553.70   2
  -4   8   2 5515.88 595.467   5
  -4   8   2 6680.33 564.392   2
  -4   8   3 4545.03 556.537   5
  -4   8   4 3620.94 507.143   5
  -4   8   5 7729.15 691.458   5
  -4   8   6 4800.75 562.416   5
  -4   8   7 2253.44 434.790   5
  -4   8   8-155.514 300.461   5
  -4   8   9 1352.96 363.783   5
  -4   8  10-264.279 293.142   5
  -4   7 -11 6082.87 730.379   4
  -4   7 -10 10687.6 931.933   4
  -4   7  -9 951.703 409.538   4
  -4   7  -8 33948.3 1594.62   4
  -4   7  -7 3307.72 520.919   4
  -4   7  -6 22388.5 1160.72   5
  -4   7  -6 21896.5 1190.95   4
  -4   7  -5 5685.10 586.210   4
  -4   7  -5 5624.48 587.285   5
  -4   7  -4 4366.77 529.608   5
  -4   7  -4 4933.83 534.827   4
  -4   7  -4 4647.98 327.622   2
  -4   7  -3 12302.3 809.254   5
  -4   7  -3 11609.5 737.297   4
  -4   7  -3 10214.8 512.197   2
  -4   7  -2 13928.8 886.396   5
  -4   7  -2 14920.6 812.103   4
  -4   7  -2 14971.1 650.066   2
  -4   7  -1 13227.6 842.316   5
  -4   7  -1 13356.0 725.236   4
  -4   7  -1 13455.9 648.533   2
  -4   7   0 26022.4 1229.76   5
  -4   7   0 26700.4 1025.39   4
  -4   7   0 26898.7 1015.41   2
  -4   7   1 1659.84 299.983   2
  -4   7   1 1022.18 333.077   5
  -4   7   1 1359.48 247.893   4
  -4   7   2 15600.1 931.776   5
  -4   7   3 7269.33 628.045   5
  -4   7   4 232.847 273.068   5
  -4   7   5 27442.0 1272.83   5
  -4   7   6 1790.11 386.496   5
  -4   7   6 1601.35 427.931   9
  -4   7   7 29122.2 1467.34   9
  -4   7   7 28103.0 1309.64   5
  -4   7   8 6401.38 703.863   9
  -4   7   8 6690.18 615.299   5
  -4   7   9 5148.95 555.100   5
  -4   7  10 9383.63 723.774   5
  -4   7  11 759.456 303.557   5
  -4   6 -12 7000.93 763.236   4
  -4   6 -11 3160.02 570.091   4
  -4   6 -10 6937.97 748.587   4
  -4   6  -9 32891.1 1576.66   4
  -4   6  -8 5898.10 666.383   4
  -4   6  -7 38710.6 1660.90   4
  -4   6  -6 2481.24 461.997   4
  -4   6  -5 30821.0 1323.37   4
  -4   6  -5 28333.3 873.883   2
  -4   6  -5 31108.2 1331.06   5
  -4   6  -4 3476.88 459.406   5
  -4   6  -4 3697.70 264.625   2
  -4   6  -4 4677.30 503.251   4
  -4   6  -3 14944.7 865.408   5
  -4   6  -3 14927.3 823.201   4
  -4   6  -3 15698.1 587.695   2
  -4   6  -2 2873.49 408.765   5
  -4   6  -2 2730.28 257.470   2
  -4   6  -2 3227.02 393.540   4
  -4   6  -1 701.539 205.985   2
  -4   6  -1 733.637 266.818   5
  -4   6  -1 830.826 259.015   4
  -4   6   0 1580.09 336.334   5
  -4   6   0 1680.69 262.419   2
  -4   6   0 1731.48 269.745   4
  -4   6   1 3506.88 438.502   5
  -4   6   1 4722.41 360.435   4
  -4   6   2 11738.0 751.459   5
  -4   6   2 12026.4 756.533   9
  -4   6   2 11889.6 519.502   4
  -4   6   3 6604.74 593.527   9
  -4   6   3 7731.01 616.382   5
  -4   6   4 31283.1 1381.96   9
  -4   6   4 30011.5 1288.81   5
  -4   6   5 4729.58 576.504   9
  -4   6   5 4875.42 514.728   5
  -4   6   6 46627.0 1812.16   9
  -4   6   6 43566.5 1377.14   7
  -4   6   6 43351.0 1645.78   5
  -4   6   7 6399.64 672.981   9
  -4   6   7 6328.01 459.078   7
  -4   6   7 6163.72 574.152   5
  -4   6   8 39689.3 1759.09   9
  -4   6   8 41649.8 1413.81   7
  -4   6   8 39228.8 1555.71   5
  -4   6   9 6992.87 711.624   9
  -4   6   9 6882.62 541.847   7
  -4   6   9 5858.90 579.252   5
  -4   6  10 5183.51 533.931   5
  -4   6  10 3867.86 559.425   9
  -4   6  11 7958.44 769.840   9
  -4   6  11 7621.64 612.162   5
  -4   6  12 791.034 373.405   9
  -4   5 -13 6017.29 701.873   4
  -4   5 -12 1351.48 457.205   4
  -4   5 -11 3793.57 601.141   4
  -4   5 -10 7473.34 762.666   4
  -4   5  -9 13846.5 979.702   4
  -4   5  -8 7254.02 704.493   4
  -4   5  -7 7196.36 681.267   4
  -4   5  -6 25676.8 1228.17   4
  -4   5  -5 11766.6 796.030   4
  -4   5  -4 19398.0 601.713   2
  -4   5  -4 18614.2 963.567   5
  -4   5  -3 8748.11 626.614   5
  -4   5  -3 7500.30 331.669   2
  -4   5  -3 8204.07 607.486   4
  -4   5  -2 14974.6 823.520   5
  -4   5  -2 15079.5 765.530   4
  -4   5  -2 15340.6 537.183   2
  -4   5  -1 10282.0 658.663   5
  -4   5  -1 9727.45 576.598   4
  -4   5  -1 10043.1 389.102   7
  -4   5  -1 10609.2 458.180   2
  -4   5   0 1486.95 305.714   5
  -4   5   0 2038.02 279.766   4
  -4   5   0 1916.06 161.345   7
  -4   5   0 2371.53 258.909   2
  -4   5   1 5081.99 461.057   5
  -4   5   1 5957.00 374.185   4
  -4   5   1 5545.10 474.822   9
  -4   5   1 5086.62 262.243   7
  -4   5   2 26975.1 1131.65   5
  -4   5   2 27734.9 1150.82   9
  -4   5   2 27394.1 860.132   4
  -4   5   3 5308.23 473.968   5
  -4   5   3 4551.12 484.901   9
  -4   5   4 20496.6 1009.55   9
  -4   5   4 17935.3 905.449   5
  -4   5   5 26550.6 1217.87   9
  -4   5   5 25883.3 1108.68   5
  -4   5   6 9208.73 733.007   9
  -4   5   6 8742.70 633.979   5
  -4   5   7 18062.8 1070.17   9
  -4   5   7 18177.8 920.927   5
  -4   5   8 1067.35 392.411   9
  -4   5   8 997.677 288.878   5
  -4   5   8 579.970 249.587   7
  -4   5   9 24568.4 1298.19   9
  -4   5   9 22461.1 1049.77   7
  -4   5   9 22073.3 1039.13   5
  -4   5  10 1307.40 417.412   9
  -4   5  10 1090.79 319.423   5
  -4   5  10 1604.00 345.638   7
  -4   5  11 5528.21 504.662   5
  -4   5  11 5480.94 648.208   9
  -4   5  11 5204.93 547.604   7
  -4   5  12 2084.69 475.222   9
  -4   5  12 1177.05 339.108   7
  -4   5  13 3980.44 557.865   9
  -4   5  13 4302.81 528.593   7
  -4   4 -13 645.095 368.715   4
  -4   4 -12 4396.80 622.447   4
  -4   4 -11 6135.66 696.212   4
  -4   4 -10 5029.30 622.820   4
  -4   4  -9 1650.43 433.499   4
  -4   4  -8 10974.1 825.242   4
  -4   4  -7 957.926 369.031   4
  -4   4  -6 15672.5 918.705   4
  -4   4  -5 17570.0 952.123   4
  -4   4  -4 30227.6 1234.79   4
  -4   4  -3 33184.4 1293.57   5
  -4   4  -3 36275.7 1305.91   4
  -4   4  -2 24939.5 661.232   2
  -4   4  -2 25105.7 1011.48   4
  -4   4  -1 32385.9 1073.83   9
  -4   4  -1 32206.1 1125.51   4
  -4   4  -1 32538.1 878.893   2
  -4   4   0 45813.9 1510.81   5
  -4   4   0 46742.1 1436.51   9
  -4   4   0 45056.8 1376.37   4
  -4   4   1 27788.6 1083.52   5
  -4   4   1 29084.1 1072.47   9
  -4   4   1 28100.7 913.708   4
  -4   4   2 26804.5 1048.88   5
  -4   4   2 27740.0 1080.91   9
  -4   4   2 26586.6 819.027   4
  -4   4   3 31726.4 1170.85   5
  -4   4   3 33529.5 1274.05   9
  -4   4   3 31617.1 845.029   4
  -4   4   4 26965.6 1168.36   9
  -4   4   4 26763.5 1052.80   5
  -4   4   5 15806.4 888.223   9
  -4   4   5 16212.1 787.208   5
  -4   4   6 10608.6 745.755   9
  -4   4   6 9570.72 604.033   5
  -4   4   7 2394.09 320.629   5
  -4   4   7 3327.90 460.212   9
  -4   4   8 9320.56 743.808   9
  -4   4   8 8571.67 582.029   5
  -4   4   9 4794.67 575.771   9
  -4   4   9 4799.13 443.530   5
  -4   4  10 6521.96 679.335   9
  -4   4  10 5652.77 569.391   7
  -4   4  10 5518.77 478.894   5
  -4   4  11 4823.76 447.281   5
  -4   4  11 4196.35 563.502   9
  -4   4  11 4589.47 544.318   7
  -4   4  12 6253.22 663.998   9
  -4   4  12 6576.58 634.370   7
  -4   4  13 1957.65 441.268   9
  -4   4  13 1069.92 358.143   7
  -4   4  14 1724.89 414.450   9
  -4   3 -13 3743.61 583.876   4
  -4   3 -12 5680.65 662.380   4
  -4   3 -11 3241.40 542.298   4
  -4   3 -10 8716.79 779.854   4
  -4   3  -9 1077.11 383.090   4
  -4   3  -8 2271.32 449.705   4
  -4   3  -7 170.342 268.444   4
  -4   3  -6 6739.90 606.587   4
  -4   3  -5 11265.9 740.366   4
  -4   3  -4 49542.1 1687.83   4
  -4   3  -3 19125.7 891.992   4
  -4   3  -2 63588.9 1881.41   4
  -4   3  -1 57864.2 1428.52   9
  -4   3  -1 57880.0 1566.60   4
  -4   3   0 19604.1 750.332   9
  -4   3   0 18785.2 751.447   4
  -4   3   1 92516.3 2478.37   5
  -4   3   1 95619.2 2451.95   9
  -4   3   1 91620.1 2313.59   4
  -4   3   2 17070.9 748.634   5
  -4   3   2 17059.6 771.874   9
  -4   3   2 16311.1 578.998   4
  -4   3   3 62338.5 1768.85   5
  -4   3   3 58797.1 1457.82   4
  -4   3   4 23402.2 1025.98   9
  -4   3   4 23879.4 915.345   5
  -4   3   5 34434.6 1352.32   9
  -4   3   5 35196.6 1191.50   5
  -4   3   6 653.484 295.756   9
  -4   3   6 506.997 194.004   5
  -4   3   7 4312.75 509.087   9
  -4   3   7 4678.76 394.503   5
  -4   3   8 4048.91 511.833   9
  -4   3   8 3772.60 356.943   5
  -4   3   9 439.534 218.021   5
  -4   3   9 491.552 329.098   9
  -4   3  10 6182.28 630.580   9
  -4   3  10 5309.67 428.172   5
  -4   3  11 2077.06 452.417   9
  -4   3  11 2290.19 424.169   7
  -4   3  12 8827.45 755.735   9
  -4   3  12 6958.21 686.323   7
  -4   3  13 1756.17 451.029   9
  -4   3  13 979.578 376.074   7
  -4   3  14 5787.00 637.128   9
  -4   3  14 4813.64 609.413   7
  -4   2 -14 3891.95 539.562   4
  -4   2 -14 3950.75 532.323   1
  -4   2 -13 2158.80 434.903   1
  -4   2 -13 1181.04 399.966   4
  -4   2 -12 6758.63 648.990   1
  -4   2 -12 6870.94 704.241   4
  -4   2 -11 10623.5 758.048   1
  -4   2 -11 11969.3 909.842   4
  -4   2 -10 2361.48 399.539   1
  -4   2 -10 1596.17 433.981   4
  -4   2  -9 5609.72 514.083   1
  -4   2  -9 6178.49 634.259   4
  -4   2  -8 11491.9 811.023   4
  -4   2  -8 9990.88 655.400   1
  -4   2  -7 11307.7 783.078   4
  -4   2  -6 6658.21 615.915   4
  -4   2  -5 46728.6 1657.08   4
  -4   2  -4 24017.1 1049.50   4
  -4   2  -3 47149.0 1551.61   4
  -4   2  -2 26028.9 749.029   9
  -4   2  -2 27556.2 1016.25   4
  -4   2  -1 27028.9 829.126   9
  -4   2  -1 27581.0 976.429   4
  -4   2   0 17581.5 727.063   5
  -4   2   0 17767.0 648.981   9
  -4   2   0 16078.2 449.016   2
  -4   2   0 17417.3 687.615   4
  -4   2   1 15094.4 639.629   9
  -4   2   1 15042.7 645.400   5
  -4   2   1 14363.8 587.796   4
  -4   2   2 31133.7 1019.48   5
  -4   2   2 32720.4 1085.72   9
  -4   2   2 30676.6 912.216   4
  -4   2   3 21040.5 765.378   5
  -4   2   3 21434.4 877.914   9
  -4   2   3 19911.7 614.070   4
  -4   2   4 46171.4 1290.53   5
  -4   2   4 46566.9 1496.87   9
  -4   2   5 23154.6 997.162   9
  -4   2   5 21686.5 799.195   5
  -4   2   6 36735.5 1405.02   9
  -4   2   6 36886.8 1150.92   5
  -4   2   7 7438.90 616.278   9
  -4   2   7 8011.11 446.659   5
  -4   2   8 11527.7 795.317   9
  -4   2   8 12546.9 578.255   5
  -4   2   9 6992.05 639.413   9
  -4   2   9 8325.48 467.910   5
  -4   2  10 5164.17 566.898   9
  -4   2  10 4803.60 372.090   5
  -4   2  11 7364.00 697.958   9
  -4   2  12 8216.46 720.141   9
  -4   2  12 8844.15 773.498   7
  -4   2  13 4911.12 587.288   9
  -4   2  13 5298.92 630.117   7
  -4   2  14 2654.23 463.543   9
  -4   2  14 2742.29 524.499   7
  -4   2  15 2635.63 444.328   9
  -4   1 -14 1064.47 352.452   1
  -4   1 -14 909.387 349.225   4
  -4   1 -13 1034.60 368.232   1
  -4   1 -13 1090.06 405.659   4
  -4   1 -12 5589.63 580.419   1
  -4   1 -12 5351.26 629.496   4
  -4   1 -11 6461.62 589.274   1
  -4   1 -11 6458.46 669.492   4
  -4   1 -10 3678.29 470.475   1
  -4   1 -10 3708.96 536.272   4
  -4   1  -9 20000.5 953.147   1
  -4   1  -9 19482.7 1093.21   4
  -4   1  -8 10430.4 654.353   1
  -4   1  -8 10894.1 797.792   4
  -4   1  -7 15314.3 753.485   1
  -4   1  -7 15261.8 909.301   4
  -4   1  -6 12873.5 646.165   1
  -4   1  -6 11505.7 774.896   4
  -4   1  -5 13273.5 778.593   4
  -4   1  -4 22594.0 999.640   4
  -4   1  -3 24625.0 1011.05   4
  -4   1  -2 34180.5 892.805   9
  -4   1  -2 34668.0 1186.43   8
  -4   1  -2 36588.6 1228.90   4
  -4   1  -1 10441.8 565.606   8
  -4   1  -1 9735.04 400.435   9
  -4   1   0 25821.3 800.788   9
  -4   1   0 27158.5 952.037   8
  -4   1   1 9670.45 474.901   5
  -4   1   1 9659.23 528.331   8
  -4   1   1 9409.17 340.098   2
  -4   1   1 8815.50 464.055   9
  -4   1   2 11717.8 518.189   5
  -4   1   2 12951.2 594.768   9
  -4   1   2 13087.4 462.723   2
  -4   1   2 12633.6 593.106   8
  -4   1   3 32349.7 980.484   5
  -4   1   3 32403.5 1126.03   9
  -4   1   3 34077.9 911.796   6
  -4   1   4 17730.2 624.694   5
  -4   1   4 18916.5 829.323   9
  -4   1   4 18515.2 583.792   6
  -4   1   5 24911.8 779.181   5
  -4   1   5 24722.6 1028.80   9
  -4   1   5 24738.3 667.400   4
  -4   1   6 14414.0 791.414   9
  -4   1   6 13377.0 410.786   4
  -4   1   6 15523.4 549.979   5
  -4   1   7 5226.41 503.433   9
  -4   1   7 5162.36 213.821   4
  -4   1   7 5706.03 319.094   5
  -4   1   8 31517.3 1335.56   9
  -4   1   8 33354.2 990.698   5
  -4   1   9 2604.30 425.253   9
  -4   1   9 2890.96 248.898   5
  -4   1  10 27572.9 1278.26   9
  -4   1  10 26589.6 869.620   5
  -4   1  11 4410.23 552.601   9
  -4   1  12 7819.00 696.065   9
  -4   1  13 3464.17 530.345   9
  -4   1  13 4118.65 579.556   7
  -4   1  14 847.669 375.207   9
  -4   1  14 1592.03 448.211   7
  -4   1  15 128.867 308.693   9
  -4   0 -14 1656.86 364.976   1
  -4   0 -13 3046.52 435.434   1
  -4   0 -13 2085.12 426.680   4
  -4   0 -12 2385.57 426.106   1
  -4   0 -12 2418.26 456.314   4
  -4   0 -11 12674.2 784.868   1
  -4   0 -11 12587.5 892.320   4
  -4   0 -10 2747.45 472.761   4
  -4   0 -10 2627.05 388.401   1
  -4   0  -9 12024.7 709.524   1
  -4   0  -9 11534.7 836.969   4
  -4   0  -8 15993.3 797.427   1
  -4   0  -8 17344.2 980.323   4
  -4   0  -7 26867.2 1019.80   1
  -4   0  -7 27197.2 1233.12   4
  -4   0  -6 3830.25 347.709   1
  -4   0  -6 3948.10 485.274   4
  -4   0  -5 46817.4 1477.52   8
  -4   0  -5 45722.8 1349.49   1
  -4   0  -5 47899.0 1647.64   4
  -4   0  -4 14108.5 573.616   1
  -4   0  -4 14549.6 708.222   8
  -4   0  -4 15644.4 801.577   4
  -4   0  -3 34877.5 872.278   9
  -4   0  -3 39133.9 1250.42   8
  -4   0  -2 30549.0 821.103   9
  -4   0  -2 30134.2 1077.35   8
  -4   0  -1 5455.64 291.710   9
  -4   0  -1 6239.35 429.549   8
  -4   0   0 6887.99 357.960   9
  -4   0   0 7388.65 473.667   8
  -4   0   0 6673.30 273.105   2
  -4   0   1 65000.5 1742.02   9
  -4   0   1 65582.2 1820.73   8
  -4   0   1 65468.0 1579.54   2
  -4   0   2 14952.5 648.679   9
  -4   0   2 14795.8 654.168   8
  -4   0   2 16609.9 542.066   2
  -4   0   3 5183.37 400.871   9
  -4   0   3 5476.77 372.275   8
  -4   0   4 33013.1 1160.42   9
  -4   0   4 32475.1 1027.77   8
  -4   0   4 33328.5 874.435   5
  -4   0   4 31308.0 826.184   6
  -4   0   5 59064.1 1475.26   5
  -4   0   5 61924.6 1881.46   9
  -4   0   5 63120.5 1526.96   4
  -4   0   5 61840.3 1653.95   8
  -4   0   5 63256.3 1493.61   6
  -4   0   6 5855.85 252.837   5
  -4   0   6 6606.67 526.416   9
  -4   0   6 5833.50 341.565   8
  -4   0   6 5847.98 282.962   4
  -4   0   6 6097.93 285.538   6
  -4   0   7 66053.5 1591.27   5
  -4   0   7 66957.6 1629.20   4
  -4   0   7 70758.2 2122.99   9
  -4   0   8 572.340 108.708   5
  -4   0   8 656.335 306.287   9
  -4   0   9 35830.9 1418.56   9
  -4   0   9 33640.7 917.837   5
  -4   0  10 4003.53 500.593   9
  -4   0  11 9078.81 720.188   9
  -4   0  12 905.598 368.724   9
  -4   0  13 6684.89 669.161   9
  -4   0  13 6711.64 708.403   7
  -4   0  14 1086.94 367.290   9
  -4   0  14 2147.33 480.297   7
  -4   0  15 1045.63 348.971   9
  -4  -1 -13 1733.52 388.634   1
  -4  -1 -12 1343.93 388.276   4
  -4  -1 -12 2162.29 385.371   1
  -4  -1 -11 4797.06 555.021   4
  -4  -1 -11 4598.94 491.300   1
  -4  -1 -10 6768.34 551.288   1
  -4  -1 -10 5826.84 624.910   4
  -4  -1  -9 405.642 337.354   4
  -4  -1  -9 691.413 252.498   1
  -4  -1  -8 11518.9 645.842   1
  -4  -1  -8 12395.2 819.326   4
  -4  -1  -7 25638.3 995.404   8
  -4  -1  -7 25689.8 970.092   1
  -4  -1  -7 25578.8 1194.30   4
  -4  -1  -6 63963.5 1891.77   8
  -4  -1  -6 65818.1 1797.93   1
  -4  -1  -6 61166.1 2072.07   4
  -4  -1  -5 15476.1 747.069   8
  -4  -1  -5 16820.8 646.835   1
  -4  -1  -5 15104.8 455.473   9
  -4  -1  -4 68111.5 1639.48   9
  -4  -1  -4 72025.4 2016.16   8
  -4  -1  -4 72034.1 1783.27   1
  -4  -1  -3 17935.5 581.346   1
  -4  -1  -3 18427.3 800.408   8
  -4  -1  -2 47091.2 1472.48   8
  -4  -1  -1 114029. 2916.94   8
  -4  -1   0 19031.3 777.693   8
  -4  -1   0 17938.3 580.577   2
  -4  -1   1 4490.09 381.440   8
  -4  -1   1 5190.03 273.832   2
  -4  -1   2 18870.2 754.819   9
  -4  -1   2 18544.2 752.124   8
  -4  -1   3 114485. 2911.87   9
  -4  -1   3 113220. 2835.77   8
  -4  -1   4 16277.0 748.055   9
  -4  -1   4 15529.3 655.721   8
  -4  -1   5 50471.3 1527.23   9
  -4  -1   5 49279.8 1309.70   8
  -4  -1   6 32660.6 1250.13   9
  -4  -1   6 32695.0 1002.64   8
  -4  -1   6 32463.5 834.345   6
  -4  -1   7 21125.7 996.322   9
  -4  -1   7 21267.2 713.409   8
  -4  -1   7 20963.4 620.145   6
  -4  -1   8 36940.3 1009.25   8
  -4  -1   8 35339.8 1409.27   9
  -4  -1   9 49822.3 1778.21   9
  -4  -1  10 5058.62 553.340   9
  -4  -1  11 4536.37 539.857   9
  -4  -1  12 14682.4 923.874   9
  -4  -1  13 2956.80 467.213   9
  -4  -1  14 6681.02 638.194   9
  -4  -1  14 7551.23 749.676   7
  -4  -1  15 2837.02 452.024   9
  -4  -1  15 2333.58 503.310   7
  -4  -2 -12 3364.25 432.346   1
  -4  -2 -11 4939.39 577.423   4
  -4  -2 -11 4113.08 460.922   1
  -4  -2 -10 7676.26 674.675   4
  -4  -2 -10 7473.26 570.852   1
  -4  -2  -9 15511.6 940.024   4
  -4  -2  -9 14416.2 755.803   1
  -4  -2  -8 3764.97 368.970   8
  -4  -2  -8 3234.76 477.598   4
  -4  -2  -8 3101.00 361.310   1
  -4  -2  -7 23354.4 945.509   8
  -4  -2  -7 22003.9 1110.67   4
  -4  -2  -7 23218.3 902.797   1
  -4  -2  -6 12346.7 665.955   8
  -4  -2  -6 11955.4 575.342   1
  -4  -2  -5 59453.7 1792.70   8
  -4  -2  -5 57780.6 1581.76   1
  -4  -2  -4 3770.19 386.094   8
  -4  -2  -4 4356.78 282.035   1
  -4  -2  -3 4753.69 416.740   8
  -4  -2  -3 5279.69 262.620   1
  -4  -2  -2 46098.0 1409.13   8
  -4  -2  -2 41137.1 1008.81   1
  -4  -2  -1 6416.41 459.010   8
  -4  -2   0 100530. 2639.50   8
  -4  -2   1 152119. 3741.71   8
  -4  -2   2 85628.1 2300.78   8
  -4  -2   3 108025. 2464.32   1
  -4  -2   3 106174. 2740.69   8
  -4  -2   4 6086.81 405.048   8
  -4  -2   5 24301.9 1003.53   9
  -4  -2   5 24025.0 867.688   8
  -4  -2   6 18409.8 869.795   9
  -4  -2   6 18471.1 677.403   8
  -4  -2   7 6705.03 554.982   9
  -4  -2   7 7286.61 399.388   8
  -4  -2   7 6288.09 258.762   6
  -4  -2   8 62144.3 1937.40   9
  -4  -2   8 60606.8 1516.36   8
  -4  -2   9 5887.15 551.305   9
  -4  -2   9 5789.22 304.735   8
  -4  -2  10 10625.1 759.023   9
  -4  -2  11 7598.61 663.396   9
  -4  -2  12 6305.17 616.557   9
  -4  -2  13 5847.59 603.146   9
  -4  -2  14 3047.52 461.878   9
  -4  -2  14 2043.40 491.644   7
  -4  -2  15-31.8529 293.537   9
  -4  -2  15 1271.48 433.509   7
  -4  -3 -11-23.8937 292.262   4
  -4  -3 -11 441.717 276.432   1
  -4  -3 -10 2503.40 451.215   4
  -4  -3 -10 2270.67 358.725   1
  -4  -3  -9 94.6073 291.962   4
  -4  -3  -9 323.028 251.210   1
  -4  -3  -8 684.800 233.324   8
  -4  -3  -8 1501.51 399.867   4
  -4  -3  -8 1096.30 274.157   1
  -4  -3  -7 855.896 230.069   1
  -4  -3  -7 1122.65 283.055   8
  -4  -3  -7 997.465 349.427   4
  -4  -3  -6 3264.97 303.912   1
  -4  -3  -6 3718.12 408.291   8
  -4  -3  -5 1620.12 230.523   1
  -4  -3  -5 1831.42 297.862   8
  -4  -3  -4 6061.76 495.115   8
  -4  -3  -4 6056.67 332.397   1
  -4  -3  -3 35133.4 1273.92   8
  -4  -3  -3 35645.9 963.117   1
  -4  -3  -2 497.332 96.9448   1
  -4  -3  -2 551.199 253.794   8
  -4  -3  -1 57035.1 1599.50   8
  -4  -3  -1 44169.8 1027.98   1
  -4  -3   0 5279.64 460.197   8
  -4  -3   1 42009.5 1399.62   8
  -4  -3   2 22907.9 930.588   8
  -4  -3   2 22570.7 590.919   1
  -4  -3   3 10641.5 592.499   8
  -4  -3   3 11108.1 380.666   1
  -4  -3   4 57448.9 1698.04   8
  -4  -3   5 5561.83 412.358   8
  -4  -3   6 19180.5 450.793   6
  -4  -3   6 15758.1 445.248   6
  -4  -3   7 5946.64 533.424   9
  -4  -3   7 6643.86 422.884   8
  -4  -3   8 1090.95 311.837   9
  -4  -3   8 1432.72 222.736   8
  -4  -3   9 1759.93 365.280   9
  -4  -3   9 1981.58 228.515   8
  -4  -3  10 4804.91 530.050   9
  -4  -3  11 1604.47 375.745   9
  -4  -3  12 1307.27 378.298   9
  -4  -3  13 5764.42 583.420   9
  -4  -3  14 540.071 319.406   9
  -4  -3  14 34.9078 330.556   7
  -4  -3  15 5447.13 573.981   9
  -4  -3  15 5993.84 704.545   7
  -4  -4 -10 8031.99 672.676   4
  -4  -4  -9 4291.62 427.104   1
  -4  -4  -9 3361.68 489.461   4
  -4  -4  -8 1267.04 268.920   1
  -4  -4  -8 956.379 346.440   4
  -4  -4  -7 2559.72 303.590   1
  -4  -4  -7 2434.45 344.966   8
  -4  -4  -6 759.236 210.454   1
  -4  -4  -6 1348.93 317.391   8
  -4  -4  -5 3503.89 420.483   8
  -4  -4  -5 3383.27 297.951   1
  -4  -4  -4 10535.3 667.579   8
  -4  -4  -4 11048.3 482.552   1
  -4  -4  -3 1110.23 304.291   8
  -4  -4  -3 1063.55 170.575   1
  -4  -4  -2 37474.9 1389.38   8
  -4  -4  -2 38807.6 1017.02   1
  -4  -4  -1 4280.16 215.287   1
  -4  -4  -1 4271.22 453.820   8
  -4  -4   0 36672.5 1333.37   8
  -4  -4   1 10247.4 635.032   8
  -4  -4   1 7082.43 260.070   1
  -4  -4   2 54210.7 1707.45   8
  -4  -4   2 53338.1 1281.28   1
  -4  -4   3 8557.27 566.308   8
  -4  -4   3 7911.40 319.881   1
  -4  -4   4 18212.8 836.485   8
  -4  -4   4 18355.8 509.794   6
  -4  -4   5 14347.9 704.227   8
  -4  -4   5 11819.0 354.894   6
  -4  -4   6 27321.1 986.751   8
  -4  -4   6 21934.4 597.397   6
  -4  -4   7 7175.54 487.492   8
  -4  -4   7 6925.03 279.095   6
  -4  -4   8 3190.00 442.534   9
  -4  -4   8 2996.67 318.788   8
  -4  -4   8 3494.78 219.643   6
  -4  -4   9 6613.16 601.447   9
  -4  -4   9 6576.59 421.045   8
  -4  -4  10 335.621 303.042   9
  -4  -4  10 586.567 184.604   8
  -4  -4  11 154.068 265.814   9
  -4  -4  12 1602.25 387.773   9
  -4  -4  13 6718.96 639.618   9
  -4  -4  14 4305.89 525.271   9
  -4  -4  14 3437.21 548.008   7
  -4  -4  15 2194.85 423.916   9
  -4  -4  15 3945.43 589.944   7
  -4  -5  -9 6123.35 602.582   4
  -4  -5  -8 7939.67 664.938   4
  -4  -5  -7 2195.46 357.578   8
  -4  -5  -7 2216.87 303.798   1
  -4  -5  -6 4347.59 462.072   8
  -4  -5  -6 4441.21 366.970   1
  -4  -5  -5 8412.04 622.868   8
  -4  -5  -5 8767.24 474.142   1
  -4  -5  -4 7227.15 584.466   8
  -4  -5  -4 7824.63 418.344   1
  -4  -5  -3 11370.4 737.586   8
  -4  -5  -3 12833.5 522.710   1
  -4  -5  -2 20672.6 679.184   1
  -4  -5  -2 19850.8 983.746   8
  -4  -5  -1 19575.6 635.866   1
  -4  -5  -1 19589.7 962.524   8
  -4  -5   0 11342.8 712.327   8
  -4  -5   1 32174.5 844.555   1
  -4  -5   1 33105.4 1284.73   8
  -4  -5   2 792.078 333.512   8
  -4  -5   2 543.905 121.141   1
  -4  -5   3 21659.8 1006.29   8
  -4  -5   3 23759.1 748.523   6
  -4  -5   4 14024.6 762.995   8
  -4  -5   4 14273.1 503.955   6
  -4  -5   5 13256.3 732.397   8
  -4  -5   5 13615.0 466.755   6
  -4  -5   6 23094.6 995.557   8
  -4  -5   6 23144.0 673.171   6
  -4  -5   7 13285.2 700.125   8
  -4  -5   7 12156.7 440.529   6
  -4  -5   8 7949.59 538.840   8
  -4  -5   8 8565.83 366.224   6
  -4  -5   9 8215.79 689.740   9
  -4  -5   9 9458.86 547.959   8
  -4  -5  10 4853.43 547.449   9
  -4  -5  10 4358.23 378.030   8
  -4  -5  11 2480.37 453.586   9
  -4  -5  12 8533.38 714.279   9
  -4  -5  13 4695.80 554.980   9
  -4  -5  14 8349.38 706.788   9
  -4  -5  14 9282.98 816.993   7
  -4  -5  15 2935.75 512.526   7
  -4  -6  -7 2685.21 391.417   8
  -4  -6  -6 9058.40 661.056   8
  -4  -6  -5 1329.10 344.196   8
  -4  -6  -5 1622.44 254.610   1
  -4  -6  -4 9304.49 703.400   8
  -4  -6  -4 10520.1 520.618   1
  -4  -6  -3-12.9357 258.230   8
  -4  -6  -3 166.366 180.205   1
  -4  -6  -2 7111.61 401.016   1
  -4  -6  -2 7949.91 650.335   8
  -4  -6  -1 28032.6 1256.63   8
  -4  -6   0 25753.5 1174.33   8
  -4  -6   1 2680.94 435.214   8
  -4  -6   2 23294.3 1102.91   8
  -4  -6   3 11484.0 746.042   8
  -4  -6   3 11048.8 523.730   6
  -4  -6   4 2393.93 408.868   8
  -4  -6   4 2444.34 253.822   6
  -4  -6   5 47654.8 1700.20   8
  -4  -6   5 50015.0 1340.33   6
  -4  -6   6 4492.30 479.005   8
  -4  -6   6 4224.97 275.636   6
  -4  -6   7 7345.20 566.826   8
  -4  -6   7 7044.23 350.264   6
  -4  -6   8 6287.81 523.595   8
  -4  -6   9 3843.06 416.402   8
  -4  -6  10 7054.43 661.571   9
  -4  -6  10 6419.14 490.956   8
  -4  -6  11 4543.70 564.576   9
  -4  -6  12 7011.72 691.795   9
  -4  -6  13 6626.80 633.291   9
  -4  -6  14 3733.15 496.843   9
  -4  -6  14 3724.89 531.350   7
  -4  -7  -6 4478.88 507.202   8
  -4  -7  -5 14724.3 893.447   8
  -4  -7  -4 2707.68 452.451   8
  -4  -7  -3 4363.30 363.587   1
  -4  -7  -3 3834.57 516.785   8
  -4  -7  -2 6983.05 427.405   1
  -4  -7  -2 5345.06 585.381   8
  -4  -7  -1 16440.7 972.378   8
  -4  -7   0 2245.87 440.987   8
  -4  -7   1 15009.6 919.277   8
  -4  -7   2 2622.44 439.165   8
  -4  -7   2 2624.14 314.018   6
  -4  -7   3 3125.36 470.583   8
  -4  -7   3 2003.31 288.346   6
  -4  -7   4 19140.6 1024.74   8
  -4  -7   4 19434.7 752.104   6
  -4  -7   5 5626.89 552.637   8
  -4  -7   5 6000.46 378.989   6
  -4  -7   6 15137.8 880.280   8
  -4  -7   6 14777.5 600.870   6
  -4  -7   7 3161.11 431.874   8
  -4  -7   7 3554.55 281.230   6
  -4  -7   8 5807.43 535.549   8
  -4  -7   9 3745.87 437.887   8
  -4  -7  10 9747.98 638.781   8
  -4  -7  11 3568.79 524.677   9
  -4  -7  12 10117.6 788.666   9
  -4  -7  13 2770.47 455.296   9
  -4  -7  14 5243.41 554.243   9
  -4  -7  14 5297.77 591.919   7
  -4  -8  -6 2673.58 457.541   8
  -4  -8  -5 4477.53 545.294   8
  -4  -8  -4 6699.38 651.991   8
  -4  -8  -3 3086.19 508.171   8
  -4  -8  -2 10083.5 788.854   8
  -4  -8  -1 3046.51 504.700   8
  -4  -8   0 11415.2 838.426   8
  -4  -8   1 6626.03 665.873   8
  -4  -8   2 10210.0 794.794   8
  -4  -8   2 10005.4 614.973   6
  -4  -8   3 20558.6 1133.33   8
  -4  -8   3 19739.5 848.425   6
  -4  -8   4 2047.68 465.855   8
  -4  -8   4 1676.15 276.069   6
  -4  -8   5 13138.5 882.840   8
  -4  -8   5 14101.6 648.264   6
  -4  -8   6 5070.44 565.186   8
  -4  -8   6 3496.39 320.079   6
  -4  -8   7 8699.16 707.399   8
  -4  -8   8 3374.13 465.254   8
  -4  -8   9 8735.02 670.599   8
  -4  -8  10 3390.09 450.795   8
  -4  -8  12 2540.25 466.062   9
  -4  -8  13 3059.03 498.830   9
  -4  -8  13 3124.05 431.890   7
  -4  -8  14 2067.74 422.881   9
  -4  -8  14 1871.80 380.526   7
  -4  -9  -5 1031.55 381.506   8
  -4  -9  -4 2008.79 456.063   8
  -4  -9  -3 6015.62 639.938   8
  -4  -9  -2 9604.02 812.953   8
  -4  -9  -1 854.506 387.078   8
  -4  -9   0 9772.92 826.555   8
  -4  -9   1 2460.12 495.881   8
  -4  -9   2 9528.84 820.486   8
  -4  -9   2 11805.9 683.808   6
  -4  -9   3 712.265 357.677   8
  -4  -9   3 718.764 274.696   6
  -4  -9   4 9980.77 822.306   8
  -4  -9   4 9895.53 590.615   6
  -4  -9   5 1370.47 404.139   8
  -4  -9   5 2265.45 304.758   6
  -4  -9   6 9528.27 775.659   8
  -4  -9   7 742.365 375.570   8
  -4  -9   8 5662.93 598.311   8
  -4  -9   9 4115.77 512.711   8
  -4  -9  10 716.334 322.424   8
  -4  -9  12 291.983 334.687   9
  -4  -9  13 525.768 321.960   9
  -4 -10  -5 918.677 369.361   8
  -4 -10  -4 593.016 370.734   8
  -4 -10  -3 1917.21 467.905   8
  -4 -10  -2 3740.91 563.810   8
  -4 -10  -1 13496.1 990.979   8
  -4 -10   0 5600.53 687.604   8
  -4 -10   1 7010.73 750.598   8
  -4 -10   2 1407.83 458.323   8
  -4 -10   2 1125.63 305.171   6
  -4 -10   3 5113.22 645.451   8
  -4 -10   3 4871.71 463.442   6
  -4 -10   4 1594.68 424.606   8
  -4 -10   5 4766.44 635.013   8
  -4 -10   6 1046.41 394.731   8
  -4 -10   7 14951.6 1002.14   8
  -4 -10   8 3182.58 513.130   8
  -4 -10   9 5868.77 615.247   8
  -4 -10  10 748.239 336.134   8
  -4 -11  -2 17681.3 1125.80   8
  -4 -11  -1 2495.14 512.199   8
  -4 -11   0 12441.6 963.453   8
  -4 -11   1 18976.3 1211.27   8
  -4 -11   2 5599.05 722.244   8
  -4 -11   3 23481.4 1349.96   8
  -4 -11   4 33134.3 1617.98   8
  -4 -11   5 1613.76 505.383   8
  -4 -11   6 15444.0 1065.55   8
  -4 -11   7 17204.7 1108.60   8
  -4 -11   8 5387.26 654.864   8
  -4 -11   9 12183.8 870.750   8
  -4 -11  10 8839.67 724.041   8
  -5  11  -6 1485.37 420.198   4
  -5  11  -5 10730.5 879.167   5
  -5  11  -5 9475.96 778.691   4
  -5  11  -4 1657.11 423.871   5
  -5  11  -4 1307.52 369.915   4
  -5  11  -3 5169.37 632.459   5
  -5  11  -3 5191.18 557.119   4
  -5  11  -2 957.273 357.383   5
  -5  11  -1 1053.40 394.203   5
  -5  11   0 1181.99 396.054   5
  -5  11   1 4752.62 623.017   5
  -5  10  -8 3123.69 548.931   4
  -5  10  -7 8399.85 798.103   4
  -5  10  -6 12139.2 924.707   5
  -5  10  -6 12631.8 918.966   4
  -5  10  -5 6037.59 673.634   5
  -5  10  -5 6573.36 660.785   4
  -5  10  -4 9627.12 828.376   5
  -5  10  -4 8946.99 745.092   4
  -5  10  -3 9029.10 808.354   5
  -5  10  -3 10083.4 732.492   4
  -5  10  -2 2022.87 475.219   5
  -5  10  -2 3089.66 437.241   4
  -5  10  -1 3715.07 566.146   5
  -5  10   0 4458.43 598.548   5
  -5  10   1 8516.96 792.510   5
  -5  10   2 7767.36 746.397   5
  -5  10   3 10281.6 859.747   5
  -5  10   3 11103.8 756.184   2
  -5  10   4 8695.73 778.271   5
  -5  10   4 8265.73 692.133   2
  -5  10   5 8973.45 781.943   5
  -5  10   5 7889.29 692.519   2
  -5  10   6 1259.29 387.297   2
  -5   9  -9 1733.50 459.806   4
  -5   9  -8 847.634 397.195   4
  -5   9  -7 8602.64 779.618   4
  -5   9  -6 4010.14 569.416   5
  -5   9  -6 3672.53 558.498   4
  -5   9  -5 5162.95 632.723   5
  -5   9  -5 5581.12 635.275   4
  -5   9  -4 14621.5 1025.47   5
  -5   9  -4 15875.8 962.632   4
  -5   9  -3 3141.80 524.750   5
  -5   9  -3 4412.40 505.397   4
  -5   9  -2 15664.1 1042.81   5
  -5   9  -2 16359.5 896.437   4
  -5   9  -1 1617.07 330.295   4
  -5   9  -1 2104.39 456.274   5
  -5   9   0 18581.2 1108.45   5
  -5   9   0 18184.7 844.025   4
  -5   9   1 472.026 270.200   2
  -5   9   1 434.971 352.837   5
  -5   9   2 22324.7 1246.20   5
  -5   9   2 23132.4 1050.20   2
  -5   9   3 1574.25 410.197   5
  -5   9   3 926.545 329.681   2
  -5   9   4 7545.79 715.278   5
  -5   9   4 8449.52 677.598   2
  -5   9   5 5954.56 630.375   5
  -5   9   6 612.429 347.552   5
  -5   9   7 2496.32 460.008   5
  -5   9   8 2125.52 426.905   5
  -5   8 -10 3682.22 589.207   4
  -5   8  -9 681.276 407.082   4
  -5   8  -8 98.5907 326.807   4
  -5   8  -7 616.927 380.824   4
  -5   8  -6 6299.98 671.599   4
  -5   8  -5 3919.07 556.886   5
  -5   8  -5 4347.57 559.805   4
  -5   8  -4 21648.0 1195.83   5
  -5   8  -4 19543.7 1084.74   4
  -5   8  -3 8992.96 764.196   5
  -5   8  -3 9215.44 699.027   4
  -5   8  -2 19740.7 1155.93   5
  -5   8  -2 23532.9 1078.95   4
  -5   8  -1 18070.4 1060.92   5
  -5   8  -1 17955.3 883.186   4
  -5   8   0 5943.96 470.447   4
  -5   8   0 5197.18 431.727   2
  -5   8   1 30438.1 1435.22   5
  -5   8   1 30533.5 1081.32   4
  -5   8   1 31848.1 1172.49   2
  -5   8   2 544.260 327.603   5
  -5   8   2 772.677 282.007   2
  -5   8   3 22429.5 1195.46   5
  -5   8   4 605.819 312.428   5
  -5   8   5 5974.54 622.052   5
  -5   8   6 173.694 295.329   5
  -5   8   7 253.469 302.494   5
  -5   8   8 1359.53 351.884   5
  -5   8   9 1732.40 382.126   5
  -5   8  10 874.842 323.367   5
  -5   7 -11 1104.25 465.243   4
  -5   7 -10 2141.59 517.968   4
  -5   7  -9 1716.79 476.821   4
  -5   7  -8 2135.60 487.201   4
  -5   7  -7 4333.57 587.219   4
  -5   7  -6 16060.5 1010.00   4
  -5   7  -5 13203.6 910.347   5
  -5   7  -5 14519.5 925.739   4
  -5   7  -4 6886.66 669.963   5
  -5   7  -4 8503.84 685.305   4
  -5   7  -3 20836.8 1136.31   5
  -5   7  -3 21259.0 1060.65   4
  -5   7  -2 2371.82 424.387   5
  -5   7  -2 2348.06 367.339   4
  -5   7  -1 19804.4 1080.70   5
  -5   7  -1 21233.6 947.590   4
  -5   7  -1 21342.6 778.243   2
  -5   7   0 13767.4 893.897   5
  -5   7   0 14020.0 716.516   4
  -5   7   0 14763.7 664.053   2
  -5   7   1 6157.15 618.003   5
  -5   7   1 6961.83 458.397   4
  -5   7   1 6761.95 477.524   2
  -5   7   2 21031.6 1105.01   5
  -5   7   2 21691.1 782.655   4
  -5   7   3 14373.3 895.605   5
  -5   7   4 9460.46 730.528   5
  -5   7   4 10219.4 794.045   9
  -5   7   5 28517.1 1331.85   5
  -5   7   5 31087.6 1464.87   9
  -5   7   6 3752.95 584.279   9
  -5   7   6 3928.23 503.419   5
  -5   7   7 4367.94 519.762   5
  -5   7   7 4266.04 606.478   9
  -5   7   8 2603.15 415.724   5
  -5   7   8 3151.78 566.121   9
  -5   7   9 1666.86 365.884   5
  -5   7   9 1190.65 438.676   9
  -5   7  10 1157.28 449.799   9
  -5   7  10 832.994 303.624   5
  -5   6 -11 1386.19 461.945   4
  -5   6 -10 8114.54 832.369   4
  -5   6  -9 17947.4 1168.04   4
  -5   6  -8 8770.28 798.567   4
  -5   6  -7 23489.5 1267.42   4
  -5   6  -6 11549.6 859.940   4
  -5   6  -5 21916.3 1143.77   4
  -5   6  -4 8648.92 704.538   5
  -5   6  -4 8014.03 660.337   4
  -5   6  -3 16064.4 889.080   4
  -5   6  -3 14325.8 902.881   5
  -5   6  -2 29574.0 1314.77   5
  -5   6  -2 29420.7 1207.56   4
  -5   6  -2 29539.6 853.355   2
  -5   6  -1 558.870 284.417   5
  -5   6  -1 767.115 264.744   4
  -5   6  -1 653.372 161.495   2
  -5   6   0 49613.0 1809.53   5
  -5   6   0 50951.2 1593.73   4
  -5   6   0 52510.9 1466.97   2
  -5   6   1 16612.2 929.789   5
  -5   6   1 18273.8 925.858   9
  -5   6   1 17114.6 722.372   4
  -5   6   2 5967.30 571.739   5
  -5   6   2 7529.01 630.676   9
  -5   6   2 6429.20 386.971   4
  -5   6   3 23237.9 1119.04   5
  -5   6   3 23902.4 1163.50   9
  -5   6   3 23348.7 732.422   4
  -5   6   4 12737.4 795.011   5
  -5   6   4 12727.6 856.708   9
  -5   6   5 5257.08 538.238   5
  -5   6   5 6467.19 638.908   9
  -5   6   6 19151.1 1123.22   9
  -5   6   6 17464.5 955.772   5
  -5   6   7 9520.31 826.496   9
  -5   6   7 9460.95 688.170   5
  -5   6   8 22159.0 1279.40   9
  -5   6   8 22861.5 1088.29   5
  -5   6   9 5355.02 526.202   5
  -5   6   9 4418.06 627.908   9
  -5   6  10 15204.4 1061.38   9
  -5   6  10 12525.6 781.505   5
  -5   6  11 1781.92 492.475   9
  -5   5 -12 2660.31 531.272   4
  -5   5 -11 7654.78 791.122   4
  -5   5 -10 544.403 404.755   4
  -5   5  -9 34808.1 1642.73   4
  -5   5  -8 10330.2 851.795   4
  -5   5  -7 36676.0 1616.04   4
  -5   5  -6 30050.3 1389.46   4
  -5   5  -5 25086.2 1201.05   4
  -5   5  -4 16026.5 913.694   4
  -5   5  -3 1057.96 310.808   5
  -5   5  -3 578.231 286.644   4
  -5   5  -2 13140.1 814.206   5
  -5   5  -2 13590.1 413.843   2
  -5   5  -2 15052.8 791.506   4
  -5   5  -1 2439.20 380.032   5
  -5   5  -1 2919.09 202.494   2
  -5   5  -1 2556.25 338.210   4
  -5   5   0 359.940 150.751   2
  -5   5   0-37.9151 204.590   9
  -5   5   0 21.5958 221.728   5
  -5   5   0 326.417 214.190   4
  -5   5   1 3578.03 437.158   5
  -5   5   1 3323.94 400.443   9
  -5   5   1 2639.76 286.545   4
  -5   5   2 15717.2 844.415   5
  -5   5   2 16275.9 861.107   9
  -5   5   2 15226.5 605.040   4
  -5   5   3 381.853 279.143   9
  -5   5   3 700.511 250.107   5
  -5   5   3 784.236 148.153   4
  -5   5   4 20129.2 966.583   5
  -5   5   4 19817.1 1041.07   9
  -5   5   5 26146.1 1133.39   5
  -5   5   5 28182.0 1295.19   9
  -5   5   6 35187.4 1509.90   9
  -5   5   6 32112.7 1298.79   5
  -5   5   7 38531.2 1650.56   9
  -5   5   7 35962.0 1385.46   5
  -5   5   8 10220.4 853.798   9
  -5   5   8 11426.3 716.040   5
  -5   5   9 30053.5 1502.66   9
  -5   5   9 29244.1 1204.19   5
  -5   5  10 581.308 267.996   5
  -5   5  10 531.609 408.345   9
  -5   5  10 566.518 301.886   7
  -5   5  11 6137.93 699.471   9
  -5   5  11 5492.47 566.326   7
  -5   5  12 2725.74 534.792   9
  -5   5  12 1931.77 423.565   7
  -5   4 -12 2866.56 538.263   4
  -5   4 -11 802.382 399.608   4
  -5   4 -10 13317.3 997.099   4
  -5   4  -9 934.619 394.678   4
  -5   4  -8 15481.6 1030.90   4
  -5   4  -7 1485.07 407.872   4
  -5   4  -6 25506.0 1257.54   4
  -5   4  -5 1627.68 378.768   4
  -5   4  -4 8460.58 656.164   4
  -5   4  -3 18786.0 943.830   4
  -5   4  -2 9238.33 650.728   5
  -5   4  -2 9599.67 625.310   4
  -5   4  -1 12082.8 586.233   9
  -5   4  -1 12253.3 662.668   4
  -5   4  -1 11679.0 707.438   5
  -5   4  -1 10732.6 331.178   2
  -5   4   0 11154.9 681.950   5
  -5   4   0 10133.0 584.284   9
  -5   4   0 11682.1 604.216   4
  -5   4   1 1433.45 271.098   9
  -5   4   1 1283.47 285.559   5
  -5   4   1 1512.64 243.898   4
  -5   4   2 20392.3 931.091   5
  -5   4   2 20782.0 948.989   9
  -5   4   2 19822.2 718.887   4
  -5   4   3 17082.6 828.869   5
  -5   4   3 17744.5 893.744   9
  -5   4   3 16342.6 566.501   4
  -5   4   4 12727.9 684.021   5
  -5   4   4 12849.3 771.018   9
  -5   4   5 7135.30 518.190   5
  -5   4   5 8086.59 649.886   9
  -5   4   6 13748.9 731.059   5
  -5   4   6 13414.6 866.528   9
  -5   4   7 16936.2 1018.55   9
  -5   4   7 16541.4 807.824   5
  -5   4   8 6143.41 684.569   9
  -5   4   8 5970.40 477.670   5
  -5   4   9 8084.14 755.059   9
  -5   4   9 8030.36 548.497   5
  -5   4  10 8292.72 759.959   9
  -5   4  10 7431.44 527.199   5
  -5   4  11 12899.3 975.888   9
  -5   4  11 12950.9 857.874   7
  -5   4  12 491.552 398.132   9
  -5   4  12 471.606 339.517   7
  -5   4  13 2950.11 522.158   9
  -5   4  13 2940.23 480.400   7
  -5   3 -12 4590.60 657.692   4
  -5   3 -11 1207.22 425.476   4
  -5   3 -10 2026.81 522.498   4
  -5   3  -9 3136.57 520.166   4
  -5   3  -8 5011.16 611.099   4
  -5   3  -7 16163.2 998.003   4
  -5   3  -6 21003.1 1111.20   4
  -5   3  -5 15717.0 922.424   4
  -5   3  -4 13075.3 796.876   4
  -5   3  -3 18638.7 914.262   4
  -5   3  -2 17080.4 631.161   9
  -5   3  -2 17154.3 840.152   4
  -5   3  -1 17815.3 699.276   9
  -5   3  -1 17090.5 845.915   5
  -5   3  -1 18635.2 825.329   4
  -5   3   0 14103.9 725.705   5
  -5   3   0 13945.3 629.294   9
  -5   3   0 12796.6 385.314   2
  -5   3   0 13084.3 645.754   4
  -5   3   1 15194.5 740.784   5
  -5   3   1 14928.6 710.538   9
  -5   3   1 14929.7 658.398   4
  -5   3   2 17364.7 792.476   5
  -5   3   2 17143.3 804.380   9
  -5   3   2 16234.4 643.574   4
  -5   3   3 15071.5 718.647   5
  -5   3   3 14896.1 784.496   9
  -5   3   3 14755.5 539.865   4
  -5   3   4 15260.1 708.606   5
  -5   3   4 14282.4 462.233   4
  -5   3   5 12374.5 629.232   5
  -5   3   5 10861.2 735.302   9
  -5   3   6 9383.00 539.256   5
  -5   3   6 9396.33 716.532   9
  -5   3   7 19648.2 1073.43   9
  -5   3   7 19639.8 822.072   5
  -5   3   8 11548.3 830.339   9
  -5   3   8 11679.8 604.814   5
  -5   3   9 1101.13 235.739   5
  -5   3   9 1560.90 403.919   9
  -5   3  10 6406.42 677.679   9
  -5   3  10 5668.83 421.748   5
  -5   3  11 2328.64 492.405   9
  -5   3  12 4777.51 621.172   9
  -5   3  12 4961.41 587.775   7
  -5   3  13 6216.86 677.491   9
  -5   3  13 4475.84 574.039   7
  -5   3  14 2837.78 504.545   9
  -5   3  14 3180.87 521.123   7
  -5   2 -13-116.683 351.004   4
  -5   2 -12 11895.9 927.765   4
  -5   2 -11 949.505 417.457   4
  -5   2 -10 5676.21 676.019   4
  -5   2  -9 3033.40 537.661   4
  -5   2  -8 4725.41 598.478   4
  -5   2  -7 2878.56 494.619   4
  -5   2  -6 10342.0 771.279   4
  -5   2  -5 12420.3 809.679   4
  -5   2  -4 5071.88 528.703   4
  -5   2  -3 25759.7 697.593   9
  -5   2  -3 29611.6 1179.12   4
  -5   2  -2 6841.13 329.560   9
  -5   2  -2 6483.70 523.457   4
  -5   2  -1 66928.9 1740.10   9
  -5   2  -1 65549.8 1958.13   4
  -5   2   0 18528.6 681.162   9
  -5   2   0 18636.8 770.683   4
  -5   2   1 70542.7 1966.41   5
  -5   2   1 69726.4 1930.21   9
  -5   2   1 69813.5 1650.93   2
  -5   2   1 67819.6 1899.07   4
  -5   2   2 22365.0 879.768   5
  -5   2   2 22802.0 925.336   9
  -5   2   2 23108.4 810.972   4
  -5   2   3 40554.3 1247.69   5
  -5   2   3 39180.3 1362.02   9
  -5   2   3 37909.9 1114.47   4
  -5   2   4 21610.5 815.134   5
  -5   2   4 21251.6 974.614   9
  -5   2   4 20892.7 656.463   4
  -5   2   5 1332.26 333.049   9
  -5   2   5 1533.67 237.226   5
  -5   2   5 1378.13 133.358   4
  -5   2   6 20701.6 784.963   5
  -5   2   6 21855.9 1049.46   9
  -5   2   7 4193.23 326.299   5
  -5   2   7 5267.55 561.613   9
  -5   2   8 8093.21 679.817   9
  -5   2   8 8283.08 445.926   5
  -5   2   9 3281.77 290.697   5
  -5   2   9 3642.83 500.147   9
  -5   2  10 7191.96 689.240   9
  -5   2  11 2108.96 459.476   9
  -5   2  12 8126.66 763.826   9
  -5   2  13 8755.82 780.228   9
  -5   2  13 6262.43 692.025   7
  -5   2  14 4463.94 575.431   9
  -5   2  14 4439.28 601.554   7
  -5   1 -13 2606.69 422.573   1
  -5   1 -13 2753.40 510.737   4
  -5   1 -12 257.050 272.604   1
  -5   1 -12 1138.97 435.861   4
  -5   1 -11 3933.06 459.866   1
  -5   1 -11 3922.40 589.752   4
  -5   1 -10 4487.77 473.753   1
  -5   1 -10 4084.45 596.610   4
  -5   1  -9 1847.30 347.617   1
  -5   1  -9 1716.65 428.275   4
  -5   1  -8 8081.62 737.911   4
  -5   1  -7 4097.01 515.409   4
  -5   1  -6 13242.3 858.444   4
  -5   1  -5 3319.80 488.820   4
  -5   1  -4 6802.66 603.991   4
  -5   1  -3 31381.3 801.473   9
  -5   1  -3 38621.3 1349.73   4
  -5   1  -2 40876.9 1097.27   9
  -5   1  -2 42596.8 1444.61   8
  -5   1  -2 43954.5 1470.07   4
  -5   1  -1 56259.3 1492.29   9
  -5   1  -1 57468.8 1772.61   8
  -5   1   0 68293.8 1722.46   9
  -5   1   0 67899.6 1927.00   8
  -5   1   1 1356.53 239.843   9
  -5   1   1 1223.38 275.999   8
  -5   1   1 1185.11 130.765   2
  -5   1   2 57964.2 1719.94   9
  -5   1   2 60042.0 1770.13   8
  -5   1   3 82063.8 2294.94   9
  -5   1   3 81778.5 2111.73   5
  -5   1   4 27742.7 886.706   5
  -5   1   4 26622.9 1089.00   9
  -5   1   5 37931.7 1101.06   5
  -5   1   5 37817.5 1392.59   9
  -5   1   6 1771.67 190.236   5
  -5   1   6 1856.73 352.951   9
  -5   1   6 1560.20 145.062   4
  -5   1   7 3751.37 256.412   5
  -5   1   7 3976.84 481.077   9
  -5   1   7 3161.12 177.465   4
  -5   1   8 13622.7 519.729   5
  -5   1   8 13070.5 854.513   9
  -5   1   9 5649.53 312.343   5
  -5   1   9 5570.33 581.179   9
  -5   1  10 6249.90 636.962   9
  -5   1  11 2314.95 451.768   9
  -5   1  12 5749.55 647.661   9
  -5   1  13 2124.90 480.821   9
  -5   1  14 561.003 369.112   9
  -5   1  14 1336.63 438.432   7
  -5   1  15 2043.51 455.722   9
  -5   0 -13 3768.31 544.768   4
  -5   0 -12 1967.98 378.641   1
  -5   0 -12 2801.75 500.216   4
  -5   0 -11 5020.42 500.065   1
  -5   0 -11 5100.18 628.934   4
  -5   0 -10 1508.02 320.832   1
  -5   0 -10 1056.96 397.465   4
  -5   0  -9 24053.3 1020.90   1
  -5   0  -9 24838.3 1290.91   4
  -5   0  -8 2360.30 342.565   1
  -5   0  -8 2463.74 456.784   4
  -5   0  -7 15623.9 726.616   1
  -5   0  -7 15917.9 950.658   4
  -5   0  -6 7210.51 455.025   1
  -5   0  -6 6830.13 655.219   4
  -5   0  -5 22177.7 981.476   8
  -5   0  -5 21880.0 1091.16   4
  -5   0  -4 11703.1 658.842   8
  -5   0  -4 10841.7 717.175   4
  -5   0  -3 13372.8 438.857   9
  -5   0  -3 16727.7 805.302   8
  -5   0  -2 47002.6 1243.51   9
  -5   0  -2 49267.0 1592.79   8
  -5   0  -1 31788.2 964.860   9
  -5   0  -1 33116.3 1218.45   8
  -5   0   0 30827.7 986.708   9
  -5   0   0 31736.1 1160.35   8
  -5   0   0 30858.6 826.377   2
  -5   0   1 6004.25 396.983   9
  -5   0   1 6181.09 476.156   8
  -5   0   1 6331.31 292.955   2
  -5   0   2 22771.0 886.950   9
  -5   0   2 22302.5 914.298   8
  -5   0   3 46713.1 1466.30   9
  -5   0   3 42503.3 1405.44   8
  -5   0   4 43064.5 1465.78   9
  -5   0   4 42412.4 1354.82   8
  -5   0   5 35407.7 1325.99   9
  -5   0   5 35019.1 1169.85   8
  -5   0   5 35547.4 906.217   6
  -5   0   6 3465.94 204.437   5
  -5   0   6 3644.91 465.759   9
  -5   0   6 3539.24 324.542   8
  -5   0   6 3684.90 205.100   6
  -5   0   7 16678.4 504.615   5
  -5   0   7 19897.3 979.131   9
  -5   0   8 12711.8 397.719   5
  -5   0   8 15095.9 879.861   9
  -5   0   9 5678.15 580.857   9
  -5   0  10 3171.30 498.523   9
  -5   0  11 20469.6 1151.06   9
  -5   0  12 3598.63 525.803   9
  -5   0  13 5536.63 631.065   9
  -5   0  14 3592.74 531.517   9
  -5   0  14 2761.26 508.186   7
  -5   0  15 1305.75 422.799   9
  -5  -1 -12 5796.64 634.157   4
  -5  -1 -11 1954.34 358.641   1
  -5  -1 -11 2058.65 482.775   4
  -5  -1 -10 5388.38 481.849   1
  -5  -1 -10 4890.91 614.619   4
  -5  -1  -9 5555.27 468.987   1
  -5  -1  -9 5694.91 634.440   4
  -5  -1  -8 5381.42 433.282   1
  -5  -1  -8 4861.80 588.948   4
  -5  -1  -7 2340.58 351.284   8
  -5  -1  -7 1962.08 280.863   1
  -5  -1  -7 2405.56 478.221   4
  -5  -1  -6 30797.0 1031.34   1
  -5  -1  -6 31707.7 1231.60   8
  -5  -1  -6 32601.2 1407.45   4
  -5  -1  -5 423.672 290.522   8
  -5  -1  -5 229.529 162.724   1
  -5  -1  -4 66611.6 2034.18   8
  -5  -1  -3 2339.69 363.968   8
  -5  -1  -2 30578.1 1176.51   8
  -5  -1  -1 15027.9 767.319   8
  -5  -1   0 10228.1 621.858   8
  -5  -1   1 3109.06 308.752   9
  -5  -1   1 3525.21 381.134   8
  -5  -1   2 5591.78 422.638   9
  -5  -1   2 6004.08 455.274   8
  -5  -1   3 13787.4 696.638   9
  -5  -1   3 14015.5 686.933   8
  -5  -1   4 7851.41 543.299   9
  -5  -1   4 7939.48 501.739   8
  -5  -1   5 44340.3 1530.69   9
  -5  -1   5 43463.2 1374.14   8
  -5  -1   6 4967.99 504.926   9
  -5  -1   6 5155.57 380.535   8
  -5  -1   7 63107.4 2031.91   9
  -5  -1   7 64127.2 1703.30   8
  -5  -1   7 59082.0 1422.14   6
  -5  -1   8 6336.25 585.732   9
  -5  -1   8 5391.44 354.414   8
  -5  -1   9 21642.8 1121.83   9
  -5  -1  10 5972.08 612.303   9
  -5  -1  11 1330.17 372.979   9
  -5  -1  12 8366.19 742.528   9
  -5  -1  13 3099.15 506.641   9
  -5  -1  14 2489.70 464.180   9
  -5  -1  15 2415.88 453.307   9
  -5  -1  16 1272.99 361.077   9
  -5  -2 -12 2540.05 464.128   4
  -5  -2 -11 2124.22 454.533   4
  -5  -2 -10 6531.43 688.919   4
  -5  -2  -9 5132.36 445.637   1
  -5  -2  -9 4792.17 607.804   4
  -5  -2  -8 10516.6 640.576   8
  -5  -2  -8 10900.2 590.633   1
  -5  -2  -8 9719.82 795.910   4
  -5  -2  -7 14834.6 789.709   8
  -5  -2  -7 14827.9 659.675   1
  -5  -2  -7 14104.4 941.710   4
  -5  -2  -6 558.089 257.803   8
  -5  -2  -6 924.666 195.705   1
  -5  -2  -5 34198.0 1295.68   8
  -5  -2  -5 33288.2 1004.28   1
  -5  -2  -4 1993.48 360.449   8
  -5  -2  -4 1983.66 193.023   1
  -5  -2  -3 22681.6 641.278   1
  -5  -2  -3 24451.0 1035.64   8
  -5  -2  -2 11602.9 691.846   8
  -5  -2  -1 750.676 294.679   8
  -5  -2   0 5879.08 491.081   8
  -5  -2   1 4136.35 418.619   8
  -5  -2   2 10589.4 619.774   8
  -5  -2   3 4531.17 413.924   8
  -5  -2   4 1793.21 322.981   9
  -5  -2   4 2284.03 306.237   8
  -5  -2   5 8312.75 600.300   9
  -5  -2   5 9136.15 537.310   8
  -5  -2   6 25311.4 1111.16   9
  -5  -2   6 24557.6 938.112   8
  -5  -2   7 4849.28 506.216   9
  -5  -2   7 4890.20 382.617   8
  -5  -2   8 24912.0 1192.61   9
  -5  -2   8 25508.6 894.180   8
  -5  -2   9 2493.11 430.772   9
  -5  -2   9 2419.75 253.757   8
  -5  -2  10 15534.8 954.723   9
  -5  -2  11 2918.89 488.586   9
  -5  -2  12 7641.62 704.964   9
  -5  -2  13 3004.24 506.286   9
  -5  -2  14 9536.91 776.176   9
  -5  -2  15 420.973 317.442   9
  -5  -2  16 7093.89 641.077   9
  -5  -3 -11-212.268 347.241   4
  -5  -3 -10 3812.72 554.886   4
  -5  -3  -9 6141.72 635.036   4
  -5  -3  -8 2777.85 374.422   8
  -5  -3  -8 3092.77 506.907   4
  -5  -3  -8 2729.30 326.809   1
  -5  -3  -7 32408.0 1266.13   8
  -5  -3  -7 33040.7 1082.13   1
  -5  -3  -7 32681.2 1462.60   4
  -5  -3  -6 3043.70 413.739   8
  -5  -3  -6 3395.39 295.853   1
  -5  -3  -5 5281.16 497.617   8
  -5  -3  -5 5615.63 331.921   1
  -5  -3  -4 24630.2 1089.10   8
  -5  -3  -4 24532.3 735.108   1
  -5  -3  -3 17299.8 876.158   8
  -5  -3  -3 16554.0 496.149   1
  -5  -3  -2 6076.25 529.114   8
  -5  -3  -1 21375.7 982.051   8
  -5  -3   0 8970.79 618.286   8
  -5  -3   1 20886.6 953.867   8
  -5  -3   2 1508.00 330.131   8
  -5  -3   3 15443.3 458.018   1
  -5  -3   3 14495.8 765.284   8
  -5  -3   4 7639.74 322.118   1
  -5  -3   4 7477.39 539.573   8
  -5  -3   5 17872.1 824.603   8
  -5  -3   6 3574.46 458.715   9
  -5  -3   6 4713.32 410.364   8
  -5  -3   7 21510.2 1074.01   9
  -5  -3   7 21956.3 875.154   8
  -5  -3   8 12528.0 826.094   9
  -5  -3   8 13582.6 637.328   8
  -5  -3   9 12553.5 848.305   9
  -5  -3   9 13038.0 590.885   8
  -5  -3  10 4036.98 532.331   9
  -5  -3  11 32235.6 1469.75   9
  -5  -3  12 2393.49 448.504   9
  -5  -3  13 2531.06 478.650   9
  -5  -3  14 5579.19 621.400   9
  -5  -3  15 1394.48 412.862   9
  -5  -4 -10 5493.96 588.513   4
  -5  -4  -9 2841.11 499.388   4
  -5  -4  -8 18925.6 1080.55   4
  -5  -4  -7 8890.15 627.449   8
  -5  -4  -6 2596.65 400.718   8
  -5  -4  -6 2813.99 276.769   1
  -5  -4  -5 6072.23 567.290   8
  -5  -4  -5 6132.47 345.520   1
  -5  -4  -4 18361.1 952.641   8
  -5  -4  -4 19633.6 627.605   1
  -5  -4  -3 2687.52 414.569   8
  -5  -4  -3 2633.88 174.664   1
  -5  -4  -2 3383.37 446.860   8
  -5  -4  -2 3158.77 143.802   1
  -5  -4  -1 49499.7 1701.32   8
  -5  -4   0 73236.9 2250.07   8
  -5  -4   1 47719.1 1682.15   8
  -5  -4   2 316366. 6436.37   8
  -5  -4   2 255142. 5612.39   1
  -5  -4   3 21025.5 985.027   8
  -5  -4   3 20078.6 569.820   1
  -5  -4   4 99580.9 2782.15   8
  -5  -4   5 55382.7 1769.84   8
  -5  -4   6 1646.22 322.995   8
  -5  -4   7 9788.35 605.932   8
  -5  -4   8 26092.8 1231.21   9
  -5  -4   8 25662.5 1000.61   8
  -5  -4   9 8355.12 706.414   9
  -5  -4   9 8345.38 504.196   8
  -5  -4  10 3532.23 512.466   9
  -5  -4  10 3424.68 327.116   8
  -5  -4  11 16293.8 999.658   9
  -5  -4  12 14316.2 951.212   9
  -5  -4  13 5774.92 627.568   9
  -5  -4  14 7907.17 723.051   9
  -5  -4  15 824.409 326.327   9
  -5  -5  -9 4834.72 570.101   4
  -5  -5  -8 3520.13 513.864   4
  -5  -5  -7 13536.5 797.671   8
  -5  -5  -6 19705.8 998.347   8
  -5  -5  -5 6636.17 581.451   8
  -5  -5  -4 28389.4 1255.06   8
  -5  -5  -3 13532.2 850.631   8
  -5  -5  -3 14477.4 490.265   1
  -5  -5  -2 2441.59 443.594   8
  -5  -5  -2 1879.13 149.480   1
  -5  -5  -1 32308.9 1305.23   8
  -5  -5  -1 27940.0 712.598   1
  -5  -5   0 22375.2 550.545   1
  -5  -5   0 19997.3 523.564   1
  -5  -5   1 40271.7 1434.01   8
  -5  -5   1 30328.1 748.673   1
  -5  -5   2 12002.2 764.322   8
  -5  -5   2 8715.54 303.603   1
  -5  -5   3 34339.4 1363.45   8
  -5  -5   3 32510.7 852.868   1
  -5  -5   4 37236.0 1415.75   8
  -5  -5   5 3089.21 436.148   8
  -5  -5   6 18795.3 923.739   8
  -5  -5   7 15040.5 803.496   8
  -5  -5   8 2070.05 342.520   8
  -5  -5   9 21300.2 1145.63   9
  -5  -5   9 21064.0 909.471   8
  -5  -5  10 18244.9 1078.67   9
  -5  -5  10 18796.7 816.941   8
  -5  -5  11 12322.2 870.588   9
  -5  -5  12 2199.81 451.304   9
  -5  -5  13 7956.09 738.174   9
  -5  -5  14 3146.08 500.886   9
  -5  -5  15 4748.53 574.210   9
  -5  -6  -7 4560.98 494.250   8
  -5  -6  -6 4634.15 507.451   8
  -5  -6  -5 13026.2 834.353   8
  -5  -6  -4 7285.30 660.035   8
  -5  -6  -3 4398.22 545.135   8
  -5  -6  -2 10355.2 769.498   8
  -5  -6  -1 9832.00 742.112   8
  -5  -6   0 23032.7 667.412   1
  -5  -6   0 23007.2 1150.99   8
  -5  -6   1 19188.0 1036.60   8
  -5  -6   2 20150.6 1061.88   8
  -5  -6   3 21179.0 1071.80   8
  -5  -6   4 16449.5 935.868   8
  -5  -6   5 18798.3 985.164   8
  -5  -6   6 8604.91 653.807   8
  -5  -6   7 6599.34 565.438   8
  -5  -6   8 4160.03 457.329   8
  -5  -6   9 6138.86 510.676   8
  -5  -6  10 7085.30 715.105   9
  -5  -6  10 8029.06 559.318   8
  -5  -6  11 5558.84 635.527   9
  -5  -6  12 2142.95 437.277   9
  -5  -6  13 7315.64 709.972   9
  -5  -6  14 697.595 345.265   9
  -5  -6  15 5155.07 584.995   9
  -5  -7  -6 10285.0 757.873   8
  -5  -7  -5 5515.36 582.459   8
  -5  -7  -4 3683.95 517.387   8
  -5  -7  -3 4796.45 579.051   8
  -5  -7  -2 1659.13 423.698   8
  -5  -7  -1 9486.72 784.940   8
  -5  -7   0 3189.37 483.910   8
  -5  -7   1 5741.59 625.922   8
  -5  -7   2 2876.24 472.793   8
  -5  -7   3 517.872 344.952   8
  -5  -7   4 5094.83 555.728   8
  -5  -7   5 3660.14 487.999   8
  -5  -7   6 9313.92 726.288   8
  -5  -7   7 3903.76 487.342   8
  -5  -7   8 6627.35 593.229   8
  -5  -7   9 918.143 312.377   8
  -5  -7  10 14573.2 807.295   8
  -5  -7  11 879.415 378.467   9
  -5  -7  12 9293.09 805.912   9
  -5  -7  13 808.286 372.294   9
  -5  -7  14 3360.11 512.200   9
  -5  -8  -6 702.763 336.108   8
  -5  -8  -5 7825.33 693.219   8
  -5  -8  -4 2095.86 454.008   8
  -5  -8  -3 9104.62 772.622   8
  -5  -8  -2 6382.25 669.772   8
  -5  -8  -1 9742.79 812.625   8
  -5  -8   0 3631.05 533.865   8
  -5  -8   1 92.3232 315.946   8
  -5  -8   2 1747.26 428.328   8
  -5  -8   3 2906.87 484.820   8
  -5  -8   4 2897.29 507.485   8
  -5  -8   5 1194.49 380.566   8
  -5  -8   6 2286.80 429.899   8
  -5  -8   7 11786.2 826.142   8
  -5  -8   8 4122.43 510.057   8
  -5  -8   9 7057.82 631.651   8
  -5  -8  10 1722.08 357.229   8
  -5  -8  12 975.421 364.579   9
  -5  -8  13 3481.83 525.079   9
  -5  -9  -5 1790.55 438.117   8
  -5  -9  -4 3089.36 524.241   8
  -5  -9  -3 1114.64 401.117   8
  -5  -9  -2 7887.00 771.226   8
  -5  -9  -1 5400.78 664.512   8
  -5  -9   0 5503.67 668.288   8
  -5  -9   1 4681.73 623.726   8
  -5  -9   2 4239.00 601.351   8
  -5  -9   3 1984.06 481.343   8
  -5  -9   4 6913.48 707.711   8
  -5  -9   5 2037.70 463.192   8
  -5  -9   6 7411.96 715.275   8
  -5  -9   7 7334.28 698.674   8
  -5  -9   8 4767.75 582.668   8
  -5  -9   9 4506.15 535.545   8
  -5  -9  10 2489.00 417.285   8
  -5  -9  12 908.533 357.370   9
  -5 -10  -4 825.091 386.505   8
  -5 -10  -3 2135.72 476.757   8
  -5 -10  -2 5904.45 690.438   8
  -5 -10  -1 5200.25 659.100   8
  -5 -10   0 9585.75 868.328   8
  -5 -10   1 5424.20 680.791   8
  -5 -10   2 4954.64 662.068   8
  -5 -10   3 2273.41 522.766   8
  -5 -10   4 1318.05 443.934   8
  -5 -10   5 8895.57 831.172   8
  -5 -10   6 6055.90 684.940   8
  -5 -10   7 8759.92 778.906   8
  -5 -10   8 1459.29 426.955   8
  -5 -10   9 6469.76 651.335   8
  -5 -10  10 746.968 364.045   8
  -5 -11   0 4594.78 650.831   8
  -5 -11   1 2269.41 545.067   8
  -5 -11   2 3426.47 575.185   8
  -5 -11   3 1400.54 466.914   8
  -5 -11   4 1195.40 441.671   8
  -5 -11   5 2171.43 497.005   8
  -5 -11   6 969.414 407.781   8
  -5 -11   7 8493.00 797.481   8
  -5 -11   8 4109.21 593.080   8
  -5 -11   9 7576.14 713.438   8
  -6  11  -5 3943.53 533.982   4
  -6  11  -4 750.586 342.411   4
  -6  10  -7 8796.60 790.340   4
  -6  10  -6 3451.85 521.635   4
  -6  10  -5 4832.94 622.988   5
  -6  10  -5 3898.74 554.698   4
  -6  10  -4 2762.33 530.478   5
  -6  10  -4 2750.99 461.840   4
  -6  10  -3 2087.67 448.924   5
  -6  10  -3 1178.61 352.750   4
  -6  10  -2 1098.46 433.518   5
  -6  10  -1 45.9664 341.912   5
  -6  10   0 414.806 352.928   5
  -6  10   1 475.964 348.195   5
  -6  10   2 4059.16 589.546   5
  -6  10   3 1921.46 480.878   5
  -6  10   4 3262.02 498.073   5
  -6   9  -8 12297.7 977.748   4
  -6   9  -7 362.141 388.175   4
  -6   9  -6 10925.9 869.459   4
  -6   9  -5 6974.96 728.317   5
  -6   9  -5 9137.24 768.132   4
  -6   9  -4 6643.70 711.767   5
  -6   9  -4 7420.00 670.139   4
  -6   9  -3 8738.80 806.182   5
  -6   9  -3 8463.04 680.933   4
  -6   9  -2 4498.63 593.119   5
  -6   9  -2 4856.20 511.580   4
  -6   9  -1 4567.97 597.357   5
  -6   9  -1 5554.61 488.460   4
  -6   9   0 11436.7 887.877   5
  -6   9   1 684.290 341.272   5
  -6   9   2 8865.37 781.016   5
  -6   9   3 8536.33 763.941   5
  -6   9   4 4642.66 601.988   5
  -6   9   5 12036.7 894.816   5
  -6   9   6 2769.49 474.459   5
  -6   9   7 11855.4 842.899   5
  -6   8  -9 4335.95 621.494   4
  -6   8  -8 495.404 398.643   4
  -6   8  -7 1892.19 441.722   4
  -6   8  -6 2649.67 478.867   4
  -6   8  -5 849.710 362.713   4
  -6   8  -4 30605.3 1501.87   5
  -6   8  -4 29837.9 1377.72   4
  -6   8  -3 1514.33 412.328   5
  -6   8  -3 1668.36 373.837   4
  -6   8  -2 27752.4 1411.49   5
  -6   8  -2 30480.1 1266.74   4
  -6   8  -1 8190.86 744.751   5
  -6   8  -1 8696.84 617.582   4
  -6   8   0 17509.8 1075.03   5
  -6   8   0 18118.5 828.806   4
  -6   8   1 24550.2 1282.41   5
  -6   8   2 1105.69 333.308   5
  -6   8   3 31824.6 1496.79   5
  -6   8   3 36615.0 1328.96   2
  -6   8   4 1968.95 412.291   5
  -6   8   5 1831.59 413.227   5
  -6   8   6 1621.81 402.481   5
  -6   8   7 601.080 302.994   5
  -6   8   8 1908.30 389.520   5
  -6   8   9 3041.08 442.276   5
  -6   7 -10 1041.32 405.101   4
  -6   7  -9 1327.47 452.038   4
  -6   7  -8 469.361 368.097   4
  -6   7  -7 3213.78 553.567   4
  -6   7  -6 974.418 390.832   4
  -6   7  -5 24792.5 1269.06   4
  -6   7  -4 1567.17 420.366   5
  -6   7  -4 1625.04 414.536   4
  -6   7  -3 27715.2 1376.51   5
  -6   7  -3 28676.7 1271.30   4
  -6   7  -2 1390.82 396.847   5
  -6   7  -2 1301.27 337.711   4
  -6   7  -1 13769.3 921.662   5
  -6   7  -1 13953.7 766.009   4
  -6   7   0 1588.53 366.417   5
  -6   7   0 2660.07 342.947   4
  -6   7   1 10420.8 790.862   5
  -6   7   1 11375.9 593.774   4
  -6   7   2 11960.6 841.070   5
  -6   7   3 14975.1 942.080   5
  -6   7   3 16175.4 985.038   9
  -6   7   4 10130.7 765.174   5
  -6   7   4 11335.3 847.609   9
  -6   7   5 11381.0 811.405   5
  -6   7   5 14214.5 979.864   9
  -6   7   6 2927.42 513.374   9
  -6   7   6 2187.73 407.050   5
  -6   7   7 2068.75 464.002   9
  -6   7   7 1444.61 385.071   5
  -6   7   8 949.195 422.831   9
  -6   7   8-213.718 266.583   5
  -6   7   9 589.876 383.361   9
  -6   7   9 516.330 288.319   5
  -6   6 -10 2143.49 507.465   4
  -6   6  -9 1883.86 509.715   4
  -6   6  -8 3974.27 592.604   4
  -6   6  -7 3064.84 532.069   4
  -6   6  -6 20982.2 1190.22   4
  -6   6  -5 12422.4 872.918   4
  -6   6  -4 13294.0 866.903   4
  -6   6  -3 10876.2 812.549   5
  -6   6  -3 12593.0 798.437   4
  -6   6  -2 20514.2 1118.94   5
  -6   6  -2 21705.0 1028.90   4
  -6   6  -1 3189.19 484.176   5
  -6   6  -1 3660.46 409.673   4
  -6   6   0 34144.0 1463.46   5
  -6   6   0 35401.4 1256.49   4
  -6   6   1 2123.43 250.519   2
  -6   6   1 1812.91 362.575   9
  -6   6   1 1738.64 380.226   5
  -6   6   1 1946.21 278.384   4
  -6   6   2 24012.9 1167.35   5
  -6   6   2 25693.4 1170.10   9
  -6   6   2 24292.1 863.631   4
  -6   6   3 10347.7 736.775   5
  -6   6   3 11670.2 821.668   9
  -6   6   4 10934.0 752.316   5
  -6   6   4 11538.9 829.626   9
  -6   6   5 12188.9 791.692   5
  -6   6   5 13510.8 924.319   9
  -6   6   6 19557.1 1007.36   5
  -6   6   6 20920.5 1214.35   9
  -6   6   7 6833.79 587.351   5
  -6   6   7 6224.09 709.051   9
  -6   6   8 4889.77 499.182   5
  -6   6   8 5197.15 637.586   9
  -6   6   9 1330.23 335.662   5
  -6   6   9 1695.76 479.353   9
  -6   6  10 3329.17 588.561   9
  -6   5 -11 8978.13 855.900   4
  -6   5 -10 2970.89 580.977   4
  -6   5  -9 18113.2 1188.60   4
  -6   5  -8 1565.02 473.388   4
  -6   5  -7 19055.3 1170.78   4
  -6   5  -6 4377.93 587.404   4
  -6   5  -5 6897.48 677.938   4
  -6   5  -4 6551.78 633.846   4
  -6   5  -3 2468.85 398.832   4
  -6   5  -2 628.030 308.830   5
  -6   5  -2 572.907 286.166   4
  -6   5  -1 9669.46 567.850   9
  -6   5  -1 8635.77 678.925   5
  -6   5  -1 8346.67 588.179   4
  -6   5   0 1818.03 173.527   2
  -6   5   0 2032.50 311.725   9
  -6   5   0 2179.27 378.660   5
  -6   5   0 2823.14 354.347   4
  -6   5   1 7959.90 636.949   5
  -6   5   1 8071.51 592.025   9
  -6   5   1 7738.97 491.612   4
  -6   5   2 3270.62 423.078   9
  -6   5   2 2293.49 365.009   5
  -6   5   2 2473.88 268.724   4
  -6   5   3 2147.45 395.233   9
  -6   5   3 1238.62 319.919   5
  -6   5   3 1897.49 209.305   4
  -6   5   4 5116.15 501.803   5
  -6   5   4 5045.33 575.569   9
  -6   5   5 4933.93 472.454   5
  -6   5   5 3993.29 526.614   9
  -6   5   6 15771.7 848.340   5
  -6   5   6 16163.0 1014.80   9
  -6   5   7 6067.20 528.004   5
  -6   5   7 6306.52 688.572   9
  -6   5   8 18457.9 916.708   5
  -6   5   8 19281.9 1163.08   9
  -6   5   9 10518.9 662.084   5
  -6   5   9 8334.09 807.719   9
  -6   5  10 4138.75 614.651   9
  -6   5  11 8207.64 816.425   9
  -6   5  11 7893.76 655.443   7
  -6   4 -11 5933.90 729.292   4
  -6   4 -10 13591.3 1040.42   4
  -6   4  -9 12654.9 1002.65   4
  -6   4  -8 33092.9 1599.11   4
  -6   4  -7 7795.01 732.683   4
  -6   4  -6 33800.0 1530.34   4
  -6   4  -5 1783.13 407.186   4
  -6   4  -4 14219.3 878.787   4
  -6   4  -3 9536.99 694.599   4
  -6   4  -2 10000.3 675.469   4
  -6   4  -1 1014.80 237.620   9
  -6   4  -1 912.590 285.375   5
  -6   4  -1 1059.58 303.294   4
  -6   4   0 2174.27 301.986   9
  -6   4   0 2407.57 359.508   5
  -6   4   0 2155.66 328.541   4
  -6   4   0 1888.11 137.222   2
  -6   4   1 2826.59 362.074   9
  -6   4   1 3500.68 409.780   5
  -6   4   1 3072.42 336.431   4
  -6   4   2 893.263 288.515   9
  -6   4   2 571.594 252.627   5
  -6   4   2 892.681 203.024   4
  -6   4   3 8331.21 591.392   5
  -6   4   3 8619.84 633.511   9
  -6   4   3 8303.94 413.547   4
  -6   4   4 9589.60 612.714   5
  -6   4   4 10602.8 712.656   9
  -6   4   5 9002.68 603.523   5
  -6   4   5 8701.96 702.683   9
  -6   4   6 2707.22 349.013   5
  -6   4   6 2670.68 463.621   9
  -6   4   7 29365.7 1136.85   5
  -6   4   7 31044.3 1453.86   9
  -6   4   8 4718.44 428.391   5
  -6   4   8 4739.96 601.895   9
  -6   4   9 42505.2 1422.98   5
  -6   4   9 41538.7 1823.00   9
  -6   4  10 10997.9 906.376   9
  -6   4  11 23120.3 1323.05   9
  -6   4  12 8168.81 795.394   9
  -6   4  12 7666.77 687.110   7
  -6   4  13-145.823 300.967   7
  -6   3 -11 9288.62 867.639   4
  -6   3 -10 7550.24 806.539   4
  -6   3  -9 18889.9 1192.93   4
  -6   3  -8 3671.16 593.063   4
  -6   3  -7 8604.41 793.100   4
  -6   3  -6 19736.4 1140.71   4
  -6   3  -5 33499.0 1483.37   4
  -6   3  -4 19377.6 1053.44   4
  -6   3  -3 44806.1 1658.39   4
  -6   3  -2 34239.7 1044.31   9
  -6   3  -2 34283.5 1353.68   4
  -6   3  -1 14928.0 653.561   9
  -6   3  -1 15304.0 811.048   4
  -6   3   0 157782. 3136.37   9
  -6   3   0 156881. 3378.75   5
  -6   3   0 157189. 3254.17   4
  -6   3   1 53732.9 1694.99   5
  -6   3   1 51451.6 1611.64   9
  -6   3   1 48134.6 1214.93   2
  -6   3   1 51524.5 1555.03   4
  -6   3   2 62542.6 1907.19   5
  -6   3   2 63920.6 1945.39   9
  -6   3   2 60920.6 1745.80   4
  -6   3   3 78375.2 2250.61   5
  -6   3   3 82241.6 2401.03   9
  -6   3   3 78707.6 2038.50   4
  -6   3   4 26072.0 1025.67   5
  -6   3   4 28840.2 1208.42   9
  -6   3   4 26257.8 812.065   4
  -6   3   5 3997.78 381.235   5
  -6   3   5 4551.02 513.656   9
  -6   3   5 3655.68 200.466   4
  -6   3   6 89200.3 2451.07   5
  -6   3   6 96224.2 2851.54   9
  -6   3   7 7837.99 492.671   5
  -6   3   7 7433.26 692.334   9
  -6   3   8 17681.1 758.927   5
  -6   3   8 18008.6 1083.70   9
  -6   3   9 13821.1 650.774   5
  -6   3   9 13158.8 985.332   9
  -6   3  10 15659.2 1073.16   9
  -6   3  11 894.794 451.318   9
  -6   3  12 10571.5 895.504   9
  -6   3  13 1711.87 492.167   9
  -6   3  13 1401.09 408.236   7
  -6   2 -12 13091.5 995.997   4
  -6   2 -11 4927.26 667.183   4
  -6   2 -10 4104.74 613.148   4
  -6   2  -9 2416.71 493.084   4
  -6   2  -8 11756.8 927.050   4
  -6   2  -7 4956.30 609.548   4
  -6   2  -6 22512.4 1226.24   4
  -6   2  -5 50412.5 1883.32   4
  -6   2  -4 4600.05 553.763   4
  -6   2  -3 40943.4 1052.27   9
  -6   2  -3 43666.5 1594.75   4
  -6   2  -2 69228.8 1759.26   9
  -6   2  -2 69842.6 2167.91   4
  -6   2  -1 25118.2 862.964   9
  -6   2  -1 24057.0 1062.33   4
  -6   2   0 10589.6 526.879   9
  -6   2   0 11560.1 640.322   4
  -6   2   1 8541.45 536.319   9
  -6   2   1 9151.19 330.074   2
  -6   2   1 9018.29 558.583   4
  -6   2   2 9112.12 562.103   5
  -6   2   2 9108.95 586.363   9
  -6   2   2 10312.3 550.950   4
  -6   2   3 32240.4 1108.68   5
  -6   2   3 29422.7 1185.65   9
  -6   2   3 29720.6 997.768   4
  -6   2   4 47129.4 1642.45   9
  -6   2   4 46880.1 1445.62   5
  -6   2   5 46632.1 1408.05   5
  -6   2   5 46320.0 1678.99   9
  -6   2   6 6537.60 403.019   5
  -6   2   6 6630.67 612.383   9
  -6   2   6 5443.21 255.961   4
  -6   2   7 24042.1 846.066   5
  -6   2   7 23750.6 1201.62   9
  -6   2   8 23657.2 833.588   5
  -6   2   8 24394.7 1238.66   9
  -6   2   9 508.494 330.711   9
  -6   2  10 12523.5 939.045   9
  -6   2  11 1324.70 423.502   9
  -6   2  12 11135.3 898.373   9
  -6   2  13 11118.5 916.604   9
  -6   2  14 14709.4 1018.96   9
  -6   1 -12 10176.6 874.928   4
  -6   1 -11 8189.90 790.913   4
  -6   1 -10 5830.20 700.093   4
  -6   1  -9 7404.94 756.183   4
  -6   1  -8 593.185 368.141   4
  -6   1  -7 6734.30 685.778   4
  -6   1  -6 3761.94 542.518   4
  -6   1  -5 11256.7 827.109   4
  -6   1  -4 3955.64 514.375   4
  -6   1  -3 15274.1 477.445   9
  -6   1  -3 16420.8 922.230   4
  -6   1  -2 30713.3 911.356   9
  -6   1  -2 30932.8 1251.26   8
  -6   1  -2 32625.0 1301.94   4
  -6   1  -1 32595.4 1030.23   9
  -6   1  -1 35120.7 1330.87   8
  -6   1   0 58649.2 1594.18   9
  -6   1   0 59723.2 1850.75   8
  -6   1   1 3663.81 358.608   9
  -6   1   1 3953.81 448.958   8
  -6   1   1 3897.60 213.383   2
  -6   1   2 59072.0 1811.21   9
  -6   1   2 62333.5 1916.82   8
  -6   1   3 17499.9 840.067   9
  -6   1   4 49530.9 1680.21   9
  -6   1   5 1867.73 382.203   9
  -6   1   5 1748.49 229.082   5
  -6   1   6 13621.3 555.541   5
  -6   1   6 14704.3 863.734   9
  -6   1   7 8126.73 391.505   5
  -6   1   7 9222.33 706.291   9
  -6   1   8 388.652 125.809   5
  -6   1   8 503.596 309.114   9
  -6   1   9 4177.39 560.473   9
  -6   1  10 2476.04 469.149   9
  -6   1  11 4200.37 577.892   9
  -6   1  12 666.769 382.269   9
  -6   1  13 11077.0 888.568   9
  -6   1  14 4113.64 615.771   9
  -6   0 -12 1162.17 406.857   4
  -6   0 -11 5664.68 684.286   4
  -6   0 -10 1169.38 437.008   4
  -6   0  -9 5262.29 641.623   4
  -6   0  -8 1801.43 465.259   4
  -6   0  -7 2846.42 504.966   4
  -6   0  -6 134.054 333.055   4
  -6   0  -5 3438.74 439.668   8
  -6   0  -5 3406.03 516.751   4
  -6   0  -4 7193.62 593.716   8
  -6   0  -4 9327.80 725.874   4
  -6   0  -3 20888.0 644.792   9
  -6   0  -3 24902.0 1096.72   8
  -6   0  -2 30368.7 920.855   9
  -6   0  -2 31366.4 1277.41   8
  -6   0  -1 14334.9 600.637   9
  -6   0  -1 14643.5 809.879   8
  -6   0   0 26869.7 954.321   9
  -6   0   0 27838.1 1159.01   8
  -6   0   0 27316.1 750.691   2
  -6   0   1 7341.47 480.699   9
  -6   0   1 7377.95 578.393   8
  -6   0   2 4929.62 429.385   9
  -6   0   2 5222.89 488.611   8
  -6   0   3 35635.4 1301.20   9
  -6   0   3 36157.9 1310.45   8
  -6   0   4 11529.9 701.425   9
  -6   0   4 11181.8 658.323   8
  -6   0   5 35265.1 1389.50   9
  -6   0   5 37136.6 1287.29   8
  -6   0   6 18655.8 968.780   9
  -6   0   6 17659.1 795.827   8
  -6   0   7 8598.89 688.902   9
  -6   0   8 1933.55 410.900   9
  -6   0   9 2386.09 442.798   9
  -6   0  10 677.186 351.002   9
  -6   0  11 4270.10 586.239   9
  -6   0  12 2617.15 494.050   9
  -6   0  13 1341.56 413.269   9
  -6   0  14 7427.85 739.894   9
  -6   0  15 846.848 386.704   9
  -6  -1 -12 8306.56 756.705   4
  -6  -1 -11 8934.93 800.162   4
  -6  -1 -10 3125.56 537.284   4
  -6  -1  -9 3871.18 596.124   4
  -6  -1  -8 3835.32 582.519   4
  -6  -1  -7 2642.46 401.836   8
  -6  -1  -7 3044.69 509.183   4
  -6  -1  -6 1674.11 359.203   8
  -6  -1  -6 2404.75 480.111   4
  -6  -1  -5 309.952 287.219   8
  -6  -1  -5 312.690 378.619   4
  -6  -1  -4 35795.0 980.035   9
  -6  -1  -4 42188.9 1502.68   8
  -6  -1  -3 10991.3 458.589   9
  -6  -1  -3 11549.0 742.728   8
  -6  -1  -2 17920.5 674.673   9
  -6  -1  -2 17915.3 924.676   8
  -6  -1  -1 10937.4 538.036   9
  -6  -1  -1 12277.5 739.888   8
  -6  -1   0 5705.73 410.203   9
  -6  -1   0 5452.18 513.642   8
  -6  -1   1 27504.9 1031.62   9
  -6  -1   1 28617.0 1156.75   8
  -6  -1   2 18044.4 819.874   9
  -6  -1   2 17137.0 865.207   8
  -6  -1   3 10696.8 641.884   9
  -6  -1   3 10492.9 652.201   8
  -6  -1   4 11993.5 723.130   9
  -6  -1   4 12754.3 699.314   8
  -6  -1   5 23174.0 1064.41   9
  -6  -1   5 23189.9 972.556   8
  -6  -1   6 3526.27 477.644   9
  -6  -1   6 3493.22 380.252   8
  -6  -1   7 43175.8 1667.73   9
  -6  -1   7 43522.3 1394.26   8
  -6  -1   8 3001.89 475.902   9
  -6  -1   8 3121.80 318.006   8
  -6  -1   9 2215.73 447.927   9
  -6  -1  10 1236.30 390.155   9
  -6  -1  11 6890.00 700.478   9
  -6  -1  12 1830.29 477.033   9
  -6  -1  13 5506.36 661.095   9
  -6  -1  14 4477.02 607.045   9
  -6  -1  15 6225.06 663.514   9
  -6  -2 -11 1370.96 426.863   4
  -6  -2 -10 11261.3 904.675   4
  -6  -2  -9 947.806 441.192   4
  -6  -2  -8 14811.6 819.524   8
  -6  -2  -8 13580.2 973.930   4
  -6  -2  -7 3880.05 454.044   8
  -6  -2  -7 3423.49 544.205   4
  -6  -2  -6 11622.1 753.119   8
  -6  -2  -6 11927.9 884.615   4
  -6  -2  -5 11996.3 768.870   8
  -6  -2  -4 3878.27 465.457   8
  -6  -2  -3 30183.2 1276.35   8
  -6  -2  -2 8827.05 668.318   8
  -6  -2  -1 6425.02 582.172   8
  -6  -2   0 1311.65 356.984   8
  -6  -2   1 19805.6 964.125   8
  -6  -2   2 25593.5 1109.79   8
  -6  -2   3 18753.3 901.051   9
  -6  -2   3 19381.7 916.200   8
  -6  -2   4 394.772 261.365   9
  -6  -2   4 746.992 289.527   8
  -6  -2   5 4413.25 484.655   9
  -6  -2   5 5443.67 470.707   8
  -6  -2   6 31026.1 1308.87   9
  -6  -2   6 30614.0 1159.66   8
  -6  -2   7 14573.2 896.057   9
  -6  -2   7 15238.3 736.035   8
  -6  -2   8 7702.79 684.288   9
  -6  -2   8 8600.13 517.567   8
  -6  -2   9 5613.21 612.242   9
  -6  -2   9 5308.43 390.453   8
  -6  -2  10 13897.5 950.722   9
  -6  -2  11 1366.77 432.326   9
  -6  -2  12 9003.83 779.965   9
  -6  -2  13 653.630 371.079   9
  -6  -2  14 9009.69 807.791   9
  -6  -2  15 1253.85 395.058   9
  -6  -3 -11 3887.48 556.853   4
  -6  -3 -10 1997.55 469.753   4
  -6  -3  -9 4118.43 583.750   4
  -6  -3  -8 815.779 302.253   8
  -6  -3  -8 881.880 429.013   4
  -6  -3  -7 18371.3 952.471   8
  -6  -3  -7 17749.7 1104.14   4
  -6  -3  -6 2237.99 399.642   8
  -6  -3  -5 10836.0 751.165   8
  -6  -3  -4 4735.24 518.186   8
  -6  -3  -3 16762.0 936.974   8
  -6  -3  -2 20218.6 1020.43   8
  -6  -3  -1 17849.0 946.815   8
  -6  -3   0 29295.0 1251.30   8
  -6  -3   1 8647.31 634.614   8
  -6  -3   2 288.988 291.084   8
  -6  -3   3 4784.61 491.643   8
  -6  -3   4 36161.2 1368.75   8
  -6  -3   5 11106.7 753.725   9
  -6  -3   5 12253.0 718.221   8
  -6  -3   6 22076.8 1103.90   9
  -6  -3   6 22563.1 986.576   8
  -6  -3   7 18470.0 1024.27   9
  -6  -3   7 17680.2 833.867   8
  -6  -3   8 5167.85 568.783   9
  -6  -3   8 4286.56 400.084   8
  -6  -3   9 11692.3 852.275   9
  -6  -3   9 12084.9 618.926   8
  -6  -3  10 1331.80 425.759   9
  -6  -3  11 19662.6 1162.19   9
  -6  -3  12 2799.16 530.621   9
  -6  -3  13 2478.04 492.236   9
  -6  -3  14 6214.17 678.971   9
  -6  -3  15 3525.05 533.371   9
  -6  -4 -10 473.323 355.869   4
  -6  -4  -9 4382.80 607.368   4
  -6  -4  -8 13926.4 973.704   4
  -6  -4  -7 6744.17 595.095   8
  -6  -4  -6 19573.7 1021.32   8
  -6  -4  -5 15873.4 925.126   8
  -6  -4  -4 4740.44 535.323   8
  -6  -4  -3 12214.6 807.926   8
  -6  -4  -2 17583.6 973.324   8
  -6  -4  -1 4049.70 510.552   8
  -6  -4   0 19734.3 1025.10   8
  -6  -4   1 9255.70 700.135   8
  -6  -4   2 37528.4 1481.52   8
  -6  -4   3 10515.9 728.411   8
  -6  -4   4 16034.2 875.220   8
  -6  -4   5 13154.9 790.609   8
  -6  -4   6 10851.2 686.672   8
  -6  -4   7 2118.49 426.555   9
  -6  -4   7 1673.23 321.536   8
  -6  -4   8 15116.5 982.489   9
  -6  -4   8 16400.3 800.623   8
  -6  -4   9 7177.97 694.954   9
  -6  -4   9 6266.84 482.589   8
  -6  -4  10 5634.31 630.052   9
  -6  -4  10 6586.95 456.348   8
  -6  -4  11 10809.2 871.191   9
  -6  -4  12 15889.6 1058.87   9
  -6  -4  13 6446.94 699.201   9
  -6  -4  14 6874.92 712.354   9
  -6  -4  15 1933.00 440.108   9
  -6  -5  -9 4709.93 592.579   4
  -6  -5  -8 2112.91 476.863   4
  -6  -5  -7 19384.7 1014.23   8
  -6  -5  -6 1020.02 344.468   8
  -6  -5  -5 3663.71 486.858   8
  -6  -5  -4 1216.30 353.596   8
  -6  -5  -3 15017.4 926.894   8
  -6  -5  -2 1779.14 404.051   8
  -6  -5  -1 8576.94 699.828   8
  -6  -5   0 44938.4 1724.09   8
  -6  -5   1 16556.3 986.799   8
  -6  -5   2 81803.3 2572.07   8
  -6  -5   3 70584.3 2295.03   8
  -6  -5   4 19302.2 1030.95   8
  -6  -5   5 37218.3 1477.89   8
  -6  -5   6 7403.06 612.590   8
  -6  -5   7 1707.96 345.270   8
  -6  -5   8 15407.7 1009.33   9
  -6  -5   8 15500.9 830.098   8
  -6  -5   9 928.713 371.775   9
  -6  -5   9 1433.94 304.040   8
  -6  -5  10 2188.96 461.428   9
  -6  -5  10 3012.36 363.225   8
  -6  -5  11 3589.27 540.575   9
  -6  -5  12 13367.3 954.790   9
  -6  -5  13 1417.87 417.090   9
  -6  -5  14 6548.63 689.669   9
  -6  -6  -8 914.047 386.487   4
  -6  -6  -6 5234.12 572.801   8
  -6  -6  -5 15372.4 954.771   8
  -6  -6  -4 2121.31 420.754   8
  -6  -6  -3 7869.12 701.181   8
  -6  -6  -2 4731.99 587.036   8
  -6  -6  -1 8378.65 733.383   8
  -6  -6   0 3920.76 529.510   8
  -6  -6   1 14413.2 936.197   8
  -6  -6   2 4118.04 545.310   8
  -6  -6   3 8648.27 737.764   8
  -6  -6   4 7338.05 666.358   8
  -6  -6   5 9759.04 735.492   8
  -6  -6   6 1633.01 401.249   8
  -6  -6   7 5808.14 569.056   8
  -6  -6   8 2688.36 410.976   8
  -6  -6   9 4571.98 618.260   9
  -6  -6   9 4469.07 471.742   8
  -6  -6  10 1109.07 389.567   9
  -6  -6  10 2212.62 360.711   8
  -6  -6  11 9973.05 838.673   9
  -6  -6  12 532.616 331.686   9
  -6  -6  13 1387.96 425.763   9
  -6  -6  14 930.973 375.019   9
  -6  -7  -6 3406.79 500.746   8
  -6  -7  -5 4928.35 585.231   8
  -6  -7  -4 3605.65 539.175   8
  -6  -7  -3 1837.68 449.625   8
  -6  -7  -2 5712.99 644.478   8
  -6  -7  -1 74.5097 343.595   8
  -6  -7   0 9136.77 783.589   8
  -6  -7   1 26.8768 330.479   8
  -6  -7   2 4217.93 568.160   8
  -6  -7   3 294.018 374.772   8
  -6  -7   4 2395.68 455.060   8
  -6  -7   5 558.320 337.458   8
  -6  -7   6 10241.3 790.021   8
  -6  -7   7 420.295 311.771   8
  -6  -7   8 6758.96 617.861   8
  -6  -7   9 1195.56 351.113   8
  -6  -7  10 5014.29 653.956   9
  -6  -7  10 5059.50 518.699   8
  -6  -7  11 1995.47 479.414   9
  -6  -7  12 2649.29 532.982   9
  -6  -7  13 612.304 368.125   9
  -6  -8  -6 48.7993 285.828   8
  -6  -8  -5 4013.33 540.399   8
  -6  -8  -4 361.217 364.354   8
  -6  -8  -3 23704.2 1291.71   8
  -6  -8  -2 838.399 422.714   8
  -6  -8  -1 13505.5 985.075   8
  -6  -8   0 3062.94 552.898   8
  -6  -8   1 1946.77 511.515   8
  -6  -8   2 3520.34 567.468   8
  -6  -8   3 8622.99 793.631   8
  -6  -8   4 566.939 358.948   8
  -6  -8   5 5890.36 648.279   8
  -6  -8   6 6628.22 674.106   8
  -6  -8   7 4557.18 568.981   8
  -6  -8   8 8547.05 716.457   8
  -6  -8   9 14618.6 903.176   8
  -6  -8  10 7974.33 653.770   8
  -6  -8  11 3071.15 545.175   9
  -6  -8  12 995.286 425.224   9
  -6  -9  -5 329.649 329.591   8
  -6  -9  -4 9067.05 782.773   8
  -6  -9  -3 538.834 356.507   8
  -6  -9  -2 5340.08 659.064   8
  -6  -9  -1 2810.23 541.108   8
  -6  -9   0 705.127 452.943   8
  -6  -9   1 2497.09 510.763   8
  -6  -9   2-137.977 338.184   8
  -6  -9   3 1202.20 424.196   8
  -6  -9   4 2264.98 503.999   8
  -6  -9   5 430.287 348.397   8
  -6  -9   6 3429.12 556.780   8
  -6  -9   7 692.221 388.848   8
  -6  -9   8 3502.64 535.882   8
  -6  -9   9 7065.86 659.188   8
  -6  -9  10 742.224 344.292   8
  -6 -10  -2 3483.10 558.452   8
  -6 -10  -1 2097.90 483.802   8
  -6 -10   0 4375.05 625.115   8
  -6 -10   1 1354.92 442.478   8
  -6 -10   2 2844.30 582.168   8
  -6 -10   3 619.013 428.995   8
  -6 -10   4 1839.03 450.943   8
  -6 -10   5 2171.12 509.687   8
  -6 -10   6 1576.04 466.610   8
  -6 -10   7 3456.37 566.513   8
  -6 -10   8 4133.36 584.467   8
  -6 -10   9 497.639 350.166   8
  -6 -10  10 3787.92 509.695   8
  -7  10  -5 32001.5 1456.70   4
  -7  10  -4 5612.49 587.834   4
  -7  10  -2 14580.9 1034.32   5
  -7  10  -1 10507.7 884.865   5
  -7  10   0 1585.17 478.541   5
  -7  10   1 14157.4 1009.21   5
  -7  10   2 17913.9 1128.23   5
  -7   9  -7 8321.21 792.709   4
  -7   9  -6 8222.23 751.485   4
  -7   9  -5 5973.47 660.420   4
  -7   9  -4 10736.0 894.346   5
  -7   9  -4 10198.8 784.433   4
  -7   9  -3 3617.52 565.084   5
  -7   9  -3 2987.66 459.520   4
  -7   9  -2 2868.59 521.143   5
  -7   9  -2 3697.38 449.821   4
  -7   9  -1 3497.09 542.164   5
  -7   9   0 2564.86 495.887   5
  -7   9   1 929.584 355.409   5
  -7   9   2 4626.64 587.319   5
  -7   9   3 8089.06 740.588   5
  -7   9   4 3713.69 535.021   5
  -7   9   5 7981.02 715.301   5
  -7   9   6 6003.37 631.633   5
  -7   8  -8 8484.31 815.396   4
  -7   8  -7 13995.8 996.501   4
  -7   8  -6 4606.78 600.947   4
  -7   8  -5 9979.76 812.148   4
  -7   8  -4 6937.29 656.024   4
  -7   8  -3 1588.01 437.975   5
  -7   8  -3 1235.03 344.638   4
  -7   8  -2 13014.1 959.707   5
  -7   8  -2 13966.5 823.555   4
  -7   8  -1 519.017 340.921   5
  -7   8  -1 778.336 284.585   4
  -7   8   0 6981.96 718.146   5
  -7   8   1 4331.04 577.243   5
  -7   8   2 6275.69 653.660   5
  -7   8   3 5617.37 606.127   5
  -7   8   4 5715.76 618.075   5
  -7   8   5 6952.95 654.537   5
  -7   8   6 12434.5 860.457   5
  -7   8   6 14277.5 1009.59   9
  -7   8   7 3310.28 584.268   9
  -7   8   7 2805.71 465.581   5
  -7   8   8 10643.4 739.381   5
  -7   7  -8 1569.98 481.308   4
  -7   7  -7 2237.56 460.450   4
  -7   7  -6 2316.71 478.960   4
  -7   7  -5 5667.56 630.518   4
  -7   7  -4 9556.02 764.950   4
  -7   7  -3 13783.3 965.936   5
  -7   7  -3 15207.2 903.437   4
  -7   7  -2 7213.81 710.939   5
  -7   7  -2 8837.51 657.226   4
  -7   7  -1 25482.1 1354.66   5
  -7   7  -1 30972.7 1215.63   4
  -7   7   0 486.239 307.825   5
  -7   7   0 690.865 303.261   4
  -7   7   1 27991.7 1359.13   5
  -7   7   2 5146.60 573.979   9
  -7   7   2 4576.73 559.196   5
  -7   7   3 18541.2 1064.43   5
  -7   7   3 21313.0 1161.64   9
  -7   7   4 6719.13 637.148   5
  -7   7   4 7147.00 690.322   9
  -7   7   5 7582.85 653.411   5
  -7   7   5 7650.35 743.441   9
  -7   7   6 1597.63 431.404   9
  -7   7   6 1118.96 317.387   5
  -7   7   7 2064.29 469.085   9
  -7   7   7 1634.82 366.471   5
  -7   7   8 680.610 438.877   9
  -7   7   8 1611.29 364.729   5
  -7   6  -9 527.729 373.027   4
  -7   6  -8 1071.02 436.079   4
  -7   6  -7 712.104 420.139   4
  -7   6  -6 1906.35 466.578   4
  -7   6  -5 4767.83 574.062   4
  -7   6  -4 3594.63 525.148   4
  -7   6  -3 10770.3 785.812   4
  -7   6  -2 11438.8 856.812   5
  -7   6  -2 12072.2 783.738   4
  -7   6  -1 13212.1 896.322   5
  -7   6  -1 13202.2 771.973   4
  -7   6   0 44402.5 1774.55   5
  -7   6   0 44971.6 1519.96   4
  -7   6   1 6341.28 578.191   9
  -7   6   1 5180.23 595.778   5
  -7   6   1 6321.08 468.585   4
  -7   6   2 28763.1 1325.86   5
  -7   6   2 31356.6 1344.12   9
  -7   6   2 28728.5 1001.71   4
  -7   6   3 3129.54 480.497   9
  -7   6   3 2749.51 431.440   5
  -7   6   4 7498.76 659.995   5
  -7   6   4 8698.76 726.288   9
  -7   6   5 5630.01 554.246   5
  -7   6   5 6119.27 674.494   9
  -7   6   6 3234.54 532.534   9
  -7   6   6 2476.92 397.074   5
  -7   6   7 545.810 384.387   9
  -7   6   7 71.7482 226.330   5
  -7   6   8 553.636 382.145   9
  -7   6   8 452.440 255.312   5
  -7   6   9 1595.96 450.671   9
  -7   6  10 844.904 435.685   9
  -7   5 -10 4157.32 629.471   4
  -7   5  -9 6552.68 749.529   4
  -7   5  -8 3182.59 584.005   4
  -7   5  -7 6471.13 706.046   4
  -7   5  -6 2560.02 519.539   4
  -7   5  -5 2588.01 509.049   4
  -7   5  -4 8399.06 723.333   4
  -7   5  -3 4404.58 532.637   4
  -7   5  -2 8377.01 652.816   4
  -7   5  -1 15777.9 755.834   9
  -7   5  -1 15295.6 933.855   5
  -7   5  -1 14661.7 826.759   4
  -7   5   0 20367.5 915.573   9
  -7   5   0 19040.9 1031.41   5
  -7   5   0 17084.3 862.924   4
  -7   5   1 17412.3 892.333   9
  -7   5   1 16092.1 941.563   5
  -7   5   1 16753.4 777.759   4
  -7   5   2 16219.7 920.658   5
  -7   5   2 15930.8 899.955   9
  -7   5   2 16186.8 703.955   4
  -7   5   3 6360.08 569.452   5
  -7   5   3 5978.43 590.329   9
  -7   5   3 5385.35 351.025   4
  -7   5   4 6601.86 568.477   5
  -7   5   4 7306.83 663.026   9
  -7   5   5 7607.77 602.487   5
  -7   5   5 7865.50 726.510   9
  -7   5   6 4190.73 594.282   9
  -7   5   6 4194.32 444.454   5
  -7   5   7 4311.90 603.113   9
  -7   5   7 3515.72 415.653   5
  -7   5   8 5631.02 680.942   9
  -7   5   8 4558.07 451.365   5
  -7   5   9 5026.86 657.964   9
  -7   5  10 5041.02 664.367   9
  -7   5  11 4331.31 641.365   9
  -7   4 -10 877.074 408.453   4
  -7   4  -9 14024.7 1055.26   4
  -7   4  -8 8135.89 815.376   4
  -7   4  -7 21117.7 1243.44   4
  -7   4  -6 8136.50 782.745   4
  -7   4  -5 1206.39 400.015   4
  -7   4  -4 15682.6 969.675   4
  -7   4  -3 9856.71 737.412   4
  -7   4  -2 31644.3 1048.24   9
  -7   4  -2 33666.0 1362.80   4
  -7   4  -1 4794.75 396.768   9
  -7   4  -1 4717.59 501.027   4
  -7   4   0 6305.55 479.941   9
  -7   4   0 6617.91 597.484   5
  -7   4   0 6639.14 537.390   4
  -7   4   1 18916.6 880.728   9
  -7   4   1 17392.0 933.066   5
  -7   4   1 16743.7 797.704   4
  -7   4   2 10205.5 702.195   5
  -7   4   2 10639.8 683.371   9
  -7   4   2 10706.5 578.710   4
  -7   4   3 9555.94 653.298   5
  -7   4   3 8680.96 662.674   9
  -7   4   3 8625.81 470.824   4
  -7   4   4 34339.4 1315.99   5
  -7   4   4 35980.1 1471.09   9
  -7   4   4 33323.8 992.847   4
  -7   4   5 6866.34 546.346   5
  -7   4   5 7472.61 676.782   9
  -7   4   6 5684.63 485.347   5
  -7   4   6 5714.87 646.200   9
  -7   4   7 16601.7 806.266   5
  -7   4   7 16174.8 1044.44   9
  -7   4   8 4671.81 428.611   5
  -7   4   8 5137.55 656.923   9
  -7   4   9 33347.0 1633.74   9
  -7   4  10 4474.03 655.666   9
  -7   4  11 4939.17 670.598   9
  -7   4  12 3183.38 591.281   9
  -7   3 -10 26992.3 1492.14   4
  -7   3  -9 4256.08 648.215   4
  -7   3  -8 37605.7 1765.64   4
  -7   3  -7 28085.4 1457.79   4
  -7   3  -6 5863.18 701.747   4
  -7   3  -5 15164.7 1010.11   4
  -7   3  -4 8010.44 714.111   4
  -7   3  -3 3532.26 466.477   4
  -7   3  -2 1175.63 192.153   9
  -7   3  -2 1680.41 381.092   4
  -7   3  -1 5940.95 405.473   9
  -7   3  -1 5083.79 503.829   4
  -7   3   0 40949.4 1333.88   9
  -7   3   0 37517.5 1401.92   4
  -7   3   1 539.152 250.043   9
  -7   3   1 269.610 246.923   4
  -7   3   2 38609.0 1414.27   5
  -7   3   2 39527.8 1421.18   9
  -7   3   2 37727.1 1281.79   4
  -7   3   3 6474.82 505.528   5
  -7   3   3 6200.79 543.416   9
  -7   3   3 4779.43 371.931   4
  -7   3   4 2113.01 390.844   9
  -7   3   4 1905.56 302.738   5
  -7   3   4 1841.88 232.548   4
  -7   3   5 2520.50 448.412   9
  -7   3   5 2130.07 303.858   5
  -7   3   5 2307.96 206.050   4
  -7   3   6 11045.8 612.467   5
  -7   3   6 9976.61 792.463   9
  -7   3   7 18356.3 784.034   5
  -7   3   7 16666.5 1046.50   9
  -7   3   8 6710.11 447.962   5
  -7   3   8 5907.20 680.513   9
  -7   3   9 17765.8 1159.66   9
  -7   3  10 36149.0 1706.72   9
  -7   3  11 1218.20 441.139   9
  -7   3  12 25119.5 1411.62   9
  -7   2 -10 1213.32 463.217   4
  -7   2  -9 11028.1 951.567   4
  -7   2  -8 3592.93 607.862   4
  -7   2  -7 8434.23 823.902   4
  -7   2  -6 3823.28 585.420   4
  -7   2  -5 51942.2 2012.95   4
  -7   2  -4 5328.09 610.641   4
  -7   2  -3 49997.6 1840.17   4
  -7   2  -2 47078.0 1312.76   9
  -7   2  -2 48111.0 1746.34   4
  -7   2  -1 14992.2 640.746   9
  -7   2  -1 13281.6 825.971   4
  -7   2   0 24897.8 951.136   9
  -7   2   0 23584.6 1073.66   4
  -7   2   1 131904. 3368.56   9
  -7   2   1 127985. 3402.68   4
  -7   2   2 3340.21 414.400   9
  -7   2   2 3674.39 413.824   4
  -7   2   3 34525.7 1348.14   9
  -7   2   3 33999.0 1159.50   4
  -7   2   4 58372.6 1730.72   5
  -7   2   4 57591.9 1926.57   9
  -7   2   4 55302.0 1600.86   4
  -7   2   5 8237.51 509.634   5
  -7   2   5 7729.15 676.336   9
  -7   2   5 7728.50 419.680   4
  -7   2   6 47133.2 1407.02   5
  -7   2   6 46861.3 1759.31   9
  -7   2   6 44064.5 1209.54   4
  -7   2   7 37712.1 1182.82   5
  -7   2   7 38318.4 1631.64   9
  -7   2   8 6326.27 667.970   9
  -7   2   9 17271.1 1097.41   9
  -7   2  10 3625.15 591.911   9
  -7   2  11 4812.54 665.132   9
  -7   2  12 3086.51 580.598   9
  -7   2  13 690.951 419.427   9
  -7   1 -10 7314.05 796.494   4
  -7   1  -9 928.056 451.267   4
  -7   1  -8 1594.30 468.042   4
  -7   1  -7 7354.51 765.328   4
  -7   1  -6 1794.94 472.343   4
  -7   1  -5 2201.66 461.291   4
  -7   1  -4 9017.68 773.696   4
  -7   1  -3 16324.8 980.126   4
  -7   1  -2 13687.3 542.754   9
  -7   1  -2 15142.1 904.045   4
  -7   1  -1 15301.2 646.306   9
  -7   1   0 17865.4 755.255   9
  -7   1   0 17188.9 943.115   8
  -7   1   1 10072.3 588.845   9
  -7   1   1 10414.9 723.968   8
  -7   1   2 22356.2 971.588   9
  -7   1   3 6874.84 553.298   9
  -7   1   4 29242.7 1236.63   9
  -7   1   5 3057.07 437.058   9
  -7   1   6 13924.8 883.248   9
  -7   1   7 1044.66 375.303   9
  -7   1   8 125.176 334.081   9
  -7   1   9 3357.93 539.382   9
  -7   1  10 3920.37 594.331   9
  -7   1  11 1482.80 457.853   9
  -7   1  12 2295.75 516.324   9
  -7   1  13 11885.1 946.666   9
  -7   0 -10 71.5275 372.117   4
  -7   0  -9 610.365 415.395   4
  -7   0  -8 1407.92 433.858   4
  -7   0  -7 465.688 361.936   4
  -7   0  -6 2243.97 492.251   4
  -7   0  -5 805.373 334.625   8
  -7   0  -5 1553.34 453.994   4
  -7   0  -4 5563.46 557.847   8
  -7   0  -4 5195.43 611.477   4
  -7   0  -3 12340.7 818.418   8
  -7   0  -2 42232.1 1225.94   9
  -7   0  -2 45054.5 1668.38   8
  -7   0  -1 11450.1 558.845   9
  -7   0  -1 10661.7 759.992   8
  -7   0   0 5433.42 416.283   9
  -7   0   0 6242.08 593.277   8
  -7   0   1 18208.0 831.376   9
  -7   0   1 17780.6 961.032   8
  -7   0   2 24101.6 1021.29   9
  -7   0   2 24354.8 1124.89   8
  -7   0   3 465.416 268.710   9
  -7   0   3 1213.58 339.505   8
  -7   0   4 10799.4 713.276   9
  -7   0   4 10596.4 697.526   8
  -7   0   5 23596.5 1119.49   9
  -7   0   5 22279.2 1018.20   8
  -7   0   6 28217.7 1300.54   9
  -7   0   6 29192.3 1148.66   8
  -7   0   7 2412.44 433.620   9
  -7   0   8 636.927 349.149   9
  -7   0   9 2461.99 492.557   9
  -7   0  10 66.9604 311.873   9
  -7   0  11 69.1656 316.408   9
  -7   0  12 0.99340 326.986   9
  -7   0  13 407.815 389.593   9
  -7   0  14 4821.37 647.341   9
  -7  -1 -10 4208.76 645.193   4
  -7  -1  -9 1419.25 485.489   4
  -7  -1  -8 3751.30 581.103   4
  -7  -1  -7 716.347 398.698   4
  -7  -1  -6 1812.93 374.818   8
  -7  -1  -6 2570.04 518.614   4
  -7  -1  -5 5241.91 576.247   8
  -7  -1  -5 5721.50 654.658   4
  -7  -1  -4 11305.2 794.184   8
  -7  -1  -3 10656.8 459.019   9
  -7  -1  -3 10250.3 754.732   8
  -7  -1  -2 5559.78 362.702   9
  -7  -1  -2 6260.40 601.329   8
  -7  -1  -1 16770.9 724.400   9
  -7  -1  -1 18176.6 984.104   8
  -7  -1   0 1244.50 265.897   9
  -7  -1   0 1182.98 398.044   8
  -7  -1   1 69063.3 2042.32   9
  -7  -1   1 72014.1 2257.66   8
  -7  -1   2 5765.43 504.676   9
  -7  -1   2 5124.83 556.478   8
  -7  -1   3 49293.6 1676.04   9
  -7  -1   3 48251.5 1682.82   8
  -7  -1   4 5686.71 540.210   9
  -7  -1   4 5101.10 506.708   8
  -7  -1   5 10704.6 740.373   9
  -7  -1   5 10054.9 669.467   8
  -7  -1   6 6100.31 613.541   9
  -7  -1   6 5779.64 503.665   8
  -7  -1   7 15450.2 949.603   9
  -7  -1   7 13783.8 740.635   8
  -7  -1   8 3922.60 556.628   9
  -7  -1   8 3862.20 394.318   8
  -7  -1   9 3689.23 537.145   9
  -7  -1  10 429.765 326.867   9
  -7  -1  11 3683.41 573.880   9
  -7  -1  12 1879.49 495.547   9
  -7  -1  13 4382.64 618.532   9
  -7  -1  14 1279.30 449.302   9
  -7  -2 -10 4595.33 651.669   4
  -7  -2  -9 2357.55 510.177   4
  -7  -2  -8 16596.5 908.467   8
  -7  -2  -8 13782.6 1040.12   4
  -7  -2  -7 2532.19 446.530   8
  -7  -2  -7 2855.42 557.521   4
  -7  -2  -6 11804.0 811.637   8
  -7  -2  -6 11788.2 928.527   4
  -7  -2  -5 8482.89 702.007   8
  -7  -2  -4 8628.08 702.769   8
  -7  -2  -3 3972.37 517.034   8
  -7  -2  -2 951.420 349.366   8
  -7  -2  -1 7108.36 628.400   8
  -7  -2   0 15727.4 755.905   9
  -7  -2   0 15826.5 924.454   8
  -7  -2   1 1392.43 301.112   9
  -7  -2   1 1702.24 398.262   8
  -7  -2   2 20353.2 944.049   9
  -7  -2   2 20303.6 1038.48   8
  -7  -2   3 4329.34 461.295   9
  -7  -2   3 3565.34 468.015   8
  -7  -2   4 8960.25 668.353   9
  -7  -2   4 10076.1 690.769   8
  -7  -2   5 10611.4 735.082   9
  -7  -2   5 10401.4 687.661   8
  -7  -2   6 631.656 316.707   9
  -7  -2   6 328.420 236.766   8
  -7  -2   7 4537.01 553.939   9
  -7  -2   7 5067.57 465.443   8
  -7  -2   8 7314.61 695.158   9
  -7  -2   8 7997.67 548.854   8
  -7  -2   9 14104.0 964.382   9
  -7  -2   9 13541.9 685.823   8
  -7  -2  10 10133.0 855.414   9
  -7  -2  11 1583.07 451.444   9
  -7  -2  12 12825.6 975.794   9
  -7  -2  13 959.620 399.170   9
  -7  -2  14 2777.34 532.469   9
  -7  -3 -10 252.162 383.235   4
  -7  -3  -9 8252.17 809.643   4
  -7  -3  -8 1552.40 482.248   4
  -7  -3  -7 11544.3 791.859   8
  -7  -3  -7 9714.07 882.052   4
  -7  -3  -6 822.201 352.089   8
  -7  -3  -5 17754.3 1025.31   8
  -7  -3  -4 1447.95 388.746   8
  -7  -3  -3 6236.58 623.653   8
  -7  -3  -2 6609.67 627.644   8
  -7  -3  -1 10367.0 767.025   8
  -7  -3   0 5844.91 592.477   8
  -7  -3   1 5913.73 596.121   8
  -7  -3   2 400.378 297.830   8
  -7  -3   3 1874.31 387.526   8
  -7  -3   4 13253.9 825.738   9
  -7  -3   4 14014.3 837.906   8
  -7  -3   5 1030.49 343.031   9
  -7  -3   5 1017.89 338.499   8
  -7  -3   6 13183.0 880.690   9
  -7  -3   6 13075.7 787.504   8
  -7  -3   7 395.072 303.650   9
  -7  -3   7 692.691 274.356   8
  -7  -3   8 4469.84 557.787   9
  -7  -3   8 4529.54 449.276   8
  -7  -3   9 8192.51 755.354   9
  -7  -3   9 9403.31 591.872   8
  -7  -3  10 10789.6 892.678   9
  -7  -3  11 5916.55 703.339   9
  -7  -3  12 3671.43 568.543   9
  -7  -3  13 3303.62 585.273   9
  -7  -3  14 2756.28 524.606   9
  -7  -4  -9 1350.28 453.412   4
  -7  -4  -8 5430.73 674.881   4
  -7  -4  -7 2934.01 467.124   8
  -7  -4  -7 4401.62 641.151   4
  -7  -4  -6 9664.03 758.403   8
  -7  -4  -5 3850.53 524.916   8
  -7  -4  -4 8324.24 711.204   8
  -7  -4  -3 1381.02 387.455   8
  -7  -4  -2 5439.12 605.785   8
  -7  -4  -1 5706.63 592.694   8
  -7  -4   0 12908.0 875.304   8
  -7  -4   1 6851.68 652.739   8
  -7  -4   2 3347.44 476.449   8
  -7  -4   3 4630.67 539.606   8
  -7  -4   4 5927.98 591.358   8
  -7  -4   5 13164.0 821.381   8
  -7  -4   6 7572.45 692.545   9
  -7  -4   6 7850.09 630.900   8
  -7  -4   7 5935.82 652.004   9
  -7  -4   7 7189.30 585.704   8
  -7  -4   8 1646.79 413.622   9
  -7  -4   8 1752.24 367.164   8
  -7  -4   9 10134.0 842.114   9
  -7  -4   9 9754.35 637.583   8
  -7  -4  10 3415.07 567.690   9
  -7  -4  10 2979.79 372.165   8
  -7  -4  11 8507.79 809.653   9
  -7  -4  12 5556.61 687.029   9
  -7  -4  13 3109.29 534.162   9
  -7  -4  14 538.721 343.493   9
  -7  -5  -8 3157.72 558.818   4
  -7  -5  -7 2011.77 414.656   8
  -7  -5  -6 2042.70 447.212   8
  -7  -5  -5 1757.73 422.123   8
  -7  -5  -4 7494.00 698.561   8
  -7  -5  -3 2632.86 491.909   8
  -7  -5  -2 6845.42 683.105   8
  -7  -5  -1 2756.02 467.632   8
  -7  -5   0 11192.8 837.358   8
  -7  -5   1 1356.55 396.501   8
  -7  -5   2 6983.14 674.567   8
  -7  -5   3 1751.97 432.100   8
  -7  -5   4 4865.57 561.326   8
  -7  -5   5 3123.31 466.122   8
  -7  -5   6 9416.58 717.412   8
  -7  -5   7 1367.99 409.984   9
  -7  -5   7 1255.13 342.685   8
  -7  -5   8 2314.70 475.865   9
  -7  -5   8 2875.00 412.654   8
  -7  -5   9 2629.70 531.939   9
  -7  -5   9 4169.17 458.592   8
  -7  -5  10 5370.91 681.333   9
  -7  -5  10 6397.78 522.579   8
  -7  -5  11 1202.98 457.585   9
  -7  -5  12 2067.32 481.540   9
  -7  -5  13 680.398 401.691   9
  -7  -6  -6 1958.84 430.905   8
  -7  -6  -5 1944.21 449.946   8
  -7  -6  -4 1880.32 426.498   8
  -7  -6  -3 2811.02 513.422   8
  -7  -6  -2 4391.32 594.860   8
  -7  -6  -1 7374.38 720.109   8
  -7  -6   0 6530.33 704.481   8
  -7  -6   1 19409.1 1140.27   8
  -7  -6   2 3893.98 560.798   8
  -7  -6   3 15056.2 981.774   8
  -7  -6   4 6067.10 655.714   8
  -7  -6   5 15376.5 964.256   8
  -7  -6   6 5936.78 622.579   8
  -7  -6   7 5318.47 567.178   8
  -7  -6   8 2785.59 431.188   8
  -7  -6   9 1468.07 478.680   9
  -7  -6   9 1944.24 376.537   8
  -7  -6  10 1092.65 413.173   9
  -7  -6  10 2583.70 381.614   8
  -7  -6  11 1905.56 475.095   9
  -7  -6  12 1365.68 434.263   9
  -7  -6  13 1206.57 429.596   9
  -7  -7  -6 4708.14 579.771   8
  -7  -7  -5 2070.64 432.710   8
  -7  -7  -4 4462.18 586.196   8
  -7  -7  -3 4714.28 627.408   8
  -7  -7  -2 4032.07 581.827   8
  -7  -7  -1 6532.79 723.204   8
  -7  -7   0 7844.40 753.673   8
  -7  -7   1 7618.14 757.663   8
  -7  -7   2 7171.00 728.734   8
  -7  -7   3 1107.51 427.708   8
  -7  -7   4 10201.2 853.593   8
  -7  -7   5 1573.54 429.347   8
  -7  -7   6 9543.40 789.499   8
  -7  -7   7 1493.33 416.934   8
  -7  -7   8 7609.48 676.499   8
  -7  -7   9 5170.79 548.440   8
  -7  -7  10 526.749 367.754   9
  -7  -7  10 311.175 299.651   8
  -7  -7  11 4690.15 647.650   9
  -7  -7  12 4088.84 590.004   9
  -7  -8  -5 2442.10 476.340   8
  -7  -8  -4 1935.59 475.293   8
  -7  -8  -3 7506.77 764.744   8
  -7  -8  -2 8910.92 815.724   8
  -7  -8  -1 10771.8 898.269   8
  -7  -8   0 1536.21 471.711   8
  -7  -8   1 5563.45 690.869   8
  -7  -8   2 1204.21 413.816   8
  -7  -8   3 239.567 330.406   8
  -7  -8   4-230.111 371.722   8
  -7  -8   5 1803.40 465.701   8
  -7  -8   6 5420.40 646.787   8
  -7  -8   7 2007.41 454.418   8
  -7  -8   8 11134.9 842.528   8
  -7  -8   9 8929.05 731.878   8
  -7  -8  10 5936.94 714.736   9
  -7  -8  10 5893.45 574.702   8
  -7  -8  11 1599.78 473.722   9
  -7  -9  -3 1928.64 485.740   8
  -7  -9  -2 5700.89 675.940   8
  -7  -9  -1 5448.18 685.333   8
  -7  -9   0 4417.35 647.966   8
  -7  -9   1 1165.16 460.908   8
  -7  -9   2 1296.14 465.580   8
  -7  -9   3 1847.55 496.589   8
  -7  -9   4 579.500 372.364   8
  -7  -9   5 1264.86 433.828   8
  -7  -9   6 392.427 370.344   8
  -7  -9   7 6597.92 708.872   8
  -7  -9   8 2484.36 486.981   8
  -7  -9   9 7279.93 686.026   8
  -7  -9  10 572.993 332.506   8
  -7 -10   2 981.720 433.454   8
  -7 -10   3 643.687 423.721   8
  -7 -10   4 565.007 423.300   8
  -7 -10   5 1532.91 454.178   8
  -7 -10   6 2359.02 519.642   8
  -7 -10   7 908.888 432.251   8
  -7 -10   8 8761.32 782.256   8
  -7 -10   9 1266.63 420.394   8
  -8   9  -5 19593.5 1108.78   4
  -8   9  -4 29740.9 1352.35   4
  -8   9  -3 929.235 365.003   4
  -8   9  -2 10874.2 897.230   5
  -8   9  -1 24278.8 1339.98   5
  -8   9   0 2436.86 486.990   5
  -8   9   1 8192.73 779.252   5
  -8   9   2 22544.6 1262.21   5
  -8   9   3 13481.9 950.481   5
  -8   9   4 9906.76 810.167   5
  -8   8  -6 2183.09 476.906   4
  -8   8  -5 2792.42 489.267   4
  -8   8  -4 4756.92 570.256   4
  -8   8  -3 1367.49 371.986   4
  -8   8  -2 3822.25 561.504   5
  -8   8  -2 3634.82 462.759   4
  -8   8  -1 660.245 369.471   5
  -8   8   0 3825.49 565.638   5
  -8   8   1 1113.50 413.581   5
  -8   8   2 5665.23 637.384   5
  -8   8   3 1980.76 423.348   5
  -8   8   4 5116.33 599.359   5
  -8   8   5 3622.46 562.093   9
  -8   8   5 2936.01 474.753   5
  -8   8   6 2513.12 518.637   9
  -8   8   6 2187.45 416.447   5
  -8   8   7 2962.88 448.528   5
  -8   7  -7 7595.21 760.432   4
  -8   7  -6 4071.81 590.709   4
  -8   7  -5 6136.53 661.305   4
  -8   7  -4 3733.47 535.016   4
  -8   7  -3 9330.25 733.744   4
  -8   7  -2 3028.24 441.756   4
  -8   7  -1 6852.55 714.411   5
  -8   7  -1 6289.18 547.008   4
  -8   7   0 1307.42 393.001   5
  -8   7   0 869.289 278.664   4
  -8   7   1 3563.61 533.705   5
  -8   7   2 5978.21 593.299   9
  -8   7   2 7202.46 688.893   5
  -8   7   3 4024.39 530.329   9
  -8   7   3 3849.47 520.816   5
  -8   7   4 3051.28 502.802   9
  -8   7   4 3096.14 487.003   5
  -8   7   5 6427.84 694.409   9
  -8   7   5 4972.54 559.357   5
  -8   7   6 3472.70 556.704   9
  -8   7   6 1842.91 404.583   5
  -8   7   7 2058.20 515.647   9
  -8   7   7 1807.45 371.158   5
  -8   6  -8 4438.98 631.995   4
  -8   6  -7 1808.71 475.475   4
  -8   6  -6 5725.01 664.633   4
  -8   6  -5 1204.38 446.370   4
  -8   6  -4 2699.40 480.269   4
  -8   6  -3 11989.8 830.735   4
  -8   6  -2 2511.46 429.716   4
  -8   6  -1 23995.5 1103.50   4
  -8   6   0 38822.1 1404.47   9
  -8   6   0 35653.4 1600.34   5
  -8   6   0 36350.7 1375.20   4
  -8   6   1 35674.4 1420.98   9
  -8   6   1 36257.4 1567.10   5
  -8   6   1 34974.0 1258.11   4
  -8   6   2 21815.5 1095.55   9
  -8   6   2 19498.3 1092.98   5
  -8   6   3 2726.57 449.116   9
  -8   6   3 1973.19 401.409   5
  -8   6   4 9219.52 720.922   5
  -8   6   4 11181.4 844.406   9
  -8   6   5 2266.50 482.427   9
  -8   6   5 2871.43 438.755   5
  -8   6   6 249.385 343.632   9
  -8   6   6 463.894 274.272   5
  -8   6   7 4970.12 630.852   9
  -8   6   7 4520.47 477.689   5
  -8   6   8 1555.28 476.548   9
  -8   6   9 4542.90 669.505   9
  -8   5  -8 1922.51 479.037   4
  -8   5  -7 1648.05 468.697   4
  -8   5  -6 2763.09 507.569   4
  -8   5  -5 3022.42 527.999   4
  -8   5  -4 5563.90 615.675   4
  -8   5  -3 3142.05 482.339   4
  -8   5  -2 13395.0 864.817   4
  -8   5  -1 9965.96 586.716   9
  -8   5  -1 8594.03 662.690   4
  -8   5   0 26427.7 1081.33   9
  -8   5   0 25345.0 1118.48   4
  -8   5   1 6272.50 551.293   9
  -8   5   1 6297.31 635.922   5
  -8   5   1 6176.01 506.072   4
  -8   5   2 26768.5 1204.21   9
  -8   5   2 25048.4 1211.58   5
  -8   5   2 25443.8 981.409   4
  -8   5   3 4223.12 513.642   9
  -8   5   3 3566.20 469.126   5
  -8   5   4 8594.91 665.817   5
  -8   5   4 8354.94 712.846   9
  -8   5   5 5227.66 522.263   5
  -8   5   5 5477.61 616.829   9
  -8   5   6 151.378 294.223   9
  -8   5   6 27.7007 210.458   5
  -8   5   7 5646.86 507.505   5
  -8   5   7 6054.71 682.514   9
  -8   5   8 1395.52 445.131   9
  -8   5   9 1006.07 420.942   9
  -8   5  10 2937.35 554.361   9
  -8   4  -9 5257.18 690.197   4
  -8   4  -8 863.563 428.404   4
  -8   4  -7 7214.11 767.737   4
  -8   4  -6 662.500 389.468   4
  -8   4  -5 4634.38 605.510   4
  -8   4  -4 3805.08 559.764   4
  -8   4  -3 5259.16 609.603   4
  -8   4  -2 16789.7 976.963   4
  -8   4  -1 20008.1 830.193   9
  -8   4  -1 18536.4 998.311   4
  -8   4   0 3140.98 365.815   9
  -8   4   0 2568.84 385.827   4
  -8   4   1 8909.91 601.809   9
  -8   4   1 9125.03 607.854   4
  -8   4   2 6174.84 549.008   9
  -8   4   2 5659.60 556.965   5
  -8   4   2 6218.58 470.900   4
  -8   4   3 18540.9 966.986   5
  -8   4   3 20181.5 1035.28   9
  -8   4   3 19153.0 781.794   4
  -8   4   4 17345.0 904.510   5
  -8   4   4 17100.5 984.668   9
  -8   4   5 5412.35 481.980   5
  -8   4   5 5007.33 593.902   9
  -8   4   6 3294.02 521.455   9
  -8   4   6 3900.96 409.683   5
  -8   4   7 5490.01 460.096   5
  -8   4   7 4600.03 615.364   9
  -8   4   8 959.398 435.001   9
  -8   4   9 7153.37 755.990   9
  -8   4  10 491.557 410.831   9
  -8   4  11 4261.79 639.478   9
  -8   3  -9 3164.43 615.078   4
  -8   3  -8 8804.91 870.985   4
  -8   3  -7 1801.56 486.308   4
  -8   3  -6 15173.7 1060.07   4
  -8   3  -5 2191.73 494.144   4
  -8   3  -4 7182.40 721.159   4
  -8   3  -3 9134.10 788.854   4
  -8   3  -2 9268.51 739.910   4
  -8   3  -1 9166.06 508.866   9
  -8   3  -1 8154.58 674.933   4
  -8   3   0 1856.95 298.888   9
  -8   3   0 1401.96 329.159   4
  -8   3   1 435.509 232.607   9
  -8   3   1 124.849 245.670   4
  -8   3   2 2536.32 394.892   9
  -8   3   2 2443.13 343.088   4
  -8   3   3 9238.66 676.500   9
  -8   3   3 8597.54 528.160   4
  -8   3   4 5749.99 496.937   5
  -8   3   4 6604.02 622.255   9
  -8   3   4 6270.08 422.365   4
  -8   3   5 21972.3 952.946   5
  -8   3   5 20623.1 1133.96   9
  -8   3   6 1236.65 404.136   9
  -8   3   6 1879.62 300.203   5
  -8   3   7 9726.48 568.964   5
  -8   3   7 10097.0 837.223   9
  -8   3   8 8369.17 794.422   9
  -8   3   9 4572.05 650.398   9
  -8   3  10 6914.76 769.426   9
  -8   3  11 741.586 428.814   9
  -8   2  -9 5674.11 749.036   4
  -8   2  -8 1832.36 528.639   4
  -8   2  -7 12413.5 999.870   4
  -8   2  -6 1436.16 465.865   4
  -8   2  -5 10011.5 863.031   4
  -8   2  -4 2615.80 521.267   4
  -8   2  -3 12381.7 886.077   4
  -8   2  -2 5094.31 567.734   4
  -8   2  -1 4121.19 344.309   9
  -8   2  -1 3689.79 498.338   4
  -8   2   0 2172.85 297.336   9
  -8   2   0 2228.26 411.390   4
  -8   2   1 4602.63 435.902   9
  -8   2   1 4864.34 492.707   4
  -8   2   2 3870.65 420.825   9
  -8   2   2 4661.17 466.396   4
  -8   2   3 2806.32 399.208   9
  -8   2   3 3013.51 371.527   4
  -8   2   4 7226.98 611.655   9
  -8   2   4 7016.21 475.658   4
  -8   2   5 4501.52 545.053   9
  -8   2   5 4488.95 356.438   4
  -8   2   6 12080.6 848.655   9
  -8   2   7 988.792 406.495   9
  -8   2   8 10914.8 876.909   9
  -8   2   9 863.744 439.854   9
  -8   2  10 9809.29 871.429   9
  -8   2  11 4792.84 655.320   9
  -8   2  12 5887.00 708.711   9
  -8   1  -9 4175.86 671.697   4
  -8   1  -8 1052.27 471.973   4
  -8   1  -7 6738.32 782.049   4
  -8   1  -6 4179.86 623.481   4
  -8   1  -5 1556.65 455.612   4
  -8   1  -4 16920.5 1070.34   4
  -8   1  -3 8068.43 742.532   4
  -8   1  -2 16128.0 985.283   4
  -8   1  -1 15928.4 682.111   9
  -8   1  -1 16623.0 965.567   4
  -8   1   0 5494.01 427.275   9
  -8   1   1 9448.22 599.180   9
  -8   1   2 5930.74 500.483   9
  -8   1   3 3316.60 428.216   9
  -8   1   4 17642.8 952.788   9
  -8   1   5 15195.6 926.835   9
  -8   1   6 6027.43 625.687   9
  -8   1   7 15445.2 974.987   9
  -8   1   8 1015.20 404.269   9
  -8   1   9 5918.33 691.584   9
  -8   1  10 2193.12 501.123   9
  -8   1  11 3257.47 572.112   9
  -8   1  12 1342.12 453.264   9
  -8   0  -9 6056.75 744.160   4
  -8   0  -8 893.960 412.493   4
  -8   0  -7 553.230 415.851   4
  -8   0  -6 1930.63 526.857   4
  -8   0  -5 895.445 415.075   4
  -8   0  -4 8033.53 710.559   8
  -8   0  -4 7470.13 751.155   4
  -8   0  -3 5942.72 626.535   8
  -8   0  -3 5969.95 657.943   4
  -8   0  -2 20142.3 1096.62   8
  -8   0  -1 7809.13 470.736   9
  -8   0  -1 8411.80 720.602   8
  -8   0   0 26485.2 1004.79   9
  -8   0   0 25680.0 1261.41   8
  -8   0   1 5925.64 482.402   9
  -8   0   1 5635.53 599.134   8
  -8   0   2 15745.0 824.790   9
  -8   0   2 13825.3 887.863   8
  -8   0   3 11638.0 738.528   9
  -8   0   3 12242.2 810.839   8
  -8   0   4 19124.4 996.796   9
  -8   0   4 20276.4 1023.63   8
  -8   0   5 9970.83 745.126   9
  -8   0   5 11248.9 753.882   8
  -8   0   6 11955.2 856.157   9
  -8   0   6 12941.0 778.215   8
  -8   0   7 7496.56 690.400   9
  -8   0   8 3907.10 564.696   9
  -8   0   9 2970.24 532.227   9
  -8   0  10 3595.07 588.592   9
  -8   0  11 2036.56 478.156   9
  -8   0  12 238.105 374.526   9
  -8   0  13 8215.55 819.053   9
  -8  -1  -9 411.345 397.568   4
  -8  -1  -8 312.807 416.987   4
  -8  -1  -7 2693.88 558.197   4
  -8  -1  -6 1396.56 383.076   8
  -8  -1  -6 2387.09 528.563   4
  -8  -1  -5 8187.70 718.873   8
  -8  -1  -5 7453.37 775.519   4
  -8  -1  -4 7510.56 700.350   8
  -8  -1  -3 21404.8 1167.35   8
  -8  -1  -2 1438.11 225.608   9
  -8  -1  -2 942.192 348.812   8
  -8  -1  -1 20874.9 842.640   9
  -8  -1  -1 21648.4 1149.90   8
  -8  -1   0 1323.94 266.224   9
  -8  -1   0 1557.92 415.824   8
  -8  -1   1 28137.4 1112.06   9
  -8  -1   1 27602.8 1304.19   8
  -8  -1   2 2097.42 361.631   9
  -8  -1   2 2164.05 448.121   8
  -8  -1   3 26353.6 1167.02   9
  -8  -1   3 26563.4 1231.23   8
  -8  -1   4 2325.01 423.768   9
  -8  -1   4 2796.94 447.159   8
  -8  -1   5 13420.9 867.548   9
  -8  -1   5 14235.5 851.398   8
  -8  -1   6 6141.94 625.414   9
  -8  -1   6 6016.34 555.633   8
  -8  -1   7 22194.8 1183.60   9
  -8  -1   7 22860.2 1038.94   8
  -8  -1   8 857.235 385.832   9
  -8  -1   8 1780.56 322.790   8
  -8  -1   9 11379.0 895.897   9
  -8  -1  10 606.700 412.918   9
  -8  -1  11 1263.08 434.571   9
  -8  -1  12 1836.44 520.216   9
  -8  -1  13 1336.24 445.968   9
  -8  -2  -8 6795.24 763.631   4
  -8  -2  -7 2876.62 478.707   8
  -8  -2  -7 2823.91 566.193   4
  -8  -2  -6 5039.72 584.718   8
  -8  -2  -6 5178.90 695.624   4
  -8  -2  -5 636.549 350.130   8
  -8  -2  -4 3865.26 546.351   8
  -8  -2  -3 2487.76 453.376   8
  -8  -2  -2 2008.77 274.252   9
  -8  -2  -2 2485.56 469.091   8
  -8  -2  -1 4250.02 385.366   9
  -8  -2  -1 4563.69 581.088   8
  -8  -2   0 9866.12 609.616   9
  -8  -2   0 10218.8 795.488   8
  -8  -2   1 16119.1 835.083   9
  -8  -2   1 15949.8 980.043   8
  -8  -2   2 21838.7 1042.60   9
  -8  -2   2 25996.8 1234.81   8
  -8  -2   3 6065.69 579.514   9
  -8  -2   3 5235.48 593.429   8
  -8  -2   4 22918.3 1125.20   9
  -8  -2   4 24747.4 1185.54   8
  -8  -2   5 2708.68 429.685   9
  -8  -2   5 2257.09 415.427   8
  -8  -2   6 4597.29 565.608   9
  -8  -2   6 3754.26 456.894   8
  -8  -2   7 2106.31 460.743   9
  -8  -2   7 2398.96 399.838   8
  -8  -2   8 4796.91 603.091   9
  -8  -2   8 3900.86 442.605   8
  -8  -2   9 1953.02 491.748   9
  -8  -2   9 2490.34 368.604   8
  -8  -2  10 288.775 352.834   9
  -8  -2  11 4336.55 605.232   9
  -8  -2  12 2272.90 532.467   9
  -8  -2  13 6682.73 740.582   9
  -8  -3  -8 720.833 454.013   4
  -8  -3  -7 6930.19 650.661   8
  -8  -3  -7 5490.22 716.036   4
  -8  -3  -6 3085.99 492.782   8
  -8  -3  -6 3423.30 603.411   4
  -8  -3  -5 13221.6 925.398   8
  -8  -3  -4 4036.02 583.180   8
  -8  -3  -3 10350.6 829.095   8
  -8  -3  -2 846.242 375.971   8
  -8  -3  -1 9163.21 769.256   8
  -8  -3   0 3203.55 506.473   8
  -8  -3   1 2267.72 376.141   9
  -8  -3   1 1769.17 424.365   8
  -8  -3   2 9177.37 656.644   9
  -8  -3   2 8499.96 724.971   8
  -8  -3   3 7770.86 642.364   9
  -8  -3   3 9484.72 736.259   8
  -8  -3   4 2828.15 448.718   9
  -8  -3   4 3489.12 484.468   8
  -8  -3   5 3184.89 478.660   9
  -8  -3   5 3076.24 461.089   8
  -8  -3   6 10715.6 820.633   9
  -8  -3   6 10911.6 760.035   8
  -8  -3   7 404.290 317.938   9
  -8  -3   7 85.9461 259.933   8
  -8  -3   8 9429.00 820.503   9
  -8  -3   8 9407.69 657.605   8
  -8  -3   9 2748.97 518.242   9
  -8  -3   9 3798.99 432.776   8
  -8  -3  10 12652.3 979.649   9
  -8  -3  11 1783.74 482.496   9
  -8  -3  12 4445.69 646.295   9
  -8  -3  13-312.239 400.680   9
  -8  -4  -7 3872.08 534.175   8
  -8  -4  -7 3793.77 632.997   4
  -8  -4  -6 8515.07 754.380   8
  -8  -4  -5 9614.13 808.319   8
  -8  -4  -4 9201.28 793.483   8
  -8  -4  -3 5299.55 641.666   8
  -8  -4  -2 9807.01 814.093   8
  -8  -4  -1 830.008 347.771   8
  -8  -4   0 1611.66 433.368   8
  -8  -4   1 725.037 379.235   8
  -8  -4   2 627.504 343.538   8
  -8  -4   3 4158.81 554.672   8
  -8  -4   4 15.5929 264.327   9
  -8  -4   4 6.42626 309.622   8
  -8  -4   5 1255.87 377.671   9
  -8  -4   5 1474.62 377.303   8
  -8  -4   6 413.316 310.209   9
  -8  -4   6 738.406 346.171   8
  -8  -4   7 5580.39 655.197   9
  -8  -4   7 6911.46 609.278   8
  -8  -4   8 3553.25 574.205   9
  -8  -4   8 4649.56 507.441   8
  -8  -4   9 10386.0 887.725   9
  -8  -4   9 11944.2 738.323   8
  -8  -4  10 679.638 412.576   9
  -8  -4  11 17621.7 1163.56   9
  -8  -4  12 512.216 377.078   9
  -8  -4  13 1978.72 483.020   9
  -8  -5  -7 1290.56 502.716   4
  -8  -5  -6 7008.88 681.873   8
  -8  -5  -5 6103.01 655.659   8
  -8  -5  -4 8055.19 755.619   8
  -8  -5  -3 4124.61 592.534   8
  -8  -5  -2 2766.56 543.108   8
  -8  -5  -1 2139.69 469.724   8
  -8  -5   0 2617.63 502.048   8
  -8  -5   1 2042.35 456.623   8
  -8  -5   2 6111.39 662.188   8
  -8  -5   3 501.848 375.736   8
  -8  -5   4 5673.66 638.183   8
  -8  -5   5 1906.15 443.905   8
  -8  -5   6 2619.98 476.283   9
  -8  -5   6 2339.00 453.374   8
  -8  -5   7 2128.88 483.221   9
  -8  -5   7 2576.47 446.951   8
  -8  -5   8 2592.43 529.972   9
  -8  -5   8 2591.31 437.354   8
  -8  -5   9 2906.20 546.756   9
  -8  -5   9 3843.00 468.347   8
  -8  -5  10 5425.94 684.958   9
  -8  -5  10 7978.40 599.927   8
  -8  -5  11 4078.01 608.022   9
  -8  -5  12 6031.74 720.017   9
  -8  -6  -6 225.926 309.563   8
  -8  -6  -5 5546.89 635.528   8
  -8  -6  -4 669.685 369.603   8
  -8  -6  -3 7839.12 756.798   8
  -8  -6  -2 423.305 357.204   8
  -8  -6  -1 2668.11 544.037   8
  -8  -6   0 4711.16 616.307   8
  -8  -6   1 3481.91 553.245   8
  -8  -6   2 3798.46 590.591   8
  -8  -6   3 13906.3 975.619   8
  -8  -6   4 1692.81 463.094   8
  -8  -6   5 7105.86 690.682   8
  -8  -6   6 1870.85 444.266   8
  -8  -6   7 3253.14 489.435   8
  -8  -6   8 1304.96 456.677   9
  -8  -6   8 2055.65 420.265   8
  -8  -6   9 2140.61 495.983   9
  -8  -6   9 3046.32 458.677   8
  -8  -6  10 4309.18 630.892   9
  -8  -6  10 4956.91 522.069   8
  -8  -6  11 1727.81 466.986   9
  -8  -7  -5 1186.94 392.030   8
  -8  -7  -4 2074.62 460.964   8
  -8  -7  -3 1026.32 414.693   8
  -8  -7  -2 3623.06 578.750   8
  -8  -7  -1 5225.70 663.600   8
  -8  -7   0 1019.89 442.458   8
  -8  -7   1 4276.81 643.297   8
  -8  -7   2 3909.51 610.586   8
  -8  -7   3 5121.40 662.717   8
  -8  -7   4 7041.75 752.558   8
  -8  -7   5 1353.29 439.796   8
  -8  -7   6 6236.11 675.478   8
  -8  -7   7 558.922 347.111   8
  -8  -7   8 4953.34 585.472   8
  -8  -7   9 2525.38 518.245   9
  -8  -7   9 2221.76 427.406   8
  -8  -7  10 491.804 374.052   9
  -8  -7  10 220.667 296.663   8
  -8  -8  -3 1473.90 466.485   8
  -8  -8  -2 2327.16 530.697   8
  -8  -8  -1 756.754 449.882   8
  -8  -8   0 6890.35 757.445   8
  -8  -8   1 2531.08 544.342   8
  -8  -8   2 6526.14 739.099   8
  -8  -8   3 4532.34 639.311   8
  -8  -8   4 12219.4 963.691   8
  -8  -8   5 4348.62 610.578   8
  -8  -8   6 959.110 443.801   8
  -8  -8   7 11101.5 874.823   8
  -8  -8   8 1007.93 391.235   8
  -8  -8   9 1736.84 472.520   9
  -8  -8   9 2157.01 434.318   8
  -8  -8  10 336.376 282.265   8
  -8  -9   1 1083.59 434.410   8
  -8  -9   2 540.719 433.460   8
  -8  -9   3 859.698 424.149   8
  -8  -9   4 49.8234 369.771   8
  -8  -9   5 1142.73 441.568   8
  -8  -9   6 1655.78 488.450   8
  -8  -9   7 3550.05 573.923   8
  -8  -9   8 1495.20 431.587   8
  -8  -9   9 5945.77 624.248   8
  -8  -9  10 1118.99 344.246   8
  -9   8  -5 1642.06 430.520   4
  -9   8  -4 8877.43 734.934   4
  -9   8  -3 5323.96 559.416   4
  -9   8   0 489.232 342.951   5
  -9   8   1 2581.92 500.794   5
  -9   8   2 1948.12 435.637   5
  -9   8   3 9724.60 801.868   5
  -9   8   4 147.429 286.808   5
  -9   8   5 10858.9 798.057   5
  -9   8   6 2132.13 389.244   5
  -9   7  -6 2905.65 525.320   4
  -9   7  -5 7362.81 718.852   4
  -9   7  -4 2263.90 447.222   4
  -9   7  -3 8856.60 717.212   4
  -9   7  -2 6725.80 608.404   4
  -9   7  -1 6411.52 551.603   4
  -9   7   1 1463.98 394.303   5
  -9   7   2 6409.92 605.517   9
  -9   7   2 5990.81 634.267   5
  -9   7   3 7192.09 662.822   9
  -9   7   3 6213.76 639.273   5
  -9   7   4 11543.5 874.743   9
  -9   7   4 9979.49 773.190   5
  -9   7   5 3723.25 554.452   9
  -9   7   5 2780.27 461.378   5
  -9   7   6 8921.31 690.297   5
  -9   7   6 10039.0 869.738   9
  -9   6  -6 4129.34 588.819   4
  -9   6  -5 5297.12 643.628   4
  -9   6  -4 608.282 355.420   4
  -9   6  -3 2676.21 457.839   4
  -9   6  -2 3094.86 464.521   4
  -9   6  -1 16670.7 923.379   4
  -9   6   0 3430.78 426.946   4
  -9   6   1 21930.0 1045.93   9
  -9   6   2 8771.66 694.852   9
  -9   6   2 9256.75 762.235   5
  -9   6   3 10780.7 792.536   9
  -9   6   3 10231.1 783.158   5
  -9   6   4 1044.54 383.678   9
  -9   6   4 649.053 324.521   5
  -9   6   5 1183.27 403.310   9
  -9   6   5 1636.87 357.057   5
  -9   6   6 5199.88 648.062   9
  -9   6   6 3977.11 477.761   5
  -9   6   7 628.633 382.669   9
  -9   5  -7 1075.69 416.699   4
  -9   5  -6 2466.51 508.897   4
  -9   5  -5 2664.35 523.766   4
  -9   5  -4 2077.04 458.365   4
  -9   5  -3 4129.69 561.261   4
  -9   5  -2 10755.2 795.113   4
  -9   5  -1 5179.19 544.721   4
  -9   5   0 34115.6 1357.67   4
  -9   5   1 1440.56 366.450   9
  -9   5   1 1099.47 326.291   4
  -9   5   2 31039.1 1329.57   9
  -9   5   3 5229.93 574.085   9
  -9   5   3 5081.15 547.093   5
  -9   5   4 7020.38 674.942   9
  -9   5   4 8954.51 707.695   5
  -9   5   5 3178.60 522.823   9
  -9   5   5 3564.34 457.365   5
  -9   5   6 2279.80 464.560   9
  -9   5   6 1931.02 359.132   5
  -9   5   7 840.837 375.748   9
  -9   5   8 2671.15 531.554   9
  -9   5   9 964.625 430.508   9
  -9   4  -7 4605.86 641.839   4
  -9   4  -6 981.139 430.268   4
  -9   4  -5 2897.09 533.610   4
  -9   4  -4 4824.07 636.009   4
  -9   4  -3 3075.95 514.677   4
  -9   4  -2 4300.60 551.882   4
  -9   4  -1 19512.8 1057.63   4
  -9   4   0 13124.5 705.786   9
  -9   4   0 12379.5 789.388   4
  -9   4   1 23096.3 1014.76   9
  -9   4   1 20582.1 996.389   4
  -9   4   2 1362.12 343.622   9
  -9   4   2 1659.88 332.781   4
  -9   4   3 34148.7 1440.53   9
  -9   4   4 931.627 364.978   9
  -9   4   5 2701.74 475.525   9
  -9   4   5 3050.84 393.238   5
  -9   4   6 3334.25 530.102   9
  -9   4   6 3634.46 415.092   5
  -9   4   7 1673.73 473.881   9
  -9   4   8 695.871 394.617   9
  -9   4   9 3545.06 589.204   9
  -9   3  -7 1072.36 445.365   4
  -9   3  -6 11686.7 950.816   4
  -9   3  -5 1026.04 476.942   4
  -9   3  -4 8622.11 799.156   4
  -9   3  -3 2500.40 491.134   4
  -9   3  -2 1784.76 411.195   4
  -9   3  -1 7791.57 693.117   4
  -9   3   0 5579.94 454.848   9
  -9   3   0 6070.94 588.803   4
  -9   3   1 6204.69 516.051   9
  -9   3   1 6106.15 551.069   4
  -9   3   2 8833.90 650.967   9
  -9   3   2 9324.88 628.924   4
  -9   3   3 1994.06 384.263   9
  -9   3   3 2357.32 343.684   4
  -9   3   4 7588.98 671.385   9
  -9   3   5 1121.82 376.619   9
  -9   3   6 2318.92 474.369   9
  -9   3   7 12037.9 927.288   9
  -9   3   8 850.407 428.968   9
  -9   3   9 10720.7 917.115   9
  -9   3  10 4329.60 629.713   9
  -9   2  -8 4313.52 668.417   4
  -9   2  -7 6620.96 735.967   4
  -9   2  -6 1082.93 443.956   4
  -9   2  -5 17770.8 1173.47   4
  -9   2  -4 1164.11 470.035   4
  -9   2  -3 11761.1 898.887   4
  -9   2  -2 1284.67 395.568   4
  -9   2  -1 3648.60 530.622   4
  -9   2   0 1094.86 261.268   9
  -9   2   0 580.994 312.870   4
  -9   2   1 2721.77 360.959   9
  -9   2   1 2506.77 412.158   4
  -9   2   2 2167.66 379.743   9
  -9   2   2 2655.49 415.678   4
  -9   2   3 2533.55 404.149   9
  -9   2   3 3440.67 404.305   4
  -9   2   4 2611.94 433.054   9
  -9   2   4 2405.15 339.963   4
  -9   2   5 81.0570 291.368   9
  -9   2   6 15541.3 1008.66   9
  -9   2   7 1488.11 416.430   9
  -9   2   8 17415.3 1134.06   9
  -9   2   9 2460.75 518.201   9
  -9   2  10 9581.99 876.737   9
  -9   2  11 2743.00 552.010   9
  -9   1  -8 2651.03 593.402   4
  -9   1  -7 5856.93 745.856   4
  -9   1  -6 3002.56 591.362   4
  -9   1  -5 5847.52 716.325   4
  -9   1  -4 10685.5 920.353   4
  -9   1  -3 6968.51 725.993   4
  -9   1  -2 3720.22 552.483   4
  -9   1  -1 2158.95 477.807   4
  -9   1   0 5548.02 439.655   9
  -9   1   0 5253.79 594.343   4
  -9   1   1 795.444 244.937   9
  -9   1   2 617.281 275.185   9
  -9   1   3 1042.51 313.469   9
  -9   1   4 5732.92 577.771   9
  -9   1   5 2486.37 431.655   9
  -9   1   6 1656.99 418.850   9
  -9   1   7 13189.2 950.039   9
  -9   1   8 4705.87 637.839   9
  -9   1   9 8243.66 783.812   9
  -9   1  10 1443.22 473.539   9
  -9   1  11 7231.79 770.359   9
  -9   0  -7 402.153 414.549   4
  -9   0  -6 2352.69 548.431   4
  -9   0  -5 1563.82 505.052   4
  -9   0  -4 10867.7 924.666   4
  -9   0  -3 3966.11 605.481   4
  -9   0  -2 7806.27 735.697   8
  -9   0  -2 8696.86 806.402   4
  -9   0  -1 6067.04 669.808   8
  -9   0   0 8197.06 533.545   9
  -9   0   0 9553.26 806.033   8
  -9   0   1 7196.87 540.168   9
  -9   0   1 7162.81 691.424   8
  -9   0   2 3142.14 404.824   9
  -9   0   2 3233.51 501.841   8
  -9   0   3 5282.85 539.335   9
  -9   0   3 5961.89 623.161   8
  -9   0   4 9434.17 730.237   9
  -9   0   4 9256.47 755.282   8
  -9   0   5 7019.47 669.784   9
  -9   0   5 6277.33 619.348   8
  -9   0   6 6753.60 678.907   9
  -9   0   7 3141.59 519.910   9
  -9   0   8 5547.90 677.047   9
  -9   0   9 3343.76 553.703   9
  -9   0  10 1955.99 474.862   9
  -9   0  11 960.926 433.436   9
  -9   0  12 4508.05 648.227   9
  -9  -1  -7 454.696 443.429   4
  -9  -1  -6 1942.24 516.239   4
  -9  -1  -5 1126.45 373.522   8
  -9  -1  -5 1009.95 473.264   4
  -9  -1  -4 2813.79 505.475   8
  -9  -1  -4 2064.40 532.623   4
  -9  -1  -3 6150.94 681.913   8
  -9  -1  -2 12639.9 942.592   8
  -9  -1  -1 8698.59 786.083   8
  -9  -1   0 16521.7 807.298   9
  -9  -1   0 18407.0 1105.13   8
  -9  -1   1 6434.65 529.112   9
  -9  -1   1 6316.05 677.257   8
  -9  -1   2 3967.62 455.445   9
  -9  -1   2 4054.39 570.204   8
  -9  -1   3 11189.7 765.014   9
  -9  -1   3 11998.4 868.724   8
  -9  -1   4 4866.67 557.719   9
  -9  -1   4 6059.03 631.715   8
  -9  -1   5 17533.1 1030.86   9
  -9  -1   5 17301.7 1004.52   8
  -9  -1   6 4449.72 581.472   9
  -9  -1   6 4228.24 517.011   8
  -9  -1   7 12175.3 913.420   9
  -9  -1   7 13171.4 818.406   8
  -9  -1   8 961.295 402.184   9
  -9  -1   8 1638.57 349.558   8
  -9  -1   9 1962.02 468.787   9
  -9  -1  10 1370.28 429.426   9
  -9  -1  11 933.393 394.013   9
  -9  -1  12 1210.77 451.736   9
  -9  -2  -7 2285.25 565.797   4
  -9  -2  -6 284.657 320.844   8
  -9  -2  -6 996.126 500.141   4
  -9  -2  -5 4225.44 574.710   8
  -9  -2  -5 5487.07 750.355   4
  -9  -2  -4 1829.26 452.012   8
  -9  -2  -3 10434.7 865.004   8
  -9  -2  -2 10809.9 871.271   8
  -9  -2  -1 17832.1 1113.90   8
  -9  -2   0 3795.14 397.378   9
  -9  -2   0 4293.61 583.329   8
  -9  -2   1 1446.91 312.554   9
  -9  -2   1 1497.54 416.235   8
  -9  -2   2 5057.43 515.859   9
  -9  -2   2 5653.25 624.219   8
  -9  -2   3 4085.29 494.755   9
  -9  -2   3 5191.13 602.001   8
  -9  -2   4 1609.13 358.968   9
  -9  -2   4 1838.57 433.531   8
  -9  -2   5 4820.84 573.661   9
  -9  -2   5 4611.15 560.954   8
  -9  -2   6 11911.3 880.743   9
  -9  -2   6 12280.1 838.789   8
  -9  -2   7 11052.2 865.155   9
  -9  -2   7 10498.3 761.770   8
  -9  -2   8 5471.12 660.650   9
  -9  -2   8 6457.50 568.065   8
  -9  -2   9 2995.46 546.898   9
  -9  -2   9 3025.99 417.427   8
  -9  -2  10 2011.50 481.794   9
  -9  -2  11 207.613 329.992   9
  -9  -2  12 5579.66 696.779   9
  -9  -3  -7 4014.06 530.661   8
  -9  -3  -6 410.114 348.986   8
  -9  -3  -6 567.695 430.305   4
  -9  -3  -5 2332.72 488.344   8
  -9  -3  -4 1842.96 453.566   8
  -9  -3  -3 1521.47 461.130   8
  -9  -3  -2 6180.44 694.470   8
  -9  -3  -1 976.229 415.843   8
  -9  -3   0 8855.37 608.138   9
  -9  -3   0 8063.23 770.707   8
  -9  -3   1 746.148 272.148   9
  -9  -3   1 921.172 410.166   8
  -9  -3   2 6761.24 596.889   9
  -9  -3   2 7590.76 730.530   8
  -9  -3   3 1888.87 401.192   9
  -9  -3   3 2441.00 492.303   8
  -9  -3   4 4771.78 556.636   9
  -9  -3   4 5889.45 637.175   8
  -9  -3   5 3411.27 504.493   9
  -9  -3   5 3295.25 492.143   8
  -9  -3   6 5525.11 625.108   9
  -9  -3   6 6140.11 604.963   8
  -9  -3   7 2561.17 492.739   9
  -9  -3   7 2213.23 426.139   8
  -9  -3   8 3967.34 584.463   9
  -9  -3   8 3902.56 488.173   8
  -9  -3   9 1874.61 488.066   9
  -9  -3   9 2428.94 392.005   8
  -9  -3  10 2754.47 548.725   9
  -9  -3  11 1185.85 441.861   9
  -9  -3  12 2450.60 538.982   9
  -9  -4  -6 1766.04 448.204   8
  -9  -4  -6 2251.47 568.294   4
  -9  -4  -5 4442.93 626.787   8
  -9  -4  -4 1518.05 422.257   8
  -9  -4  -3 7199.35 750.010   8
  -9  -4  -2 909.677 413.954   8
  -9  -4  -1 4945.35 631.551   8
  -9  -4   0 3081.45 542.955   8
  -9  -4   1 1796.95 365.604   9
  -9  -4   1 1826.90 468.405   8
  -9  -4   2 458.791 319.915   9
  -9  -4   2 395.412 351.204   8
  -9  -4   3 134.193 269.822   9
  -9  -4   3 448.617 378.966   8
  -9  -4   4 896.833 370.125   9
  -9  -4   4 3007.60 503.257   8
  -9  -4   5 2072.59 440.493   9
  -9  -4   5 2442.03 443.680   8
  -9  -4   6 3400.06 517.460   9
  -9  -4   6 4113.73 542.309   8
  -9  -4   7 6130.62 682.542   9
  -9  -4   7 6386.78 622.440   8
  -9  -4   8 385.836 374.338   9
  -9  -4   8 1228.82 367.375   8
  -9  -4   9 10466.6 895.016   9
  -9  -4   9 11172.9 746.627   8
  -9  -4  10 1084.44 447.711   9
  -9  -4  11 4500.56 653.051   9
  -9  -5  -6 3970.90 569.306   8
  -9  -5  -5 4482.35 612.146   8
  -9  -5  -4 12111.0 938.749   8
  -9  -5  -3 1901.44 488.382   8
  -9  -5  -2 14236.1 1043.06   8
  -9  -5  -1 1635.44 491.122   8
  -9  -5   0 6125.60 718.257   8
  -9  -5   1 11040.9 902.436   8
  -9  -5   2 1037.30 429.374   8
  -9  -5   3 800.931 392.712   8
  -9  -5   4 2313.00 465.644   9
  -9  -5   4 3030.43 538.378   8
  -9  -5   5 8198.28 769.169   9
  -9  -5   5 10890.3 849.234   8
  -9  -5   6 1745.41 448.862   9
  -9  -5   6 2371.74 497.919   8
  -9  -5   7 7551.50 756.320   9
  -9  -5   7 8433.11 719.907   8
  -9  -5   8 7011.12 746.468   9
  -9  -5   8 7973.72 697.849   8
  -9  -5   9 4662.24 661.423   9
  -9  -5   9 3962.80 501.151   8
  -9  -5  10 7024.75 755.886   9
  -9  -5  11 6135.94 730.737   9
  -9  -6  -4 2707.00 514.555   8
  -9  -6  -3 9577.97 857.253   8
  -9  -6  -2 743.194 413.957   8
  -9  -6  -1 567.377 409.464   8
  -9  -6   0 4437.68 635.029   8
  -9  -6   1 374.812 386.458   8
  -9  -6   2 5130.53 680.455   8
  -9  -6   3 15520.1 1082.46   8
  -9  -6   4 11517.9 926.842   8
  -9  -6   5 4969.48 630.463   8
  -9  -6   6 640.780 376.605   9
  -9  -6   6 675.555 394.560   8
  -9  -6   7 3316.18 570.377   9
  -9  -6   7 3619.07 544.923   8
  -9  -6   8 1846.67 466.101   9
  -9  -6   8 1199.20 397.242   8
  -9  -6   9 979.197 455.437   9
  -9  -6   9 969.423 346.424   8
  -9  -6  10 6621.01 763.224   9
  -9  -7  -2 4874.23 671.894   8
  -9  -7  -1 8417.25 838.463   8
  -9  -7   0 2707.33 537.153   8
  -9  -7   1 2382.32 535.324   8
  -9  -7   2 2195.10 497.867   8
  -9  -7   3 4148.22 613.234   8
  -9  -7   4 1756.53 467.301   8
  -9  -7   5 3422.26 562.515   8
  -9  -7   6 1245.29 413.300   8
  -9  -7   7 4512.11 639.758   9
  -9  -7   7 4637.53 605.240   8
  -9  -7   8 1459.61 470.074   9
  -9  -7   8 2444.95 473.952   8
  -9  -7   9 6134.41 743.159   9
  -9  -7   9 7136.90 656.320   8
  -9  -8   1 2024.77 536.185   8
  -9  -8   2 5531.59 694.432   8
  -9  -8   3 1397.43 444.189   8
  -9  -8   4 2223.85 494.522   8
  -9  -8   5 1747.05 482.705   8
  -9  -8   6 4639.31 611.893   8
  -9  -8   7 2374.66 500.018   8
  -9  -8   8 4909.33 603.613   8
  -9  -8   9 274.825 343.769   8
 -10   7  -4 513.423 365.198   4
 -10   7  -3 9658.32 748.829   4
 -10   7   3 5676.21 597.376   9
 -10   7   3 5998.97 625.770   5
 -10   7   4 5915.60 622.476   9
 -10   7   4 5948.18 611.446   5
 -10   7   5 2603.49 489.784   9
 -10   7   5 2156.29 412.168   5
 -10   6  -5 8760.48 779.915   4
 -10   6  -4 4437.02 579.985   4
 -10   6  -3 3699.62 521.417   4
 -10   6  -2 11439.2 804.348   4
 -10   6  -1 2622.17 413.780   4
 -10   6   3 4070.60 525.851   9
 -10   6   4 13970.7 926.705   9
 -10   6   4 13063.4 864.139   5
 -10   6   5 4947.66 611.292   9
 -10   6   5 4700.01 517.168   5
 -10   6   6 3976.52 566.327   9
 -10   5  -5 4213.84 627.757   4
 -10   5  -4 2036.94 493.056   4
 -10   5  -3 4386.93 576.776   4
 -10   5  -2 6117.88 639.530   4
 -10   5  -1 2861.33 455.870   4
 -10   5   0 9183.85 665.509   4
 -10   5   2 11198.5 751.473   9
 -10   5   3 9.11255 292.745   9
 -10   5   4 8142.46 713.600   9
 -10   5   5 892.752 400.000   9
 -10   5   6 4327.44 586.546   9
 -10   5   7 2254.29 475.897   9
 -10   4  -6 1462.51 458.520   4
 -10   4  -5 703.377 395.724   4
 -10   4  -4 3064.05 537.606   4
 -10   4  -3 2790.35 519.881   4
 -10   4  -2 9467.30 775.905   4
 -10   4  -1 1665.11 395.108   4
 -10   4   0 6461.47 608.763   4
 -10   4   1 12522.8 778.906   4
 -10   4   2 7287.59 602.450   9
 -10   4   3 8629.92 682.641   9
 -10   4   4 426.956 304.399   9
 -10   4   5 10566.2 826.052   9
 -10   4   6 999.777 405.233   9
 -10   4   7 1275.50 440.051   9
 -10   4   8 397.879 414.190   9
 -10   3  -6 809.821 407.071   4
 -10   3  -5 1205.82 479.925   4
 -10   3  -4 2683.49 528.091   4
 -10   3  -3 8088.12 767.124   4
 -10   3  -2 700.365 369.398   4
 -10   3  -1 8081.30 728.276   4
 -10   3   0 946.647 380.193   4
 -10   3   1 9690.55 721.557   4
 -10   3   2 5079.11 514.710   9
 -10   3   2 3703.35 459.486   4
 -10   3   3 4266.64 503.768   9
 -10   3   4 5818.76 586.531   9
 -10   3   5 2442.36 460.690   9
 -10   3   6 5319.57 642.628   9
 -10   3   7 8128.46 773.401   9
 -10   3   8 1652.12 465.781   9
 -10   3   9 1420.08 460.531   9
 -10   2  -6 3037.99 574.121   4
 -10   2  -5 10010.2 887.884   4
 -10   2  -4 5180.02 678.951   4
 -10   2  -3 3020.28 543.731   4
 -10   2  -2 2648.77 515.440   4
 -10   2  -1 11426.6 872.698   4
 -10   2   0 11678.0 846.601   4
 -10   2   1 1670.22 424.202   4
 -10   2   2 27342.5 1180.85   9
 -10   2   2 27280.0 1223.63   4
 -10   2   3 6195.37 583.400   9
 -10   2   3 6681.69 564.167   4
 -10   2   4 3802.25 510.879   9
 -10   2   4 4225.91 449.986   4
 -10   2   5 17024.3 1024.06   9
 -10   2   6 1714.01 421.440   9
 -10   2   7 1238.64 406.799   9
 -10   2   8 7775.09 784.105   9
 -10   2   9 7819.36 793.306   9
 -10   1  -6 5231.28 719.732   4
 -10   1  -5 10608.0 933.915   4
 -10   1  -4 9092.61 851.803   4
 -10   1  -3 10825.8 921.187   4
 -10   1  -2 2163.67 504.930   4
 -10   1  -1 1763.15 462.456   4
 -10   1   0 4105.55 573.654   4
 -10   1   1 771.451 281.398   9
 -10   1   1 821.097 364.423   4
 -10   1   2 360.817 256.970   9
 -10   1   2 103.854 301.254   4
 -10   1   3 1882.96 378.340   9
 -10   1   4 2348.44 425.058   9
 -10   1   5 1275.61 380.844   9
 -10   1   6 4632.94 586.674   9
 -10   1   7 11487.3 902.921   9
 -10   1   8 12341.8 960.360   9
 -10   1   9 11322.6 937.291   9
 -10   1  10 7225.50 789.005   9
 -10   0  -6 6338.98 752.696   4
 -10   0  -5 1119.06 482.868   4
 -10   0  -4 10351.7 924.836   4
 -10   0  -3 357.338 401.974   4
 -10   0  -2 13139.0 988.556   4
 -10   0  -1 2922.27 530.026   4
 -10   0   0 554.247 406.954   8
 -10   0   1-118.520 209.418   9
 -10   0   1 670.900 362.655   8
 -10   0   2 211.459 252.107   9
 -10   0   2-66.7501 323.398   8
 -10   0   3 301.934 269.014   9
 -10   0   3 722.469 387.933   8
 -10   0   4-156.053 263.822   9
 -10   0   5 1477.91 396.577   9
 -10   0   6 5351.76 619.383   9
 -10   0   7 8766.16 780.345   9
 -10   0   8 2367.24 526.633   9
 -10   0   9 5825.45 710.803   9
 -10   0  10 1570.14 467.536   9
 -10  -1  -5 5770.29 745.444   4
 -10  -1  -4 3231.62 568.231   8
 -10  -1  -4 2724.37 578.859   4
 -10  -1  -3 4235.92 603.384   8
 -10  -1  -3 4124.47 639.321   4
 -10  -1  -2 3388.37 564.904   8
 -10  -1  -1 2515.21 506.705   8
 -10  -1   0 6491.69 712.989   8
 -10  -1   1 1119.72 300.167   9
 -10  -1   1 582.126 419.892   8
 -10  -1   2 2489.89 412.063   9
 -10  -1   2 2902.12 525.650   8
 -10  -1   3 2503.50 432.687   9
 -10  -1   3 2479.84 479.843   8
 -10  -1   4 875.077 335.318   9
 -10  -1   4 733.324 379.456   8
 -10  -1   5 5814.70 629.980   9
 -10  -1   5 6778.66 675.626   8
 -10  -1   6 3106.78 514.744   9
 -10  -1   6 4259.21 551.891   8
 -10  -1   7 1173.83 408.812   9
 -10  -1   7 2087.64 420.600   8
 -10  -1   8 2886.19 516.881   9
 -10  -1   9 627.098 405.546   9
 -10  -1  10 6526.29 748.820   9
 -10  -2  -5 2008.47 497.860   8
 -10  -2  -5 2163.73 551.953   4
 -10  -2  -4 572.790 358.796   8
 -10  -2  -4 1416.02 511.995   4
 -10  -2  -3 2380.62 506.489   8
 -10  -2  -2 923.889 452.807   8
 -10  -2  -1 4984.70 661.292   8
 -10  -2   0 1394.18 468.108   8
 -10  -2   1 11546.7 731.387   9
 -10  -2   1 12417.9 949.464   8
 -10  -2   2 1316.60 354.702   9
 -10  -2   2 1051.84 440.781   8
 -10  -2   3 6004.97 582.328   9
 -10  -2   3 7178.46 739.220   8
 -10  -2   4 3382.95 486.019   9
 -10  -2   4 4082.40 582.955   8
 -10  -2   5 7111.76 667.834   9
 -10  -2   5 7144.17 697.510   8
 -10  -2   6 2107.22 473.838   9
 -10  -2   6 2580.86 473.961   8
 -10  -2   7 1356.69 405.172   9
 -10  -2   7 1563.07 405.747   8
 -10  -2   8 1212.27 411.444   9
 -10  -2   8 2429.58 435.941   8
 -10  -2   9 1129.64 441.273   9
 -10  -2   9 1416.81 351.483   8
 -10  -2  10 940.115 477.388   9
 -10  -3  -5 1547.49 436.185   8
 -10  -3  -4 3566.80 581.497   8
 -10  -3  -3 1865.55 505.436   8
 -10  -3  -2 861.263 427.127   8
 -10  -3  -1 1980.00 481.223   8
 -10  -3   0 5903.01 698.002   8
 -10  -3   1 3186.05 433.033   9
 -10  -3   1 4279.19 622.511   8
 -10  -3   2 11300.0 778.585   9
 -10  -3   2 14173.9 1002.98   8
 -10  -3   3 2429.09 453.168   9
 -10  -3   3 926.873 442.809   8
 -10  -3   4 14272.0 927.604   9
 -10  -3   4 13655.8 970.555   8
 -10  -3   5 3558.59 527.033   9
 -10  -3   5 4024.02 598.608   8
 -10  -3   6 4066.51 566.945   9
 -10  -3   6 4176.27 571.573   8
 -10  -3   7 3018.22 532.027   9
 -10  -3   7 2331.08 441.694   8
 -10  -3   8 180.361 321.650   9
 -10  -3   8 1545.03 386.963   8
 -10  -3   9 1318.07 443.257   9
 -10  -3   9 1013.37 336.981   8
 -10  -3  10 1994.30 529.664   9
 -10  -4  -4 655.664 389.538   8
 -10  -4  -3 2654.98 523.375   8
 -10  -4  -2 4966.23 653.164   8
 -10  -4  -1 407.359 396.630   8
 -10  -4   0 723.458 447.603   8
 -10  -4   1 4491.18 515.447   9
 -10  -4   1 6236.81 748.452   8
 -10  -4   2 2720.60 442.439   9
 -10  -4   2 4407.30 647.002   8
 -10  -4   3 7785.87 676.967   9
 -10  -4   3 9322.54 840.094   8
 -10  -4   4 4502.57 572.904   9
 -10  -4   4 5962.95 690.951   8
 -10  -4   5 6598.49 667.251   9
 -10  -4   5 7597.29 741.608   8
 -10  -4   6 1144.80 406.577   9
 -10  -4   6 1000.83 412.982   8
 -10  -4   7 1410.39 442.103   9
 -10  -4   7 1253.56 386.518   8
 -10  -4   8 1075.96 407.946   9
 -10  -4   8 1474.74 405.992   8
 -10  -4   9 2926.89 562.468   9
 -10  -4   9 3880.17 503.144   8
 -10  -4  10 1463.43 461.205   9
 -10  -5  -3 854.725 423.073   8
 -10  -5  -2 9190.15 854.024   8
 -10  -5  -1 2932.10 564.801   8
 -10  -5   0 3401.97 583.265   8
 -10  -5   1 1867.90 398.361   9
 -10  -5   1 4144.65 613.488   8
 -10  -5   2 2488.67 453.367   9
 -10  -5   2 3522.82 597.579   8
 -10  -5   3 796.747 343.973   9
 -10  -5   3 130.396 374.810   8
 -10  -5   4 38.5530 283.747   9
 -10  -5   4 652.538 385.174   8
 -10  -5   5 3952.55 555.510   9
 -10  -5   5 3967.48 586.985   8
 -10  -5   6 2981.40 543.344   9
 -10  -5   6 1947.95 458.061   8
 -10  -5   7 5522.36 669.384   9
 -10  -5   7 5311.78 620.777   8
 -10  -5   8 1322.55 458.853   9
 -10  -5   8 2570.42 479.271   8
 -10  -5   9 5895.56 712.596   9
 -10  -5   9 5970.12 598.087   8
 -10  -6  -1 3452.72 613.816   8
 -10  -6   0 2651.09 553.997   8
 -10  -6   1 4254.54 631.878   8
 -10  -6   2 1304.87 492.388   8
 -10  -6   3 797.089 364.788   9
 -10  -6   3 484.379 408.769   8
 -10  -6   4 2660.60 502.467   9
 -10  -6   4 2501.82 527.248   8
 -10  -6   5 1526.96 415.095   9
 -10  -6   5 1263.30 450.625   8
 -10  -6   6 2117.48 479.763   9
 -10  -6   6 2361.95 506.836   8
 -10  -6   7 3720.30 581.881   9
 -10  -6   7 4429.53 578.700   8
 -10  -6   8 2445.46 537.968   9
 -10  -6   8 2727.53 487.831   8
 -10  -6   9 2125.51 421.371   8
 -10  -7   3 3003.31 561.775   8
 -10  -7   4 656.597 406.232   8
 -10  -7   5 1615.87 442.838   9
 -10  -7   5 3457.59 566.716   8
 -10  -7   6 1124.77 411.292   9
 -10  -7   6 1259.36 441.812   8
 -10  -7   7 2519.56 496.181   8
 -10  -7   8 1010.89 379.959   8
 -10  -7   9 3288.14 496.325   8
 -11   6  -3 3580.32 514.351   4
 -11   6   4 2074.54 407.697   9
 -11   5  -3 3769.87 541.954   4
 -11   5  -2 4646.09 570.526   4
 -11   5  -1 1503.75 362.129   4
 -11   5   4 1024.93 352.033   9
 -11   5   5 5734.82 616.768   9
 -11   4  -4 1506.81 421.607   4
 -11   4  -3 1263.03 423.492   4
 -11   4  -2 7254.19 700.678   4
 -11   4  -1 896.480 378.300   4
 -11   4   0 7614.86 654.814   4
 -11   4   4 675.722 330.407   9
 -11   4   5 7822.77 720.670   9
 -11   4   6 1734.55 445.828   9
 -11   4   7 1550.79 428.993   9
 -11   3  -4 831.699 413.611   4
 -11   3  -3 11328.2 900.262   4
 -11   3  -2 1511.22 436.105   4
 -11   3  -1 9240.80 782.169   4
 -11   3   0 828.311 363.406   4
 -11   3   1 5363.91 570.281   4
 -11   3   3 4437.64 524.729   9
 -11   3   4 2455.40 422.294   9
 -11   3   5 5309.71 613.260   9
 -11   3   6 2935.72 516.370   9
 -11   3   7 7823.58 759.936   9
 -11   2  -4 6905.89 755.029   4
 -11   2  -3 2145.06 511.324   4
 -11   2  -2 8451.23 807.284   4
 -11   2  -1 5123.18 632.418   4
 -11   2   0 3840.39 538.598   4
 -11   2   1 2224.26 443.960   4
 -11   2   2 4681.20 531.402   4
 -11   2   3 1795.02 388.365   9
 -11   2   3 2202.90 395.904   4
 -11   2   4 7056.49 669.294   9
 -11   2   5 3305.30 521.643   9
 -11   2   6 8387.74 754.553   9
 -11   2   7 3989.11 555.660   9
 -11   2   8 6647.13 722.735   9
 -11   1  -4 1014.57 457.489   4
 -11   1  -3 1709.30 495.314   4
 -11   1  -2 3425.94 589.344   4
 -11   1  -1 1413.66 449.428   4
 -11   1   0 6945.99 715.440   4
 -11   1   1 2571.55 492.953   4
 -11   1   2 3301.45 497.013   4
 -11   1   3 4501.36 503.323   9
 -11   1   3 5091.06 561.537   4
 -11   1   4 365.164 300.833   9
 -11   1   4 799.954 344.808   4
 -11   1   5 6235.46 635.972   9
 -11   1   6 67.2209 330.132   9
 -11   1   7 1975.79 449.974   9
 -11   1   8 2556.95 526.360   9
 -11   0  -4 7321.30 800.581   4
 -11   0  -3 2712.44 573.152   4
 -11   0  -2 8741.08 824.718   4
 -11   0  -1 401.722 387.053   4
 -11   0   0 3244.52 545.884   4
 -11   0   3 850.071 322.911   9
 -11   0   4 578.025 316.919   9
 -11   0   5 3746.54 530.842   9
 -11   0   6-289.630 326.789   9
 -11   0   7 6467.04 691.130   9
 -11   0   8 1313.56 438.925   9
 -11   0   9 7572.21 766.819   9
 -11  -1  -3 523.745 447.266   4
 -11  -1  -2 928.935 478.087   8
 -11  -1  -2 2206.60 543.980   4
 -11  -1  -1 5555.20 705.583   8
 -11  -1   0 5421.82 706.576   8
 -11  -1   1 2884.84 570.328   8
 -11  -1   2 8936.20 839.757   8
 -11  -1   3 1868.99 383.589   9
 -11  -1   3 3193.04 560.805   8
 -11  -1   4 4972.78 578.160   9
 -11  -1   4 6612.84 722.373   8
 -11  -1   5 7443.98 698.569   9
 -11  -1   5 9108.09 792.590   8
 -11  -1   6 6190.92 652.724   9
 -11  -1   6 4914.56 609.371   8
 -11  -1   7 1513.24 438.252   9
 -11  -1   8 5090.63 651.795   9
 -11  -1   9 3719.76 620.646   9
 -11  -2  -3 14165.9 1029.98   8
 -11  -2  -3 11682.3 997.059   4
 -11  -2  -2 323.580 413.214   8
 -11  -2  -1 7571.03 797.326   8
 -11  -2   0 18350.6 1197.81   8
 -11  -2   1 4817.43 664.275   8
 -11  -2   2 3054.57 569.154   8
 -11  -2   3 2066.71 418.265   9
 -11  -2   3 2057.38 496.061   8
 -11  -2   4 2727.17 471.625   9
 -11  -2   4 2956.79 543.010   8
 -11  -2   5 3866.80 556.527   9
 -11  -2   5 2755.15 529.179   8
 -11  -2   6 16652.3 1086.06   9
 -11  -2   6 18576.3 1107.79   8
 -11  -2   7 2842.57 527.390   9
 -11  -2   7 4446.31 577.746   8
 -11  -2   8 2.70529 344.688   9
 -11  -2   8 698.393 356.188   8
 -11  -2   9 12172.9 969.673   9
 -11  -3  -2 146.248 409.737   8
 -11  -3  -1 2511.71 559.227   8
 -11  -3   0 2200.63 535.208   8
 -11  -3   1 4918.08 677.719   8
 -11  -3   2 14704.7 1061.74   8
 -11  -3   3 3432.73 493.478   9
 -11  -3   3 5216.44 699.066   8
 -11  -3   4 12012.4 868.412   9
 -11  -3   4 12833.3 969.635   8
 -11  -3   5 4465.97 577.429   9
 -11  -3   5 4547.32 622.300   8
 -11  -3   6 5198.88 622.216   9
 -11  -3   6 4589.35 603.950   8
 -11  -3   7 1041.55 418.324   9
 -11  -3   7 764.680 384.952   8
 -11  -3   8 1235.76 457.205   9
 -11  -3   8 520.800 351.375   8
 -11  -4   0 4918.61 680.948   8
 -11  -4   1 3279.72 582.337   8
 -11  -4   2 2024.29 508.780   8
 -11  -4   3 6432.04 627.638   9
 -11  -4   3 7593.04 777.896   8
 -11  -4   4 6124.67 634.407   9
 -11  -4   4 6011.60 704.668   8
 -11  -4   5 2227.04 467.355   9
 -11  -4   5 2042.62 503.478   8
 -11  -4   6 2265.10 487.202   9
 -11  -4   6 2305.15 484.970   8
 -11  -4   7 4809.34 625.078   9
 -11  -4   7 4476.87 588.924   8
 -11  -4   8 1551.28 452.592   9
 -11  -4   8 2083.89 451.292   8
 -11  -5   2 2194.99 517.428   8
 -11  -5   3 1622.88 393.415   9
 -11  -5   3 3516.56 598.367   8
 -11  -5   4 584.498 338.650   9
 -11  -5   4 1496.27 489.787   8
 -11  -5   5 2401.94 473.475   9
 -11  -5   5 2578.33 539.795   8
 -11  -5   6 3310.97 535.679   9
 -11  -5   6 3382.03 563.381   8
 -11  -5   7 3061.53 546.603   9
 -11  -5   7 2657.17 504.763   8
 -11  -5   8 1873.93 432.513   8
 -11  -5   9 1766.18 404.729   8
 -11  -6   3 650.898 353.824   9
 -11  -6   4 1060.96 356.219   9
 -11  -6   5 414.689 359.255   9
 -12   4  -1 681.093 326.981   4
 -12   3  -1 1977.25 436.552   4
 -12   3   0 3041.28 483.542   4
 -12   3   5 5006.19 586.064   9
 -12   2  -1 4617.13 613.410   4
 -12   2   0 949.451 409.784   4
 -12   2   1 4315.83 536.205   4
 -12   2   5 100.530 320.484   9
 -12   2   6 3991.52 557.844   9
 -12   1  -1 692.714 402.903   4
 -12   1   0 4230.19 601.571   4
 -12   1   1 2099.93 464.337   4
 -12   1   2 4616.21 593.443   4
 -12   1   5 2748.70 464.431   9
 -12   1   6 1129.19 382.813   9
 -12   0  -1 1148.22 462.385   4
 -12   0   0 4108.05 595.737   4
 -12   0   1 3958.33 583.545   4
 -12   0   2 1482.98 435.325   4
 -12   0   5 2158.19 439.507   9
 -12   0   6 3523.77 539.455   9
 -12   0   7 663.611 373.884   9
 -12  -1   0 1778.65 503.130   4
 -12  -1   4 9746.53 740.791   9
 -12  -1   5 141.426 314.071   9
 -12  -1   6-72.0206 352.324   9
 -12  -1   7 81.4258 309.797   9
 -12  -2   2 10563.6 944.704   8
 -12  -2   3 21524.3 1298.96   8
 -12  -2   4 3217.03 499.559   9
 -12  -2   4 5506.31 676.648   8
 -12  -2   5 5744.38 630.969   9
 -12  -2   5 6423.49 714.686   8
 -12  -2   6 11298.5 862.369   9
 -12  -2   6 11314.3 875.754   8
 -12  -2   7 1974.75 450.801   8
 -12  -3   4 1181.04 383.429   9
 -12  -3   5 3333.04 516.698   9
 -12  -3   5 3278.80 566.887   8
 -12  -3   6 2723.91 499.819   9
 -12  -3   6 2201.04 470.942   8
 -12  -3   7 3269.99 535.564   8
 -12  -3   8 1582.53 402.106   8
 -12  -4   4 3347.10 483.835   9
 -12  -4   5 1090.06 383.876   9
   0   0   0    0.00    0.00   0
TITL ET4_100K_22102015 in P1
REM P1 (#1 in standard setting)
CELL 0.71073   8.491553   8.675686  10.706175 100.3631 100.3158  90.0852
ZERR    2.00   0.000303   0.000313   0.000389   0.0030   0.0030   0.0029
LATT -1
SFAC C H N O P S
UNIT 26.00 44.00 2.00 4.00 2.00 2.00
TREF
HKLF 4
END
;
_shelx_hkl_checksum              91131
_shelx_res_file
;
        et4_100k_22102015.res created by SHELXL-2014/7
TITL ET4_100K_22102015 in P1
CELL  0.71073   8.4954   8.6790  10.7105  100.366  100.314   90.093
ZERR     2.00   0.0003   0.0003   0.0004    0.003    0.003    0.003
LATT  -1
SFAC  C    H    O    N    P    S
UNIT 26 44 4 2 2 2
LIST 4 ! automatically inserted. Change 6 to 4 for CHECKCIF!!
MERG   2
FMAP   2
PLAN   20
shel 6 0.8
ACTA
TEMP -173
CONF
HTAB N1 S2
Dfix N2 H2 0.88
BOND $H
LIST   4
L.S.   40
RTAB D2CG N2 C1 C2 C3 C4 C5 C6
RTAB D2CG H2 C1 C2 C3 C4 C5 C6
WGHT    0.055100    0.040900
FVAR       9.17221
MOLE    1
P1    5    0.149472    0.990418    0.624044    11.00000    0.01750    0.01033 =
         0.01757    0.00124    0.00317    0.00424
N1    4    0.196550    0.861355    0.506871    11.00000    0.02118    0.01311 =
         0.01416    0.00139    0.00001    0.00584
H1    2    0.164500    0.868300    0.430583    11.00000    0.01802
C13   1    0.485423    1.249192    0.860412    11.00000    0.02658    0.03106 =
         0.02337   -0.00792    0.00287   -0.00246
AFIX 137
H13A  2    0.498140    1.311635    0.947682    11.00000   -1.50000
H13B  2    0.493635    1.318350    0.798746    11.00000   -1.50000
H13C  2    0.569576    1.172236    0.857264    11.00000   -1.50000
AFIX   0
C22   1    0.699392    0.584352    0.225270    11.00000    0.01582    0.01742 =
         0.02460    0.00500    0.00416    0.00013
AFIX 137
H22A  2    0.639584    0.660742    0.275741    11.00000   -1.50000
H22B  2    0.691130    0.607739    0.138206    11.00000   -1.50000
H22C  2    0.812138    0.590276    0.267399    11.00000   -1.50000
AFIX   0
O22   3    0.394935    0.637454    0.030534    11.00000    0.01847    0.02491 =
         0.01741    0.00970    0.00223    0.00251
C20   1    0.234352    0.210845    0.217059    11.00000    0.01956    0.01867 =
         0.03579    0.01025    0.00669    0.00059
AFIX 137
H20A  2    0.227886    0.126351    0.265743    11.00000   -1.50000
H20B  2    0.171702    0.179967    0.129766    11.00000   -1.50000
H20C  2    0.191459    0.306230    0.260832    11.00000   -1.50000
AFIX   0
C18   1    0.729544    0.294352    0.210802    11.00000    0.01706    0.02217 =
         0.01645    0.00361    0.00584    0.00278
AFIX  43
H18   2    0.840322    0.312206    0.212472    11.00000   -1.20000
AFIX   0
C4    1    0.519026    0.491768    0.542757    11.00000    0.02236    0.01835 =
         0.00981   -0.00047    0.00103    0.00681
C21   1    0.785772    0.007075    0.199340    11.00000    0.02984    0.02030 =
         0.02550    0.00421    0.00489    0.01186
AFIX 137
H21A  2    0.725088   -0.091460    0.161499    11.00000   -1.50000
H21B  2    0.839573    0.002381    0.287441    11.00000   -1.50000
H21C  2    0.865869    0.023116    0.147042    11.00000   -1.50000
AFIX   0
O21   3    0.164785    0.463914    0.003208    11.00000    0.01798    0.01767 =
         0.01951   -0.00119    0.00285    0.00199
C17   1    0.672922    0.141467    0.202483    11.00000    0.02611    0.01893 =
         0.01312    0.00445    0.00380    0.00919
C16   1    0.510868    0.118359    0.200872    11.00000    0.02686    0.01104 =
         0.01976    0.00439    0.00438    0.00239
AFIX  43
H16   2    0.469689    0.014717    0.193893    11.00000   -1.20000
AFIX   0
C7    1    0.529037    0.917535    0.495815    11.00000    0.02703    0.01894 =
         0.02938    0.00446    0.01000    0.00201
AFIX 137
H7A   2    0.454905    0.952619    0.426136    11.00000   -1.50000
H7B   2    0.635042    0.904891    0.472023    11.00000   -1.50000
H7C   2    0.536685    0.995613    0.575287    11.00000   -1.50000
AFIX   0
C15   1    0.406674    0.241595    0.209113    11.00000    0.01942    0.01548 =
         0.01706    0.00490    0.00283    0.00252
C14   1    0.467040    0.393771    0.214254    11.00000    0.01675    0.01078 =
         0.01164    0.00241    0.00238    0.00350
C1    1    0.305902    0.736814    0.521256    11.00000    0.01841    0.01093 =
         0.01180   -0.00104    0.00121    0.00395
C19   1    0.630684    0.421792    0.216756    11.00000    0.02104    0.01523 =
         0.01117    0.00385    0.00377    0.00367
C12   1    0.325427    1.165987    0.826223    11.00000    0.03093    0.03032 =
         0.02240   -0.01157    0.00991   -0.00325
AFIX  23
H12A  2    0.310931    1.105635    0.893720    11.00000   -1.20000
H12B  2    0.239565    1.242691    0.819773    11.00000   -1.20000
AFIX   0
O12   3    0.097419    0.899543    0.727081    11.00000    0.01853    0.01986 =
         0.02214    0.00529    0.00525    0.00312
C24   1    0.493818    0.759711   -0.123656    11.00000    0.02707    0.03755 =
         0.02459    0.01339    0.00388    0.00336
AFIX 137
H24A  2    0.466263    0.793582   -0.207130    11.00000   -1.50000
H24B  2    0.576114    0.680924   -0.128115    11.00000   -1.50000
H24C  2    0.534723    0.850092   -0.056463    11.00000   -1.50000
AFIX   0
C11   1   -0.108293    0.968005    0.851760    11.00000    0.04159    0.04161 =
         0.06295   -0.00461    0.03420   -0.00234
AFIX 137
H11A  2   -0.217438    0.940611    0.860031    11.00000   -1.50000
H11B  2   -0.101179    1.078944    0.845371    11.00000   -1.50000
H11C  2   -0.032941    0.949065    0.927702    11.00000   -1.50000
AFIX   0
O11   3    0.317357    1.060734    0.702873    11.00000    0.02162    0.01855 =
         0.01919   -0.00545    0.00527    0.00163
C23   1    0.348132    0.690460   -0.092064    11.00000    0.02551    0.04276 =
         0.02193    0.01978   -0.00020    0.00126
AFIX  23
H23A  2    0.265163    0.769939   -0.085103    11.00000   -1.20000
H23B  2    0.303713    0.601130   -0.160842    11.00000   -1.20000
AFIX   0
C10   1   -0.067657    0.869602    0.733224    11.00000    0.02398    0.02661 =
         0.03667    0.00676    0.00910   -0.00689
AFIX  23
H10A  2   -0.085343    0.757342    0.735140    11.00000   -1.20000
H10B  2   -0.137833    0.894634    0.655702    11.00000   -1.20000
AFIX   0
C26   1   -0.101806    0.471461   -0.113760    11.00000    0.02172    0.06032 =
         0.05276    0.01996   -0.00784   -0.00337
AFIX 137
H26A  2   -0.213543    0.438357   -0.119173    11.00000   -1.50000
H26B  2   -0.063750    0.421182   -0.191849    11.00000   -1.50000
H26C  2   -0.094162    0.585576   -0.106063    11.00000   -1.50000
AFIX   0
C9    1    0.074397    0.555094    0.528422    11.00000    0.02099    0.01565 =
         0.04107    0.00217    0.00660    0.00002
AFIX 137
H9A   2    0.010038    0.631299    0.486273    11.00000   -1.50000
H9B   2    0.054517    0.562436    0.616618    11.00000   -1.50000
H9C   2    0.044868    0.449136    0.479731    11.00000   -1.50000
AFIX   0
C25   1   -0.001464    0.424764    0.001423    11.00000    0.02051    0.02129 =
         0.03038    0.00012    0.00188   -0.00932
AFIX  23
H25A  2   -0.034715    0.480552    0.081073    11.00000   -1.20000
H25B  2   -0.015548    0.310684   -0.002243    11.00000   -1.20000
AFIX   0
C8    1    0.633292    0.360204    0.548446    11.00000    0.02724    0.01956 =
         0.02000    0.00559    0.00187    0.00808
AFIX 137
H8A   2    0.601635    0.290814    0.603101    11.00000   -1.50000
H8B   2    0.741873    0.403353    0.584758    11.00000   -1.50000
H8C   2    0.630899    0.300629    0.461191    11.00000   -1.50000
AFIX   0
C6    1    0.249151    0.589520    0.532484    11.00000    0.02007    0.01605 =
         0.01554   -0.00041    0.00196    0.00227
C5    1    0.357992    0.470072    0.544422    11.00000    0.02391    0.01133 =
         0.01822    0.00232    0.00301    0.00082
AFIX  43
H5    2    0.320135    0.370575    0.554008    11.00000   -1.20000
AFIX   0
MOLE    2
N2    4    0.362013    0.523561    0.225741    11.00000    0.01899    0.01218 =
         0.01293    0.00120    0.00503    0.00508
H2    2    0.356951    0.567734    0.300667    11.00000    0.02603
P2    5    0.262740    0.599356    0.107985    11.00000    0.01485    0.01130 =
         0.01442    0.00206    0.00192    0.00353
C2    1    0.468194    0.762783    0.517367    11.00000    0.02074    0.01361 =
         0.01152   -0.00122    0.00244    0.00104
S2    6    0.135033    0.771495    0.169185    11.00000    0.02884    0.01623 =
         0.02165    0.00037    0.00237    0.01217
S1    6   -0.002943    1.135497    0.561629    11.00000    0.03136    0.01894 =
         0.03127    0.00830    0.00375    0.01389
C3    1    0.571197    0.639769    0.528836    11.00000    0.01543    0.01913 =
         0.01466    0.00118    0.00356    0.00112
AFIX  43
H3    2    0.681230    0.656802    0.527161    11.00000   -1.20000
AFIX   0
HKLF 4
REM  ET4_100K_22102015 in P1
REM R1 =  0.0358 for    6048 Fo > 4sig(Fo)  and  0.0373 for all    6232 data
REM    343 parameters refined using      4 restraints
END
WGHT      0.0551      0.0409
REM Highest difference peak  0.455,  deepest hole -0.234,  1-sigma level  0.055
Q1    1   0.5997  0.4231  0.6261  11.00000  0.05    0.46
Q2    1   0.0820  0.9118  0.6443  11.00000  0.05    0.40
Q3    1   0.6832  0.3354  0.1652  11.00000  0.05    0.37
Q4    1   0.1922  0.5329  0.0507  11.00000  0.05    0.37
Q5    1   0.1653  0.9889  0.7188  11.00000  0.05    0.36
Q6    1   0.4408  0.5568  0.5640  11.00000  0.05    0.36
Q7    1   0.8074  0.1558  0.1074  11.00000  0.05    0.36
Q8    1   0.3420  0.6550  0.0887  11.00000  0.05    0.34
Q9    1   0.2203  0.5633  0.0228  11.00000  0.05    0.34
Q10   1   0.2413  1.0476  0.6681  11.00000  0.05    0.33
Q11   1  -0.0169  1.1161  0.4729  11.00000  0.05    0.31
Q12   1   0.1670  0.7968  0.2565  11.00000  0.05    0.31
Q13   1   0.3156  0.6175  0.0428  11.00000  0.05    0.29
Q14   1   0.0785  0.6973  0.2024  11.00000  0.05    0.29
Q15   1   0.0564  1.2065  0.5369  11.00000  0.05    0.27
Q16   1   0.2982  0.5604  0.1816  11.00000  0.05    0.25
Q17   1  -0.0885  1.0539  0.5564  11.00000  0.05    0.25
Q18   1   0.1924  0.8379  0.1458  11.00000  0.05    0.25
Q19   1   0.0584  1.1802  0.6310  11.00000  0.05    0.25
Q20   1   0.4363  0.3168  0.2263  11.00000  0.05    0.24
;
_shelx_res_checksum              82458
loop_
_space_group_symop_operation_xyz
'x, y, z'
loop_
_atom_site_type_symbol
_atom_site_label
_atom_site_fract_x
_atom_site_fract_y
_atom_site_fract_z
_atom_site_U_iso_or_equiv
_atom_site_adp_type
_atom_site_calc_flag
_atom_site_occupancy
P P1 0.14947(9) 0.99042(9) 0.62404(7) 0.01530(18) Uani d 1
N N1 0.1966(3) 0.8614(3) 0.5069(3) 0.0167(6) Uani d 1
H H1 0.164(5) 0.868(5) 0.431(4) 0.018(10) Uiso d 1
C C13 0.4854(4) 1.2492(5) 0.8604(4) 0.0288(8) Uani d 1
H H13A 0.4981 1.3116 0.9477 0.043 Uiso calc 1
H H13B 0.4936 1.3183 0.7987 0.043 Uiso calc 1
H H13C 0.5696 1.1722 0.8573 0.043 Uiso calc 1
C C22 0.6994(4) 0.5844(4) 0.2253(3) 0.0191(7) Uani d 1
H H22A 0.6396 0.6607 0.2757 0.029 Uiso calc 1
H H22B 0.6911 0.6077 0.1382 0.029 Uiso calc 1
H H22C 0.8121 0.5903 0.2674 0.029 Uiso calc 1
O O22 0.3949(3) 0.6375(3) 0.0305(2) 0.0197(5) Uani d 1
C C20 0.2344(4) 0.2108(4) 0.2171(4) 0.0238(7) Uani d 1
H H20A 0.2279 0.1264 0.2657 0.036 Uiso calc 1
H H20B 0.1717 0.1800 0.1298 0.036 Uiso calc 1
H H20C 0.1915 0.3062 0.2608 0.036 Uiso calc 1
C C18 0.7295(4) 0.2944(4) 0.2108(3) 0.0182(7) Uani d 1
H H18 0.8403 0.3122 0.2125 0.022 Uiso calc 1
C C4 0.5190(4) 0.4918(4) 0.5428(3) 0.0175(7) Uani d 1
C C21 0.7858(5) 0.0071(4) 0.1993(4) 0.0252(7) Uani d 1
H H21A 0.7251 -0.0915 0.1615 0.038 Uiso calc 1
H H21B 0.8396 0.0024 0.2874 0.038 Uiso calc 1
H H21C 0.8659 0.0231 0.1470 0.038 Uiso calc 1
O O21 0.1648(3) 0.4639(3) 0.0032(2) 0.0190(5) Uani d 1
C C17 0.6729(4) 0.1415(4) 0.2025(3) 0.0192(7) Uani d 1
C C16 0.5109(4) 0.1184(4) 0.2009(3) 0.0190(7) Uani d 1
H H16 0.4697 0.0147 0.1939 0.023 Uiso calc 1
C C7 0.5290(4) 0.9175(4) 0.4958(4) 0.0245(7) Uani d 1
H H7A 0.4549 0.9526 0.4261 0.037 Uiso calc 1
H H7B 0.6350 0.9049 0.4720 0.037 Uiso calc 1
H H7C 0.5367 0.9956 0.5753 0.037 Uiso calc 1
C C15 0.4067(4) 0.2416(4) 0.2091(3) 0.0171(6) Uani d 1
C C14 0.4670(4) 0.3938(3) 0.2143(3) 0.0130(6) Uani d 1
C C1 0.3059(4) 0.7368(4) 0.5213(3) 0.0143(6) Uani d 1
C C19 0.6307(4) 0.4218(4) 0.2168(3) 0.0155(6) Uani d 1
C C12 0.3254(5) 1.1660(5) 0.8262(4) 0.0293(8) Uani d 1
H H12A 0.3109 1.1056 0.8937 0.035 Uiso calc 1
H H12B 0.2396 1.2427 0.8198 0.035 Uiso calc 1
O O12 0.0974(3) 0.8995(3) 0.7271(2) 0.0198(5) Uani d 1
C C24 0.4938(4) 0.7597(5) -0.1237(4) 0.0289(8) Uani d 1
H H24A 0.4663 0.7936 -0.2071 0.043 Uiso calc 1
H H24B 0.5761 0.6809 -0.1281 0.043 Uiso calc 1
H H24C 0.5347 0.8501 -0.0565 0.043 Uiso calc 1
C C11 -0.1083(6) 0.9680(6) 0.8518(5) 0.0474(12) Uani d 1
H H11A -0.2174 0.9406 0.8600 0.071 Uiso calc 1
H H11B -0.1012 1.0789 0.8454 0.071 Uiso calc 1
H H11C -0.0329 0.9491 0.9277 0.071 Uiso calc 1
O O11 0.3174(3) 1.0607(3) 0.7029(2) 0.0207(5) Uani d 1
C C23 0.3481(4) 0.6905(5) -0.0921(4) 0.0289(8) Uani d 1
H H23A 0.2652 0.7699 -0.0851 0.035 Uiso calc 1
H H23B 0.3037 0.6011 -0.1608 0.035 Uiso calc 1
C C10 -0.0677(4) 0.8696(5) 0.7332(4) 0.0285(8) Uani d 1
H H10A -0.0853 0.7573 0.7351 0.034 Uiso calc 1
H H10B -0.1378 0.8946 0.6557 0.034 Uiso calc 1
C C26 -0.1018(5) 0.4715(6) -0.1138(5) 0.0456(12) Uani d 1
H H26A -0.2135 0.4384 -0.1192 0.068 Uiso calc 1
H H26B -0.0638 0.4212 -0.1918 0.068 Uiso calc 1
H H26C -0.0942 0.5856 -0.1061 0.068 Uiso calc 1
C C9 0.0744(4) 0.5551(4) 0.5284(4) 0.0262(8) Uani d 1
H H9A 0.0100 0.6313 0.4863 0.039 Uiso calc 1
H H9B 0.0545 0.5624 0.6166 0.039 Uiso calc 1
H H9C 0.0449 0.4491 0.4797 0.039 Uiso calc 1
C C25 -0.0015(4) 0.4248(4) 0.0014(4) 0.0250(8) Uani d 1
H H25A -0.0347 0.4806 0.0811 0.030 Uiso calc 1
H H25B -0.0155 0.3107 -0.0022 0.030 Uiso calc 1
C C8 0.6333(4) 0.3602(4) 0.5484(3) 0.0223(7) Uani d 1
H H8A 0.6016 0.2908 0.6031 0.033 Uiso calc 1
H H8B 0.7419 0.4034 0.5848 0.033 Uiso calc 1
H H8C 0.6309 0.3006 0.4612 0.033 Uiso calc 1
C C6 0.2492(4) 0.5895(4) 0.5325(3) 0.0178(6) Uani d 1
C C5 0.3580(4) 0.4701(4) 0.5444(3) 0.0180(6) Uani d 1
H H5 0.3201 0.3706 0.5540 0.022 Uiso calc 1
N N2 0.3620(3) 0.5236(3) 0.2257(2) 0.0146(5) Uani d 1
H H2 0.357(5) 0.568(5) 0.301(3) 0.026(11) Uiso d 1
P P2 0.26274(9) 0.59936(8) 0.10798(7) 0.01365(17) Uani d 1
C C2 0.4682(4) 0.7628(4) 0.5174(3) 0.0158(6) Uani d 1
S S2 0.13503(10) 0.77150(9) 0.16919(8) 0.0229(2) Uani d 1
S S1 -0.00294(11) 1.13550(10) 0.56163(9) 0.0270(2) Uani d 1
C C3 0.5712(4) 0.6398(4) 0.5288(3) 0.0165(6) Uani d 1
H H3 0.6812 0.6568 0.5272 0.020 Uiso calc 1
loop_
_atom_site_aniso_label
_atom_site_aniso_U_11
_atom_site_aniso_U_22
_atom_site_aniso_U_33
_atom_site_aniso_U_12
_atom_site_aniso_U_13
_atom_site_aniso_U_23
P1 0.0175(4) 0.0103(4) 0.0176(4) 0.0042(3) 0.0032(3) 0.0012(3)
N1 0.0212(14) 0.0131(13) 0.0142(14) 0.0058(11) 0.0000(11) 0.0014(10)
C13 0.0266(19) 0.031(2) 0.0234(18) -0.0025(15) 0.0029(14) -0.0079(15)
C22 0.0158(15) 0.0174(16) 0.0246(17) 0.0001(12) 0.0042(13) 0.0050(13)
O22 0.0185(11) 0.0249(12) 0.0174(11) 0.0025(9) 0.0022(9) 0.0097(9)
C20 0.0196(17) 0.0187(17) 0.036(2) 0.0006(13) 0.0067(14) 0.0102(15)
C18 0.0171(16) 0.0222(17) 0.0164(16) 0.0028(13) 0.0058(12) 0.0036(13)
C4 0.0224(17) 0.0184(16) 0.0098(14) 0.0068(13) 0.0010(12) -0.0005(12)
C21 0.0298(19) 0.0203(17) 0.0255(18) 0.0119(15) 0.0049(15) 0.0042(14)
O21 0.0180(11) 0.0177(12) 0.0195(12) 0.0020(9) 0.0028(9) -0.0012(9)
C17 0.0261(18) 0.0189(16) 0.0131(15) 0.0092(14) 0.0038(13) 0.0044(12)
C16 0.0269(17) 0.0110(15) 0.0198(16) 0.0024(13) 0.0044(13) 0.0044(12)
C7 0.0270(18) 0.0189(17) 0.0294(18) 0.0020(14) 0.0100(15) 0.0045(14)
C15 0.0194(16) 0.0155(15) 0.0171(15) 0.0025(12) 0.0028(12) 0.0049(12)
C14 0.0167(15) 0.0108(14) 0.0116(14) 0.0035(12) 0.0024(12) 0.0024(11)
C1 0.0184(15) 0.0109(14) 0.0118(14) 0.0040(12) 0.0012(11) -0.0010(11)
C19 0.0210(16) 0.0152(15) 0.0112(14) 0.0037(13) 0.0038(12) 0.0038(12)
C12 0.031(2) 0.030(2) 0.0224(18) -0.0033(16) 0.0099(15) -0.0116(15)
O12 0.0185(12) 0.0199(12) 0.0221(12) 0.0031(9) 0.0052(9) 0.0053(9)
C24 0.0271(19) 0.038(2) 0.0246(18) 0.0034(16) 0.0039(15) 0.0134(16)
C11 0.042(3) 0.042(3) 0.063(3) -0.002(2) 0.034(2) -0.005(2)
O11 0.0216(12) 0.0185(12) 0.0192(12) 0.0016(10) 0.0053(9) -0.0055(9)
C23 0.0255(19) 0.043(2) 0.0219(17) 0.0013(17) -0.0002(14) 0.0198(16)
C10 0.0240(18) 0.0266(19) 0.037(2) -0.0069(15) 0.0091(16) 0.0068(16)
C26 0.022(2) 0.060(3) 0.053(3) -0.003(2) -0.0078(19) 0.020(2)
C9 0.0210(17) 0.0157(17) 0.041(2) 0.0000(14) 0.0066(15) 0.0022(15)
C25 0.0205(17) 0.0213(17) 0.0304(19) -0.0093(14) 0.0019(14) 0.0001(14)
C8 0.0272(18) 0.0196(17) 0.0200(16) 0.0081(14) 0.0019(14) 0.0056(13)
C6 0.0201(16) 0.0161(16) 0.0155(15) 0.0023(12) 0.0020(12) -0.0004(12)
C5 0.0239(17) 0.0113(15) 0.0182(15) 0.0008(12) 0.0030(12) 0.0023(12)
N2 0.0190(13) 0.0122(13) 0.0129(13) 0.0051(11) 0.0050(10) 0.0012(10)
P2 0.0148(4) 0.0113(4) 0.0144(4) 0.0035(3) 0.0019(3) 0.0021(3)
C2 0.0207(16) 0.0136(15) 0.0115(14) 0.0010(12) 0.0024(12) -0.0012(11)
S2 0.0288(4) 0.0162(4) 0.0216(4) 0.0122(3) 0.0024(3) 0.0004(3)
S1 0.0314(5) 0.0189(4) 0.0313(5) 0.0139(4) 0.0038(4) 0.0083(4)
C3 0.0154(15) 0.0191(16) 0.0147(15) 0.0011(12) 0.0036(12) 0.0012(12)
loop_
_atom_type_symbol
_atom_type_description
_atom_type_scat_dispersion_real
_atom_type_scat_dispersion_imag
_atom_type_scat_source
C C 0.0033 0.0016 'International Tables Vol C Tables 4.2.6.8 and 6.1.1.4'
H H 0.0000 0.0000 'International Tables Vol C Tables 4.2.6.8 and 6.1.1.4'
O O 0.0106 0.0060 'International Tables Vol C Tables 4.2.6.8 and 6.1.1.4'
N N 0.0061 0.0033 'International Tables Vol C Tables 4.2.6.8 and 6.1.1.4'
P P 0.1023 0.0942 'International Tables Vol C Tables 4.2.6.8 and 6.1.1.4'
S S 0.1246 0.1234 'International Tables Vol C Tables 4.2.6.8 and 6.1.1.4'
loop_
_exptl_crystal_face_index_h
_exptl_crystal_face_index_k
_exptl_crystal_face_index_l
_exptl_crystal_face_perp_dist
-3 -1 -13 0.056
-12 3 -1 0.0918
1 11 3 0.0773
1 -11 9 0.0907
12 2 -4 0.0502
4 11 -6 0.0608
-1 3 13 0.1363
3 11 1 0.0638
-5 -10 9 0.1326
12 -1 -4 0.0445
-3 0 -13 0.0471
loop_
_geom_angle_atom_site_label_1
_geom_angle_atom_site_label_2
_geom_angle_atom_site_label_3
_geom_angle
O11 P1 O12 99.04(13)
O11 P1 N1 103.50(13)
O12 P1 N1 108.27(14)
O11 P1 S1 117.29(10)
O12 P1 S1 115.18(10)
N1 P1 S1 112.17(11)
C1 N1 P1 125.9(2)
C1 N1 H1 113(3)
P1 N1 H1 121(3)
C12 C13 H13A 109.5
C12 C13 H13B 109.5
H13A C13 H13B 109.5
C12 C13 H13C 109.5
H13A C13 H13C 109.5
H13B C13 H13C 109.5
C19 C22 H22A 109.5
C19 C22 H22B 109.5
H22A C22 H22B 109.5
C19 C22 H22C 109.5
H22A C22 H22C 109.5
H22B C22 H22C 109.5
C23 O22 P2 119.9(2)
C15 C20 H20A 109.5
C15 C20 H20B 109.5
H20A C20 H20B 109.5
C15 C20 H20C 109.5
H20A C20 H20C 109.5
H20B C20 H20C 109.5
C19 C18 C17 122.7(3)
C19 C18 H18 118.7
C17 C18 H18 118.7
C5 C4 C3 117.5(3)
C5 C4 C8 121.8(3)
C3 C4 C8 120.6(3)
C17 C21 H21A 109.5
C17 C21 H21B 109.5
H21A C21 H21B 109.5
C17 C21 H21C 109.5
H21A C21 H21C 109.5
H21B C21 H21C 109.5
C25 O21 P2 122.4(2)
C16 C17 C18 117.6(3)
C16 C17 C21 121.6(3)
C18 C17 C21 120.8(3)
C17 C16 C15 122.3(3)
C17 C16 H16 118.9
C15 C16 H16 118.9
C2 C7 H7A 109.5
C2 C7 H7B 109.5
H7A C7 H7B 109.5
C2 C7 H7C 109.5
H7A C7 H7C 109.5
H7B C7 H7C 109.5
C16 C15 C14 118.6(3)
C16 C15 C20 119.9(3)
C14 C15 C20 121.5(3)
C15 C14 C19 120.7(3)
C15 C14 N2 119.5(3)
C19 C14 N2 119.7(3)
C6 C1 C2 120.7(3)
C6 C1 N1 120.0(3)
C2 C1 N1 119.2(3)
C18 C19 C14 118.1(3)
C18 C19 C22 120.1(3)
C14 C19 C22 121.8(3)
O11 C12 C13 108.2(3)
O11 C12 H12A 110.1
C13 C12 H12A 110.1
O11 C12 H12B 110.1
C13 C12 H12B 110.1
H12A C12 H12B 108.4
C10 O12 P1 122.8(2)
C23 C24 H24A 109.5
C23 C24 H24B 109.5
H24A C24 H24B 109.5
C23 C24 H24C 109.5
H24A C24 H24C 109.5
H24B C24 H24C 109.5
C10 C11 H11A 109.5
C10 C11 H11B 109.5
H11A C11 H11B 109.5
C10 C11 H11C 109.5
H11A C11 H11C 109.5
H11B C11 H11C 109.5
C12 O11 P1 119.6(2)
O22 C23 C24 107.8(3)
O22 C23 H23A 110.1
C24 C23 H23A 110.1
O22 C23 H23B 110.1
C24 C23 H23B 110.1
H23A C23 H23B 108.5
O12 C10 C11 109.5(3)
O12 C10 H10A 109.8
C11 C10 H10A 109.8
O12 C10 H10B 109.8
C11 C10 H10B 109.8
H10A C10 H10B 108.2
C25 C26 H26A 109.5
C25 C26 H26B 109.5
H26A C26 H26B 109.5
C25 C26 H26C 109.5
H26A C26 H26C 109.5
H26B C26 H26C 109.5
C6 C9 H9A 109.5
C6 C9 H9B 109.5
H9A C9 H9B 109.5
C6 C9 H9C 109.5
H9A C9 H9C 109.5
H9B C9 H9C 109.5
O21 C25 C26 109.0(3)
O21 C25 H25A 109.9
C26 C25 H25A 109.9
O21 C25 H25B 109.9
C26 C25 H25B 109.9
H25A C25 H25B 108.3
C4 C8 H8A 109.5
C4 C8 H8B 109.5
H8A C8 H8B 109.5
C4 C8 H8C 109.5
H8A C8 H8C 109.5
H8B C8 H8C 109.5
C5 C6 C1 118.7(3)
C5 C6 C9 119.3(3)
C1 C6 C9 121.9(3)
C4 C5 C6 122.3(3)
C4 C5 H5 118.9
C6 C5 H5 118.9
C14 N2 P2 126.6(2)
C14 N2 H2 116(3)
P2 N2 H2 117(3)
O22 P2 O21 99.10(12)
O22 P2 N2 103.90(13)
O21 P2 N2 109.23(13)
O22 P2 S2 116.85(10)
O21 P2 S2 114.39(9)
N2 P2 S2 112.17(10)
C3 C2 C1 118.3(3)
C3 C2 C7 120.4(3)
C1 C2 C7 121.3(3)
C2 C3 C4 122.5(3)
C2 C3 H3 118.7
C4 C3 H3 118.7
loop_
_geom_bond_atom_site_label_1
_geom_bond_atom_site_label_2
_geom_bond_distance
P1 O11 1.581(2)
P1 O12 1.588(2)
P1 N1 1.632(3)
P1 S1 1.9254(11)
N1 C1 1.438(4)
N1 H1 0.83(4)
C13 C12 1.492(5)
C13 H13A 0.9800
C13 H13B 0.9800
C13 H13C 0.9800
C22 C19 1.507(4)
C22 H22A 0.9800
C22 H22B 0.9800
C22 H22C 0.9800
O22 C23 1.458(4)
O22 P2 1.578(2)
C20 C15 1.508(4)
C20 H20A 0.9800
C20 H20B 0.9800
C20 H20C 0.9800
C18 C19 1.389(5)
C18 C17 1.393(5)
C18 H18 0.9500
C4 C5 1.384(5)
C4 C3 1.400(5)
C4 C8 1.502(5)
C21 C17 1.511(5)
C21 H21A 0.9800
C21 H21B 0.9800
C21 H21C 0.9800
O21 C25 1.448(4)
O21 P2 1.588(2)
C17 C16 1.388(5)
C16 C15 1.390(5)
C16 H16 0.9500
C7 C2 1.509(5)
C7 H7A 0.9800
C7 H7B 0.9800
C7 H7C 0.9800
C15 C14 1.404(4)
C14 C19 1.406(4)
C14 N2 1.440(4)
C1 C6 1.398(4)
C1 C2 1.406(4)
C12 O11 1.455(4)
C12 H12A 0.9900
C12 H12B 0.9900
O12 C10 1.441(4)
C24 C23 1.493(5)
C24 H24A 0.9800
C24 H24B 0.9800
C24 H24C 0.9800
C11 C10 1.493(6)
C11 H11A 0.9800
C11 H11B 0.9800
C11 H11C 0.9800
C23 H23A 0.9900
C23 H23B 0.9900
C10 H10A 0.9900
C10 H10B 0.9900
C26 C25 1.489(6)
C26 H26A 0.9800
C26 H26B 0.9800
C26 H26C 0.9800
C9 C6 1.505(5)
C9 H9A 0.9800
C9 H9B 0.9800
C9 H9C 0.9800
C25 H25A 0.9900
C25 H25B 0.9900
C8 H8A 0.9800
C8 H8B 0.9800
C8 H8C 0.9800
C6 C5 1.398(5)
C5 H5 0.9500
N2 P2 1.629(3)
N2 H2 0.83(3)
P2 S2 1.9355(11)
C2 C3 1.390(5)
C3 H3 0.9500
loop_
_geom_hbond_atom_site_label_D
_geom_hbond_atom_site_label_H
_geom_hbond_atom_site_label_A
_geom_hbond_distance_DH
_geom_hbond_distance_HA
_geom_hbond_distance_DA
_geom_hbond_angle_DHA
N1 H1 S2 0.83(4) 2.74(4) 3.503(3) 154(4)
N2 H2 CG1 0.83(2) 2.39(3) 3.175(3) 158(4)
loop_
_geom_torsion_atom_site_label_1
_geom_torsion_atom_site_label_2
_geom_torsion_atom_site_label_3
_geom_torsion_atom_site_label_4
_geom_torsion
O11 P1 N1 C1 53.1(3)
O12 P1 N1 C1 -51.4(3)
S1 P1 N1 C1 -179.5(2)
C19 C18 C17 C16 -0.3(5)
C19 C18 C17 C21 -178.6(3)
C18 C17 C16 C15 -1.0(5)
C21 C17 C16 C15 177.3(3)
C17 C16 C15 C14 2.5(5)
C17 C16 C15 C20 -175.4(3)
C16 C15 C14 C19 -2.8(4)
C20 C15 C14 C19 175.1(3)
C16 C15 C14 N2 -178.6(3)
C20 C15 C14 N2 -0.8(5)
P1 N1 C1 C6 91.3(3)
P1 N1 C1 C2 -91.8(3)
C17 C18 C19 C14 0.0(5)
C17 C18 C19 C22 -179.8(3)
C15 C14 C19 C18 1.5(4)
N2 C14 C19 C18 177.4(3)
C15 C14 C19 C22 -178.6(3)
N2 C14 C19 C22 -2.8(5)
O11 P1 O12 C10 152.6(3)
N1 P1 O12 C10 -99.8(3)
S1 P1 O12 C10 26.6(3)
C13 C12 O11 P1 -164.0(3)
O12 P1 O11 C12 -60.3(3)
N1 P1 O11 C12 -171.6(3)
S1 P1 O11 C12 64.3(3)
P2 O22 C23 C24 164.2(3)
P1 O12 C10 C11 -109.6(4)
P2 O21 C25 C26 110.8(3)
C2 C1 C6 C5 2.3(5)
N1 C1 C6 C5 179.1(3)
C2 C1 C6 C9 -176.0(3)
N1 C1 C6 C9 0.8(5)
C3 C4 C5 C6 0.2(5)
C8 C4 C5 C6 -176.6(3)
C1 C6 C5 C4 -1.4(5)
C9 C6 C5 C4 176.9(3)
C15 C14 N2 P2 -94.1(3)
C19 C14 N2 P2 90.0(3)
C23 O22 P2 O21 60.2(3)
C23 O22 P2 N2 172.7(3)
C23 O22 P2 S2 -63.2(3)
C25 O21 P2 O22 -156.3(2)
C25 O21 P2 N2 95.5(3)
C25 O21 P2 S2 -31.2(3)
C14 N2 P2 O22 -53.4(3)
C14 N2 P2 O21 51.6(3)
C14 N2 P2 S2 179.5(2)
C6 C1 C2 C3 -1.9(5)
N1 C1 C2 C3 -178.7(3)
C6 C1 C2 C7 175.6(3)
N1 C1 C2 C7 -1.2(5)
C1 C2 C3 C4 0.6(5)
C7 C2 C3 C4 -176.9(3)
C5 C4 C3 C2 0.2(5)
C8 C4 C3 C2 177.1(3)

_cod_database_fobs_code 2021194
