#------------------------------------------------------------------------------
#$Date: 2019-06-15 07:16:26 +0300 (Sat, 15 Jun 2019) $
#$Revision: 216001 $
#$URL: file:///home/coder/svn-repositories/cod/cif/2/02/16/2021668.cif $
#------------------------------------------------------------------------------
#
# This file is available in the Crystallography Open Database (COD),
# http://www.crystallography.net/. The original data for this entry
# were provided by IUCr Journals, http://journals.iucr.org/.
#
# The file may be used within the scientific community so long as
# proper attribution is given to the journal article from which the
# data were obtained.
#
data_2021668
loop_
_publ_author_name
'Xie, Long-Yan'
'Zhang, Yu'
'Xu, Hao'
'Gong, Chang-Da'
'Du, Xiu-Li'
'Li, Yang'
'Wang, Meng'
'Qin, Jie'
_publ_section_title
;
 Synthesis, structure and bioactivity of Ni^2+^ and Cu^2+^ acylhydrazone
 complexes
;
_journal_coeditor_code           YP3182
_journal_issue                   7
_journal_name_full               'Acta Crystallographica Section C'
_journal_page_first
;
;
_journal_paper_doi               10.1107/S2053229619008040
_journal_volume                  75
_journal_year                    2019
_chemical_formula_iupac          '[Cu2 (C13 H12 N5 O1)2 (N3)2]'
_chemical_formula_moiety         'C26 H24 Cu2 N16 O2'
_chemical_formula_sum            'C26 H24 Cu2 N16 O2'
_chemical_formula_weight         719.71
_chemical_name_systematic
Di-\m-azido-\k^4^<i>N</i>^1^:<i>N</i>^1^-bis({6-methyl-<i>N</i>'-[1-(pyrazin-2-yl-\k<i>N</i>^1^)ethylidene]nicotinohydrazidato-\k^2^<i>N</i>',<i>O</i>}nickel(II))
_space_group_crystal_system      triclinic
_space_group_IT_number           2
_space_group_name_Hall           '-P 1'
_space_group_name_H-M_alt        'P -1'
_symmetry_space_group_name_Hall  '-P 1'
_symmetry_space_group_name_H-M   'P -1'
_atom_sites_solution_hydrogens   geom
_atom_sites_solution_primary     direct
_atom_sites_solution_secondary   difmap
_audit_creation_method
;
Olex2 1.2
(compiled Apr 23 2013 17:54:37, GUI svn.r4466)
;
_cell_angle_alpha                100.236(2)
_cell_angle_beta                 94.225(2)
_cell_angle_gamma                101.865(2)
_cell_formula_units_Z            1
_cell_length_a                   7.8491(5)
_cell_length_b                   7.8762(6)
_cell_length_c                   12.3391(8)
_cell_measurement_reflns_used    3711
_cell_measurement_temperature    293(2)
_cell_measurement_theta_max      26.37
_cell_measurement_theta_min      2.70
_cell_volume                     729.81(9)
_computing_cell_refinement
;
CrysAlis PRO (Agilent, 2014)
;
_computing_data_collection
;
CrysAlis PRO (Agilent, 2014)
;
_computing_data_reduction
;
CrysAlis PRO (Agilent, 2014)
;
_computing_molecular_graphics
;
OLEX2 (Dolomanov <i>et al.</i>,  2009)
;
_computing_publication_material
;
OLEX2 (Dolomanov <i>et al.</i>,  2009)
;
_computing_structure_refinement
;
SHELXL97 (Sheldrick, 2008)
;
_computing_structure_solution
;
SHELXS97 (Sheldrick, 2008)
;
_diffrn_ambient_temperature      293(2)
_diffrn_measured_fraction_theta_full 0.992
_diffrn_measured_fraction_theta_max 0.992
_diffrn_measurement_device_type  'CCD area detector'
_diffrn_measurement_method       'phi and omega scans'
_diffrn_radiation_monochromator  graphite
_diffrn_radiation_type           MoK\a
_diffrn_radiation_wavelength     0.71073
_diffrn_reflns_av_R_equivalents  0.0342
_diffrn_reflns_av_unetI/netI     0.0549
_diffrn_reflns_limit_h_max       8
_diffrn_reflns_limit_h_min       -10
_diffrn_reflns_limit_k_max       10
_diffrn_reflns_limit_k_min       -10
_diffrn_reflns_limit_l_max       15
_diffrn_reflns_limit_l_min       -15
_diffrn_reflns_number            7758
_diffrn_reflns_theta_full        27.05
_diffrn_reflns_theta_max         27.05
_diffrn_reflns_theta_min         2.70
_diffrn_source                   'fine-focus sealed tube'
_exptl_absorpt_coefficient_mu    1.514
_exptl_absorpt_correction_T_max  0.7828
_exptl_absorpt_correction_T_min  0.7126
_exptl_absorpt_correction_type   multi-scan
_exptl_absorpt_process_details
;
(CrysAlis PRO; Agilent, 2014)
;
_exptl_crystal_colour            blue
_exptl_crystal_density_diffrn    1.638
_exptl_crystal_density_method    'not measured'
_exptl_crystal_description       block
_exptl_crystal_F_000             366
_exptl_crystal_size_max          0.24
_exptl_crystal_size_mid          0.2
_exptl_crystal_size_min          0.17
_refine_diff_density_max         0.430
_refine_diff_density_min         -0.323
_refine_ls_extinction_method     none
_refine_ls_goodness_of_fit_ref   1.033
_refine_ls_hydrogen_treatment    mixed
_refine_ls_matrix_type           full
_refine_ls_number_parameters     210
_refine_ls_number_reflns         3163
_refine_ls_number_restraints     0
_refine_ls_restrained_S_all      1.033
_refine_ls_R_factor_all          0.0635
_refine_ls_R_factor_gt           0.0389
_refine_ls_shift/su_max          0.000
_refine_ls_shift/su_mean         0.000
_refine_ls_structure_factor_coef Fsqd
_refine_ls_weighting_details
'calc w=1/[\s^2^(Fo^2^)+(0.0317P)^2^+0.4086P] where P=(Fo^2^+2Fc^2^)/3'
_refine_ls_weighting_scheme      calc
_refine_ls_wR_factor_gt          0.0779
_refine_ls_wR_factor_ref         0.0859
_reflns_number_gt                2438
_reflns_number_total             3163
_reflns_threshold_expression     >2sigma(I)
_cod_data_source_file            yp3182sup1.cif
_cod_data_source_block           II
_cod_database_code               2021668
_shelx_res_file
;
TITL mo_QJ_114_0m in P1 New: P-1
CELL 0.71073 7.8491 7.8762 12.3391 100.236 94.225 101.865
ZERR 1 0.0005 0.0006 0.0008 0.002 0.002 0.002
LATT 1
SFAC  C 2.31 20.8439 1.02 10.2075 1.5886 0.5687 0.865 51.6512 0.2156 0.0033 =
 0.0016 11.5 0.68 12.01
SFAC  H 0.493 10.5109 0.3229 26.1257 0.1402 3.1424 0.0408 57.7998 0.003 0 0 =
 0.624 0.35 1.008
SFAC  Cu 13.338 3.5828 7.1676 0.247 5.6158 11.3966 1.6735 64.8127 1.191 =
 0.3201 1.2651 5180 1.52 63.55
SFAC  N 12.2126 0.0057 3.1322 9.8933 2.0125 28.9975 1.1663 0.5826 -11.529 =
 0.0061 0.0033 19.6 0.68 14.01
SFAC  O 3.0485 13.2771 2.2868 5.7011 1.5463 0.3239 0.867 32.9089 0.2508 =
 0.0106 0.006 32.5 0.68 16
UNIT 26 24 2 16 2
EQIV $1 2-X,2-Y,-Z
L.S. 4
PLAN  0
SIZE 0.24 0.2 0.17
HTAB C6 N4_$1
FREE Cu1 C7
BOND $H
HTAB
CONF
fmap 2
acta
REM <HKL>D:/data/qinjie/ACTA/QJ_114_CuN3-mjp/mo_QJ_114_0m.hkl</HKL>
WGHT    0.031700    0.408600
FVAR       0.25240
CU1   3    0.489748    0.698784    0.001795    11.00000    0.03426    0.02807 =
         0.02976    0.00316    0.00432    0.00161
C1    1    0.408305    0.542909   -0.246124    11.00000    0.05090    0.03658 =
         0.03679    0.00434   -0.00282    0.00116
AFIX  43
H1    2    0.321127    0.454248   -0.230382    11.00000   -1.20000
AFIX   0
C2    1    0.446436    0.539289   -0.354105    11.00000    0.07548    0.04434 =
         0.03190   -0.00284   -0.00354    0.00388
AFIX  43
H2    2    0.385511    0.445336   -0.409095    11.00000   -1.20000
AFIX   0
C3    1    0.650642    0.794537   -0.300991    11.00000    0.05409    0.04330 =
         0.03452    0.00677    0.01001    0.00704
AFIX  43
H3    2    0.733636    0.885552   -0.318108    11.00000   -1.20000
AFIX   0
C4    1    0.619699    0.800086   -0.191227    11.00000    0.03529    0.03229 =
         0.03173    0.00766    0.00389    0.01196
C5    1    0.715372    0.936422   -0.096698    11.00000    0.03148    0.02916 =
         0.03210    0.00761    0.00562    0.00961
C6    1    0.855053    1.088395   -0.108846    11.00000    0.04089    0.04217 =
         0.03732    0.00783    0.00804    0.00138
AFIX 137
H6A   2    0.890316    1.167535   -0.038408    11.00000   -1.50000
H6B   2    0.811181    1.150035   -0.161347    11.00000   -1.50000
H6C   2    0.953953    1.045853   -0.134634    11.00000   -1.50000
AFIX   0
C7    1    0.660753    0.947382    0.175973    11.00000    0.02865    0.02897 =
         0.03343    0.00148    0.00367    0.00891
C8    1    0.733119    1.038428    0.290663    11.00000    0.03480    0.03040 =
         0.02937    0.00409    0.00522    0.00780
C9    1    0.874432    1.182001    0.312923    11.00000    0.04476    0.03962 =
         0.03296    0.00789    0.00747    0.00282
AFIX  43
H9    2    0.923001    1.228207    0.254961    11.00000   -1.20000
AFIX   0
C10   1    0.942341    1.255582    0.419493    11.00000    0.04461    0.03940 =
         0.03424    0.00319   -0.00183   -0.00793
AFIX  43
H10   2    1.037821    1.351636    0.434580    11.00000   -1.20000
AFIX   0
C11   1    0.869384    1.187504    0.504796    11.00000    0.05331    0.04407 =
         0.03429    0.00677   -0.00029    0.00475
C12   1    0.665209    0.978144    0.381125    11.00000    0.04805    0.04101 =
         0.03930    0.00807    0.00599   -0.00003
AFIX  43
H12   2    0.569104    0.882809    0.367952    11.00000   -1.20000
AFIX   0
C13   1    0.941574    1.265359    0.623519    11.00000    0.09369    0.07102 =
         0.03422    0.00600   -0.01015   -0.01120
AFIX 137
H13A  2    0.849895    1.298681    0.664110    11.00000   -1.50000
H13B  2    1.033681    1.367917    0.626572    11.00000   -1.50000
H13C  2    0.987258    1.179211    0.655711    11.00000   -1.50000
AFIX   0
N1    4    0.495614    0.672384   -0.164893    11.00000    0.03746    0.03126 =
         0.02900    0.00476   -0.00138    0.00703
N2    4    0.565647    0.663432   -0.382685    11.00000    0.07339    0.05076 =
         0.03169    0.00136    0.00701    0.00517
N3    4    0.664228    0.906672   -0.003669    11.00000    0.03228    0.02616 =
         0.02623    0.00195    0.00384    0.00635
N4    4    0.738368    1.014665    0.096164    11.00000    0.03377    0.03198 =
         0.02766    0.00296    0.00477    0.00411
N5    4    0.730963    1.050207    0.486438    11.00000    0.06511    0.05448 =
         0.03432    0.01046    0.00589    0.00025
N6    4    0.695156    0.507440    0.002313    11.00000    0.03276    0.03134 =
         0.03837    0.00638    0.00541    0.00201
N7    4    0.793719    0.525990   -0.067274    11.00000    0.03234    0.03028 =
         0.04652    0.00591    0.00257    0.00317
N8    4    0.889318    0.552695   -0.130402    11.00000    0.05995    0.06445 =
         0.07481    0.02130    0.03601    0.00905
O1    5    0.533975    0.810575    0.160548    11.00000    0.03749    0.03336 =
         0.03213    0.00356    0.00635   -0.00173
HKLF 4
REM  mo_QJ_114_0m in P1 New: P-1
REM R1 =  0.0389 for   2438 Fo > 4sig(Fo)  and  0.0635 for all   3163 data
REM    210 parameters refined using      0 restraints
END
WGHT      0.0317      0.4084
REM Highest difference peak  0.430,  deepest hole -0.323,  1-sigma level  0.072
Q1    1   0.5371  0.8925 -0.0042  11.00000  0.05    0.43
Q2    1   0.5831  0.4467  0.0057  11.00000  0.05    0.43
Q3    1   0.5613  0.6868 -0.0970  11.00000  0.05    0.38
Q4    1   0.4870  0.6024 -0.1998  11.00000  0.05    0.32
Q5    1   0.5536  0.5885  0.0214  11.00000  0.05    0.31
Q6    1   0.6674  0.5289 -0.0222  11.00000  0.05    0.29
Q7    1   0.8921  0.4981 -0.0768  11.00000  0.05    0.29
Q8    1   0.9097  1.1858  0.4388  11.00000  0.05    0.28
Q9    1   0.4900  0.8051  0.1928  11.00000  0.05    0.28
Q10   1   0.5210  0.5561 -0.0505  11.00000  0.05    0.28
Q11   1   0.7315  0.5203 -0.0975  11.00000  0.05    0.26
Q12   1   0.6133  0.8409 -0.2261  11.00000  0.05    0.26
Q13   1   0.8817  1.2647  0.4588  11.00000  0.05    0.25
Q14   1   0.6796  0.9935  0.2252  11.00000  0.05    0.25
Q15   1   0.6730  0.9865  0.5511  11.00000  0.05    0.25
Q16   1   0.6714  0.9521 -0.0410  11.00000  0.05    0.25
Q17   1   0.6168  0.4482 -0.0998  11.00000  0.05    0.24
Q18   1   0.7996  0.4531 -0.1296  11.00000  0.05    0.24
Q19   1   0.5263  0.9045  0.1368  11.00000  0.05    0.24
Q20   1   0.5398  0.7374 -0.1918  11.00000  0.05    0.24
REM The information below was added by Olex2.
REM
REM R1 = 0.0389 for 2438 Fo > 4sig(Fo) and 0.0635 for all 7758 data
REM n/a parameters refined using n/a restraints
REM Highest difference peak 0.43, deepest hole -0.32
REM Mean Shift 0, Max Shift 0.
REM +++ Tabular Listing of Refinement Information +++
REM R1_all = 0.0635
REM R1_gt = 0.0389
REM wR_ref = 0.0859
REM GOOF = 1.033
REM Shift_max = 0
REM Shift_mean = 0
REM Reflections_all = 7758
REM Reflections_gt = 2438
REM Parameters = n/a
REM Hole = 0.43
REM Peak = -0.32
REM Flack = n/a
;
loop_
_space_group_symop_id
_space_group_symop_operation_xyz
1 'x, y, z'
2 '-x, -y, -z'
loop_
_atom_site_type_symbol
_atom_site_label
_atom_site_fract_x
_atom_site_fract_y
_atom_site_fract_z
_atom_site_U_iso_or_equiv
_atom_site_adp_type
_atom_site_calc_flag
_atom_site_refinement_flags
_atom_site_occupancy
_atom_site_symmetry_multiplicity
Cu Cu1 0.48975(4) 0.69878(4) 0.00180(3) 0.03177(13) Uani d . 1 1
C C1 0.4083(4) 0.5429(4) -0.2461(2) 0.0435(7) Uani d . 1 1
H H1 0.3211 0.4542 -0.2304 0.052 Uiso calc R 1 1
C C2 0.4464(5) 0.5393(4) -0.3541(2) 0.0538(9) Uani d . 1 1
H H2 0.3855 0.4453 -0.4091 0.065 Uiso calc R 1 1
C C3 0.6506(4) 0.7945(4) -0.3010(2) 0.0444(7) Uani d . 1 1
H H3 0.7336 0.8856 -0.3181 0.053 Uiso calc R 1 1
C C4 0.6197(3) 0.8001(3) -0.1912(2) 0.0323(6) Uani d . 1 1
C C5 0.7154(3) 0.9364(3) -0.0967(2) 0.0302(6) Uani d . 1 1
C C6 0.8551(4) 1.0884(4) -0.1088(2) 0.0411(7) Uani d . 1 1
H H6A 0.8903 1.1675 -0.0384 0.062 Uiso calc R 1 1
H H6B 0.8112 1.1500 -0.1613 0.062 Uiso calc R 1 1
H H6C 0.9540 1.0459 -0.1346 0.062 Uiso calc R 1 1
C C7 0.6608(3) 0.9474(3) 0.1760(2) 0.0306(6) Uani d . 1 1
C C8 0.7331(3) 1.0384(3) 0.2907(2) 0.0316(6) Uani d . 1 1
C C9 0.8744(4) 1.1820(4) 0.3129(2) 0.0398(7) Uani d . 1 1
H H9 0.9230 1.2282 0.2550 0.048 Uiso calc R 1 1
C C10 0.9423(4) 1.2556(4) 0.4195(2) 0.0428(7) Uani d . 1 1
H H10 1.0378 1.3516 0.4346 0.051 Uiso calc R 1 1
C C11 0.8694(4) 1.1875(4) 0.5048(2) 0.0452(8) Uani d . 1 1
C C12 0.6652(4) 0.9781(4) 0.3811(2) 0.0442(7) Uani d . 1 1
H H12 0.5691 0.8828 0.3680 0.053 Uiso calc R 1 1
C C13 0.9416(5) 1.2654(5) 0.6235(3) 0.0721(12) Uani d . 1 1
H H13A 0.8499 1.2987 0.6641 0.108 Uiso calc R 1 1
H H13B 1.0337 1.3679 0.6266 0.108 Uiso calc R 1 1
H H13C 0.9873 1.1792 0.6557 0.108 Uiso calc R 1 1
N N1 0.4956(3) 0.6724(3) -0.16489(17) 0.0331(5) Uani d . 1 1
N N2 0.5656(4) 0.6634(4) -0.3827(2) 0.0540(7) Uani d . 1 1
N N3 0.6642(3) 0.9067(3) -0.00367(17) 0.0286(5) Uani d . 1 1
N N4 0.7384(3) 1.0147(3) 0.09616(17) 0.0319(5) Uani d . 1 1
N N5 0.7310(4) 1.0502(4) 0.4864(2) 0.0530(7) Uani d . 1 1
N N6 0.6952(3) 0.5074(3) 0.00231(19) 0.0349(5) Uani d . 1 1
N N7 0.7937(3) 0.5260(3) -0.0673(2) 0.0373(6) Uani d . 1 1
N N8 0.8893(4) 0.5527(4) -0.1304(3) 0.0647(8) Uani d . 1 1
O O1 0.5340(2) 0.8106(2) 0.16055(14) 0.0360(4) Uani d . 1 1
loop_
_atom_site_aniso_label
_atom_site_aniso_U_11
_atom_site_aniso_U_22
_atom_site_aniso_U_33
_atom_site_aniso_U_12
_atom_site_aniso_U_13
_atom_site_aniso_U_23
Cu1 0.0343(2) 0.0281(2) 0.0298(2) 0.00161(13) 0.00432(14) 0.00316(13)
C1 0.0509(18) 0.0366(17) 0.0368(17) 0.0012(14) -0.0028(14) 0.0043(13)
C2 0.075(2) 0.0443(19) 0.0319(17) 0.0039(17) -0.0035(16) -0.0028(14)
C3 0.0541(19) 0.0433(18) 0.0345(16) 0.0070(15) 0.0100(14) 0.0068(14)
C4 0.0353(15) 0.0323(15) 0.0317(15) 0.0120(12) 0.0039(12) 0.0077(12)
C5 0.0315(14) 0.0292(14) 0.0321(15) 0.0096(12) 0.0056(12) 0.0076(11)
C6 0.0409(17) 0.0422(17) 0.0373(16) 0.0014(14) 0.0080(13) 0.0078(13)
C7 0.0287(14) 0.0290(14) 0.0334(15) 0.0089(12) 0.0037(12) 0.0015(12)
C8 0.0348(15) 0.0304(14) 0.0294(14) 0.0078(12) 0.0052(12) 0.0041(11)
C9 0.0448(17) 0.0396(17) 0.0330(16) 0.0028(14) 0.0075(13) 0.0079(13)
C10 0.0446(17) 0.0394(17) 0.0342(16) -0.0079(13) -0.0018(14) 0.0032(13)
C11 0.0533(19) 0.0441(18) 0.0343(16) 0.0047(15) -0.0003(14) 0.0068(14)
C12 0.0480(18) 0.0410(17) 0.0393(17) 0.0000(14) 0.0060(14) 0.0081(14)
C13 0.094(3) 0.071(3) 0.0342(18) -0.011(2) -0.0101(19) 0.0060(17)
N1 0.0375(13) 0.0313(12) 0.0290(12) 0.0070(10) -0.0014(10) 0.0048(10)
N2 0.0734(19) 0.0508(17) 0.0317(14) 0.0052(15) 0.0070(13) 0.0014(12)
N3 0.0323(12) 0.0262(11) 0.0262(11) 0.0063(9) 0.0038(10) 0.0020(9)
N4 0.0338(12) 0.0320(12) 0.0277(12) 0.0041(10) 0.0048(10) 0.0030(10)
N5 0.0651(18) 0.0545(17) 0.0343(15) 0.0002(14) 0.0059(13) 0.0105(13)
N6 0.0328(13) 0.0313(13) 0.0384(13) 0.0020(10) 0.0054(11) 0.0064(10)
N7 0.0323(13) 0.0303(13) 0.0465(15) 0.0032(10) 0.0026(12) 0.0059(11)
N8 0.0599(19) 0.064(2) 0.075(2) 0.0091(15) 0.0360(17) 0.0213(16)
O1 0.0375(11) 0.0334(10) 0.0321(10) -0.0017(8) 0.0063(9) 0.0036(8)
loop_
_atom_type_symbol
_atom_type_description
_atom_type_scat_dispersion_real
_atom_type_scat_dispersion_imag
_atom_type_scat_source
C C 0.0033 0.0016 'International Tables Vol C Tables 4.2.6.8 and 6.1.1.4'
H H 0.0000 0.0000 'International Tables Vol C Tables 4.2.6.8 and 6.1.1.4'
Cu Cu 0.3201 1.2651 'International Tables Vol C Tables 4.2.6.8 and 6.1.1.4'
N N 0.0061 0.0033 'International Tables Vol C Tables 4.2.6.8 and 6.1.1.4'
O O 0.0106 0.0060 'International Tables Vol C Tables 4.2.6.8 and 6.1.1.4'
loop_
_geom_angle_atom_site_label_1
_geom_angle_atom_site_label_2
_geom_angle_atom_site_label_3
_geom_angle_site_symmetry_1
_geom_angle_site_symmetry_3
_geom_angle
N1 Cu1 Cu1 . 2_665 92.99(6)
N1 Cu1 N6 . . 88.24(8)
N3 Cu1 Cu1 . 2_665 132.40(6)
N3 Cu1 N1 . . 79.57(9)
N3 Cu1 N6 . 2_665 175.77(9)
N3 Cu1 N6 . . 94.82(8)
N3 Cu1 O1 . . 79.90(8)
N6 Cu1 Cu1 . 2_665 37.67(5)
N6 Cu1 Cu1 2_665 2_665 49.99(7)
N6 Cu1 N1 2_665 . 97.11(9)
N6 Cu1 N6 2_665 . 87.66(9)
N6 Cu1 O1 2_665 . 103.19(9)
O1 Cu1 Cu1 . 2_665 104.09(6)
O1 Cu1 N1 . . 159.01(8)
O1 Cu1 N6 . . 97.79(8)
C2 C1 H1 . . 119.9
N1 C1 H1 . . 119.9
N1 C1 C2 . . 120.3(3)
C1 C2 H2 . . 118.5
N2 C2 C1 . . 123.0(3)
N2 C2 H2 . . 118.5
C4 C3 H3 . . 118.8
N2 C3 H3 . . 118.8
N2 C3 C4 . . 122.3(3)
C3 C4 C5 . . 124.9(3)
N1 C4 C3 . . 119.9(2)
N1 C4 C5 . . 115.3(2)
C4 C5 C6 . . 123.3(2)
N3 C5 C4 . . 112.0(2)
N3 C5 C6 . . 124.7(2)
C5 C6 H6A . . 109.5
C5 C6 H6B . . 109.5
C5 C6 H6C . . 109.5
H6A C6 H6B . . 109.5
H6A C6 H6C . . 109.5
H6B C6 H6C . . 109.5
N4 C7 C8 . . 115.6(2)
O1 C7 C8 . . 119.2(2)
O1 C7 N4 . . 125.2(2)
C9 C8 C7 . . 122.1(2)
C9 C8 C12 . . 117.0(3)
C12 C8 C7 . . 120.9(2)
C8 C9 H9 . . 120.0
C10 C9 C8 . . 120.0(3)
C10 C9 H9 . . 120.0
C9 C10 H10 . . 120.1
C9 C10 C11 . . 119.7(3)
C11 C10 H10 . . 120.1
C10 C11 C13 . . 121.1(3)
N5 C11 C10 . . 121.9(3)
N5 C11 C13 . . 117.0(3)
C8 C12 H12 . . 118.3
N5 C12 C8 . . 123.4(3)
N5 C12 H12 . . 118.3
C11 C13 H13A . . 109.5
C11 C13 H13B . . 109.5
C11 C13 H13C . . 109.5
H13A C13 H13B . . 109.5
H13A C13 H13C . . 109.5
H13B C13 H13C . . 109.5
C1 N1 Cu1 . . 129.3(2)
C1 N1 C4 . . 118.1(2)
C4 N1 Cu1 . . 112.23(17)
C2 N2 C3 . . 116.4(3)
C5 N3 Cu1 . . 120.73(18)
C5 N3 N4 . . 122.2(2)
N4 N3 Cu1 . . 117.00(15)
C7 N4 N3 . . 107.8(2)
C11 N5 C12 . . 118.0(2)
Cu1 N6 Cu1 2_665 . 92.34(9)
N7 N6 Cu1 . 2_665 125.40(19)
N7 N6 Cu1 . . 111.79(17)
N8 N7 N6 . . 176.4(3)
C7 O1 Cu1 . . 109.78(16)
loop_
_geom_bond_atom_site_label_1
_geom_bond_atom_site_label_2
_geom_bond_site_symmetry_2
_geom_bond_distance
Cu1 Cu1 2_665 3.1610(7)
Cu1 N1 . 2.035(2)
Cu1 N3 . 1.921(2)
Cu1 N6 2_665 1.933(2)
Cu1 N6 . 2.423(2)
Cu1 O1 . 1.9733(18)
C1 H1 . 0.9300
C1 C2 . 1.384(4)
C1 N1 . 1.328(3)
C2 H2 . 0.9300
C2 N2 . 1.323(4)
C3 H3 . 0.9300
C3 C4 . 1.388(4)
C3 N2 . 1.332(4)
C4 C5 . 1.474(4)
C4 N1 . 1.351(3)
C5 C6 . 1.485(4)
C5 N3 . 1.288(3)
C6 H6A . 0.9600
C6 H6B . 0.9600
C6 H6C . 0.9600
C7 C8 . 1.481(4)
C7 N4 . 1.328(3)
C7 O1 . 1.283(3)
C8 C9 . 1.383(4)
C8 C12 . 1.388(4)
C9 H9 . 0.9300
C9 C10 . 1.359(4)
C10 H10 . 0.9300
C10 C11 . 1.373(4)
C11 C13 . 1.503(4)
C11 N5 . 1.340(4)
C12 H12 . 0.9300
C12 N5 . 1.340(4)
C13 H13A . 0.9600
C13 H13B . 0.9600
C13 H13C . 0.9600
N3 N4 . 1.378(3)
N6 Cu1 2_665 1.933(2)
N6 N7 . 1.205(3)
N7 N8 . 1.137(3)
loop_
_geom_hbond_atom_site_label_D
_geom_hbond_atom_site_label_H
_geom_hbond_atom_site_label_A
_geom_hbond_site_symmetry_A
_geom_hbond_distance_DH
_geom_hbond_distance_HA
_geom_hbond_distance_DA
_geom_hbond_angle_DHA
C6 H6C N4 2_775 0.96 2.58 3.450(4) 150.4
loop_
_geom_torsion_atom_site_label_1
_geom_torsion_atom_site_label_2
_geom_torsion_atom_site_label_3
_geom_torsion_atom_site_label_4
_geom_torsion_site_symmetry_1
_geom_torsion_site_symmetry_4
_geom_torsion
Cu1 Cu1 N1 C1 2_665 . 44.7(2)
Cu1 Cu1 N1 C4 2_665 . -128.65(17)
Cu1 Cu1 N3 C5 2_665 . 80.8(2)
Cu1 Cu1 N3 N4 2_665 . -95.32(17)
Cu1 Cu1 N6 N7 2_665 . 129.8(2)
Cu1 Cu1 O1 C7 2_665 . 125.85(16)
Cu1 N3 N4 C7 . . -2.6(3)
Cu1 N6 N7 N8 2_665 . 167(5)
Cu1 N6 N7 N8 . . 57(5)
C1 C2 N2 C3 . . 0.6(5)
C2 C1 N1 Cu1 . . -172.2(2)
C2 C1 N1 C4 . . 0.9(4)
C3 C4 C5 C6 . . 1.6(4)
C3 C4 C5 N3 . . -177.9(3)
C3 C4 N1 Cu1 . . 175.2(2)
C3 C4 N1 C1 . . 1.0(4)
C4 C3 N2 C2 . . 1.4(5)
C4 C5 N3 Cu1 . . 2.5(3)
C4 C5 N3 N4 . . 178.4(2)
C5 C4 N1 Cu1 . . -3.9(3)
C5 C4 N1 C1 . . -178.1(2)
C5 N3 N4 C7 . . -178.6(2)
C6 C5 N3 Cu1 . . -177.0(2)
C6 C5 N3 N4 . . -1.1(4)
C7 C8 C9 C10 . . -176.5(3)
C7 C8 C12 N5 . . 176.7(3)
C8 C7 N4 N3 . . 175.4(2)
C8 C7 O1 Cu1 . . -171.71(18)
C8 C9 C10 C11 . . -0.4(5)
C8 C12 N5 C11 . . 0.0(5)
C9 C8 C12 N5 . . -0.9(5)
C9 C10 C11 C13 . . 179.8(3)
C9 C10 C11 N5 . . -0.5(5)
C10 C11 N5 C12 . . 0.7(5)
C12 C8 C9 C10 . . 1.1(4)
C13 C11 N5 C12 . . -179.6(3)
N1 Cu1 N3 C5 . . -3.7(2)
N1 Cu1 N3 N4 . . -179.79(18)
N1 Cu1 N6 Cu1 . 2_665 -97.19(9)
N1 Cu1 N6 N7 . . 32.66(19)
N1 Cu1 O1 C7 . . -17.7(3)
N1 C1 C2 N2 . . -1.7(5)
N1 C4 C5 C6 . . -179.3(2)
N1 C4 C5 N3 . . 1.2(3)
N2 C3 C4 C5 . . 176.8(3)
N2 C3 C4 N1 . . -2.2(4)
N3 Cu1 N1 C1 . . 177.4(3)
N3 Cu1 N1 C4 . . 3.95(17)
N3 Cu1 N6 Cu1 . 2_665 -176.56(9)
N3 Cu1 N6 N7 . . -46.72(19)
N3 Cu1 O1 C7 . . -5.56(17)
N4 C7 C8 C9 . . -1.2(4)
N4 C7 C8 C12 . . -178.7(3)
N4 C7 O1 Cu1 . . 6.6(3)
N6 Cu1 N1 C1 . . 82.1(2)
N6 Cu1 N1 C1 2_665 . -5.3(3)
N6 Cu1 N1 C4 2_665 . -178.70(18)
N6 Cu1 N1 C4 . . -91.27(18)
N6 Cu1 N3 C5 2_665 . -42.1(13)
N6 Cu1 N3 C5 . . 83.6(2)
N6 Cu1 N3 N4 2_665 . 141.8(12)
N6 Cu1 N3 N4 . . -92.47(17)
N6 Cu1 N6 Cu1 2_665 2_665 0.0
N6 Cu1 N6 N7 2_665 . 129.8(2)
N6 Cu1 O1 C7 2_665 . 177.39(17)
N6 Cu1 O1 C7 . . 87.98(17)
O1 Cu1 N1 C1 . . -170.5(2)
O1 Cu1 N1 C4 . . 16.1(3)
O1 Cu1 N3 C5 . . -179.3(2)
O1 Cu1 N3 N4 . . 4.60(16)
O1 Cu1 N6 Cu1 . 2_665 103.00(9)
O1 Cu1 N6 N7 . . -127.16(18)
O1 C7 C8 C9 . . 177.2(2)
O1 C7 C8 C12 . . -0.3(4)
O1 C7 N4 N3 . . -2.9(3)
loop_
_refln_index_h
_refln_index_k
_refln_index_l
_refln_F_squared_meas
_refln_F_squared_sigma
-2 0 0 72.45 2.26
-2 0 0 59.61 2.26
2 0 0 73.92 2.26
2 0 0 69.79 2.29
-3 0 0 65.44 2.21
-3 0 0 63.82 2.22
3 0 0 63.44 2.2
3 0 0 65.1 2.22
-4 0 0 59.56 2.16
-4 0 0 61.61 2.18
4 0 0 59.63 2.17
4 0 0 61.13 2.18
-5 0 0 162.43 5.28
-5 0 0 157.94 5.21
5 0 0 153.21 5.27
5 0 0 159.16 5.23
-6 0 0 35.91 1.58
-6 0 0 34.62 1.63
6 0 0 33.9 1.62
6 0 0 37.97 1.72
-7 0 0 11.34 1.16
-7 0 0 11.36 1.03
7 0 0 12.72 1.3
7 0 0 13.09 1.19
-8 0 0 11.44 1.25
-8 0 0 12.05 1.31
8 0 0 7.45 1.01
-9 0 0 3.94 1.13
-9 0 0 4.24 1.09
-9 1 0 0.32 0.97
-9 1 0 -0.23 0.87
-8 1 0 -1.59 0.7
-8 1 0 1.16 0.72
7 -1 0 1.19 0.67
-7 1 0 1.47 0.62
-7 1 0 1.22 0.57
-7 1 0 2.12 0.81
6 -1 0 3.68 0.62
-6 1 0 3.54 0.7
-6 1 0 3.06 0.57
-6 1 0 3.28 0.55
5 -1 0 19.55 1.02
-5 1 0 17.83 0.99
-5 1 0 17.93 1.05
-5 1 0 18.17 0.98
4 -1 0 2.28 0.39
-4 1 0 2.09 0.39
-4 1 0 2.08 0.35
-4 1 0 1.66 0.35
3 -1 0 72.59 2.5
-3 1 0 69.53 2.43
-3 1 0 72.96 2.43
-3 1 0 73.95 2.51
2 -1 0 1000 30.31
1 -1 0 27.66 0.94
1 -1 0 26.68 0.91
-1 1 0 25.83 0.9
-1 1 0 26.03 0.93
0 -1 0 21.38 0.73
0 -1 0 20.95 0.73
0 1 0 21.3 0.73
0 1 0 21.84 0.74
-1 -1 0 20.08 0.74
1 1 0 21.13 0.76
1 1 0 20.9 0.74
-2 -1 0 2.11 0.28
-2 -1 0 1.52 0.22
2 1 0 2.09 0.26
2 1 0 1.9 0.24
-3 -1 0 146.91 4.8
-3 -1 0 150.06 4.85
3 1 0 150.73 4.81
3 1 0 152.62 4.85
-4 -1 0 5.93 0.53
-4 -1 0 5.59 0.54
4 1 0 6.6 0.54
4 1 0 6.95 0.57
-5 -1 0 2.94 0.52
-5 -1 0 3.08 0.48
5 1 0 2.89 0.48
5 1 0 2.8 0.56
-6 -1 0 8.89 0.84
-6 -1 0 7.87 0.93
6 1 0 8.02 1.06
6 1 0 7.27 0.87
-7 -1 0 6.27 0.8
-7 -1 0 8.94 1.14
7 1 0 6.45 0.86
-8 -1 0 0.86 0.86
-8 -1 0 0.34 0.8
-9 -1 0 3.1 1.07
-9 -1 0 4.04 1.19
-10 2 0 1.22 1.21
-10 2 0 6.11 1.32
-9 2 0 7.09 1.16
-9 2 0 7.7 1.17
-8 2 0 26.94 1.65
-8 2 0 26.79 1.64
7 -2 0 61.47 2.59
-7 2 0 61.09 2.48
-7 2 0 63.54 2.54
-7 2 0 58.87 2.62
6 -2 0 24.91 1.38
-6 2 0 25.55 1.35
-6 2 0 22.56 1.36
-6 2 0 25.25 1.31
5 -2 0 23.81 1.22
-5 2 0 23.77 1.16
-5 2 0 23.29 1.13
-5 2 0 21.36 1.18
4 -2 0 10.58 0.7
-4 2 0 10.33 0.67
-4 2 0 10.89 0.69
-4 2 0 10.62 0.73
3 -2 0 244.76 7.87
-3 2 0 255.83 7.89
-3 2 0 257.17 8.12
1 -2 0 21.15 0.84
1 -2 0 22.41 0.85
-1 2 0 21.72 0.83
-1 2 0 21.36 0.85
0 -2 0 0.68 0.17
0 -2 0 1.13 0.17
0 2 0 0.88 0.16
0 2 0 0.89 0.18
-1 -2 0 40.17 1.42
1 2 0 38.35 1.39
1 2 0 40.1 1.41
1 2 0 42.44 1.44
-2 -2 0 149.39 4.7
-2 -2 0 143.94 4.65
2 2 0 144.45 4.7
2 2 0 145.51 4.67
-3 -2 0 110.92 3.67
-3 -2 0 108.95 3.65
3 2 0 112.41 3.69
3 2 0 109.62 3.66
-4 -2 0 16.36 0.83
-4 -2 0 15.63 0.89
4 2 0 15.53 0.83
4 2 0 16.82 0.99
-5 -2 0 9.52 0.87
-5 -2 0 7.56 0.72
5 2 0 9.1 0.87
5 2 0 9.37 0.77
-6 -2 0 16.94 1.1
-6 -2 0 17.67 1.27
6 2 0 16.74 1.41
6 2 0 17.34 1.17
-7 -2 0 2.39 0.74
-7 -2 0 3.01 0.87
7 2 0 1.72 0.8
-8 -2 0 0.07 0.99
-8 -2 0 1.68 0.85
-9 -2 0 3.33 1.35
-9 3 0 6.48 1.14
-9 3 0 5.23 1.07
-8 3 0 -0.51 0.75
-8 3 0 0.07 0.75
-7 3 0 -1.16 0.79
-7 3 0 -0.09 0.52
-7 3 0 0.08 0.63
6 -3 0 8.1 0.99
-6 3 0 7.31 0.84
-6 3 0 7.41 0.82
-6 3 0 7.01 0.85
5 -3 0 46.67 1.98
-5 3 0 48.36 1.94
-5 3 0 49.21 2
4 -3 0 256.66 8.13
4 -3 0 244.12 8.37
-4 3 0 270.86 8.16
-4 3 0 256.22 8.38
3 -3 0 6.61 0.54
3 -3 0 5.83 0.49
-3 3 0 6 0.55
-3 3 0 6.16 0.57
2 -3 0 88.35 2.91
2 -3 0 85.43 2.97
-2 3 0 86.23 2.97
1 -3 0 54.79 1.93
1 -3 0 54.76 1.91
-1 3 0 53.93 1.91
-1 3 0 53.31 1.92
0 -3 0 20.41 0.87
0 -3 0 22.12 0.94
0 3 0 21.37 0.89
-1 -3 0 160.94 5.19
1 3 0 165.92 5.25
1 3 0 163.13 5.25
1 3 0 158.56 5.19
-2 -3 0 17.75 0.92
2 3 0 18.15 0.94
2 3 0 18.75 0.84
2 3 0 17.83 0.81
-3 -3 0 36.65 1.55
-3 -3 0 36.95 1.43
3 3 0 36.9 1.58
3 3 0 36.39 1.46
-4 -3 0 41.1 1.79
-4 -3 0 43.82 1.67
4 3 0 43.4 1.7
4 3 0 41.1 1.8
-5 -3 0 30.59 1.57
-5 -3 0 30.44 1.37
5 3 0 29.3 1.42
5 3 0 29.2 1.66
-6 -3 0 8.95 1.07
-6 -3 0 9.66 1.01
6 3 0 11.21 1.08
-7 -3 0 23.36 1.78
-7 -3 0 22.42 1.49
-8 -3 0 17.57 1.64
-8 -3 0 16.24 2.08
-9 4 0 5.2 1.22
-9 4 0 5.27 1.2
-8 4 0 3.46 0.92
-8 4 0 2.12 0.93
-7 4 0 4.44 0.86
-7 4 0 3.59 0.81
-7 4 0 3.25 0.83
-6 4 0 0.78 0.74
-6 4 0 1.14 0.57
5 -4 0 31.91 1.57
5 -4 0 31.69 1.47
-5 4 0 31.67 1.57
-5 4 0 31.69 1.59
4 -4 0 33.23 1.55
4 -4 0 35.49 1.5
-4 4 0 36.41 1.57
-4 4 0 34.05 1.53
3 -4 0 2.43 0.44
3 -4 0 2.4 0.4
-3 4 0 2.44 0.42
-3 4 0 2.2 0.4
2 -4 0 3.85 0.47
2 -4 0 3.31 0.47
-2 4 0 3.95 0.48
-2 4 0 3.95 0.51
1 -4 0 13.3 0.73
1 -4 0 12.21 0.74
-1 4 0 12.76 0.75
-1 4 0 11.81 0.71
0 -4 0 104.5 3.5
0 -4 0 99.4 3.49
0 4 0 105.65 3.5
0 4 0 103.58 3.51
-1 -4 0 -0.18 0.32
1 4 0 0.07 0.3
1 4 0 -0.13 0.31
1 4 0 -0.04 0.23
-2 -4 0 -0.22 0.31
2 4 0 0.05 0.28
2 4 0 -0.47 0.34
2 4 0 0.9 0.33
-3 -4 0 0.02 0.42
3 4 0 0.3 0.48
3 4 0 -1.01 0.4
3 4 0 0.16 0.3
-4 -4 0 0.5 0.54
4 4 0 0.33 0.49
4 4 0 1.21 0.4
4 4 0 1.13 0.66
-5 -4 0 1.38 0.63
-5 -4 0 1.87 0.54
5 4 0 0.99 0.62
-6 -4 0 0.97 0.65
-6 -4 0 1.15 0.82
6 4 0 0.7 0.83
-7 -4 0 -0.59 0.84
-7 -4 0 -0.45 1.05
-8 -4 0 -0.67 1.39
-9 5 0 1.49 1.27
-9 5 0 1.46 1.13
-8 5 0 6.55 1.08
-8 5 0 3.42 1.05
-7 5 0 15.54 1.39
-7 5 0 16.79 1.49
6 -5 0 25.03 1.46
-6 5 0 22.4 1.57
-6 5 0 26.44 1.56
5 -5 0 1.82 0.52
-5 5 0 1.28 0.71
-5 5 0 1.13 0.57
4 -5 0 28.56 1.41
4 -5 0 26.58 1.48
-4 5 0 26.41 1.48
-4 5 0 27.88 1.38
3 -5 0 26.98 1.31
3 -5 0 27.15 1.36
-3 5 0 27.95 1.36
-3 5 0 28.81 1.35
2 -5 0 34.04 1.49
2 -5 0 33.86 1.5
-2 5 0 35.4 1.51
-2 5 0 31.88 1.49
1 -5 0 68 2.47
1 -5 0 64.28 2.41
-1 5 0 63.18 2.4
-1 5 0 63.21 2.41
0 -5 0 54.12 2.06
0 -5 0 48.03 1.96
0 5 0 51.77 1.98
0 5 0 49.73 2.05
-1 -5 0 43.95 1.85
1 5 0 46.15 1.79
1 5 0 43.18 1.88
1 5 0 46.02 1.84
-2 -5 0 43.74 1.88
2 5 0 43.03 1.9
2 5 0 44.47 1.82
2 5 0 43.49 1.76
-3 -5 0 44.22 1.99
3 5 0 43.63 1.92
3 5 0 46.52 1.86
-4 -5 0 37.17 1.89
4 5 0 41.6 1.75
4 5 0 39.81 1.86
-5 -5 0 44.93 2.26
5 5 0 41.44 2.09
5 5 0 44.24 1.96
-6 -5 0 12.86 1.67
6 5 0 12 1.32
-7 -5 0 2.57 1.3
-9 6 0 0.26 1.38
-9 6 0 0.94 1.33
-8 6 0 0.3 1.12
-8 6 0 -1.25 1.02
7 -6 0 -0.29 0.89
-7 6 0 2.21 0.83
6 -6 0 0.63 0.72
-6 6 0 0.14 0.59
5 -6 0 2.6 0.62
-5 6 0 1.87 0.56
4 -6 0 3.26 0.7
-4 6 0 1.54 0.6
-4 6 0 2.3 0.62
3 -6 0 -0.08 0.45
3 -6 0 0.78 0.47
-3 6 0 -0.34 0.46
-3 6 0 0.79 0.65
2 -6 0 5.75 0.75
2 -6 0 3.68 0.62
-2 6 0 4.63 0.69
-2 6 0 4.98 0.66
1 -6 0 27.42 1.38
1 -6 0 24.9 1.35
-1 6 0 23.19 1.25
-1 6 0 24.06 1.38
0 -6 0 18.59 1.16
0 -6 0 18.15 1.15
0 6 0 18.15 1.2
0 6 0 19.66 1.1
-1 -6 0 17.72 1.27
1 6 0 18.37 1.1
1 6 0 19.04 1.23
-2 -6 0 32.34 1.71
2 6 0 34 1.72
2 6 0 36.21 1.59
-3 -6 0 43.54 2.12
3 6 0 41.91 2.05
3 6 0 42.63 1.91
-4 -6 0 15.25 1.5
4 6 0 11.04 1.12
4 6 0 10.7 1.31
-5 -6 0 4.88 1.03
5 6 0 2.15 0.87
-6 -6 0 2.52 1.13
-8 7 0 1.62 1.16
7 -7 0 -0.11 1.1
-7 7 0 2.37 0.97
6 -7 0 4.89 1.09
-6 7 0 6.31 1.03
5 -7 0 9.48 1.17
-5 7 0 8.21 1.16
4 -7 0 18.23 1.32
-4 7 0 16.78 1.3
3 -7 0 15.81 1.2
-3 7 0 13.67 1.12
2 -7 0 21.95 1.52
-2 7 0 22.56 1.32
1 -7 0 5.22 0.78
-1 7 0 6.58 0.89
0 -7 0 0.88 0.68
0 7 0 -0.18 0.5
-1 -7 0 3.93 0.77
1 7 0 3.61 0.71
-2 -7 0 13.45 1.3
2 7 0 14.93 1.22
-3 -7 0 13.3 1.42
3 7 0 11.79 1.27
-4 -7 0 4.84 1.22
4 7 0 4.54 0.92
-5 -7 0 -0.21 1.17
7 -8 0 1.2 1.35
-7 8 0 0.39 1.08
6 -8 0 3.24 1.12
-6 8 0 3.15 1.1
5 -8 0 5.44 1.09
-5 8 0 3.19 0.93
4 -8 0 3.44 0.99
-4 8 0 4.26 0.87
3 -8 0 18.25 1.46
-3 8 0 17.43 1.38
2 -8 0 10.83 1.31
-2 8 0 10.54 1.26
1 -8 0 9.7 1.27
-1 8 0 8.44 1.17
0 -8 0 31.03 1.87
0 8 0 30.53 1.75
-1 -8 0 36 2.25
1 8 0 38.58 1.99
-2 -8 0 12.74 1.53
2 8 0 12.77 1.38
-3 -8 0 6.48 1.38
3 8 0 6.77 1.11
6 -9 0 2.74 1.49
5 -9 0 -0.23 1.25
-5 9 0 0.88 1.07
4 -9 0 2.82 1.23
-4 9 0 3.52 1.02
3 -9 0 -0.02 0.92
-3 9 0 -1.49 0.88
2 -9 0 2.27 1.03
-2 9 0 3 0.93
1 -9 0 1.66 1.17
-1 9 0 1.19 0.96
0 -9 0 2.35 1.17
0 9 0 0.61 0.94
-1 -9 0 1.05 1.12
1 9 0 0.38 0.98
-2 -9 0 -0.84 1.1
2 9 0 -0.66 1.08
-2 10 -1 9.3 1.43
2 9 -1 1.49 1.15
-2 -9 1 -0.72 1.22
1 9 -1 1.54 0.97
-1 -9 1 1.68 1.21
0 9 -1 0.41 0.9
0 -9 1 -0.11 1.15
-1 9 -1 0.38 0.91
1 -9 1 1.3 1.12
-2 9 -1 -1.24 0.86
2 -9 1 -1.48 0.94
-3 9 -1 -0.11 0.94
3 -9 1 1.01 1.12
-4 9 -1 0.83 1.04
4 -9 1 0.1 1.09
-5 9 -1 3.81 1.2
5 -9 1 3.46 1.26
-6 9 -1 2.66 0.99
6 -9 1 2.53 1.4
-4 -8 1 4.83 1.29
3 8 -1 5.52 0.99
-3 -8 1 5.04 1.18
2 8 -1 27.4 1.79
-2 -8 1 29.38 2.08
1 8 -1 29.55 1.73
-1 -8 1 26.54 1.83
0 8 -1 21.36 1.5
0 -8 1 22.54 1.77
-1 8 -1 17.59 1.4
1 -8 1 17.33 1.58
-2 8 -1 19.76 1.51
2 -8 1 19.23 1.51
-3 8 -1 5.39 0.87
3 -8 1 4.62 1.06
-4 8 -1 1.65 0.77
4 -8 1 1.15 0.9
-5 8 -1 1.82 0.93
5 -8 1 3.97 1.01
-6 8 -1 3.2 1.1
6 -8 1 4.84 1.21
-7 8 -1 3.54 1.23
7 -8 1 1.06 1.23
-5 -7 1 1.16 1.18
4 7 -1 7.95 0.98
-4 -7 1 7.3 1.22
3 7 -1 12.06 1.16
3 7 -1 13.69 1.49
-3 -7 1 13.28 1.43
2 7 -1 8.18 0.95
2 7 -1 9.41 1.24
-2 -7 1 8.36 1.03
1 7 -1 28.16 1.48
1 7 -1 25.29 1.69
-1 -7 1 26.83 1.6
0 7 -1 23.47 1.32
0 -7 1 23.01 1.49
0 -7 1 18.85 1.35
-1 7 -1 2.85 0.64
1 -7 1 2.82 0.73
-2 7 -1 18.05 1.2
2 -7 1 19.87 1.42
-3 7 -1 41.87 2.02
3 -7 1 40.52 2.01
-4 7 -1 6.77 0.9
4 -7 1 8.73 1.14
-5 7 -1 7.3 1
5 -7 1 9.56 1.27
-6 7 -1 -0.62 0.66
6 -7 1 0.33 0.92
-7 7 -1 5.82 1.18
7 -7 1 4.62 1.19
-8 7 -1 17.71 1.82
-6 -6 1 6.28 1.39
5 6 -1 4.52 0.81
-5 -6 1 4.37 0.98
4 6 -1 19.45 1.24
4 6 -1 18.65 1.48
-4 -6 1 16.69 1.4
3 6 -1 3.7 0.75
3 6 -1 2.7 0.56
-3 -6 1 2.08 0.72
2 6 -1 -0.61 0.58
2 6 -1 0.17 0.43
-2 -6 1 0.78 0.54
1 6 -1 4.82 0.61
1 6 -1 4.51 0.68
-1 -6 1 4.23 0.68
0 6 -1 3.79 0.56
0 6 -1 3.82 0.7
0 -6 1 3.31 0.67
0 -6 1 4.11 0.58
-1 6 -1 0.59 0.52
-1 6 -1 0.32 0.36
1 -6 1 0.44 0.44
1 -6 1 -0.35 0.4
-2 6 -1 0.38 0.42
-2 6 -1 0.08 0.52
2 -6 1 0.85 0.53
2 -6 1 0.82 0.5
-3 6 -1 0 0.41
-3 6 -1 0.42 0.59
3 -6 1 0.65 0.56
3 -6 1 -0.64 0.46
-4 6 -1 11.9 1.21
-4 6 -1 11.64 1.04
4 -6 1 11.75 1.08
-5 6 -1 0.82 0.63
-5 6 -1 0.1 0.5
5 -6 1 0.27 0.64
-6 6 -1 14.67 1.21
6 -6 1 12.37 1.31
-7 6 -1 1.1 0.81
-8 6 -1 0.32 1.07
-8 6 -1 2.43 1.12
-9 6 -1 -0.84 1.29
-7 -5 1 5.12 1.24
6 5 -1 26.37 1.48
-6 -5 1 20.75 1.74
5 5 -1 10.71 0.97
5 5 -1 8.52 0.97
-5 -5 1 10 1.24
4 5 -1 9.61 0.95
4 5 -1 9.31 0.81
-4 -5 1 11.34 1.07
3 5 -1 26.31 1.24
3 5 -1 27.42 1.32
-3 -5 1 28.33 1.54
2 5 -1 39.44 1.81
2 5 -1 41.36 1.64
2 5 -1 41.24 1.67
-2 -5 1 41.16 1.78
1 5 -1 5.4 0.59
1 5 -1 5.1 0.69
1 5 -1 4.95 0.62
-1 -5 1 4.29 0.57
0 5 -1 97.36 3.35
0 5 -1 91.08 3.29
0 -5 1 93.93 3.33
0 -5 1 96.16 3.31
-1 5 -1 160.66 5.36
-1 5 -1 154.32 5.26
1 -5 1 170.99 5.33
1 -5 1 153.81 5.33
-2 5 -1 18.46 1.07
-2 5 -1 18.15 1.02
2 -5 1 17.43 1.01
2 -5 1 16.94 0.97
-3 5 -1 19.47 1.08
-3 5 -1 19.64 1.13
3 -5 1 18.73 1.09
3 -5 1 19.01 1.03
-4 5 -1 7.07 0.82
-4 5 -1 7.74 0.88
4 -5 1 8.06 0.96
4 -5 1 8.8 0.83
-5 5 -1 87.15 3.37
-5 5 -1 86.09 3.24
5 -5 1 89.16 3.23
-6 5 -1 93.24 3.67
-6 5 -1 91.42 3.54
6 -5 1 99.03 3.55
-7 5 -1 24.57 1.63
-7 5 -1 25.3 1.73
-8 5 -1 1.59 1.03
-8 5 -1 3.47 1
-9 5 -1 -1.06 1.03
-9 5 -1 0.2 1.11
-8 -4 1 0.76 1.24
-7 -4 1 2.57 1.08
6 4 -1 2.62 0.6
6 4 -1 1.93 0.73
-6 -4 1 2.69 0.93
5 4 -1 1.83 0.44
5 4 -1 2.42 0.57
-5 -4 1 1.68 0.64
4 4 -1 8.88 1.03
4 4 -1 8.07 0.67
4 4 -1 8.31 0.75
-4 -4 1 7.4 0.87
3 4 -1 0.02 0.47
3 4 -1 -0.85 0.33
3 4 -1 0.23 0.28
-3 -4 1 0.22 0.38
2 4 -1 14.93 0.74
2 4 -1 14.55 0.78
2 4 -1 13.82 0.88
-2 -4 1 13.88 0.92
1 4 -1 44.01 1.73
1 4 -1 43.72 1.64
1 4 -1 43.42 1.64
-1 -4 1 43.84 1.71
0 4 -1 0.42 0.21
0 4 -1 0.26 0.28
0 -4 1 -0.28 0.28
0 -4 1 0.22 0.24
-1 4 -1 21.6 1.01
-1 4 -1 22.3 1.02
1 -4 1 23.86 1.04
1 -4 1 22.7 1.02
-2 4 -1 8.59 0.64
-2 4 -1 9.43 0.63
2 -4 1 9.28 0.62
2 -4 1 9.18 0.65
-3 4 -1 125.53 4.31
-3 4 -1 126.19 4.14
3 -4 1 121.67 4.29
3 -4 1 126.47 4.15
-4 4 -1 247.29 7.81
-4 4 -1 242.89 8.1
4 -4 1 233.82 8.08
4 -4 1 256.62 7.83
-5 4 -1 14.29 0.97
-5 4 -1 14.27 1.01
5 -4 1 13.29 0.95
5 -4 1 11.44 1.01
-6 4 -1 1.8 0.57
-6 4 -1 2.55 0.63
-6 4 -1 2.33 0.71
-7 4 -1 1.24 0.86
-7 4 -1 0.84 0.76
-7 4 -1 1.97 0.7
-8 4 -1 5.91 1.05
-8 4 -1 6.92 1.13
-9 4 -1 6.05 1.14
-9 4 -1 5.55 1.26
-8 -3 1 17.37 2.03
-7 -3 1 4.38 0.74
-7 -3 1 5.8 1.1
6 3 -1 3.67 0.66
-6 -3 1 3.63 0.57
-6 -3 1 4.5 0.82
5 3 -1 18.22 1.39
5 3 -1 16.08 0.99
-5 -3 1 18.1 0.93
-5 -3 1 18.37 1.19
4 3 -1 24.42 1.1
4 3 -1 25.68 1.39
-4 -3 1 26.13 1.09
-4 -3 1 25.13 1.31
3 3 -1 13.64 0.72
3 3 -1 14.49 0.68
3 3 -1 12.97 0.9
-3 -3 1 13.33 0.82
2 3 -1 241.23 7.54
2 3 -1 238.28 7.54
2 3 -1 241.62 7.56
-2 -3 1 229.7 7.52
1 3 -1 236.35 7.42
1 3 -1 226.22 7.48
1 3 -1 247.95 7.5
-1 -3 1 233.53 7.42
0 3 -1 32.55 1.24
0 3 -1 33.21 1.21
0 -3 1 32.51 1.25
0 -3 1 31.35 1.2
-1 3 -1 0.32 0.19
-1 3 -1 0.27 0.18
1 -3 1 0.18 0.17
1 -3 1 -0.03 0.2
-2 3 -1 14.05 0.68
-2 3 -1 14.6 0.74
2 -3 1 13.97 0.73
2 -3 1 15.49 0.72
-3 3 -1 305.29 10.91
-3 3 -1 372.97 11.34
3 -3 1 366.44 11.32
3 -3 1 369.97 10.96
-4 3 -1 180.61 5.57
-4 3 -1 170.36 5.79
4 -3 1 164.77 5.77
4 -3 1 174.07 5.55
-5 3 -1 56.71 2.11
-5 3 -1 55.54 2.13
-5 3 -1 57.41 2.28
5 -3 1 52.61 2.23
-6 3 -1 3.04 0.66
-6 3 -1 2.43 0.55
-6 3 -1 2.83 0.63
6 -3 1 2.82 0.71
-7 3 -1 0.29 0.59
-7 3 -1 0.53 0.78
-7 3 -1 1 0.61
-8 3 -1 2.87 0.83
-8 3 -1 2.34 0.77
-9 3 -1 4.29 1.06
-9 3 -1 2.61 1.03
-9 -2 1 -0.83 1.27
-8 -2 1 3.38 0.84
-8 -2 1 2.09 1.01
7 2 -1 5.19 0.8
-7 -2 1 5.38 0.74
-7 -2 1 7.7 1.04
6 2 -1 11.62 1.32
6 2 -1 14.43 0.93
-6 -2 1 12.98 0.94
-6 -2 1 14.38 1.18
5 2 -1 10.25 0.9
5 2 -1 9.77 0.73
-5 -2 1 8.62 0.67
-5 -2 1 8.97 0.81
4 2 -1 82.09 2.84
4 2 -1 84.38 3.01
-4 -2 1 85.56 2.99
-4 -2 1 83.3 2.84
3 2 -1 143.62 4.67
3 2 -1 144.68 4.73
-3 -2 1 147.71 4.67
-3 -2 1 143.68 4.72
2 2 -1 9.22 0.58
2 2 -1 9.24 0.44
-2 -2 1 8.57 0.43
-2 -2 1 9.63 0.58
1 2 -1 162.76 5.2
1 2 -1 161.87 5.22
1 2 -1 170 5.23
-1 -2 1 166.79 5.2
0 2 -1 12.47 0.56
0 2 -1 12.87 0.54
0 -2 1 13.71 0.58
0 -2 1 12.33 0.53
-3 2 -1 259.14 8.21
-3 2 -1 257.76 7.9
3 -2 1 243.87 8.19
3 -2 1 256.12 7.89
-4 2 -1 51.22 1.89
-4 2 -1 56.14 2.05
-4 2 -1 48.55 1.86
4 -2 1 52.79 2.01
-5 2 -1 26.66 1.31
-5 2 -1 28.08 1.25
-5 2 -1 30.58 1.39
5 -2 1 28.49 1.39
-6 2 -1 41.11 1.83
-6 2 -1 41.61 1.72
-6 2 -1 38.39 1.76
6 -2 1 39.26 1.82
-7 2 -1 20.03 1.43
-7 2 -1 21.26 1.4
-7 2 -1 21.87 1.27
7 -2 1 19.8 1.37
-8 2 -1 10.9 1.25
-8 2 -1 10.7 1.17
-9 2 -1 7.31 1.13
-9 2 -1 4.88 1.07
-9 -1 1 0.94 0.99
-9 -1 1 2.32 1.15
-8 -1 1 -0.76 0.72
-8 -1 1 1 0.73
7 1 -1 9.6 1.02
-7 -1 1 8.24 0.93
-7 -1 1 8.01 1.04
6 1 -1 10.05 0.82
6 1 -1 8.16 1.11
-6 -1 1 11.31 1.02
-6 -1 1 9.97 0.82
5 1 -1 15.6 0.88
5 1 -1 15.13 1.09
-5 -1 1 16.46 0.86
-5 -1 1 14.51 0.94
4 1 -1 138.08 4.57
4 1 -1 137.53 4.51
-4 -1 1 137.58 4.56
-4 -1 1 138.37 4.5
3 1 -1 49.6 1.99
3 1 -1 59.23 1.93
-3 -1 1 62.13 2.05
2 1 -1 40.88 1.39
2 1 -1 42.83 1.49
-2 -1 1 41.19 1.48
-2 -1 1 42.02 1.39
1 1 -1 194.22 5.99
1 1 -1 199.21 6.04
-1 -1 1 187.01 5.98
0 1 -1 9.55 0.38
0 1 -1 9.76 0.38
0 -1 1 9.4 0.38
0 -1 1 9.18 0.36
-1 1 -1 54.71 1.89
-1 1 -1 57.6 1.77
1 -1 1 56.89 1.89
1 -1 1 55.09 1.77
-2 1 -1 42.33 1.37
-2 1 -1 40.49 1.48
2 -1 1 39.98 1.48
-3 1 -1 7.01 0.49
-3 1 -1 7.85 0.45
-3 1 -1 6.83 0.47
3 -1 1 7.57 0.49
-4 1 -1 2.6 0.38
-4 1 -1 2.88 0.38
-4 1 -1 2.3 0.36
4 -1 1 2.33 0.41
-5 1 -1 0.95 0.35
-5 1 -1 1.43 0.44
-5 1 -1 1.12 0.36
5 -1 1 1.89 0.46
-6 1 -1 0.78 0.59
-6 1 -1 1.65 0.49
-6 1 -1 0.92 0.5
6 -1 1 1.11 0.53
-7 1 -1 -0.45 0.71
-7 1 -1 0.2 0.59
-7 1 -1 -1.12 0.54
7 -1 1 0.75 0.7
-8 1 -1 1.46 0.86
-8 1 -1 -0.8 0.73
-8 1 -1 0.4 0.79
-9 1 -1 0.59 0.95
-9 1 -1 -0.56 0.95
-9 0 1 7.84 1.21
-9 0 1 6.93 1.06
8 0 -1 9.51 1.27
-8 0 1 10.58 1.14
-8 0 1 11.25 1.35
7 0 -1 24.44 1.37
7 0 -1 22.77 1.63
-7 0 1 24.86 1.34
-7 0 1 24.69 1.5
6 0 -1 90.32 3.4
6 0 -1 91.62 3.29
-6 0 1 95.11 3.39
-6 0 1 93.16 3.29
5 0 -1 136.68 4.48
5 0 -1 130.01 4.48
-5 0 1 133.01 4.45
-5 0 1 132.47 4.48
4 0 -1 107.93 3.65
4 0 -1 111.9 3.7
-4 0 1 107.16 3.67
-4 0 1 109.48 3.64
3 0 -1 111.54 3.66
3 0 -1 108.77 3.66
-3 0 1 111.67 3.65
-3 0 1 115.43 3.68
2 0 -1 99.88 3.19
2 0 -1 100.86 3.2
-2 0 1 98 3.2
-2 0 1 97.43 3.19
1 0 -1 503.67 15
-1 0 1 482.99 14.99
-1 0 -1 305.67 9.74
1 0 1 317.56 9.74
-2 0 -1 1.2 0.21
-2 0 -1 1.3 0.19
2 0 1 1.09 0.17
2 0 1 1.43 0.22
-3 0 -1 129.56 4.17
-3 0 -1 130.8 4.31
3 0 1 131.47 4.18
3 0 1 132.17 4.31
-4 0 -1 98.37 3.38
-4 0 -1 96.88 3.26
4 0 1 99.83 3.39
4 0 1 97.59 3.27
-5 0 -1 32.58 1.43
-5 0 -1 34.62 1.48
5 0 1 32.55 1.47
5 0 1 34.36 1.46
-6 0 -1 28.59 1.38
-6 0 -1 28.22 1.43
6 0 1 28.98 1.48
6 0 1 27.18 1.46
-7 0 -1 14.3 1.15
-7 0 -1 15.08 1.2
7 0 1 14.26 1.24
7 0 1 14.3 1.37
-8 0 -1 6.44 0.94
-8 0 -1 4.94 0.94
-9 0 -1 2.48 1
-9 0 -1 3.16 1.04
-9 1 1 1.15 0.87
-9 1 1 -1.11 0.94
8 -1 -1 0.13 0.75
-8 1 1 0.44 0.75
-8 1 1 1.46 0.69
7 -1 -1 0.31 0.62
-7 1 1 0.5 0.52
-7 1 1 0.05 0.61
-7 1 1 0.9 0.86
6 -1 -1 1.38 0.51
-6 1 1 0.96 0.47
-6 1 1 0.69 0.44
-6 1 1 2.28 0.67
5 -1 -1 0.53 0.34
-5 1 1 0.09 0.33
-5 1 1 0.66 0.49
-5 1 1 0.71 0.41
4 -1 -1 2.12 0.34
-4 1 1 2.29 0.35
-4 1 1 2.45 0.42
-4 1 1 1.99 0.4
3 -1 -1 40.18 1.48
-3 1 1 38.71 1.47
-3 1 1 39.89 1.51
-3 1 1 40.78 1.49
2 -1 -1 8.1 0.43
2 -1 -1 8.13 0.45
-2 1 1 8.13 0.42
-2 1 1 8.68 0.46
1 -1 -1 15.79 0.68
1 -1 -1 19.88 0.69
-1 1 1 18.69 0.69
0 -1 -1 202 6.11
0 1 1 203.41 6.27
0 1 1 196.15 6.26
0 1 1 194.78 6.11
-1 -1 -1 14.59 0.6
-1 -1 -1 16.36 0.64
1 1 1 15.07 0.6
1 1 1 16.41 0.64
-2 -1 -1 2.53 0.29
-2 -1 -1 3.3 0.29
2 1 1 2.32 0.28
2 1 1 2.59 0.3
-3 -1 -1 0.09 0.22
-3 -1 -1 0.43 0.21
3 1 1 0.19 0.23
3 1 1 0.18 0.22
-4 -1 -1 15.52 0.83
-4 -1 -1 15.23 0.84
4 1 1 15.73 0.84
4 1 1 15.8 0.86
-5 -1 -1 20.28 1.09
-5 -1 -1 20.62 1.08
5 1 1 20.1 1.12
5 1 1 18.68 1.1
-6 -1 -1 8.64 0.93
-6 -1 -1 11.95 0.99
6 1 1 9.3 1.07
6 1 1 9.57 0.97
-7 -1 -1 11.14 1.1
-7 -1 -1 12.83 1.2
7 1 1 10.5 1.33
7 1 1 11.47 1.41
-8 -1 -1 16.21 1.56
-8 -1 -1 15.06 1.49
-9 -1 -1 4.8 1.21
-9 -1 -1 3.41 1.21
-10 2 1 2.89 1.14
-10 2 1 0.4 1.3
-9 2 1 11.25 1.49
-9 2 1 8.35 1.25
-8 2 1 27.23 1.63
-8 2 1 23.66 1.62
7 -2 -1 27.64 1.58
-7 2 1 26.95 1.53
-7 2 1 26.22 1.74
-7 2 1 26.12 1.46
6 -2 -1 48.87 2.05
-6 2 1 47.58 2.02
-6 2 1 44.26 2.09
-6 2 1 50.8 2.04
5 -2 -1 34.89 1.54
-5 2 1 35.64 1.53
-5 2 1 34.17 1.51
-5 2 1 34.76 1.6
4 -2 -1 79.05 2.78
-4 2 1 78.77 2.77
-4 2 1 76.19 2.71
-4 2 1 76.98 2.73
3 -2 -1 43.56 1.67
3 -2 -1 45.91 1.66
-3 2 1 44.28 1.66
2 -2 -1 6.58 0.45
2 -2 -1 6.4 0.41
-2 2 1 6.16 0.43
-2 2 1 5.99 0.39
1 -2 -1 121.81 4.02
1 -2 -1 124.35 3.95
-1 2 1 124.86 3.94
-1 2 1 124.62 4.02
0 -2 -1 44.15 1.55
0 -2 -1 44.34 1.53
0 2 1 44.67 1.53
0 2 1 43.42 1.54
-1 -2 -1 207.6 6.16
-1 -2 -1 205.11 6.29
1 2 1 199.3 6.29
1 2 1 174.77 6.12
-2 -2 -1 107.27 3.41
-2 -2 -1 105.38 3.47
2 2 1 103.5 3.42
2 2 1 101.31 3.46
-3 -2 -1 9.8 0.61
-3 -2 -1 10.98 0.66
3 2 1 10.34 0.65
3 2 1 10.43 0.65
-4 -2 -1 23.55 1.13
-4 -2 -1 24.34 1.16
4 2 1 24.16 1.19
4 2 1 23.47 1.12
-5 -2 -1 3.7 0.59
-5 -2 -1 3.42 0.55
5 2 1 3.29 0.63
5 2 1 2.76 0.57
-6 -2 -1 -0.19 0.51
-6 -2 -1 0.72 0.58
6 2 1 0.2 0.64
6 2 1 0.67 0.77
-7 -2 -1 1.44 0.77
-7 -2 -1 0.63 0.72
7 2 1 -1.74 0.81
-8 -2 -1 0.42 1.04
-8 -2 -1 2.1 0.92
-9 3 1 2.83 1.1
-9 3 1 2.26 0.94
-8 3 1 4.55 0.87
-8 3 1 5.51 0.99
-7 3 1 4.48 0.81
-7 3 1 5.06 0.81
-7 3 1 3.35 0.81
6 -3 -1 4.09 0.76
-6 3 1 4.56 0.7
-6 3 1 4.77 0.7
-6 3 1 4.47 0.84
5 -3 -1 8.52 0.83
-5 3 1 7.66 0.75
-5 3 1 8.65 0.85
4 -3 -1 0.06 0.33
4 -3 -1 0.5 0.31
-4 3 1 0.62 0.4
-4 3 1 0.16 0.29
3 -3 -1 28.23 1.2
3 -3 -1 26.3 1.18
-3 3 1 27.57 1.2
-3 3 1 27.52 1.19
2 -3 -1 28.36 1.17
2 -3 -1 26.81 1.14
-2 3 1 28.21 1.17
-2 3 1 28.22 1.15
1 -3 -1 33.64 1.41
1 -3 -1 39.27 1.44
-1 3 1 38.25 1.44
-1 3 1 41.24 1.46
0 -3 -1 7.23 0.5
0 -3 -1 6.76 0.47
0 3 1 7.2 0.48
0 3 1 7.06 0.54
-1 -3 -1 39.25 1.44
1 3 1 38.2 1.44
1 3 1 32.72 1.41
1 3 1 38.56 1.42
-2 -3 -1 148.05 4.9
-2 -3 -1 143.88 4.82
2 3 1 149.66 4.84
2 3 1 152.63 4.91
-3 -3 -1 55.6 2.03
-3 -3 -1 52.37 2.04
3 3 1 56.55 2.11
3 3 1 53.24 2.05
-4 -3 -1 30.27 1.34
-4 -3 -1 29.03 1.4
4 3 1 28.71 1.48
4 3 1 30.15 1.4
-5 -3 -1 38.59 1.82
-5 -3 -1 39.63 1.74
5 3 1 39.41 1.75
5 3 1 38.41 1.9
-6 -3 -1 52.81 2.34
-6 -3 -1 51.47 2.2
6 3 1 49.72 2.27
-7 -3 -1 19.2 1.48
-7 -3 -1 17.7 1.65
-8 -3 -1 16.95 1.66
-8 -3 -1 13.47 1.54
-9 4 1 2.31 1.18
-9 4 1 2.12 1.11
-8 4 1 3.68 0.99
-8 4 1 6.34 1.06
-7 4 1 4.96 0.84
-7 4 1 4.15 0.79
6 -4 -1 17.28 1.3
-6 4 1 18.44 1.46
-6 4 1 17.19 1.15
5 -4 -1 5.51 0.78
5 -4 -1 4.26 0.65
-5 4 1 5.45 0.78
-5 4 1 4.51 0.62
4 -4 -1 4.78 0.65
4 -4 -1 4.38 0.61
-4 4 1 4.66 0.64
-4 4 1 5.2 0.66
3 -4 -1 32.89 1.44
3 -4 -1 33.09 1.41
-3 4 1 33.13 1.43
-3 4 1 31.55 1.41
2 -4 -1 3.94 0.53
2 -4 -1 3.22 0.46
-2 4 1 3.07 0.49
-2 4 1 2.9 0.4
1 -4 -1 22.9 1.06
1 -4 -1 21.84 1.03
-1 4 1 23.52 1.11
-1 4 1 20.93 1.02
0 -4 -1 20.47 1
0 -4 -1 19.64 0.95
0 4 1 19.92 0.95
0 4 1 20.66 1.01
-1 -4 -1 3.25 0.49
1 4 1 2.95 0.41
1 4 1 2.56 0.44
1 4 1 3.41 0.48
-2 -4 -1 0.53 0.39
2 4 1 0.66 0.32
2 4 1 0.55 0.39
2 4 1 0.21 0.37
-3 -4 -1 7.57 0.74
3 4 1 6.89 0.78
3 4 1 8.73 0.7
3 4 1 6.17 0.78
-4 -4 -1 31.4 1.55
-4 -4 -1 28.23 1.42
4 4 1 30.08 1.68
4 4 1 29 1.49
-5 -4 -1 5.4 0.84
-5 -4 -1 4.52 0.74
5 4 1 4.89 0.82
-6 -4 -1 2.67 0.82
-6 -4 -1 3.15 0.89
6 4 1 1.87 0.92
-7 -4 -1 -0.21 1.04
-7 -4 -1 -0.44 0.9
-9 5 1 -0.06 1.19
-9 5 1 1.43 1.28
-8 5 1 2.42 1.07
-8 5 1 3.93 1.1
-7 5 1 5.13 1.03
-7 5 1 4.97 0.95
6 -5 -1 5.55 0.89
-6 5 1 5.51 0.79
5 -5 -1 33.69 1.68
-5 5 1 34 1.85
-5 5 1 35.98 1.73
4 -5 -1 13.82 1.02
4 -5 -1 16.05 1.1
-4 5 1 15.26 1.05
-4 5 1 14.8 1.1
3 -5 -1 44.78 1.89
3 -5 -1 44.36 1.84
-3 5 1 41.83 1.8
-3 5 1 42.16 1.83
2 -5 -1 32.93 1.47
2 -5 -1 32.96 1.48
-2 5 1 31.15 1.47
-2 5 1 32.38 1.44
1 -5 -1 66.71 2.5
1 -5 -1 65.16 2.46
-1 5 1 64.23 2.47
-1 5 1 66.65 2.48
0 -5 -1 140.28 4.8
0 5 1 143.45 4.82
0 5 1 144.7 4.85
0 5 1 142 4.86
-1 -5 -1 24.26 1.24
1 5 1 22.89 1.27
1 5 1 24.26 1.18
1 5 1 21.73 1.22
-2 -5 -1 2.11 0.58
2 5 1 3.51 0.6
2 5 1 1.98 0.47
2 5 1 1.27 0.65
-3 -5 -1 16.87 1.2
3 5 1 18.6 1.06
3 5 1 16.04 1.2
-4 -5 -1 26.61 1.56
4 5 1 24.7 1.42
4 5 1 23.29 1.5
-5 -5 -1 13.97 1.42
5 5 1 14.15 1.23
5 5 1 12.7 1.3
-6 -5 -1 18.99 1.84
6 5 1 18.45 1.55
-7 -5 -1 0.41 1.23
-9 6 1 -0.78 1.42
-9 6 1 2.82 1.36
-8 6 1 -0.56 1.13
-8 6 1 0.49 1.13
7 -6 -1 -0.19 0.81
-7 6 1 0.99 0.9
6 -6 -1 -0.45 0.69
-6 6 1 -0.12 0.62
5 -6 -1 0.28 0.67
-5 6 1 0.86 0.55
4 -6 -1 7.89 0.92
-4 6 1 5.48 0.72
3 -6 -1 3.16 0.62
-3 6 1 4.17 0.61
2 -6 -1 5.65 0.75
2 -6 -1 5.38 0.77
-2 6 1 6.55 0.81
-2 6 1 5.86 0.76
1 -6 -1 16.08 1.08
1 -6 -1 15.23 1.07
-1 6 1 13.32 1.05
-1 6 1 15.18 0.98
0 -6 -1 7.36 0.88
0 6 1 7.01 0.86
0 6 1 7.73 0.8
-1 -6 -1 5.36 0.74
1 6 1 5.26 0.72
1 6 1 4.26 0.76
-2 -6 -1 22.45 1.4
2 6 1 25.24 1.53
2 6 1 23.48 1.32
-3 -6 -1 9.19 1.26
3 6 1 7.84 1.05
3 6 1 11.55 1.35
-4 -6 -1 17.63 1.44
4 6 1 17.97 1.38
-5 -6 -1 3.19 1.15
5 6 1 2.47 0.9
-6 -6 -1 -0.51 1.32
6 6 1 1.86 1.2
-8 7 1 3.03 1.29
7 -7 -1 5.16 1.31
-7 7 1 6.8 1.17
6 -7 -1 2.16 1.02
-6 7 1 1.76 0.76
5 -7 -1 6.96 1.04
-5 7 1 6.4 0.88
4 -7 -1 6.78 0.94
-4 7 1 7.03 0.9
3 -7 -1 15.77 1.28
-3 7 1 16.61 1.25
2 -7 -1 40.76 2.02
-2 7 1 42.56 1.96
1 -7 -1 9.78 1.08
-1 7 1 8.27 0.99
0 -7 -1 -0.15 0.71
0 7 1 0.83 0.57
-1 -7 -1 5.24 0.92
1 7 1 5.02 0.81
-2 -7 -1 2.95 0.82
2 7 1 2.72 0.77
-3 -7 -1 4.63 1
3 7 1 5.27 0.9
-4 -7 -1 7.86 1.21
4 7 1 8.36 1.11
-5 -7 -1 0.53 1.07
5 7 1 -1.43 1.08
7 -8 -1 0.79 1.29
-7 8 1 0.78 1.03
6 -8 -1 4.25 1.35
-6 8 1 2.24 1.05
5 -8 -1 7.08 1.23
-5 8 1 5.37 1.01
4 -8 -1 10.75 1.4
-4 8 1 14.57 1.47
3 -8 -1 12.86 1.52
-3 8 1 11.34 1.38
2 -8 -1 4.14 0.95
-2 8 1 4.43 0.91
1 -8 -1 0.42 0.76
-1 8 1 0.73 0.62
0 -8 -1 3.8 1.02
0 8 1 4.17 0.79
-1 -8 -1 8.15 1.26
1 8 1 8.52 1.1
-2 -8 -1 14.06 1.59
2 8 1 16.55 1.6
-3 -8 -1 2.39 1.23
3 8 1 3.67 1.1
5 -9 -1 1.48 1.32
-5 9 1 1.43 1.18
4 -9 -1 4.06 1.29
-4 9 1 5.03 1.07
3 -9 -1 0.67 1.18
-3 9 1 2.49 1.07
2 -9 -1 -0.72 1.09
-2 9 1 -0.91 0.91
1 -9 -1 0.62 1.18
-1 9 1 2.9 0.95
0 -9 -1 2.15 1.04
0 9 1 -0.88 0.9
-1 -9 -1 2.6 1.3
1 9 1 0.93 1.05
-2 10 -2 7.32 1.34
2 -10 2 5.03 1.6
-3 10 -2 4.25 1.33
2 9 -2 -0.08 1.03
-2 -9 2 -1.2 1.27
1 9 -2 -0.41 0.89
-1 -9 2 -0.2 1.13
0 9 -2 0.98 0.9
0 -9 2 0.62 0.97
-1 9 -2 4.54 1.07
1 -9 2 5.78 1.11
-2 9 -2 3.27 1.01
2 -9 2 2.46 1.12
-3 9 -2 0.54 0.96
3 -9 2 -0.32 1.05
-4 9 -2 3.33 0.99
4 -9 2 1.17 0.98
-5 9 -2 4.7 1.12
5 -9 2 4.3 1.07
-6 9 -2 1.82 1.11
6 -9 2 3.79 1.43
-4 -8 2 7.3 1.43
3 8 -2 16.31 1.48
-3 -8 2 12.46 1.56
2 8 -2 14.62 1.39
-2 -8 2 11.59 1.55
1 8 -2 4.64 0.81
-1 -8 2 4.99 1.07
0 8 -2 2.62 0.76
0 -8 2 1.67 0.93
-1 8 -2 1.66 0.75
1 -8 2 3.25 0.91
-2 8 -2 1.87 0.79
2 -8 2 2.13 0.88
-3 8 -2 8.36 1.1
3 -8 2 6.51 1.01
-4 8 -2 5.09 0.87
4 -8 2 4.29 0.92
-5 8 -2 3.76 1.03
5 -8 2 4.06 0.92
-6 8 -2 3.62 0.93
6 -8 2 3.94 1.19
-7 8 -2 0.02 1.06
7 -8 2 -1.33 1.16
-5 -7 2 4.28 1.32
4 7 -2 4.32 0.81
-4 -7 2 4.81 1.01
3 7 -2 2.97 0.68
-3 -7 2 2.24 0.84
2 7 -2 1.71 0.82
2 7 -2 1.54 0.62
-2 -7 2 2.71 0.76
1 7 -2 11.85 1.27
1 7 -2 9.97 1
-1 -7 2 10.67 1.26
0 7 -2 12.39 1.07
0 -7 2 12.73 1.17
0 -7 2 13.15 1.13
-1 7 -2 7.07 0.95
1 -7 2 7.57 0.95
1 -7 2 7.32 0.9
-2 7 -2 32.67 1.71
2 -7 2 31.33 1.73
-3 7 -2 32.94 1.77
3 -7 2 31.69 1.74
-4 7 -2 7.04 0.97
4 -7 2 5.6 0.81
-5 7 -2 2.28 0.72
5 -7 2 2.46 0.82
-6 7 -2 7.03 0.98
6 -7 2 6 1.09
-7 7 -2 18.08 1.65
7 -7 2 17.8 1.81
-8 7 -2 21.82 2.22
-6 -6 2 6.38 1.26
5 6 -2 9.44 1.09
-5 -6 2 8.07 1.18
4 6 -2 6.61 0.89
4 6 -2 6.06 0.72
-4 -6 2 5.76 0.94
3 6 -2 2.56 0.68
3 6 -2 1.29 0.49
-3 -6 2 1.54 0.61
2 6 -2 0.71 0.55
2 6 -2 0.46 0.42
-2 -6 2 0.06 0.6
1 6 -2 1.45 0.53
1 6 -2 1.06 0.41
-1 -6 2 1.12 0.57
0 6 -2 0.01 0.35
0 6 -2 0.26 0.61
0 -6 2 0.22 0.51
0 -6 2 -0.05 0.42
-1 6 -2 9.97 0.82
-1 6 -2 9.08 0.92
1 -6 2 9.16 0.84
1 -6 2 10 0.89
-2 6 -2 4.25 0.61
-2 6 -2 3.75 0.63
2 -6 2 3.84 0.65
2 -6 2 4.05 0.57
-3 6 -2 0.86 0.43
-3 6 -2 -0.24 0.49
3 -6 2 0.87 0.53
3 -6 2 -0.47 0.57
-4 6 -2 0.92 0.68
-4 6 -2 0.78 0.5
4 -6 2 1.14 0.55
-5 6 -2 7.05 0.96
-5 6 -2 6.19 0.89
5 -6 2 8.27 1
-6 6 -2 9.31 1.1
6 -6 2 8.29 1.03
-7 6 -2 2.45 0.94
-8 6 -2 -0.83 0.99
-8 6 -2 -0.22 0.99
-9 6 -2 2.33 1.34
-9 6 -2 -1.14 1.33
-7 -5 2 5.46 1.39
6 5 -2 9.34 1.09
-6 -5 2 10.35 1.24
5 5 -2 9.95 1
5 5 -2 9.78 0.89
-5 -5 2 11.42 1.26
4 5 -2 6.29 0.82
4 5 -2 6.91 0.68
-4 -5 2 6.56 0.93
3 5 -2 20.07 0.99
3 5 -2 20.46 1.04
-3 -5 2 18.81 1.21
2 5 -2 33.35 1.69
2 5 -2 35.76 1.42
2 5 -2 34.23 1.43
-2 -5 2 34.16 1.6
1 5 -2 61.79 2.22
1 5 -2 62.66 2.38
-1 -5 2 59.77 2.2
-1 -5 2 57.92 2.31
0 5 -2 105.61 3.53
0 5 -2 100.32 3.53
0 -5 2 100.59 3.5
0 -5 2 100.84 3.53
-1 5 -2 153.05 5.1
-1 5 -2 148.89 5.18
1 -5 2 155.93 5.17
1 -5 2 160.54 5.12
-2 5 -2 52.67 2.09
-2 5 -2 51.46 2.01
2 -5 2 54.11 2.01
2 -5 2 49.73 2.05
-3 5 -2 5.83 0.64
-3 5 -2 6.13 0.67
3 -5 2 5.52 0.67
3 -5 2 5.07 0.67
-4 5 -2 52.49 2.07
-4 5 -2 51.11 2.19
4 -5 2 51.99 2.2
4 -5 2 52.3 2.05
-5 5 -2 46.03 2.08
-5 5 -2 46.04 1.99
5 -5 2 46.05 1.98
-6 5 -2 41.53 2.07
-6 5 -2 45 2.12
6 -5 2 43.29 1.97
-7 5 -2 17.27 1.38
-7 5 -2 13.94 1.53
-7 5 -2 19.82 1.6
-8 5 -2 2.57 1
-8 5 -2 3.29 0.86
-9 5 -2 3.23 1.11
-9 5 -2 0.89 1.15
-8 -4 2 1.12 1.39
-7 -4 2 0.5 1.09
6 4 -2 0.37 0.51
-6 -4 2 0.44 0.91
5 4 -2 1.24 0.4
5 4 -2 0.42 0.46
-5 -4 2 0.93 0.75
4 4 -2 8.4 1.1
4 4 -2 8.06 0.68
4 4 -2 6.73 0.59
-4 -4 2 7.5 0.88
3 4 -2 2.58 0.61
3 4 -2 2.82 0.34
3 4 -2 2.04 0.39
-3 -4 2 2.57 0.57
2 4 -2 3.82 0.47
2 4 -2 4.36 0.57
2 4 -2 4.48 0.42
-2 -4 2 4.4 0.57
1 4 -2 13.77 0.66
1 4 -2 12.93 0.79
-1 -4 2 12.66 0.66
-1 -4 2 12.33 0.77
0 4 -2 17.56 0.89
0 4 -2 17.76 0.83
0 -4 2 17.96 0.93
-1 4 -2 25.75 1.12
-1 4 -2 25.62 1.12
1 -4 2 25.33 1.12
1 -4 2 23.76 1.07
-2 4 -2 14.5 0.81
-2 4 -2 13.75 0.79
2 -4 2 14.93 0.79
2 -4 2 15.1 0.82
-3 4 -2 35.34 1.51
-3 4 -2 31.81 1.37
3 -4 2 35.32 1.53
3 -4 2 33.75 1.38
-4 4 -2 101.85 3.46
-4 4 -2 100.25 3.68
4 -4 2 104.72 3.48
4 -4 2 100.91 3.69
-5 4 -2 51.37 2.05
-5 4 -2 50.38 2.19
5 -4 2 52.19 2.22
5 -4 2 52.05 2.04
-6 4 -2 6.24 0.86
-6 4 -2 5.05 0.81
-6 4 -2 6.18 0.79
-7 4 -2 5.33 0.9
-7 4 -2 8.59 1.01
-7 4 -2 5.24 0.93
-8 4 -2 2.84 1.06
-8 4 -2 4.75 0.85
-8 4 -2 3.35 0.83
-9 4 -2 0.47 0.97
-9 4 -2 1.15 1.1
-8 -3 2 9.9 1.48
-7 -3 2 8.58 1.24
-7 -3 2 8.54 0.97
6 3 -2 3.82 0.58
-6 -3 2 4.69 0.92
-6 -3 2 4.55 0.56
5 3 -2 30.14 1.68
5 3 -2 29.34 1.25
-5 -3 2 29.06 1.23
-5 -3 2 30.89 1.55
4 3 -2 60.62 2.1
4 3 -2 60.51 2.41
-4 -3 2 60.57 2.36
3 3 -2 104.77 3.37
3 3 -2 104.17 3.38
3 3 -2 104.72 3.59
-3 -3 2 100.2 3.55
2 3 -2 121.62 3.79
2 3 -2 111.17 3.77
2 3 -2 114.49 3.9
-2 -3 2 121.94 3.91
1 3 -2 333.77 10.35
1 3 -2 314.33 10.22
-1 -3 2 329.69 10.34
-1 -3 2 339.6 10.24
0 3 -2 121.82 4.01
0 3 -2 129.38 4.07
0 -3 2 126.08 4.02
0 -3 2 121.47 4.04
-1 3 -2 6.33 0.43
-1 3 -2 6.38 0.45
1 -3 2 6.3 0.45
1 -3 2 5.45 0.41
-2 3 -2 63.93 2.31
-2 3 -2 63.08 2.14
2 -3 2 63.22 2.15
2 -3 2 63.9 2.29
-3 3 -2 2.96 0.43
-3 3 -2 2.81 0.35
3 -3 2 2.79 0.46
3 -3 2 3.24 0.37
-4 3 -2 9.45 0.76
-4 3 -2 7.22 0.6
4 -3 2 9.28 0.81
4 -3 2 8.67 0.6
-5 3 -2 11.17 0.95
-5 3 -2 10.25 0.73
-5 3 -2 11.1 0.83
5 -3 2 10.91 0.92
-6 3 -2 3.33 0.64
-6 3 -2 3.45 0.68
-6 3 -2 3.4 0.53
6 -3 2 2.79 0.75
-7 3 -2 6.29 0.89
-7 3 -2 5.89 0.91
-7 3 -2 7.26 0.98
-8 3 -2 1.44 0.71
-8 3 -2 1.92 0.84
-8 3 -2 1.94 0.94
-9 3 -2 1.31 1.06
-9 3 -2 1.37 0.91
-9 -2 2 1.7 1.39
-8 -2 2 6.08 1.12
-8 -2 2 4.91 0.84
7 2 -2 9.52 0.99
-7 -2 2 7.49 1.1
-7 -2 2 8.4 0.91
6 2 -2 16.19 0.94
-6 -2 2 16.74 1.31
-6 -2 2 15.54 0.93
5 2 -2 27.9 1.19
5 2 -2 28.71 1.48
-5 -2 2 29.15 1.17
-5 -2 2 29.57 1.46
4 2 -2 41.82 1.72
4 2 -2 41.65 1.49
-4 -2 2 42.02 1.48
-4 -2 2 40.64 1.72
3 2 -2 239.25 7.61
3 2 -2 241.71 7.68
-3 -2 2 242.16 7.68
-3 -2 2 245.2 7.6
2 2 -2 225.9 7.05
2 2 -2 226.4 7.04
2 2 -2 219.46 7.08
-2 -2 2 229.04 7.09
1 2 -2 107.83 3.48
1 2 -2 110.59 3.43
-1 -2 2 108.29 3.48
-1 -2 2 104.88 3.42
0 2 -2 75.91 2.45
0 -2 2 76.64 2.47
0 -2 2 74.15 2.45
-1 2 -2 19.95 0.84
-1 2 -2 20.16 0.75
1 -2 2 18.39 0.81
1 -2 2 21.03 0.76
-2 2 -2 198.22 6.56
-2 2 -2 201.11 6.26
2 -2 2 204.73 6.26
2 -2 2 207.42 6.57
-3 2 -2 114.09 3.9
-3 2 -2 114.21 3.63
3 -2 2 112.63 3.89
3 -2 2 115.65 3.64
-4 2 -2 2.63 0.37
-4 2 -2 2.28 0.46
-4 2 -2 2.52 0.34
4 -2 2 3.07 0.45
-5 2 -2 29.17 1.3
-5 2 -2 30.03 1.29
-5 2 -2 31.11 1.45
5 -2 2 29.89 1.49
-6 2 -2 19.94 1.25
-6 2 -2 18.72 1.07
-6 2 -2 17.39 1.12
6 -2 2 20.47 1.31
-7 2 -2 8.35 1.16
-7 2 -2 11.53 1.03
-7 2 -2 12.91 1.17
-8 2 -2 11.48 1.23
-8 2 -2 8.75 1.1
-8 2 -2 9.07 1.17
-9 2 -2 5.53 1.21
-9 2 -2 1.38 0.9
-9 -1 2 4.01 1.19
-8 -1 2 0.75 0.65
-8 -1 2 -0.31 0.89
7 1 -2 8.78 0.98
-7 -1 2 8.6 1.16
-7 -1 2 8.72 0.89
6 1 -2 18.63 1.41
6 1 -2 19.99 1.05
-6 -1 2 20.52 1.24
-6 -1 2 20.87 1.03
5 1 -2 6.99 0.91
5 1 -2 8.11 0.6
-5 -1 2 7.76 0.57
-5 -1 2 7.83 0.75
4 1 -2 8.28 0.69
4 1 -2 8.43 0.51
-4 -1 2 8.49 0.67
-4 -1 2 8.64 0.5
3 1 -2 67.01 2.43
3 1 -2 71 2.29
-3 -1 2 71.28 2.28
-3 -1 2 69.4 2.45
2 1 -2 49.67 1.58
2 1 -2 48.06 1.73
-2 -1 2 49.57 1.74
-2 -1 2 49.91 1.57
1 1 -2 54.85 1.75
-1 -1 2 49.41 1.74
0 1 -2 52.05 1.68
0 1 -2 51.51 1.72
0 -1 2 50.72 1.72
0 -1 2 55.75 1.68
-1 1 -2 3.37 0.16
1 -1 2 3.31 0.16
1 -1 2 3.13 0.27
-2 1 -2 -0.1 0.14
-2 1 -2 0.13 0.1
-2 1 -2 0.07 0.1
2 -1 2 -0.13 0.17
-3 1 -2 1.34 0.22
-3 1 -2 1.2 0.21
-3 1 -2 1.16 0.28
3 -1 2 0.96 0.28
-4 1 -2 4.78 0.49
-4 1 -2 4.02 0.44
-4 1 -2 5.14 0.52
4 -1 2 4.11 0.56
-5 1 -2 2.62 0.52
-5 1 -2 2.27 0.4
-5 1 -2 2.27 0.44
5 -1 2 2.25 0.55
-6 1 -2 0.04 0.53
-6 1 -2 -0.2 0.44
-6 1 -2 -0.87 0.36
6 -1 2 -0.95 0.55
-7 1 -2 0.49 0.64
-7 1 -2 0.36 0.72
-7 1 -2 -0.42 0.54
-8 1 -2 -0.75 0.78
-8 1 -2 -0.01 0.68
-8 1 -2 0.18 0.88
-9 1 -2 2.95 1.06
-9 1 -2 2.21 0.99
-9 0 2 6.3 0.99
-9 0 2 3.94 1.21
8 0 -2 6.19 0.94
-8 0 2 5.51 0.79
-8 0 2 5.08 1
7 0 -2 19.47 1.25
-7 0 2 19.43 1.16
-7 0 2 19.07 1.39
6 0 -2 31.87 1.62
6 0 -2 32.67 1.45
-6 0 2 31.87 1.6
-6 0 2 32.13 1.42
5 0 -2 119.55 4.22
5 0 -2 124.83 4.14
-5 0 2 124.37 4.12
-5 0 2 123.92 4.24
4 0 -2 137.93 4.56
4 0 -2 139.96 4.64
-4 0 2 140.59 4.56
-4 0 2 140.49 4.63
3 0 -2 51.72 1.75
3 0 -2 44.43 1.83
-3 0 2 52.2 1.75
-3 0 2 55.51 1.89
2 0 -2 125.33 3.95
2 0 -2 125.12 4.01
-2 0 2 123.44 4.01
-2 0 2 125.23 3.96
1 0 -2 5.01 0.3
-1 0 2 4.85 0.23
-1 0 2 4.42 0.22
0 0 -2 234.14 7.59
0 0 -2 242.71 7.39
0 0 2 240.36 7.38
0 0 2 253.21 7.61
-1 0 -2 170.78 5.22
1 0 2 170.19 5.47
1 0 2 175 5.23
-2 0 -2 9.17 0.39
-2 0 -2 9.48 0.53
2 0 2 9.53 0.4
2 0 2 8.93 0.5
-3 0 -2 71.38 2.39
-3 0 -2 69.28 2.2
3 0 2 67 2.21
3 0 2 58.7 2.33
-4 0 -2 78.79 2.71
-4 0 -2 80.92 2.89
4 0 2 82.49 2.9
4 0 2 81.97 2.73
-5 0 -2 36.39 1.59
-5 0 -2 33.69 1.44
5 0 2 34.82 1.48
5 0 2 35.11 1.59
-6 0 -2 27.22 1.42
-6 0 -2 25.97 1.3
6 0 2 27.11 1.49
6 0 2 28.36 1.43
-7 0 -2 5.17 0.85
-7 0 -2 6.56 0.89
7 0 2 2.98 0.79
7 0 2 5.61 0.86
-8 0 -2 0.34 0.7
-8 0 -2 0.87 0.87
-9 0 -2 2.71 1.06
-9 0 -2 0.23 1.11
-9 1 2 0.13 0.95
-9 1 2 1.28 0.93
8 -1 -2 3.54 0.82
-8 1 2 5.45 0.78
-8 1 2 2.97 0.87
7 -1 -2 0.66 0.62
-7 1 2 0.02 0.63
-7 1 2 1.23 0.51
6 -1 -2 1.27 0.46
-6 1 2 1.04 0.71
-6 1 2 0.49 0.46
-6 1 2 1.98 0.47
5 -1 -2 1.43 0.41
-5 1 2 1.93 0.59
-5 1 2 2.03 0.4
-5 1 2 1.55 0.46
4 -1 -2 0.33 0.25
-4 1 2 0.58 0.39
-4 1 2 -0.15 0.28
-4 1 2 0.21 0.24
3 -1 -2 8.79 0.5
-3 1 2 9.27 0.5
-3 1 2 8.62 0.59
2 -1 -2 0.51 0.2
2 -1 -2 0.29 0.14
-2 1 2 0.21 0.19
-2 1 2 0.13 0.13
1 -1 -2 10.61 0.51
1 -1 -2 11.73 0.49
-1 1 2 11.18 0.52
0 -1 -2 0.93 0.17
0 -1 -2 0.8 0.16
0 1 2 1.34 0.19
0 1 2 1.12 0.19
-1 -1 -2 7.94 0.45
1 1 2 7.62 0.45
1 1 2 8.55 0.39
-2 -1 -2 1.52 0.26
-2 -1 -2 1.48 0.21
2 1 2 2.04 0.28
2 1 2 1.28 0.22
-3 -1 -2 18.94 0.83
-3 -1 -2 19.92 0.94
3 1 2 19.17 0.93
3 1 2 20.24 0.87
-4 -1 -2 47.5 1.76
-4 -1 -2 47.44 1.87
4 1 2 46.78 1.86
4 1 2 47.88 1.78
-5 -1 -2 23.19 1.11
-5 -1 -2 23.05 1.22
5 1 2 21.99 1.21
5 1 2 21.81 1.17
-6 -1 -2 7.4 0.84
-6 -1 -2 7.83 0.92
6 1 2 9.79 1.07
6 1 2 7.11 0.99
-7 -1 -2 12.87 1.24
-7 -1 -2 13.5 1.25
7 1 2 13.8 1.5
-8 -1 -2 12.68 1.39
-8 -1 -2 13.18 1.48
-9 -1 -2 3.45 1.25
-9 -1 -2 4 1.22
-10 2 2 1.33 1.13
-10 2 2 1.64 1.28
-9 2 2 6.3 1.04
-9 2 2 6.58 1.2
-8 2 2 9.58 1.14
-8 2 2 9.58 1.1
7 -2 -2 20.71 1.4
-7 2 2 18.84 1.27
-7 2 2 20.6 1.41
6 -2 -2 16.72 1.12
-6 2 2 17.4 1.08
-6 2 2 18.43 1.22
-6 2 2 17.07 1.25
5 -2 -2 12.78 0.89
-5 2 2 13.95 0.96
-5 2 2 13.74 1.08
-5 2 2 13 0.83
4 -2 -2 46.94 1.86
-4 2 2 50.44 1.95
-4 2 2 48.95 1.86
-4 2 2 49.74 1.9
3 -2 -2 47.6 1.76
-3 2 2 45.39 1.72
-3 2 2 48.14 1.77
2 -2 -2 178.04 5.49
2 -2 -2 173.04 5.4
-2 2 2 163.12 5.47
-2 2 2 164.29 5.38
1 -2 -2 165.25 5.04
1 -2 -2 159.67 5.13
-1 2 2 151.72 5.12
-1 2 2 158.61 5.02
0 -2 -2 3.77 0.32
0 2 2 3.46 0.32
0 2 2 3.23 0.31
0 2 2 3.9 0.34
-1 -2 -2 33.93 1.3
-1 -2 -2 34.66 1.27
1 2 2 34.15 1.28
1 2 2 35.05 1.33
-2 -2 -2 108.8 3.55
-2 -2 -2 107.52 3.67
2 2 2 110.07 3.57
2 2 2 110.86 3.68
-3 -2 -2 8.43 0.64
-3 -2 -2 10.69 0.64
3 2 2 9.14 0.67
3 2 2 9.99 0.7
-4 -2 -2 13.35 0.84
-4 -2 -2 13.68 0.87
4 2 2 13.69 0.89
4 2 2 12.53 0.88
-5 -2 -2 0.43 0.46
-5 -2 -2 0.36 0.45
5 2 2 1.19 0.58
5 2 2 -0.58 0.54
-6 -2 -2 1.12 0.57
-6 -2 -2 0.1 0.59
6 2 2 1.62 0.78
6 2 2 1.67 0.76
-7 -2 -2 0.08 0.74
-7 -2 -2 0.47 0.72
-8 -2 -2 0.76 1.04
-8 -2 -2 0.33 0.94
-9 3 2 0.06 1.01
-9 3 2 0.59 0.86
-8 3 2 3.69 0.93
-8 3 2 2.85 0.88
7 -3 -2 0.49 0.72
-7 3 2 0.23 0.6
-7 3 2 1.37 0.67
6 -3 -2 5.5 0.78
-6 3 2 5.98 0.94
-6 3 2 6.6 0.8
-6 3 2 5.16 0.77
5 -3 -2 3.08 0.54
-5 3 2 2.83 0.7
-5 3 2 3.3 0.53
4 -3 -2 29.04 1.3
4 -3 -2 27.69 1.31
-4 3 2 28.37 1.33
-4 3 2 27.19 1.25
3 -3 -2 32.46 1.37
3 -3 -2 31.22 1.32
-3 3 2 30.27 1.34
-3 3 2 31.97 1.33
2 -3 -2 29.05 1.19
2 -3 -2 28.51 1.2
-2 3 2 28.08 1.2
-2 3 2 28.41 1.19
1 -3 -2 104.18 3.53
1 -3 -2 105.52 3.48
-1 3 2 106.07 3.47
-1 3 2 103.29 3.52
0 -3 -2 58.05 2.04
0 3 2 54.3 2.01
0 3 2 57.53 2.06
0 3 2 56.86 2.04
-1 -3 -2 98.29 3.42
1 3 2 106.9 3.45
1 3 2 106.96 3.53
1 3 2 100.07 3.48
-2 -3 -2 195.92 6.53
-2 -3 -2 200.88 6.39
2 3 2 201.85 6.55
2 3 2 201.44 6.4
-3 -3 -2 53.26 2
-3 -3 -2 52.57 2.02
3 3 2 52.02 2.05
3 3 2 51.3 2.02
-4 -3 -2 7.51 0.77
-4 -3 -2 6.71 0.74
4 3 2 6.63 0.9
4 3 2 7.57 0.89
-5 -3 -2 8.25 0.89
-5 -3 -2 8.26 0.96
5 3 2 7.85 0.99
5 3 2 6.48 0.88
-6 -3 -2 10.15 1.09
-6 -3 -2 8.91 1.11
6 3 2 8.06 1.08
-7 -3 -2 15.75 1.62
-7 -3 -2 17.21 1.53
-8 -3 -2 10.45 1.34
-8 -3 -2 9.16 1.42
-9 4 2 2.94 1.2
-9 4 2 2.34 1.12
-8 4 2 0.9 0.81
-8 4 2 1.75 0.96
-7 4 2 3.11 0.85
-7 4 2 4.64 0.79
6 -4 -2 4.56 0.8
-6 4 2 6.25 0.81
5 -4 -2 4.46 0.68
5 -4 -2 4.6 0.69
-5 4 2 4.92 0.76
-5 4 2 4.52 0.66
4 -4 -2 7.36 0.81
4 -4 -2 6.81 0.71
-4 4 2 6.36 0.8
-4 4 2 6.59 0.7
3 -4 -2 2.58 0.44
3 -4 -2 2.09 0.42
-3 4 2 2.14 0.46
-3 4 2 2.13 0.4
2 -4 -2 2.92 0.46
2 -4 -2 3.24 0.45
-2 4 2 2.45 0.46
-2 4 2 3.12 0.42
1 -4 -2 6.51 0.54
1 -4 -2 5.5 0.57
-1 4 2 6.75 0.58
-1 4 2 6.72 0.68
0 -4 -2 3.32 0.48
0 4 2 3.78 0.51
0 4 2 3.31 0.51
0 4 2 3.1 0.44
-1 -4 -2 1.81 0.44
1 4 2 2.14 0.45
1 4 2 1.77 0.49
1 4 2 2.74 0.42
-2 -4 -2 0.1 0.39
2 4 2 0.48 0.41
2 4 2 0.18 0.43
2 4 2 0.47 0.34
-3 -4 -2 3.02 0.57
3 4 2 2.96 0.51
3 4 2 3.37 0.63
3 4 2 2.54 0.58
-4 -4 -2 0.51 0.51
-4 -4 -2 -0.33 0.41
4 4 2 -0.01 0.61
4 4 2 -0.31 0.62
-5 -4 -2 1.55 0.66
-5 -4 -2 1.85 0.68
5 4 2 1.34 0.88
-6 -4 -2 0.84 0.78
-6 -4 -2 2.37 0.89
-7 -4 -2 -0.7 0.96
-7 -4 -2 -0.23 1.07
-9 5 2 1.19 1.27
-9 5 2 3.68 1.29
-8 5 2 2.23 1.09
-8 5 2 4.55 1.08
-7 5 2 4.16 0.87
-7 5 2 3.33 0.98
6 -5 -2 9.92 1.09
-6 5 2 10.74 1.02
5 -5 -2 19.35 1.36
-5 5 2 19.21 1.22
4 -5 -2 19.17 1.2
4 -5 -2 20.85 1.25
-4 5 2 19.62 1.37
-4 5 2 20.13 1.21
3 -5 -2 29.62 1.49
3 -5 -2 29.19 1.44
-3 5 2 29.85 1.44
-3 5 2 30.1 1.55
2 -5 -2 27.39 1.32
2 -5 -2 23.96 1.23
-2 5 2 25.46 1.23
-2 5 2 24.49 1.31
1 -5 -2 48.91 2.02
1 -5 -2 53.87 2.11
-1 5 2 51.6 2.11
-1 5 2 51.05 2.06
0 -5 -2 140.36 4.77
0 5 2 139.95 4.76
0 5 2 143.25 4.84
0 5 2 137.36 4.79
-1 -5 -2 62.17 2.38
1 5 2 61.15 2.41
1 5 2 59.41 2.35
1 5 2 59.58 2.42
-2 -5 -2 7.33 0.89
2 5 2 7.57 1.05
2 5 2 7.63 0.76
2 5 2 7.5 0.87
-3 -5 -2 8.33 0.91
3 5 2 8.24 0.87
3 5 2 7.16 0.96
-4 -5 -2 14.39 1.2
4 5 2 14.19 1.16
-5 -5 -2 19.81 1.66
5 5 2 19.05 1.47
-6 -5 -2 10.28 1.38
6 5 2 15.15 1.57
-8 6 2 -1.24 1.17
-8 6 2 1.51 1.11
-7 6 2 0.49 0.89
6 -6 -2 -0.08 0.71
-6 6 2 0.64 0.7
5 -6 -2 0.37 0.63
-5 6 2 0.13 0.55
4 -6 -2 1.2 0.57
-4 6 2 1.96 0.56
3 -6 -2 8.67 1.02
-3 6 2 8.72 0.93
2 -6 -2 5.96 0.78
-2 6 2 6.22 0.81
1 -6 -2 10.85 1.03
1 -6 -2 13.47 1.14
-1 6 2 13.99 1.02
0 -6 -2 4.64 0.71
0 6 2 4.61 0.8
0 6 2 4.99 0.7
-1 -6 -2 1.09 0.54
1 6 2 1.87 0.54
-2 -6 -2 0.12 0.63
2 6 2 -0.59 0.54
-3 -6 -2 3.37 0.85
3 6 2 2.3 0.72
-4 -6 -2 2.14 0.8
4 6 2 1.9 0.78
-5 -6 -2 1.34 1.07
5 6 2 4.22 0.97
-8 7 2 2.34 1.29
7 -7 -2 2.03 1.28
-7 7 2 3.89 1.17
6 -7 -2 6.68 1.24
-6 7 2 5.78 1.02
5 -7 -2 5.13 1.1
-5 7 2 3.89 0.91
4 -7 -2 6.84 1.04
-4 7 2 4.48 0.89
3 -7 -2 7 0.93
-3 7 2 7.37 0.94
2 -7 -2 31.13 1.82
-2 7 2 31.24 1.72
1 -7 -2 29.42 1.7
-1 7 2 30.75 1.65
0 -7 -2 9.07 1.1
0 7 2 8.91 1.04
-1 -7 -2 13.81 1.44
1 7 2 13.82 1.27
-2 -7 -2 18.35 1.62
2 7 2 16.97 1.42
-3 -7 -2 10.36 1.28
3 7 2 9.88 1.18
-4 -7 -2 2.97 1.19
4 7 2 3.95 1.1
7 -8 -2 0.04 1.39
-7 8 2 -0.95 1.15
6 -8 -2 0.89 1.22
-6 8 2 -0.12 1.03
5 -8 -2 2.96 1.12
-5 8 2 0.95 0.81
4 -8 -2 5.05 1.11
-4 8 2 4.14 0.98
3 -8 -2 10.84 1.33
-3 8 2 11.52 1.37
2 -8 -2 5.52 1.01
-2 8 2 9.19 1.24
1 -8 -2 0.89 0.95
-1 8 2 0.4 0.68
0 -8 -2 3.44 1.04
0 8 2 2.35 0.74
-1 -8 -2 13.6 1.68
1 8 2 15.64 1.5
-2 -8 -2 8.81 1.24
2 8 2 6.03 1.14
-3 -8 -2 3.26 1.42
3 8 2 6.51 1.28
5 -9 -2 1.02 1.39
-5 9 2 0.4 0.99
4 -9 -2 3.55 1.19
-4 9 2 3.19 1.19
3 -9 -2 3.75 1.12
-3 9 2 5.74 1.1
2 -9 -2 0.58 1.13
-2 9 2 -0.17 0.88
1 -9 -2 0.89 1.16
-1 9 2 -0.22 0.98
0 -9 -2 2.34 1.29
0 9 2 0.98 1.05
-1 -9 -2 -0.58 1
1 9 2 0.08 1.14
-1 10 -3 3.89 1.29
-2 10 -3 1.74 1.2
2 -10 3 0.49 1.4
-3 10 -3 0.61 1.25
2 9 -3 -0.89 1.03
-2 -9 3 0.63 1.16
1 9 -3 -0.39 0.92
-1 -9 3 -1.6 0.95
0 9 -3 -0.53 0.94
0 -9 3 0.68 0.95
-1 9 -3 2.94 1.05
1 -9 3 1.35 1.06
-2 9 -3 3.3 0.94
2 -9 3 3.08 1.15
-3 9 -3 -1.28 0.9
3 -9 3 -0.22 1.06
-4 9 -3 3.02 0.99
4 -9 3 0.25 1.07
-5 9 -3 5.03 1.17
5 -9 3 5.91 1.27
-6 9 -3 1.13 1.16
6 -9 3 1.7 1.32
-4 -8 3 5.2 1.53
3 8 -3 8.7 1.07
-3 -8 3 8.06 1.36
2 8 -3 9.19 1.22
-2 -8 3 9 1.18
1 8 -3 4.11 0.85
-1 -8 3 4.05 1.06
0 8 -3 1.76 0.71
0 -8 3 0.39 0.84
-1 8 -3 4.95 0.88
1 -8 3 6.23 1.04
-2 8 -3 4.78 0.93
2 -8 3 3.94 0.84
-3 8 -3 8.65 1.13
3 -8 3 8.66 1.1
-4 8 -3 10.49 1.36
4 -8 3 5.98 1.03
-5 8 -3 2.89 1.02
5 -8 3 4.46 0.93
-6 8 -3 1.87 1
6 -8 3 3.21 1.13
-7 8 -3 1.84 1.26
7 -8 3 -1.07 1.19
-5 -7 3 2.4 1.15
4 7 -3 4.54 0.8
-4 -7 3 4.35 1.08
3 7 -3 4.6 0.73
-3 -7 3 4.77 1.05
2 7 -3 5.63 0.71
2 7 -3 3.05 0.79
-2 -7 3 4.38 0.91
1 7 -3 15.99 1.14
1 7 -3 14.42 1.29
-1 -7 3 12.86 1.21
0 7 -3 16.14 1.18
0 -7 3 14.82 1.15
0 -7 3 18.01 1.35
-1 7 -3 11.36 1.06
1 -7 3 13.3 1.14
1 -7 3 8.67 1
-2 7 -3 26.8 1.53
2 -7 3 27.15 1.58
-3 7 -3 57.55 2.53
3 -7 3 57.22 2.46
-4 7 -3 17.49 1.3
4 -7 3 17.38 1.33
-5 7 -3 4.59 0.97
5 -7 3 3.88 0.82
-6 7 -3 6.76 1.05
6 -7 3 5.18 1.02
7 -7 3 4.19 1.14
-8 7 -3 6.62 1.43
-8 7 -3 4.68 1.49
-6 -6 3 4.37 1.38
-5 -6 3 4.12 1.14
4 6 -3 1.59 0.52
-4 -6 3 1.6 0.77
3 6 -3 1.29 0.57
3 6 -3 0.7 0.44
-3 -6 3 0.48 0.62
2 6 -3 0.33 0.38
2 6 -3 -0.05 0.5
-2 -6 3 0.72 0.61
1 6 -3 5.88 0.65
-1 -6 3 5.4 0.8
-1 -6 3 4.18 0.58
0 6 -3 2.09 0.49
0 6 -3 0.54 0.63
0 -6 3 2.01 0.5
0 -6 3 1.2 0.56
-1 6 -3 0.15 0.39
-1 6 -3 0.13 0.55
1 -6 3 -0.31 0.45
1 -6 3 0.02 0.48
-2 6 -3 0.41 0.45
-2 6 -3 0.18 0.57
2 -6 3 0.4 0.51
2 -6 3 0.47 0.41
-3 6 -3 0.13 0.54
-3 6 -3 0.02 0.49
3 -6 3 0.65 0.52
3 -6 3 0.64 0.49
-4 6 -3 2.03 0.66
-4 6 -3 1.84 0.64
4 -6 3 1.58 0.52
-5 6 -3 0.95 0.75
-5 6 -3 1.21 0.68
5 -6 3 1.07 0.58
-6 6 -3 3.31 0.89
-6 6 -3 5.69 0.96
6 -6 3 2.5 0.78
-7 6 -3 1.64 0.95
-8 6 -3 -0.17 1.04
-8 6 -3 0.11 1.07
-7 -5 3 3.48 1.5
-6 -5 3 10.24 1.44
5 5 -3 11.64 0.81
-5 -5 3 13.36 1.36
4 5 -3 16.26 0.87
4 5 -3 16.68 0.92
-4 -5 3 15.43 1.26
3 5 -3 39.73 1.53
3 5 -3 37.53 1.53
-3 -5 3 40.11 1.83
2 5 -3 46.54 1.7
2 5 -3 44.48 1.93
2 5 -3 43.14 1.67
-2 -5 3 41.04 1.9
1 5 -3 55.56 2.28
1 5 -3 61.19 2.2
-1 -5 3 59.73 2.15
-1 -5 3 61.29 2.33
0 5 -3 94.5 3.29
0 5 -3 87.68 3.26
0 -5 3 98.67 3.32
0 -5 3 94.37 3.24
-1 5 -3 211.55 7.07
-1 5 -3 227.72 7.28
1 -5 3 231.41 7.11
1 -5 3 212.05 7.19
-2 5 -3 91.34 3.17
-2 5 -3 91.73 3.32
2 -5 3 89.34 3.27
2 -5 3 91.15 3.17
-3 5 -3 9.11 0.78
-3 5 -3 9.97 0.87
3 -5 3 9.6 0.76
3 -5 3 9.17 0.84
-4 5 -3 20.65 1.2
-4 5 -3 18.89 1.08
4 -5 3 19.36 1.07
4 -5 3 17.19 1.26
-5 5 -3 12.94 1.13
-5 5 -3 11.69 1.03
5 -5 3 11.48 0.96
-6 5 -3 9.72 1.17
-6 5 -3 13 1.32
6 -5 3 8.49 1.06
-7 5 -3 6.12 0.97
-7 5 -3 6.17 1.06
-7 5 -3 5.01 0.81
-8 5 -3 3.45 0.94
-8 5 -3 0.99 1.01
-9 5 -3 2.92 1.2
-8 -4 3 -1.45 1.4
-7 -4 3 0.51 1.16
6 4 -3 0.26 0.4
-6 -4 3 1.32 0.93
5 4 -3 1.8 0.38
5 4 -3 0.9 0.32
-5 -4 3 0.97 0.76
4 4 -3 0.65 0.29
4 4 -3 0.59 0.26
4 4 -3 0.32 0.5
-4 -4 3 -0.38 0.48
3 4 -3 3.53 0.39
3 4 -3 3.41 0.6
3 4 -3 3.07 0.36
-3 -4 3 3.55 0.57
2 4 -3 8.45 0.53
2 4 -3 8.92 0.52
2 4 -3 8.27 0.75
-2 -4 3 8.6 0.73
1 4 -3 68.61 2.33
1 4 -3 64.12 2.4
-1 -4 3 64.87 2.28
-1 -4 3 69.6 2.44
0 4 -3 38.99 1.47
0 4 -3 36.63 1.48
0 -4 3 36.62 1.43
0 -4 3 37.37 1.5
-1 4 -3 8.69 0.58
-1 4 -3 7.75 0.59
1 -4 3 8.8 0.61
1 -4 3 8.32 0.57
-2 4 -3 1.36 0.34
-2 4 -3 1.6 0.34
2 -4 3 1.28 0.35
2 -4 3 1.76 0.33
-3 4 -3 4.33 0.54
-3 4 -3 4.29 0.51
3 -4 3 4.35 0.56
3 -4 3 3.79 0.5
-4 4 -3 11.83 0.74
-4 4 -3 12.19 0.95
4 -4 3 12.86 1.02
4 -4 3 11.8 0.78
-5 4 -3 7.51 0.78
-5 4 -3 7.51 0.85
5 -4 3 6.54 0.76
5 -4 3 6.98 0.89
-6 4 -3 0.56 0.5
-6 4 -3 0.52 0.53
-6 4 -3 -0.63 0.55
-7 4 -3 2.27 0.68
-7 4 -3 2.8 0.79
-7 4 -3 1.48 0.68
-8 4 -3 4.3 1.02
-8 4 -3 2 0.81
-9 4 -3 1.75 1.14
-8 -3 3 11.18 1.48
-7 -3 3 11.27 0.87
-7 -3 3 13.95 1.43
6 3 -3 8.78 0.71
-6 -3 3 10.74 1.28
5 3 -3 22.56 0.96
5 3 -3 23.63 0.93
-5 -3 3 24.04 1.41
4 3 -3 28.29 1.12
4 3 -3 32.45 1.14
4 3 -3 31.83 1.55
-4 -3 3 35.78 1.59
3 3 -3 43.19 1.82
3 3 -3 46.76 1.52
3 3 -3 45.86 1.51
-3 -3 3 43.53 1.8
2 3 -3 53.31 1.74
2 3 -3 51.88 1.95
2 3 -3 50.03 1.72
-2 -3 3 52.73 1.97
1 3 -3 141.7 5.32
1 3 -3 169.21 5.36
-1 -3 3 176.64 5.31
-1 -3 3 181.18 5.38
0 3 -3 76.95 2.5
0 3 -3 71.75 2.51
0 -3 3 73.19 2.49
0 -3 3 73.19 2.48
-1 3 -3 8.18 0.48
-1 3 -3 7.72 0.53
1 -3 3 7.78 0.5
1 -3 3 7.72 0.48
-2 3 -3 96.63 3.42
-2 3 -3 99.03 3.19
2 -3 3 99.03 3.42
2 -3 3 100.75 3.2
-3 3 -3 83.58 2.73
-3 3 -3 83.13 3.01
3 -3 3 83.86 2.73
3 -3 3 81.27 2.99
-4 3 -3 15.75 0.98
-4 3 -3 15.51 0.78
4 -3 3 16.52 1.03
4 -3 3 16.16 0.8
-5 3 -3 8.52 0.68
-5 3 -3 10.23 0.92
-5 3 -3 9.99 0.75
5 -3 3 8.44 0.92
-6 3 -3 4.84 0.75
-6 3 -3 4.69 0.59
-6 3 -3 5.25 0.64
-7 3 -3 2.42 0.6
-7 3 -3 2.99 0.74
-7 3 -3 3.74 0.78
-8 3 -3 1.18 0.86
-8 3 -3 1.76 0.71
-9 3 -3 -0.39 0.87
-9 3 -3 1.5 1.09
-9 -2 3 0.64 1.14
-8 -2 3 5.13 1.16
7 2 -3 2.89 0.58
-7 -2 3 3.32 0.84
-7 -2 3 2.34 0.53
6 2 -3 0.67 0.39
-6 -2 3 1.01 0.37
-6 -2 3 0.68 0.64
5 2 -3 17.02 0.74
5 2 -3 15.49 1.22
-5 -2 3 15.31 1.06
-5 -2 3 13.95 0.7
4 2 -3 11.68 0.84
4 2 -3 11.68 0.51
-4 -2 3 11.02 0.83
-4 -2 3 10.62 0.49
3 2 -3 84.99 2.65
3 2 -3 88.46 2.66
3 2 -3 81.63 2.94
-3 -2 3 81.49 2.94
2 2 -3 63.94 2.22
-2 -2 3 61.77 2.21
1 2 -3 0.98 0.14
1 2 -3 0.71 0.23
-1 -2 3 0.77 0.12
-1 -2 3 0.79 0.21
0 2 -3 134.24 4.3
0 2 -3 133.62 4.2
0 -2 3 131.77 4.29
0 -2 3 134.54 4.2
-1 2 -3 0.16 0.18
-1 2 -3 0.23 0.12
1 -2 3 0.26 0.12
1 -2 3 0.24 0.19
-2 2 -3 57.55 2.12
-2 2 -3 60.42 1.88
2 -2 3 60.42 1.89
2 -2 3 54.91 2.11
-3 2 -3 55.22 1.78
-3 2 -3 50.92 2.03
3 -2 3 55.47 2.07
-4 2 -3 2.73 0.38
-4 2 -3 1.93 0.29
-4 2 -3 1.82 0.41
4 -2 3 1.42 0.4
-5 2 -3 15.41 0.86
-5 2 -3 15.82 1.05
-5 2 -3 14.93 0.82
5 -2 3 16.02 1.03
-6 2 -3 25.22 1.29
-6 2 -3 26.49 1.23
-6 2 -3 28.21 1.51
6 -2 3 25.95 1.5
-7 2 -3 13.51 1.06
-7 2 -3 12.48 1.16
-7 2 -3 14.4 1.19
-8 2 -3 13.21 1.46
-8 2 -3 10.02 1.13
-9 2 -3 3.77 1.13
-9 2 -3 3.58 1.03
-9 -1 3 7.62 1.3
-8 -1 3 3.14 0.86
-8 -1 3 2.74 0.68
7 1 -3 6.05 0.71
-7 -1 3 4.69 0.8
-7 -1 3 4.69 0.61
6 1 -3 36.29 1.45
6 1 -3 34.25 1.85
-6 -1 3 33.47 1.39
-6 -1 3 34.95 1.77
5 1 -3 18.85 1.22
5 1 -3 18.09 0.84
-5 -1 3 17.75 0.82
-5 -1 3 17.52 1.13
4 1 -3 13.95 0.62
4 1 -3 14.67 0.91
-4 -1 3 13.65 0.62
-4 -1 3 14.99 0.92
3 1 -3 47.53 1.53
3 1 -3 47.11 1.81
-3 -1 3 46.66 1.53
-3 -1 3 47.37 1.81
2 1 -3 0.29 0.21
-2 -1 3 0.37 0.2
1 1 -3 5.8 0.24
1 1 -3 5.71 0.39
-1 -1 3 5.2 0.35
-1 -1 3 5.42 0.25
0 1 -3 140.8 4.45
0 1 -3 137.98 4.33
0 -1 3 139.85 4.32
0 -1 3 138.86 4.45
-1 1 -3 139.99 4.2
-1 1 -3 132.94 4.46
1 -1 3 141.67 4.2
1 -1 3 136.67 4.47
-2 1 -3 10.72 0.37
-2 1 -3 10.02 0.36
-2 1 -3 10.12 0.58
2 -1 3 10.28 0.6
-3 1 -3 0.15 0.14
-3 1 -3 0.66 0.16
-3 1 -3 0.11 0.24
3 -1 3 0.11 0.29
-4 1 -3 0.55 0.23
-4 1 -3 1.03 0.37
-4 1 -3 0.83 0.27
4 -1 3 0.92 0.37
-5 1 -3 1.21 0.5
-5 1 -3 0.99 0.38
-5 1 -3 0.64 0.3
5 -1 3 1.18 0.57
-6 1 -3 2.01 0.58
-6 1 -3 1.99 0.56
-6 1 -3 1.99 0.46
6 -1 3 2.5 0.75
-7 1 -3 3.22 0.74
-7 1 -3 2.2 0.59
-7 1 -3 1.8 0.67
-8 1 -3 1.29 0.72
-8 1 -3 -0.53 0.83
-9 1 -3 0.98 0.96
-9 1 -3 0.36 1.07
-9 0 3 1.78 1.18
-9 0 3 3.46 0.87
-8 0 3 1.61 0.65
-8 0 3 1.7 0.91
7 0 -3 15.63 1.15
-7 0 3 13.66 1.29
-7 0 3 15.23 0.98
6 0 -3 15.34 1.17
6 0 -3 14.56 0.92
-6 0 3 14.52 1.16
-6 0 3 14.75 0.87
5 0 -3 33.23 1.58
5 0 -3 28.83 1.26
-5 0 3 30.79 1.48
-5 0 3 31.33 1.25
4 0 -3 16.96 0.97
4 0 -3 16.38 0.74
-4 0 3 16.43 0.74
-4 0 3 15 0.9
3 0 -3 1.74 0.36
3 0 -3 1.83 0.25
-3 0 3 1.71 0.35
-3 0 3 1.57 0.22
2 0 -3 169.63 5.27
2 0 -3 162.08 5.32
-2 0 3 168.83 5.33
-2 0 3 168.19 5.28
1 0 -3 44.38 1.46
-1 0 3 42.29 1.51
-1 0 3 43.16 1.46
0 0 -3 127.85 4.77
0 0 3 158.26 4.8
0 0 3 163.18 4.65
-1 0 -3 270.26 8.6
-1 0 -3 272.83 8.24
1 0 3 271.4 8.24
1 0 3 271.4 8.6
-2 0 -3 8.92 0.38
-2 0 -3 9.19 0.57
2 0 3 9.43 0.55
2 0 3 9.52 0.39
-3 0 -3 24.46 1.08
-3 0 -3 23.1 0.87
3 0 3 23.53 1.09
3 0 3 23.46 0.9
-4 0 -3 79.03 2.85
-4 0 -3 77.09 2.57
4 0 3 77.36 2.61
4 0 3 77.75 2.84
-5 0 -3 26.28 1.16
-5 0 -3 27.82 1.4
5 0 3 26.11 1.22
5 0 3 28.2 1.44
-6 0 -3 30.87 1.6
-6 0 -3 31.49 1.4
6 0 3 33.31 1.52
6 0 3 26.41 1.57
-7 0 -3 9.53 1
-7 0 -3 6.34 0.96
-8 0 -3 0.38 0.92
-8 0 -3 0.33 0.77
-9 0 -3 1.68 1.21
-9 1 3 0.54 0.85
-9 1 3 1.18 1.03
8 -1 -3 12.97 1.41
-8 1 3 11.81 1.19
-8 1 3 8.95 1.17
7 -1 -3 1.15 0.62
-7 1 3 0.29 0.62
-7 1 3 -0.22 0.46
6 -1 -3 0.94 0.43
-6 1 3 0.4 0.38
-6 1 3 0.39 0.49
-6 1 3 1.76 0.78
5 -1 -3 6.61 0.64
-5 1 3 7.26 0.85
-5 1 3 7.24 0.62
-5 1 3 6.97 0.79
4 -1 -3 3.99 0.47
-4 1 3 4.38 0.42
-4 1 3 4.33 0.59
-4 1 3 4.2 0.56
3 -1 -3 5.52 0.4
-3 1 3 5.65 0.54
-3 1 3 5.03 0.48
-3 1 3 5.33 0.39
2 -1 -3 -0.05 0.13
-2 1 3 -0.03 0.15
-2 1 3 -0.06 0.23
1 -1 -3 8.78 0.49
-1 1 3 9.14 0.47
-1 1 3 8.6 0.44
-1 1 3 8.17 0.49
0 -1 -3 56.63 2.02
0 1 3 57.7 1.94
0 1 3 63.03 2.05
-1 -1 -3 97.76 3.32
-1 -1 -3 99.03 3.15
1 1 3 100.69 3.15
1 1 3 100.18 3.33
-2 -1 -3 15.12 0.77
-2 -1 -3 14.87 0.64
2 1 3 15.1 0.65
2 1 3 15.4 0.79
-3 -1 -3 47.82 1.84
-3 -1 -3 48.47 1.66
3 1 3 48.33 1.68
3 1 3 45.14 1.82
-4 -1 -3 80.47 2.92
-4 -1 -3 77.89 2.69
4 1 3 80.51 2.92
-5 -1 -3 29.34 1.29
-5 -1 -3 28.65 1.46
5 1 3 28.53 1.34
5 1 3 28.85 1.49
-6 -1 -3 0.88 0.55
-6 -1 -3 1.39 0.66
6 1 3 0.42 0.64
6 1 3 1.19 0.77
-7 -1 -3 0.59 0.7
-7 -1 -3 2.65 0.84
7 1 3 0.15 0.88
-8 -1 -3 2.96 0.93
-8 -1 -3 2.29 1.04
-9 -1 -3 -0.47 1.32
-9 2 3 4.93 0.96
-9 2 3 4.09 1.11
8 -2 -3 12.12 1.29
-8 2 3 9.29 1.19
-8 2 3 7.31 1.11
7 -2 -3 14.49 1.24
-7 2 3 17.48 1.2
-7 2 3 11.95 1.13
6 -2 -3 6.47 0.91
-6 2 3 7.79 1.03
-6 2 3 7.56 0.77
-6 2 3 8.28 0.99
5 -2 -3 15.84 0.97
-5 2 3 15.7 0.9
-5 2 3 15.39 1.08
-5 2 3 15.56 1
4 -2 -3 32.83 1.37
-4 2 3 32.7 1.34
-4 2 3 32.35 1.5
-4 2 3 30.84 1.4
3 -2 -3 21.21 1.05
3 -2 -3 22.79 0.98
-3 2 3 21.96 0.97
-3 2 3 20.95 1.04
2 -2 -3 12.48 0.7
2 -2 -3 11.3 0.61
-2 2 3 12.78 0.73
-2 2 3 11.89 0.64
1 -2 -3 68.18 2.29
-1 2 3 66.04 2.31
-1 2 3 64.65 2.3
-1 2 3 67.73 2.28
0 -2 -3 2.1 0.3
0 2 3 1.99 0.28
0 2 3 1.49 0.29
0 2 3 2.4 0.31
-1 -2 -3 5.31 0.42
-1 -2 -3 4.83 0.42
1 2 3 5.32 0.43
1 2 3 5.6 0.52
-2 -2 -3 40.12 1.57
-2 -2 -3 39.96 1.47
2 2 3 40.27 1.6
2 2 3 38.16 1.47
-3 -2 -3 7.15 0.56
-3 -2 -3 6.03 0.57
3 2 3 6.71 0.61
3 2 3 6.64 0.7
-4 -2 -3 27.9 1.36
-4 -2 -3 26.6 1.22
4 2 3 26.89 1.39
4 2 3 29.04 1.3
-5 -2 -3 18.67 1.08
-5 -2 -3 21.39 1.23
5 2 3 18.17 1.18
5 2 3 18.02 1.3
-6 -2 -3 5.33 0.75
-6 -2 -3 5.65 0.85
6 2 3 6.44 0.91
-7 -2 -3 3.51 0.94
-7 -2 -3 1.54 0.8
7 2 3 1.86 0.95
-8 -2 -3 2.35 1.04
-8 -2 -3 -0.09 1.07
-9 3 3 0.29 0.93
-9 3 3 -0.37 1.1
-8 3 3 4.37 0.93
-8 3 3 3.49 0.92
7 -3 -3 -0.87 0.8
-7 3 3 0.93 0.64
-7 3 3 0.35 0.65
6 -3 -3 1.79 0.62
-6 3 3 1.88 0.51
-6 3 3 1.33 0.63
-6 3 3 2.4 0.7
5 -3 -3 0.02 0.48
-5 3 3 0.62 0.41
-5 3 3 0.59 0.57
4 -3 -3 5.09 0.67
4 -3 -3 4.65 0.63
-4 3 3 4.7 0.57
-4 3 3 4.8 0.63
3 -3 -3 42.63 1.73
3 -3 -3 44.33 1.72
-3 3 3 43.36 1.7
-3 3 3 41.71 1.73
2 -3 -3 52.95 2.03
2 -3 -3 56.11 2.05
-2 3 3 56.06 2.07
-2 3 3 56.35 2.06
1 -3 -3 43.65 1.67
1 -3 -3 42.1 1.66
-1 3 3 43.74 1.66
-1 3 3 43.71 1.68
-1 3 3 44.08 1.67
0 -3 -3 16.38 0.82
0 3 3 15.64 0.81
0 3 3 16.27 0.85
0 3 3 16.83 0.87
-1 -3 -3 35.55 1.42
1 3 3 32.51 1.41
1 3 3 37.58 1.51
1 3 3 35.88 1.44
-2 -3 -3 176.08 5.8
-2 -3 -3 170.32 5.62
2 3 3 176.87 5.63
2 3 3 174.37 5.82
-3 -3 -3 87.52 2.98
-3 -3 -3 84.43 3.07
3 3 3 83 2.98
3 3 3 82.74 3.1
-4 -3 -3 13.31 0.92
-4 -3 -3 14.05 1
4 3 3 13.51 1.05
4 3 3 12.61 1.12
-5 -3 -3 10.18 0.98
-5 -3 -3 10.95 1.09
5 3 3 11.43 1.22
5 3 3 9.27 1.21
-6 -3 -3 10.83 1.15
-6 -3 -3 8.41 1.17
-7 -3 -3 11.6 1.53
-7 -3 -3 11.75 1.49
-8 -3 -3 4.87 1.31
-8 -3 -3 6.58 1.4
-9 4 3 3.79 1.17
-9 4 3 3.23 1.31
-8 4 3 1.89 0.91
-8 4 3 2.24 0.99
-7 4 3 7.55 0.96
-7 4 3 7.03 0.97
-6 4 3 10.73 0.94
5 -4 -3 8.46 0.91
5 -4 -3 8.22 1.02
-5 4 3 9.13 1.09
-5 4 3 8.28 0.86
4 -4 -3 2.69 0.55
4 -4 -3 3.94 0.64
-4 4 3 3.2 0.48
-4 4 3 3.81 0.71
3 -4 -3 12.27 0.82
3 -4 -3 11.05 0.87
-3 4 3 10.8 0.78
-3 4 3 10.65 0.87
2 -4 -3 7.73 0.63
2 -4 -3 7.91 0.72
-2 4 3 6.89 0.6
-2 4 3 7.28 0.72
1 -4 -3 0.12 0.33
-1 4 3 0.32 0.42
-1 4 3 0.09 0.33
-1 4 3 0.07 0.31
0 -4 -3 3.79 0.52
0 4 3 3.11 0.5
0 4 3 3.16 0.49
0 4 3 3.56 0.48
-1 -4 -3 0.34 0.37
1 4 3 0.3 0.3
1 4 3 0.2 0.46
1 4 3 0.07 0.44
-2 -4 -3 1.05 0.4
2 4 3 0.55 0.5
2 4 3 1.68 0.49
2 4 3 1.75 0.43
-3 -4 -3 13.05 1.01
-3 -4 -3 14.92 1.01
3 4 3 13.04 1.1
3 4 3 14.1 1.16
-4 -4 -3 10.27 1.03
-4 -4 -3 9.54 1
4 4 3 9.63 1.18
4 4 3 11.28 1.24
-5 -4 -3 1.76 0.69
-5 -4 -3 1.58 0.75
-6 -4 -3 1.32 0.88
-6 -4 -3 1.56 0.92
-7 -4 -3 -0.34 1.07
-7 -4 -3 0.22 1.07
-9 5 3 1.48 1.19
-9 5 3 2.56 1.41
-8 5 3 2.03 0.99
-8 5 3 2.35 1.18
-7 5 3 10.28 1.31
-7 5 3 11.14 1.53
6 -5 -3 11.47 1.22
-6 5 3 12.66 1.1
5 -5 -3 21.76 1.41
-5 5 3 25.98 1.46
4 -5 -3 34.16 1.68
4 -5 -3 33.93 1.67
-4 5 3 30.69 1.54
3 -5 -3 20.99 1.2
3 -5 -3 19.77 1.17
-3 5 3 20.73 1.16
-3 5 3 21.6 1.39
2 -5 -3 12.41 0.89
2 -5 -3 12.34 1
-2 5 3 12.8 1.09
-2 5 3 12.87 0.91
1 -5 -3 12.75 1.01
-1 5 3 13.49 0.91
-1 5 3 12.38 1.02
-1 5 3 12.6 1
0 -5 -3 101.03 3.49
0 5 3 94.72 3.52
0 5 3 95.75 3.47
0 5 3 96.57 3.5
-1 -5 -3 80.16 3
1 5 3 77.98 3.01
1 5 3 80.76 3.1
1 5 3 84.37 3.05
-2 -5 -3 32.64 1.63
2 5 3 31.1 1.76
2 5 3 35.35 1.6
2 5 3 31.5 1.66
-3 -5 -3 26.59 1.52
3 5 3 25.82 1.48
-4 -5 -3 24.99 1.53
4 5 3 25.77 1.56
-5 -5 -3 14.96 1.6
5 5 3 21.06 1.57
-6 -5 -3 5.14 1.27
6 5 3 7.36 1.21
-8 6 3 0.98 1.09
-8 6 3 -0.98 1.27
-7 6 3 0.03 0.92
6 -6 -3 0.36 0.74
-6 6 3 0.04 0.64
5 -6 -3 0.55 0.66
-5 6 3 0.65 0.64
4 -6 -3 2.99 0.74
-4 6 3 3.54 0.66
3 -6 -3 0.72 0.53
-3 6 3 0.28 0.44
2 -6 -3 0.62 0.56
-2 6 3 0.07 0.41
1 -6 -3 2.55 0.61
-1 6 3 2.21 0.53
0 -6 -3 4.07 0.7
0 6 3 5 0.69
-1 -6 -3 0.29 0.66
1 6 3 0.18 0.53
-2 -6 -3 0.79 0.69
2 6 3 -0.35 0.51
-3 -6 -3 5.39 0.89
3 6 3 5.35 0.85
-4 -6 -3 1.6 0.97
4 6 3 3.68 0.92
-5 -6 -3 3.46 1.12
5 6 3 5.61 1.17
-8 7 3 5.75 1.37
7 -7 -3 6.53 1.48
-7 7 3 8.77 1.32
6 -7 -3 13.28 1.63
-6 7 3 12.67 1.38
5 -7 -3 12.23 1.63
-5 7 3 8.29 1.16
4 -7 -3 5.86 0.95
-4 7 3 6.92 0.91
3 -7 -3 7.46 0.99
-3 7 3 10.85 1.05
2 -7 -3 28.69 1.68
-2 7 3 29.82 1.63
1 -7 -3 32.4 1.81
-1 7 3 33.2 1.72
0 -7 -3 13.83 1.28
0 7 3 11.39 1.13
-1 -7 -3 4.41 0.9
1 7 3 3.83 0.76
-2 -7 -3 13.15 1.51
2 7 3 9.51 1.14
-3 -7 -3 3.27 1.09
3 7 3 2.28 0.97
-4 -7 -3 1.95 1.17
6 -8 -3 -0.59 1.33
-6 8 3 1.2 0.98
5 -8 -3 1.99 1.21
-5 8 3 -0.44 1
4 -8 -3 7.29 1.14
-4 8 3 5.27 0.97
3 -8 -3 5.42 1.13
-3 8 3 5.1 1.06
2 -8 -3 4.51 1.06
-2 8 3 2.66 0.82
1 -8 -3 -0.28 0.84
-1 8 3 0.02 0.84
0 -8 -3 -0.91 0.96
0 8 3 0.79 0.89
-1 -8 -3 12.95 1.8
1 8 3 11.51 1.53
-2 -8 -3 7.23 1.31
2 8 3 7.62 1.21
4 -9 -3 7.94 1.5
-4 9 3 5.16 1.26
3 -9 -3 8.13 1.35
-3 9 3 7.24 1.28
2 -9 -3 -0.34 1.09
-2 9 3 2.31 1.04
1 -9 -3 -0.59 1.04
-1 9 3 -1.62 0.93
0 -9 -3 0.6 1.14
0 9 3 1.28 0.95
-2 10 -4 2.91 1.39
2 -10 4 3.76 1.55
-2 -9 4 0.5 1.13
1 9 -4 0.87 1
-1 -9 4 -0.47 1.14
0 9 -4 1.06 0.94
0 -9 4 0.96 1.09
-1 9 -4 0.96 0.89
1 -9 4 -1.14 0.93
-2 9 -4 1.58 1
2 -9 4 3.12 1.12
-3 9 -4 1.81 1.01
3 -9 4 1.79 1.1
-4 9 -4 1.35 1.07
4 -9 4 -0.96 0.97
-5 9 -4 8.14 1.37
5 -9 4 8.06 1.34
-6 9 -4 3.58 1.29
-4 -8 4 4.15 1.26
-3 -8 4 7.54 1.38
2 8 -4 5.07 0.89
-2 -8 4 5.07 1.1
1 8 -4 6.7 0.95
1 8 -4 4.58 1.1
-1 -8 4 7.06 1.06
0 8 -4 6.48 0.92
0 -8 4 4.24 0.94
-1 8 -4 1.93 0.78
1 -8 4 1.31 0.76
-2 8 -4 9.01 1.11
2 -8 4 9.62 1.31
-3 8 -4 5.49 1.01
3 -8 4 4.55 0.97
-4 8 -4 6.05 0.94
4 -8 4 4.04 0.95
-5 8 -4 2.06 0.91
5 -8 4 3.57 0.95
-6 8 -4 1.78 1.13
6 -8 4 2.7 1.11
-7 8 -4 3.27 1.32
7 -8 4 1.7 1.2
-5 -7 4 3.04 1.19
-4 -7 4 3.91 1.19
3 7 -4 3.11 0.67
-3 -7 4 3.84 1
2 7 -4 7.61 1.05
2 7 -4 9.91 1.01
-2 -7 4 11.02 1.36
1 7 -4 3.83 0.68
-1 -7 4 3.72 0.75
-1 -7 4 1.9 0.66
0 7 -4 24.89 1.43
0 -7 4 24.12 1.54
0 -7 4 22.25 1.34
-1 7 -4 20.3 1.32
1 -7 4 19.49 1.29
1 -7 4 21.05 1.33
-2 7 -4 13.78 1.19
2 -7 4 12.45 1.07
-3 7 -4 42.84 2.08
3 -7 4 45.34 2.07
-4 7 -4 13.45 1.17
4 -7 4 10.77 1.13
-5 7 -4 5.34 0.93
5 -7 4 5.35 0.87
-6 7 -4 5.42 1.11
6 -7 4 4.23 1.01
-7 7 -4 2.98 1.18
7 -7 4 1.53 1.07
-8 7 -4 2.05 1.11
-6 -6 4 4.2 1.41
-5 -6 4 12.76 1.56
4 6 -4 1.99 0.47
-4 -6 4 1.83 0.81
3 6 -4 7.17 0.76
3 6 -4 7.73 0.82
-3 -6 4 7.96 1.06
2 6 -4 1.59 0.48
2 6 -4 0.32 0.42
-2 -6 4 0.48 0.53
1 6 -4 -0.4 0.39
-1 -6 4 0.47 0.48
-1 -6 4 0.21 0.42
0 6 -4 13.13 1.05
0 6 -4 14.45 0.97
0 -6 4 13.06 1
0 -6 4 14.8 0.94
-1 6 -4 0.02 0.42
-1 6 -4 0.28 0.56
1 -6 4 0.4 0.46
1 -6 4 -0.25 0.41
-2 6 -4 2.6 0.6
-2 6 -4 2.02 0.61
2 -6 4 1.9 0.55
2 -6 4 2.71 0.6
-3 6 -4 0.49 0.46
-3 6 -4 0.33 0.54
3 -6 4 -0.16 0.5
3 -6 4 0.82 0.65
-4 6 -4 -0.03 0.55
-4 6 -4 0.34 0.6
4 -6 4 0.1 0.47
-5 6 -4 10.9 1.22
-5 6 -4 9.75 1.09
5 -6 4 10.41 1.07
-6 6 -4 1.42 0.76
-6 6 -4 0.56 0.77
6 -6 4 -0.16 0.72
-7 6 -4 0.4 0.9
-8 6 -4 -0.02 1.01
-8 6 -4 0.26 0.98
-7 -5 4 7.32 1.54
-6 -5 4 14.82 1.84
5 5 -4 13.18 0.68
-5 -5 4 18.84 1.64
4 5 -4 12.05 0.7
4 5 -4 13.97 0.72
-4 -5 4 14.82 1.21
3 5 -4 9.41 0.62
3 5 -4 7.85 0.6
-3 -5 4 7.61 0.96
2 5 -4 69.09 2.34
2 5 -4 67.62 2.63
2 5 -4 64.97 2.38
-2 -5 4 66.46 2.61
1 5 -4 29.14 1.3
1 5 -4 28.49 1.44
-1 -5 4 31.83 1.26
-1 -5 4 31.66 1.44
0 5 -4 27.43 1.27
0 5 -4 26.17 1.32
0 -5 4 30 1.36
0 -5 4 26.17 1.21
-1 5 -4 61.24 2.31
-1 5 -4 64.41 2.41
1 -5 4 64.69 2.33
1 -5 4 59.24 2.32
-2 5 -4 24.91 1.29
-2 5 -4 23.48 1.16
2 -5 4 24.25 1.16
2 -5 4 23.27 1.26
-3 5 -4 23.81 1.28
-3 5 -4 22.47 1.14
3 -5 4 22.08 1.12
3 -5 4 22.17 1.31
-4 5 -4 30.39 1.38
-4 5 -4 31.49 1.65
4 -5 4 31.12 1.4
4 -5 4 29.76 1.66
-5 5 -4 21.48 1.42
-5 5 -4 23 1.27
5 -5 4 25.66 1.28
-6 5 -4 10.41 1.14
-6 5 -4 10.04 1.08
-7 5 -4 5.49 0.86
-7 5 -4 5.55 1.03
-8 5 -4 0.49 0.86
-8 5 -4 0.7 0.85
-9 5 -4 3.53 1.35
-8 -4 4 3.54 1.53
-7 -4 4 9.09 1.34
-6 -4 4 0.3 0.81
-5 -4 4 2.78 0.73
4 4 -4 0.24 0.16
4 4 -4 0.05 0.19
-4 -4 4 0.55 0.53
3 4 -4 0.21 0.2
3 4 -4 0.12 0.47
3 4 -4 0.08 0.2
-3 -4 4 0.59 0.45
2 4 -4 21.22 0.91
2 4 -4 22.5 1.18
2 4 -4 23.86 0.89
-2 -4 4 22.57 1.16
1 4 -4 3.56 0.41
1 4 -4 2.92 0.46
-1 -4 4 3.57 0.51
-1 -4 4 3.95 0.39
0 4 -4 0.91 0.31
0 4 -4 0.85 0.35
0 -4 4 0.96 0.27
0 -4 4 0.96 0.35
-1 4 -4 12.76 0.73
-1 4 -4 13.12 0.78
1 -4 4 13.1 0.76
1 -4 4 13.1 0.74
-2 4 -4 4.11 0.5
-2 4 -4 4.86 0.6
2 -4 4 4.67 0.5
2 -4 4 4.51 0.62
-3 4 -4 8.83 0.75
3 -4 4 7.56 0.8
3 -4 4 8.63 0.6
-4 4 -4 2.23 0.39
-4 4 -4 1.37 0.55
4 -4 4 1.98 0.58
4 -4 4 2.19 0.38
-5 4 -4 9.84 1.02
-5 4 -4 9.9 0.75
5 -4 4 9.24 0.76
5 -4 4 7.68 0.86
-6 4 -4 -0.28 0.47
-6 4 -4 -0.52 0.54
-6 4 -4 0.28 0.51
-7 4 -4 2.17 0.65
-7 4 -4 3.79 0.83
-7 4 -4 1.51 0.74
-8 4 -4 4.54 0.97
-8 4 -4 2.51 0.8
-9 4 -4 2.12 1.26
-8 -3 4 15.9 1.83
-7 -3 4 30.13 1.94
-6 -3 4 11.89 1.35
-5 -3 4 23.4 1.49
4 3 -4 116.92 4.14
-4 -3 4 118.56 4.14
3 3 -4 34.67 1.56
-3 -3 4 36.92 1.6
2 3 -4 70.18 2.21
2 3 -4 67.06 2.19
2 3 -4 67.83 2.47
-2 -3 4 67.64 2.46
1 3 -4 35.82 1.31
1 3 -4 37.48 1.45
-1 -3 4 35.96 1.27
-1 -3 4 36.94 1.43
0 3 -4 33.9 1.34
0 3 -4 33.92 1.34
0 -3 4 37.73 1.36
0 -3 4 36.49 1.33
-1 3 -4 44.57 1.72
-1 3 -4 45.17 1.59
1 -3 4 45.34 1.71
1 -3 4 45.27 1.6
-2 3 -4 36.74 1.56
-2 3 -4 38.62 1.36
2 -3 4 39.18 1.36
2 -3 4 38.15 1.56
-3 3 -4 73.77 2.82
-3 3 -4 76.94 2.51
3 -3 4 79.02 2.87
3 -3 4 77.06 2.51
-4 3 -4 15.7 0.74
-4 3 -4 16.37 0.99
4 -3 4 15.46 1.02
-5 3 -4 4.88 0.65
-5 3 -4 5.97 0.56
-5 3 -4 3.85 0.45
5 -3 4 3.99 0.71
-6 3 -4 1.69 0.46
-6 3 -4 2.14 0.5
-6 3 -4 1.39 0.56
-7 3 -4 1.28 0.59
-7 3 -4 2.63 0.82
-7 3 -4 2.18 0.65
-8 3 -4 -0.15 0.66
-8 3 -4 -0.08 0.94
-9 3 -4 1.33 1.22
-9 -2 4 1.49 1.37
-8 -2 4 3.59 1.06
-7 -2 4 2.26 0.41
-7 -2 4 2.05 0.81
6 2 -4 3.29 0.44
-6 -2 4 3.32 0.8
-6 -2 4 2.48 0.32
5 2 -4 0.09 0.16
5 2 -4 -0.14 0.57
-5 -2 4 -0.64 0.5
-5 -2 4 0.18 0.15
4 2 -4 0.68 0.51
-4 -2 4 0.87 0.47
3 2 -4 13.47 0.84
-3 -2 4 12.9 0.81
2 2 -4 9.98 0.63
-2 -2 4 9.64 0.62
1 2 -4 10.05 0.58
1 2 -4 11.21 0.46
-1 -2 4 11.31 0.47
-1 -2 4 10.94 0.61
0 2 -4 0.56 0.17
0 2 -4 0.37 0.18
0 -2 4 0.16 0.17
0 -2 4 0.31 0.17
-1 2 -4 4.48 0.37
-1 2 -4 4.39 0.29
1 -2 4 4.17 0.29
1 -2 4 4.33 0.43
-2 2 -4 35.23 1.13
-2 2 -4 32.62 1.38
2 -2 4 34.33 1.41
2 -2 4 35.12 1.14
-3 2 -4 134.32 4.65
-3 2 -4 140.59 4.23
-3 2 -4 139.23 4.24
3 -2 4 132.74 4.66
-4 2 -4 9.12 0.76
-4 2 -4 9.13 0.49
-4 2 -4 9.23 0.51
4 -2 4 8.06 0.77
-5 2 -4 17.76 0.85
-5 2 -4 17.57 0.84
-5 2 -4 17.52 1.11
5 -2 4 18.71 1.18
-6 2 -4 18.43 1.29
-6 2 -4 11.95 0.91
-6 2 -4 15.1 0.87
-7 2 -4 12.34 0.94
-7 2 -4 10.52 1.12
-7 2 -4 16.1 1.38
-8 2 -4 9.22 1.3
-8 2 -4 8.68 1.09
-9 2 -4 3.95 1.27
-9 -1 4 11.38 1.58
-8 -1 4 5.27 0.71
-8 -1 4 4.61 1.05
7 1 -4 12 0.91
-7 -1 4 12.02 1.33
-7 -1 4 11.28 0.84
6 1 -4 40.45 1.61
-6 -1 4 45.37 2.02
-6 -1 4 44.4 1.6
5 1 -4 8.83 1.05
5 1 -4 9.35 0.52
-5 -1 4 6.89 0.48
-5 -1 4 9.53 0.95
4 1 -4 39.62 1.71
4 1 -4 41.71 1.35
-4 -1 4 39.91 1.36
-4 -1 4 39.21 1.72
3 1 -4 25.87 1.21
-3 -1 4 25.6 1.18
-3 -1 4 26.43 0.87
-3 -1 4 27.14 0.88
-2 -1 4 83.59 2.85
-2 -1 4 83.48 2.64
-2 -1 4 83.18 2.63
1 1 -4 26.68 0.93
1 1 -4 26.34 1.05
-1 -1 4 26.41 1.03
-1 -1 4 25.85 0.94
0 1 -4 9.06 0.45
0 1 -4 8.8 0.45
0 -1 4 7.88 0.41
0 -1 4 9.26 0.47
-1 1 -4 12.78 0.44
-1 1 -4 12.43 0.63
1 -1 4 11.36 0.61
1 -1 4 11.8 0.43
-2 1 -4 3 0.37
2 -1 4 2.76 0.4
-3 1 -4 19.93 1.02
-3 1 -4 19.01 0.65
-3 1 -4 18.87 0.65
3 -1 4 19.59 1
-4 1 -4 0.09 0.21
-4 1 -4 0.01 0.19
-4 1 -4 0.28 0.41
4 -1 4 -0.28 0.37
-5 1 -4 0.27 0.32
-5 1 -4 0.26 0.27
-5 1 -4 -0.2 0.4
5 -1 4 0.41 0.57
-6 1 -4 5.24 0.82
-6 1 -4 5.87 0.79
-6 1 -4 7.47 0.7
-7 1 -4 1.89 0.85
-7 1 -4 1 0.64
-7 1 -4 1.65 0.57
-8 1 -4 1.07 0.99
-8 1 -4 1.75 0.7
-9 1 -4 1.38 1.24
-9 0 4 2.83 1.23
-8 0 4 1.99 0.63
-8 0 4 -0.42 0.89
7 0 -4 1.43 0.54
-7 0 4 0.59 0.69
-7 0 4 1.26 0.46
6 0 -4 32.53 1.5
-6 0 4 38.6 1.86
-6 0 4 37.96 1.47
5 0 -4 35.13 1.66
5 0 -4 33.44 1.36
-5 0 4 34.12 1.64
-5 0 4 35.32 1.36
4 0 -4 52 1.75
4 0 -4 49.14 2
-4 0 4 50.41 1.76
-4 0 4 48.28 1.97
3 0 -4 17.29 0.9
3 0 -4 14.59 0.64
-3 0 4 15.69 0.89
-2 0 4 1.09 0.17
-2 0 4 1.24 0.19
-2 0 4 1.14 0.28
1 0 -4 69.94 2.59
-1 0 4 82.51 2.64
-1 0 4 83.64 2.63
-1 0 4 81.41 2.64
0 0 -4 11.79 0.57
0 0 4 11.69 0.58
0 0 4 11.06 0.51
-1 0 -4 219.61 6.5
-1 0 -4 212.25 6.83
1 0 4 200.57 6.82
1 0 4 217.61 6.49
-2 0 -4 16.42 0.59
-2 0 -4 17.62 0.85
2 0 4 16.95 0.86
2 0 4 16.66 0.6
-3 0 -4 17.65 0.94
-3 0 -4 17.58 0.68
3 0 4 17.96 0.69
3 0 4 17.84 0.94
-4 0 -4 22.63 0.9
-4 0 -4 22.29 1.16
4 0 4 22.46 0.94
4 0 4 22.23 1.17
-5 0 -4 26.07 1.4
-5 0 -4 25.3 1.09
5 0 4 26.39 1.18
5 0 4 25.04 1.4
-6 0 -4 13.65 1.25
-6 0 -4 14.22 0.94
6 0 4 15.14 1.05
-7 0 -4 25.05 1.42
-7 0 -4 27.79 1.76
-8 0 -4 12.04 1.35
-8 0 -4 11.01 1.38
-9 0 -4 2.48 1.33
-9 1 4 1.14 0.83
-9 1 4 1.29 1.11
8 -1 -4 1.37 0.82
-8 1 4 1.46 0.67
-8 1 4 0.93 0.95
7 -1 -4 -0.72 0.57
-7 1 4 -0.35 0.47
-7 1 4 0.47 0.71
6 -1 -4 0.31 0.47
-6 1 4 -0.35 0.66
-6 1 4 -0.07 0.58
-6 1 4 0.06 0.39
5 -1 -4 3.92 0.56
-5 1 4 3.12 0.64
-5 1 4 3.62 0.51
-5 1 4 3.79 0.66
4 -1 -4 16.14 0.78
-4 1 4 15.87 0.91
-4 1 4 13.75 0.97
-4 1 4 14.71 0.74
3 -1 -4 -0.18 0.17
-3 1 4 0.07 0.3
-3 1 4 0.06 0.18
-3 1 4 0.02 0.32
-2 1 4 6.82 0.54
-2 1 4 7.15 0.43
-2 1 4 7.48 0.47
1 -1 -4 7.12 0.48
-1 1 4 6.52 0.44
-1 1 4 6.5 0.4
-1 1 4 6.35 0.44
0 -1 -4 21.27 0.91
0 -1 -4 21.19 0.85
0 1 4 21.95 0.95
0 1 4 21.8 0.85
-1 -1 -4 65.48 2.32
-1 -1 -4 64.31 2.14
1 1 4 64.83 2.32
1 1 4 66.35 2.14
-2 -1 -4 10.24 0.51
-2 -1 -4 9.92 0.65
2 1 4 10.73 0.53
2 1 4 9.93 0.65
-3 -1 -4 -0.21 0.29
-3 -1 -4 -0.24 0.21
3 1 4 0.2 0.24
3 1 4 -0.11 0.38
-4 -1 -4 40.23 1.53
-4 -1 -4 42.58 1.81
4 1 4 39.73 1.81
4 1 4 42.47 1.58
-5 -1 -4 32.79 1.57
-5 -1 -4 31.56 1.33
5 1 4 31.07 1.38
5 1 4 28.12 1.64
-6 -1 -4 16.2 1.05
-6 -1 -4 19.59 1.38
6 1 4 15.06 1.18
-7 -1 -4 -0.03 0.83
-7 -1 -4 0.03 0.68
7 1 4 0.34 0.91
-8 -1 -4 1.55 1.12
-8 -1 -4 1.22 0.93
-9 2 4 0.53 1.1
-9 2 4 0.25 0.85
8 -2 -4 21.41 1.69
-8 2 4 21.27 1.51
-8 2 4 23.48 1.6
7 -2 -4 13.58 1.32
-7 2 4 14.38 1.15
-7 2 4 15.36 1.25
6 -2 -4 14.79 1.07
-6 2 4 15.85 1.17
-6 2 4 17 1.06
5 -2 -4 19.36 1.05
-5 2 4 17.43 1.23
-5 2 4 18.95 1
-5 2 4 17.83 1.13
4 -2 -4 54.45 2
-4 2 4 51.19 1.96
-4 2 4 51.71 2.08
-4 2 4 53.38 2.12
3 -2 -4 148.93 5.07
3 -2 -4 158.59 5.1
-3 2 4 153.13 5.09
-3 2 4 157.33 5.09
2 -2 -4 55.46 2.01
2 -2 -4 54.47 2.05
-2 2 4 55.21 2.04
-2 2 4 58.61 2.03
1 -2 -4 101.27 3.42
-1 2 4 107.57 3.43
-1 2 4 104.74 3.5
-1 2 4 100.26 3.47
0 -2 -4 147.07 4.88
0 -2 -4 140.06 4.71
0 2 4 154.84 4.91
0 2 4 149.04 4.72
-1 -2 -4 34.73 1.33
-1 -2 -4 36.45 1.46
1 2 4 34.59 1.34
1 2 4 36.35 1.48
-2 -2 -4 27.22 1.22
-2 -2 -4 26.53 1.09
2 2 4 27 1.26
2 2 4 23.81 1.06
-3 -2 -4 31.02 1.26
-3 -2 -4 29.98 1.38
3 2 4 29.83 1.25
3 2 4 29.09 1.39
-4 -2 -4 4.92 0.68
-4 -2 -4 5.26 0.64
4 2 4 5.4 0.74
4 2 4 3.97 0.75
-5 -2 -4 67.8 2.49
-5 -2 -4 68.38 2.7
5 2 4 68.74 2.57
5 2 4 62.49 2.68
-6 -2 -4 22.68 1.36
-6 -2 -4 22.78 1.53
6 2 4 24.02 1.55
-7 -2 -4 3.42 0.99
-7 -2 -4 3.36 0.84
-8 -2 -4 0.02 1.14
-8 -2 -4 2.8 1.13
-9 3 4 -1.11 1.02
-9 3 4 -0.97 1.21
-8 3 4 1.59 0.99
-8 3 4 1.61 0.78
7 -3 -4 1.32 0.83
-7 3 4 1.94 0.8
-7 3 4 1.3 0.61
6 -3 -4 3.25 0.73
-6 3 4 3.57 0.78
-6 3 4 3.16 0.6
5 -3 -4 41.19 1.8
-5 3 4 38.77 1.91
-5 3 4 40.38 1.74
4 -3 -4 14.8 1
4 -3 -4 17.52 0.99
-4 3 4 14.42 1.05
-4 3 4 14.85 0.9
3 -3 -4 54.05 2.04
3 -3 -4 52.67 2.08
-3 3 4 54.07 2.03
-3 3 4 51.15 2.07
2 -3 -4 89.88 3.12
2 -3 -4 87.03 3.12
-2 3 4 90.44 3.11
-2 3 4 89.65 3.13
1 -3 -4 51.06 1.93
-1 3 4 51.51 1.95
-1 3 4 50.28 1.95
-1 3 4 54.51 1.99
0 -3 -4 2.3 0.4
0 3 4 2.68 0.44
0 3 4 2.28 0.36
0 3 4 2.31 0.45
-1 -3 -4 8.63 0.7
-1 -3 -4 7.58 0.62
1 3 4 7.98 0.63
1 3 4 8.2 0.76
-2 -3 -4 70.94 2.49
-2 -3 -4 69.44 2.59
2 3 4 71.17 2.67
2 3 4 66.56 2.48
-3 -3 -4 123.34 4.29
-3 -3 -4 126.32 4.11
3 3 4 118.23 4.29
3 3 4 118.94 4.09
-4 -3 -4 33.49 1.55
-4 -3 -4 32.61 1.64
4 3 4 32.86 1.77
4 3 4 33.4 1.62
-5 -3 -4 0.77 0.66
-5 -3 -4 1.28 0.67
5 3 4 1.75 0.83
-6 -3 -4 17.85 1.43
-6 -3 -4 18.15 1.52
6 3 4 15.98 1.52
-7 -3 -4 8.29 1.18
-7 -3 -4 9.02 1.33
-9 4 4 3.99 1.22
-9 4 4 2.41 1.23
-8 4 4 1.15 1.01
-8 4 4 2.27 0.94
-7 4 4 1.87 0.73
-7 4 4 0.68 0.85
-6 4 4 21.14 1.46
-6 4 4 22.7 1.37
5 -4 -4 31.16 1.62
5 -4 -4 27.28 1.55
-5 4 4 28.92 1.45
4 -4 -4 11.29 0.96
4 -4 -4 11.78 0.91
-4 4 4 12.12 1.06
-4 4 4 11.09 0.9
3 -4 -4 24.52 1.26
3 -4 -4 25.24 1.24
-3 4 4 23.27 1.3
-3 4 4 23.2 1.18
2 -4 -4 96.66 3.43
2 -4 -4 95.34 3.46
-2 4 4 99.39 3.47
-2 4 4 98.75 3.47
1 -4 -4 21.38 1.12
-1 4 4 20.99 1.12
-1 4 4 20.29 1.09
-1 4 4 19.74 1.05
0 -4 -4 14.53 0.96
0 4 4 15.82 0.93
0 4 4 15.28 1.04
0 4 4 16.15 1.03
-1 -4 -4 12.16 0.81
1 4 4 12.35 0.98
1 4 4 11.3 0.85
1 4 4 12.79 0.94
-2 -4 -4 -0.01 0.44
2 4 4 0.13 0.47
2 4 4 0.26 0.61
2 4 4 0.51 0.44
-3 -4 -4 52.12 2.24
-3 -4 -4 55.9 2.2
3 4 4 54.51 2.36
3 4 4 51.5 2.2
-4 -4 -4 1.36 0.62
-4 -4 -4 1.1 0.61
4 4 4 1.07 0.84
-5 -4 -4 0.1 0.76
-5 -4 -4 1.02 0.76
-6 -4 -4 -0.7 0.91
-6 -4 -4 -0.08 0.93
-7 -4 -4 1.38 1.23
-7 -4 -4 0.16 1.19
-9 5 4 3.93 1.51
-9 5 4 1.79 1.29
-8 5 4 5.28 1.13
-8 5 4 4.93 1.29
-7 5 4 30.5 2.08
-7 5 4 29.54 1.85
6 -5 -4 20.82 1.52
-6 5 4 20.71 1.49
5 -5 -4 34.59 1.81
-5 5 4 33.98 1.7
4 -5 -4 65.54 2.64
-4 5 4 62.01 2.57
3 -5 -4 21.77 1.23
3 -5 -4 23.36 1.39
-3 5 4 23.47 1.31
2 -5 -4 14.34 1
2 -5 -4 11.72 0.97
-2 5 4 12.76 1.02
-2 5 4 13.8 0.94
-2 5 4 14.14 1.1
1 -5 -4 47.12 2
-1 5 4 44.79 1.98
-1 5 4 46.06 2.05
-1 5 4 46.03 1.97
0 -5 -4 79.9 2.96
0 5 4 77.76 2.96
0 5 4 79.05 3
0 5 4 78.3 3.04
-1 -5 -4 135.46 4.66
1 5 4 134.36 4.74
1 5 4 135.06 4.7
-2 -5 -4 5.25 0.73
2 5 4 6.14 0.82
2 5 4 3.99 0.68
-3 -5 -4 -0.4 0.59
3 5 4 0.28 0.61
-4 -5 -4 21.4 1.59
4 5 4 26.32 1.59
-5 -5 -4 9.34 1.23
5 5 4 11.91 1.47
-6 -5 -4 7.79 1.4
6 5 4 9.59 1.41
-8 6 4 1.55 1.11
-8 6 4 1.74 1.25
-7 6 4 1.6 0.95
6 -6 -4 0.44 0.98
-6 6 4 0.42 0.7
5 -6 -4 2 0.77
-5 6 4 2 0.72
4 -6 -4 8.97 1.1
-4 6 4 7.98 0.95
3 -6 -4 1.26 0.58
-3 6 4 0.31 0.46
2 -6 -4 1.21 0.56
-2 6 4 0.61 0.47
1 -6 -4 1.9 0.67
-1 6 4 1.95 0.59
0 -6 -4 -0.4 0.63
0 6 4 -0.45 0.49
-1 -6 -4 11.09 1.19
1 6 4 8.95 1.07
-2 -6 -4 3.05 0.77
2 6 4 2.65 0.77
-3 -6 -4 5.07 1
3 6 4 9.04 1.22
-4 -6 -4 5.37 1.07
4 6 4 6.55 1.07
-5 -6 -4 -0.43 1.06
5 6 4 -1.26 1.1
7 -7 -4 6.86 1.34
-7 7 4 7.49 1.32
6 -7 -4 10.55 1.35
-6 7 4 11.77 1.56
5 -7 -4 4.28 1.06
-5 7 4 2.72 0.9
4 -7 -4 6.47 1.03
-4 7 4 4.91 0.99
3 -7 -4 21.49 1.69
-3 7 4 20.36 1.56
2 -7 -4 33.88 1.93
-2 7 4 36.84 1.86
1 -7 -4 45.41 2.26
-1 7 4 48.44 2.27
0 -7 -4 0 0.83
0 7 4 0.05 0.59
-1 -7 -4 1.76 0.81
1 7 4 -0.04 0.72
-2 -7 -4 11.21 1.54
2 7 4 12.5 1.45
-3 -7 -4 7.99 1.32
3 7 4 4.31 1.09
-4 -7 -4 3.81 1.32
4 7 4 2.32 1.24
6 -8 -4 -0.19 1.33
-6 8 4 0.42 1.03
5 -8 -4 4.99 1.18
-5 8 4 4.75 1.19
4 -8 -4 7.88 1.37
-4 8 4 7.54 1.1
3 -8 -4 6.86 1.26
-3 8 4 6.92 1.1
2 -8 -4 -1.46 0.86
-2 8 4 0.22 0.8
1 -8 -4 1.32 0.88
-1 8 4 1.18 0.93
0 -8 -4 7.12 1.3
0 8 4 6.87 1.17
-1 -8 -4 7.46 1.43
1 8 4 9.19 1.34
-2 -8 -4 14.77 2
2 8 4 8.89 1.34
3 -9 -4 2.31 1.09
-3 9 4 2.88 1.05
2 -9 -4 -1.23 1.03
-2 9 4 -2.4 0.96
1 -9 -4 -0.06 1.09
-1 9 4 0.74 1.17
-2 -9 5 -1.08 1.14
1 9 -5 -1.42 0.93
-1 -9 5 -0.54 1.01
0 9 -5 1.25 1.02
0 -9 5 0.15 1.05
-1 9 -5 1.68 0.96
1 -9 5 1.49 0.93
-2 9 -5 4.83 1.13
2 -9 5 5.73 1.15
-3 9 -5 1.7 1.01
3 -9 5 -1.38 1.04
-4 9 -5 1.4 1.13
4 -9 5 -0.43 1.02
-5 9 -5 1.86 1.27
5 -9 5 2.73 1.18
-4 -8 5 7.39 1.31
-3 -8 5 16.9 1.8
2 8 -5 8.85 1.02
-2 -8 5 8.68 1.34
1 8 -5 11 1.22
-1 -8 5 7.76 1.22
0 8 -5 0.38 0.76
0 -8 5 1.99 0.9
0 -8 5 -0.55 0.75
-1 8 -5 16.56 1.45
1 -8 5 19.83 1.56
-2 8 -5 11.33 1.31
2 -8 5 9.85 1.34
-3 8 -5 5 0.96
3 -8 5 4.38 0.94
-4 8 -5 2.52 0.86
4 -8 5 3.41 0.86
-5 8 -5 1.41 1
5 -8 5 1.99 0.9
-6 8 -5 4.81 1.24
6 -8 5 4.34 1.19
7 -8 5 2.59 1.35
-5 -7 5 1.72 1.33
-4 -7 5 2.24 1.02
3 7 -5 6.7 0.93
-3 -7 5 8.5 1.19
2 7 -5 1.68 0.6
2 7 -5 2.14 0.69
-2 -7 5 2.08 0.88
1 7 -5 15.94 1.22
-1 -7 5 20.82 1.21
-1 -7 5 20.27 1.45
0 7 -5 9.67 1.07
0 -7 5 9.52 1.07
0 -7 5 13.13 1.12
-1 7 -5 1.03 0.65
1 -7 5 1.24 0.65
1 -7 5 1.04 0.66
-2 7 -5 4.66 0.8
2 -7 5 4.29 0.78
-3 7 -5 9.44 1.08
-3 7 -5 9.24 1.19
3 -7 5 7.96 1.04
-4 7 -5 15.64 1.33
-4 7 -5 14.91 1.47
4 -7 5 14.19 1.21
-5 7 -5 0.88 0.78
-5 7 -5 2.98 0.84
5 -7 5 1.79 0.71
-6 7 -5 3.22 1.15
6 -7 5 2.16 0.95
-7 7 -5 4.33 1.24
-6 -6 5 7.79 1.42
-5 -6 5 16.47 1.92
4 6 -5 7.42 0.65
-4 -6 5 10.28 1.31
3 6 -5 5.37 0.69
3 6 -5 5 0.65
-3 -6 5 4.72 0.84
2 6 -5 14.61 0.92
2 6 -5 12.87 0.9
-2 -6 5 13.43 1.13
1 6 -5 40.8 1.81
-1 -6 5 45.65 1.96
-1 -6 5 43.96 1.74
0 6 -5 11.53 0.92
0 6 -5 11.66 1.11
0 -6 5 13.12 0.94
0 -6 5 13.76 1.08
-1 6 -5 10.02 0.92
-1 6 -5 12.27 0.96
1 -6 5 9.61 0.87
1 -6 5 9.77 0.9
-2 6 -5 2.24 0.6
-2 6 -5 2.52 0.61
2 -6 5 2.56 0.57
2 -6 5 3.39 0.65
-3 6 -5 3.42 0.65
-3 6 -5 3.05 0.74
3 -6 5 2.64 0.56
3 -6 5 3.21 0.68
-4 6 -5 3.9 0.74
-4 6 -5 3.69 0.65
4 -6 5 2.56 0.56
-5 6 -5 3.85 0.73
-5 6 -5 3.54 0.8
5 -6 5 4.76 0.73
-6 6 -5 1.7 0.85
-6 6 -5 0.36 0.78
6 -6 5 1 0.75
-7 6 -5 -0.52 0.91
-8 6 -5 -1.38 1.06
-7 -5 5 3.55 1.32
-6 -5 5 9.46 1.42
-5 -5 5 36.3 2.07
-4 -5 5 24.43 1.55
3 5 -5 67.32 2.11
3 5 -5 55.13 2.11
-3 -5 5 65.57 2.59
2 5 -5 14.36 1.18
2 5 -5 13.18 0.75
-2 -5 5 11.66 0.98
1 5 -5 24.93 1.14
1 5 -5 24.78 1.31
-1 -5 5 26.87 1.33
-1 -5 5 21.06 1.04
0 5 -5 38.89 1.71
0 5 -5 38.76 1.7
0 -5 5 42.8 1.66
0 -5 5 45.58 1.78
-1 5 -5 48.19 1.89
-1 5 -5 45.57 1.97
1 -5 5 50.5 1.89
1 -5 5 47.98 1.92
-2 5 -5 57.74 2.37
-2 5 -5 59.35 2.19
2 -5 5 60.5 2.2
2 -5 5 59.19 2.36
-3 5 -5 1.9 0.45
-3 5 -5 2.12 0.54
3 -5 5 2.49 0.67
3 -5 5 2.27 0.47
-4 5 -5 15.33 0.97
-4 5 -5 14.89 1.24
4 -5 5 15.91 0.96
-5 5 -5 30.43 1.67
-5 5 -5 28.38 1.39
5 -5 5 29.76 1.39
-6 5 -5 6.73 0.8
-6 5 -5 7.59 1.08
-7 5 -5 2.83 0.7
-7 5 -5 2.71 0.97
-8 5 -5 4.69 1.22
-8 -4 5 3.13 1.33
-7 -4 5 0.06 1.18
-6 -4 5 -0.59 0.96
-5 -4 5 1.84 0.74
-4 -4 5 28.24 1.56
3 4 -5 8.1 0.93
-3 -4 5 11.71 1
2 4 -5 0.91 0.23
2 4 -5 0.65 0.42
-2 -4 5 0.5 0.2
-2 -4 5 0.72 0.45
1 4 -5 1.23 0.44
1 4 -5 1.38 0.3
-1 -4 5 1.44 0.39
-1 -4 5 1.27 0.26
0 4 -5 3.36 0.48
0 4 -5 3.48 0.48
0 -4 5 3.81 0.45
0 -4 5 2.82 0.43
-1 4 -5 25.93 1.13
-1 4 -5 26.3 1.24
1 -4 5 27.24 1.15
1 -4 5 27.54 1.22
-2 4 -5 -0.37 0.31
-2 4 -5 0.1 0.27
2 -4 5 -0.09 0.35
2 -4 5 -0.08 0.26
-3 4 -5 0.17 0.26
-3 4 -5 -0.22 0.34
3 -4 5 0.41 0.48
3 -4 5 0.29 0.28
-4 4 -5 1.1 0.34
-4 4 -5 0.52 0.43
4 -4 5 1.13 0.53
4 -4 5 1.71 0.38
-5 4 -5 11.11 0.99
-5 4 -5 10.03 0.73
-6 4 -5 9.57 0.87
-6 4 -5 14.82 1.33
-6 4 -5 10.78 0.86
-7 4 -5 0.16 0.54
-7 4 -5 3.07 0.82
-8 4 -5 1.38 1.04
-9 4 -5 -0.32 1.31
-8 -3 5 11.2 1.6
-7 -3 5 34.08 2.2
-6 -3 5 43.49 2.27
-5 -3 5 24.78 1.57
4 3 -5 6.54 0.85
-4 -3 5 6.82 0.9
3 3 -5 68.66 2.62
-3 -3 5 70.8 2.62
2 3 -5 81.08 2.94
-2 -3 5 82.25 2.63
-2 -3 5 86.83 2.96
1 3 -5 161.6 5.2
-1 -3 5 162.09 5.19
-1 -3 5 158.43 5.12
0 3 -5 70.82 2.63
0 3 -5 80.25 2.69
0 -3 5 83.5 2.7
0 -3 5 79.89 2.65
-1 3 -5 4.71 0.46
-1 3 -5 4.34 0.41
1 -3 5 4.82 0.41
1 -3 5 3.63 0.45
-2 3 -5 41.81 1.74
-2 3 -5 41.55 1.49
2 -3 5 45.05 1.79
2 -3 5 44.4 1.49
-3 3 -5 59.09 2.33
-3 3 -5 62.82 1.98
3 -3 5 62.66 2.4
3 -3 5 56.03 1.97
-4 3 -5 1.59 0.26
-4 3 -5 2.15 0.47
4 -3 5 1.65 0.51
-5 3 -5 1.2 0.32
-5 3 -5 1 0.3
-5 3 -5 1.14 0.58
5 -3 5 1.58 0.57
-6 3 -5 15.18 0.87
-6 3 -5 16.77 1.34
-6 3 -5 16.24 0.88
-7 3 -5 2.42 0.87
-7 3 -5 1.6 0.52
-8 3 -5 1.69 1.03
-9 3 -5 1.2 1.31
-9 -2 5 1.33 1.44
-8 -2 5 2.53 1.23
-7 -2 5 4.37 1.05
-6 -2 5 17.06 1.3
5 2 -5 4.18 0.78
-5 -2 5 4.48 0.7
4 2 -5 47.14 2.03
-4 -2 5 48.85 2.04
3 2 -5 20.55 1.1
-3 -2 5 20.3 1.1
2 2 -5 44.02 1.69
-2 -2 5 40.99 1.35
-2 -2 5 42.31 1.64
1 2 -5 13.14 0.59
1 2 -5 14.86 0.73
-1 -2 5 14.67 0.63
-1 -2 5 15.37 0.74
0 2 -5 54.11 1.91
0 2 -5 56.8 1.89
0 -2 5 53.72 1.95
0 -2 5 55.15 1.87
-1 2 -5 39.14 1.43
-1 2 -5 40.7 1.27
1 -2 5 34.21 1.45
1 -2 5 32.48 1.23
-2 2 -5 12.54 0.78
-2 2 -5 13.32 0.48
2 -2 5 12.86 0.47
2 -2 5 12.6 0.81
-3 2 -5 75.24 2.78
3 -2 5 74.83 2.79
-4 2 -5 77.2 3.06
-4 2 -5 86.45 2.56
-4 2 -5 81.99 2.57
4 -2 5 83.06 3.11
-5 2 -5 2.69 0.38
-5 2 -5 1.89 0.6
-5 2 -5 2.34 0.3
5 -2 5 1.82 0.65
-6 2 -5 6.7 0.62
-6 2 -5 6.8 0.63
-6 2 -5 6.73 0.93
-7 2 -5 4.15 0.56
-7 2 -5 2.94 0.83
-8 2 -5 8.04 1.17
-9 2 -5 22.64 2.14
-9 -1 5 7.67 1.41
-8 -1 5 15.3 1.54
7 1 -5 0.5 0.42
-7 -1 5 -0.61 0.65
-7 -1 5 0.21 0.39
6 1 -5 1.3 0.31
-6 -1 5 0.63 0.28
-6 -1 5 0.31 0.6
5 1 -5 41.18 1.42
5 1 -5 42.22 1.94
-5 -1 5 41.17 1.88
-5 -1 5 41.32 1.43
4 1 -5 15.2 1.02
-4 -1 5 14.9 0.57
-4 -1 5 13.3 0.91
-4 -1 5 15.03 0.56
3 1 -5 81.08 2.88
-3 -1 5 79.08 2.56
-3 -1 5 79.64 2.88
-3 -1 5 81.2 2.56
2 1 -5 0.07 0.31
-2 -1 5 0.44 0.13
-2 -1 5 0.24 0.15
-2 -1 5 0.23 0.28
1 1 -5 6.46 0.39
1 1 -5 8.41 0.55
-1 -1 5 8.72 0.45
-1 -1 5 8.72 0.53
0 1 -5 83.19 2.69
0 1 -5 83.33 2.78
0 -1 5 84.37 2.78
0 -1 5 79.03 2.66
-1 1 -5 66.94 2.41
1 -1 5 71.01 2.17
1 -1 5 68.88 2.17
-2 1 -5 10.79 0.69
2 -1 5 11.58 0.71
-3 1 -5 2.72 0.44
3 -1 5 3.04 0.51
-4 1 -5 48.83 2.05
-4 1 -5 48.2 1.53
-4 1 -5 47.77 1.54
4 -1 5 48.01 2.02
-5 1 -5 5.38 0.51
-5 1 -5 6.47 0.85
5 -1 5 6.51 0.92
-6 1 -5 0.34 0.37
-6 1 -5 0.02 0.41
-6 1 -5 0.82 0.55
-7 1 -5 13.33 1
-7 1 -5 14.08 1.45
-8 1 -5 2.71 0.99
-9 1 -5 1.2 1.38
-9 0 5 -0.26 1.21
-8 0 5 1.65 0.61
-8 0 5 0.71 1
7 0 -5 15.66 1.08
-7 0 5 18.03 0.99
-7 0 5 16.01 1.32
6 0 -5 45.31 1.74
-6 0 5 45.41 2.06
-6 0 5 43.85 1.7
5 0 -5 27.95 1.13
-5 0 5 26.68 1.42
-5 0 5 28.5 1.14
4 0 -5 13.05 0.63
-4 0 5 13.67 0.65
-4 0 5 12.57 0.89
-3 0 5 22.07 0.87
-3 0 5 21.52 0.88
-3 0 5 22.93 1.14
-2 0 5 272.45 8.76
-2 0 5 278.68 8.77
-2 0 5 274.24 8.75
-2 0 5 287.72 8.8
1 0 -5 389.27 12.34
-1 0 5 387.07 12.11
-1 0 5 401.63 12.36
-1 0 5 392.78 12.11
0 0 -5 111.37 3.72
0 0 5 110.9 3.56
0 0 5 113.32 3.58
0 0 5 111.87 3.72
-1 0 -5 307.75 9.9
-1 0 -5 323.7 9.48
1 0 5 311.7 9.46
1 0 5 296.96 9.89
-2 0 -5 385.34 12.39
-2 0 -5 400.31 11.8
2 0 5 377.31 12.38
2 0 5 391.67 11.79
-3 0 -5 5.98 0.61
-3 0 -5 6.5 0.35
3 0 5 7 0.36
3 0 5 6.79 0.71
-4 0 -5 49.13 2.07
4 0 5 47.97 1.67
4 0 5 48.65 2.09
-5 0 -5 15.24 1.22
-5 0 -5 15.12 0.78
5 0 5 15.42 1.26
5 0 5 16.43 0.87
-6 0 -5 43.68 2.11
-6 0 -5 45.18 1.73
-7 0 -5 42.88 2.23
-7 0 -5 44.65 1.85
-8 0 -5 4.84 1.2
-9 1 5 1.79 1.02
-8 1 5 -0.59 0.59
-8 1 5 -0.73 0.8
7 -1 -5 16.35 1.24
-7 1 5 17.72 1.15
-7 1 5 18.56 1.49
6 -1 -5 1.04 0.49
-6 1 5 -0.41 0.61
-6 1 5 0.75 0.4
5 -1 -5 2.56 0.44
-5 1 5 2.5 0.67
-5 1 5 1.66 0.56
-5 1 5 2.17 0.39
4 -1 -5 27.15 1.24
-4 1 5 32.9 1.27
-4 1 5 33.26 1.46
-4 1 5 32.4 1.58
3 -1 -5 24.5 1.05
-3 1 5 26.13 1.24
-3 1 5 25.13 1.04
-3 1 5 25.08 1.24
-2 1 5 0.7 0.2
-2 1 5 0.2 0.24
-2 1 5 0.5 0.34
1 -1 -5 19.75 0.86
1 -1 -5 19.45 0.89
-1 1 5 20.55 0.89
-1 1 5 15.61 0.83
0 -1 -5 137.06 4.71
0 -1 -5 144.81 4.56
0 1 5 145.36 4.75
0 1 5 145.2 4.54
-1 -1 -5 7.43 0.56
-1 -1 -5 7.41 0.45
1 1 5 7.24 0.46
1 1 5 7.53 0.59
-2 -1 -5 8.29 0.48
-2 -1 -5 8.89 0.69
2 1 5 8.84 0.73
2 1 5 8.39 0.49
-3 -1 -5 1.26 0.26
-3 -1 -5 0.71 0.33
3 1 5 1.35 0.29
3 1 5 0.88 0.44
-4 -1 -5 36.02 1.38
-4 -1 -5 35.5 1.69
4 1 5 36.04 1.68
4 1 5 36.17 1.39
-5 -1 -5 52.16 1.95
-5 -1 -5 52.6 2.32
5 1 5 53.2 2
-6 -1 -5 0.45 0.75
-6 -1 -5 1.24 0.54
6 1 5 1.1 0.64
-7 -1 -5 -0.14 0.93
-7 -1 -5 0.39 0.65
-8 -1 -5 0.73 1.2
-9 2 5 14.58 1.55
-9 2 5 16.18 1.94
8 -2 -5 24.33 1.84
-8 2 5 28.1 1.65
-8 2 5 26.21 1.82
7 -2 -5 14.99 1.27
-7 2 5 20.99 1.55
-7 2 5 18.09 1.22
6 -2 -5 1.28 0.58
-6 2 5 1.56 0.69
-6 2 5 0.97 0.47
5 -2 -5 22.37 1.16
-5 2 5 21.9 1.29
-5 2 5 22.74 1.11
-5 2 5 19.32 1.37
4 -2 -5 129.17 4.34
-4 2 5 127.21 4.45
-4 2 5 131.72 4.34
-4 2 5 124.53 4.4
3 -2 -5 138.28 4.86
3 -2 -5 150.57 4.93
-3 2 5 149.71 4.93
-3 2 5 150.82 4.9
2 -2 -5 77.31 2.79
-2 2 5 81.83 2.81
-2 2 5 79.48 2.78
-2 2 5 79.17 2.79
1 -2 -5 259.77 8.07
-1 2 5 260 8.06
-1 2 5 255.55 8.27
-1 2 5 248.77 8.23
0 -2 -5 265.33 8.19
0 -2 -5 246.32 8.43
0 2 5 258.42 8.18
0 2 5 276.11 8.5
-1 -2 -5 17 0.91
-1 -2 -5 17.05 0.83
1 2 5 17.08 1
-2 -2 -5 78.26 2.97
-2 -2 -5 83.88 2.78
2 2 5 80.93 3.02
2 2 5 84.91 2.78
-3 -2 -5 44.99 1.69
-3 -2 -5 45.08 1.89
3 2 5 44.94 1.98
3 2 5 44.84 1.71
-4 -2 -5 93.56 3.13
-4 -2 -5 89.2 3.4
4 2 5 90.65 3.15
4 2 5 90.2 3.48
-5 -2 -5 22.03 1.51
-5 -2 -5 26.5 1.32
5 2 5 26.43 1.4
-6 -2 -5 0.99 0.86
-6 -2 -5 1.69 0.65
6 2 5 3.28 0.83
-7 -2 -5 0.61 0.83
-7 -2 -5 -0.6 1
-8 -2 -5 -2.63 1.22
-9 3 5 0.18 1.06
-9 3 5 1.13 1.29
-8 3 5 1.25 0.94
-8 3 5 0.45 0.77
7 -3 -5 2.9 0.87
-7 3 5 5.35 0.98
-7 3 5 4.73 0.89
6 -3 -5 22.09 1.46
-6 3 5 22.5 1.29
-6 3 5 20.6 1.41
5 -3 -5 38.85 1.76
-5 3 5 37.27 1.81
-5 3 5 36.53 1.66
4 -3 -5 34.23 1.6
4 -3 -5 34.22 1.54
-4 3 5 32.19 1.65
-4 3 5 34.14 1.52
3 -3 -5 84.42 3.02
3 -3 -5 81.32 2.97
-3 3 5 84.05 2.97
-3 3 5 79.4 2.99
2 -3 -5 86.47 3.09
-2 3 5 87.89 3.1
-2 3 5 88.24 3.11
-2 3 5 86.72 3.11
1 -3 -5 1.06 0.33
-1 3 5 1.4 0.4
-1 3 5 0.9 0.32
-1 3 5 1.17 0.43
0 -3 -5 40.79 1.61
0 3 5 39.87 1.62
0 3 5 38.03 1.64
0 3 5 41.07 1.74
-1 -3 -5 30.99 1.46
-1 -3 -5 32.89 1.4
1 3 5 37.25 1.6
1 3 5 31.96 1.42
-2 -3 -5 168.01 5.4
-2 -3 -5 163.92 5.64
2 3 5 167.52 5.68
2 3 5 163.35 5.4
-3 -3 -5 63.49 2.53
-3 -3 -5 61.84 2.33
3 3 5 62.14 2.6
3 3 5 61.19 2.35
-4 -3 -5 0 0.45
-4 -3 -5 1.06 0.63
4 3 5 0.92 0.65
-5 -3 -5 5.89 0.82
-5 -3 -5 6.88 0.98
5 3 5 7.52 0.97
-6 -3 -5 7.95 1.2
-6 -3 -5 8.31 1.03
-7 -3 -5 14.03 1.84
-7 -3 -5 14.27 1.7
-9 4 5 4 1.5
-9 4 5 4.11 1.24
-8 4 5 1.87 1.15
-8 4 5 -0.04 0.92
-7 4 5 3.19 0.82
-7 4 5 2.8 0.86
-6 4 5 17.52 1.27
-6 4 5 16.76 1.37
5 -4 -5 8.61 1.04
5 -4 -5 8.25 1.06
-5 4 5 9.5 0.86
4 -4 -5 11.32 0.99
4 -4 -5 11.05 0.99
-4 4 5 11.74 0.93
3 -4 -5 44.52 1.99
3 -4 -5 44.52 1.9
-3 4 5 47.91 1.93
-3 4 5 44.04 2.03
2 -4 -5 17.98 1.06
-2 4 5 18.22 1.22
-2 4 5 18.12 1.06
-2 4 5 17.88 1.08
1 -4 -5 1.93 0.44
-1 4 5 0.8 0.43
-1 4 5 1.98 0.5
-1 4 5 1.66 0.54
0 -4 -5 2.69 0.52
0 4 5 3.43 0.66
0 4 5 3.46 0.51
0 4 5 3.16 0.6
-1 -4 -5 20.56 1.16
1 4 5 21.33 1.28
1 4 5 21.31 1.31
1 4 5 21.99 1.22
-2 -4 -5 40.59 1.75
2 4 5 40.88 1.85
2 4 5 37.59 1.79
-3 -4 -5 0.06 0.5
-3 -4 -5 -0.18 0.57
3 4 5 -0.49 0.67
-4 -4 -5 0.73 0.73
-4 -4 -5 0.9 0.61
4 4 5 1.48 0.88
-5 -4 -5 -0.13 0.84
-5 -4 -5 0.74 0.76
-6 -4 -5 0.75 0.89
-6 -4 -5 1.15 1.09
-8 5 5 4.66 1.25
-8 5 5 4.85 1.16
-7 5 5 9.74 1.38
-7 5 5 12.11 1.41
-6 5 5 21.2 1.5
5 -5 -5 25.99 1.61
-5 5 5 25.18 1.44
4 -5 -5 18.28 1.29
-4 5 5 15.42 1.11
3 -5 -5 4.62 0.72
-3 5 5 5.84 0.82
2 -5 -5 31.09 1.62
-2 5 5 30.32 1.53
1 -5 -5 46.48 2.02
-1 5 5 46.49 2.1
-1 5 5 46.87 2.04
0 -5 -5 116.58 4.04
0 5 5 110.52 4.06
0 5 5 110.25 4.04
-1 -5 -5 23.63 1.38
1 5 5 23.37 1.37
-2 -5 -5 5.61 0.78
2 5 5 4.63 0.84
-3 -5 -5 10.66 1.21
3 5 5 14.91 1.32
-4 -5 -5 17.27 1.5
4 5 5 21.73 1.58
-5 -5 -5 18.74 1.7
5 5 5 24.09 1.97
-8 6 5 0.23 1.17
-8 6 5 -0.98 1.42
-7 6 5 -0.29 0.98
6 -6 -5 -0.62 0.98
-6 6 5 -0.63 0.82
5 -6 -5 3.67 0.96
-5 6 5 2.99 0.78
4 -6 -5 0.65 0.8
-4 6 5 -0.1 0.62
3 -6 -5 -0.25 0.69
-3 6 5 -0.56 0.57
2 -6 -5 3.69 0.74
-2 6 5 2.87 0.63
1 -6 -5 -0.02 0.61
-1 6 5 0.93 0.53
0 -6 -5 -0.28 0.65
0 6 5 -0.52 0.6
-1 -6 -5 13.69 1.36
1 6 5 13.96 1.18
-2 -6 -5 1.28 0.78
2 6 5 -0.59 0.74
-3 -6 -5 5.81 1.09
-4 -6 -5 1.81 1.14
4 6 5 2.53 1.13
7 -7 -5 3.18 1.44
-7 7 5 6.26 1.33
6 -7 -5 4.34 1.18
-6 7 5 3.46 1.15
5 -7 -5 5.37 1.22
-5 7 5 6.61 1.02
4 -7 -5 11.03 1.48
-4 7 5 13.75 1.41
3 -7 -5 20.34 1.71
-3 7 5 19.85 1.51
2 -7 -5 14.07 1.44
-2 7 5 16.76 1.33
1 -7 -5 0.75 0.72
-1 7 5 0.8 0.74
0 -7 -5 3.76 1
0 7 5 5.71 0.97
-1 -7 -5 2.79 0.91
1 7 5 3.2 0.85
-2 -7 -5 11.21 1.43
2 7 5 9.08 1.29
3 7 5 3.79 1.27
5 -8 -5 1.39 1.36
-5 8 5 1.21 1.12
4 -8 -5 4.17 1.3
-4 8 5 5.04 1
3 -8 -5 -0.71 0.92
-3 8 5 -1.12 0.83
2 -8 -5 7.98 1.36
-2 8 5 7.19 1.1
1 -8 -5 13.83 1.65
-1 8 5 16.75 1.53
0 -8 -5 3.2 1.21
0 8 5 2.79 1.15
-1 -8 -5 10.02 1.47
1 8 5 12.35 1.72
-2 -9 6 0.78 1.32
-1 -9 6 -0.72 1.04
0 9 -6 3.04 1.05
0 -9 6 1.32 1.24
-1 9 -6 0.99 0.97
1 -9 6 -0.35 1.13
-2 9 -6 1.58 1.06
2 -9 6 2.1 1.02
-3 9 -6 0 1.11
3 -9 6 -1.07 1.04
-4 9 -6 -0.04 1.15
4 -9 6 -0.72 1.03
-5 9 -6 2.86 1.22
5 -9 6 1.83 1.22
-4 -8 6 1.23 1.08
-3 -8 6 17.79 2.04
-2 -8 6 11.28 1.45
1 8 -6 16.62 1.38
-1 -8 6 16.93 1.58
0 8 -6 43.28 2.18
0 -8 6 39.47 2.07
0 -8 6 47.21 2.34
-1 8 -6 6.18 1.02
1 -8 6 7.92 1.1
-2 8 -6 6.84 1.09
2 -8 6 4.08 0.92
-3 8 -6 7.83 1.24
3 -8 6 7.17 1.07
-4 8 -6 9 1.23
4 -8 6 7.4 1
-5 8 -6 6 1.29
5 -8 6 9.96 1.36
-6 8 -6 0.92 1.1
6 -8 6 2.96 1.14
-5 -7 6 -0.25 1.13
-4 -7 6 4.97 1.26
-3 -7 6 13.9 1.66
2 7 -6 35.49 1.6
-2 -7 6 30.19 1.85
1 7 -6 2.87 0.64
-1 -7 6 1.2 0.63
-1 -7 6 1.85 0.79
0 7 -6 0.36 0.56
0 -7 6 0.85 0.66
0 -7 6 0 0.71
-1 7 -6 12.39 1.28
1 -7 6 13.02 1.23
1 -7 6 14.52 1.29
-2 7 -6 8.76 1.15
-2 7 -6 9.86 1.05
2 -7 6 10.84 1.19
-3 7 -6 17.56 1.46
-3 7 -6 16.98 1.46
3 -7 6 19.11 1.33
-4 7 -6 7.89 1.13
-4 7 -6 5.32 0.92
4 -7 6 5.32 0.84
-5 7 -6 0.58 0.92
5 -7 6 0.54 0.72
-6 7 -6 3.65 1.04
6 -7 6 3.94 0.99
-7 7 -6 4.16 1.11
-6 -6 6 -0.23 1.43
-5 -6 6 8.77 1.32
-4 -6 6 3.46 1.08
3 6 -6 18.92 0.9
3 6 -6 18.98 0.87
-3 -6 6 19.89 1.46
2 6 -6 56.57 2.07
-2 -6 6 50.88 2.32
1 6 -6 0.11 0.43
-1 -6 6 0.94 0.44
-1 -6 6 0.11 0.51
0 6 -6 5.31 0.83
0 6 -6 4.83 0.68
0 -6 6 4.19 0.67
0 -6 6 5.66 0.79
-1 6 -6 5.45 0.72
-1 6 -6 5.38 0.75
1 -6 6 5.49 0.73
1 -6 6 5.74 0.81
-2 6 -6 15.57 1.13
-2 6 -6 15.67 1.15
2 -6 6 16.08 1.06
2 -6 6 14.58 1.22
-3 6 -6 10.91 1.01
-3 6 -6 12.02 1.18
3 -6 6 10.68 0.97
-4 6 -6 0.73 0.59
-4 6 -6 -0.44 0.6
4 -6 6 0.21 0.49
-5 6 -6 0.6 0.71
-5 6 -6 1.82 0.71
5 -6 6 2.39 0.63
-6 6 -6 2.24 0.84
6 -6 6 1.51 0.78
-7 6 -6 0.63 1.05
-8 6 -6 1.83 1.2
-7 -5 6 -0.27 1.3
-6 -5 6 14.43 1.74
-5 -5 6 39.92 2.34
-4 -5 6 48.29 2.38
-3 -5 6 0.76 0.58
2 5 -6 8.82 0.59
2 5 -6 11.18 1.03
-2 -5 6 8.08 0.55
-2 -5 6 8.09 0.91
1 5 -6 51.15 2.19
1 5 -6 55.78 2
-1 -5 6 49.08 1.91
-1 -5 6 55.94 2.18
0 5 -6 70.41 2.69
0 5 -6 72.93 2.68
0 -5 6 70.25 2.6
0 -5 6 76.25 2.7
-1 5 -6 58.18 2.29
-1 5 -6 60.57 2.41
1 -5 6 62.75 2.35
1 -5 6 63.3 2.29
-2 5 -6 14.55 0.91
-2 5 -6 13.95 1.05
2 -5 6 15.75 0.91
2 -5 6 14.42 1.1
-3 5 -6 12.58 1.05
-3 5 -6 12.62 0.87
3 -5 6 12.67 0.84
3 -5 6 12.77 1.08
-4 5 -6 29.06 1.3
-4 5 -6 27.52 1.61
4 -5 6 27.89 1.27
-5 5 -6 22.63 1.59
-5 5 -6 24.22 1.19
5 -5 6 24.24 1.22
-6 5 -6 6.45 1.04
-6 5 -6 4.35 0.65
-7 5 -6 12.29 1.58
-8 5 -6 5.78 1.16
-7 -4 6 1.02 1.05
-6 -4 6 0.64 0.9
-5 -4 6 7.36 0.97
-4 -4 6 14.93 1.27
3 4 -6 5.27 0.8
-3 -4 6 5.85 0.78
2 4 -6 1.4 0.2
2 4 -6 2.06 0.58
-2 -4 6 2.39 0.55
-2 -4 6 1.53 0.22
1 4 -6 0.37 0.37
1 4 -6 -0.09 0.22
-1 -4 6 0.23 0.24
-1 -4 6 0.23 0.38
0 4 -6 2.87 0.47
0 4 -6 3.01 0.4
0 -4 6 2.94 0.44
0 -4 6 2.95 0.43
-1 4 -6 1.45 0.36
-1 4 -6 1.21 0.37
1 -4 6 0.87 0.39
1 -4 6 1.31 0.35
-2 4 -6 21.99 1.18
-2 4 -6 21.14 0.98
2 -4 6 21.31 1.21
2 -4 6 22.29 0.95
-3 4 -6 4.96 0.68
-3 4 -6 4.59 0.49
3 -4 6 6.79 0.9
3 -4 6 5.27 0.5
-4 4 -6 -0.24 0.42
-4 4 -6 0.02 0.3
4 -4 6 -0.01 0.31
4 -4 6 -0.4 0.64
-5 4 -6 34.86 1.33
-5 4 -6 35.29 1.81
-5 4 -6 33.14 1.33
-6 4 -6 7.7 0.72
-6 4 -6 8.26 0.73
-6 4 -6 9.73 1.12
-7 4 -6 0.08 0.82
-8 4 -6 -0.81 0.94
-8 -3 6 8.6 1.6
-7 -3 6 26.48 1.92
-6 -3 6 19.12 1.68
-5 -3 6 3.5 0.74
4 3 -6 28.7 1.54
-4 -3 6 28.41 1.52
3 3 -6 76.8 2.88
-3 -3 6 75.17 2.84
2 3 -6 93.27 2.94
2 3 -6 93.95 3.27
-2 -3 6 89.73 3.22
-2 -3 6 92.08 2.93
1 3 -6 29.62 1.11
1 3 -6 29.92 1.3
-1 -3 6 29.63 1.25
-1 -3 6 29.07 1.13
0 3 -6 4.85 0.43
0 3 -6 4.79 0.53
0 -3 6 4.89 0.51
0 -3 6 4.4 0.47
-1 3 -6 38.55 1.56
-1 3 -6 39.73 1.43
1 -3 6 37.74 1.61
1 -3 6 40.08 1.43
-2 3 -6 80.12 2.47
-2 3 -6 78.69 2.79
2 -3 6 78.67 2.85
2 -3 6 66.11 2.43
-3 3 -6 40.33 1.78
-3 3 -6 41.18 1.37
3 -3 6 41 1.83
3 -3 6 41.96 1.38
-4 3 -6 20.26 0.71
-4 3 -6 18.5 0.71
-4 3 -6 20.2 1.18
4 -3 6 19.25 1.23
-5 3 -6 27.25 0.93
-5 3 -6 25.19 1.53
-5 3 -6 25.38 0.93
-6 3 -6 14.18 0.72
-6 3 -6 16.48 0.73
-6 3 -6 15.4 1.4
-7 3 -6 9.2 1.31
-8 3 -6 -0.9 0.89
-8 -2 6 -0.41 1.13
-7 -2 6 -0.03 0.91
-6 -2 6 1.14 0.68
-5 -2 6 7.83 0.93
4 2 -6 24.23 1.48
-4 -2 6 24.84 1.39
3 2 -6 2.83 0.61
-3 -2 6 2.95 0.49
2 2 -6 1.9 0.22
2 2 -6 2.09 0.46
-2 -2 6 1.82 0.37
-2 -2 6 2.18 0.26
1 2 -6 87.9 2.98
1 2 -6 88.22 2.89
-1 -2 6 87.91 2.91
-1 -2 6 84.8 2.94
0 2 -6 168.57 5.29
0 2 -6 158.08 5.16
0 -2 6 163.28 5.14
0 -2 6 160.67 5.31
-1 2 -6 186.56 5.82
-1 2 -6 184.39 6.12
1 -2 6 184.64 6.15
1 -2 6 193.49 5.8
-2 2 -6 82.85 2.99
2 -2 6 84.18 3.03
-3 2 -6 245.25 7.94
3 -2 6 234.53 7.93
-4 2 -6 52.03 2.2
4 -2 6 50.2 2.24
-5 2 -6 8.53 0.94
-6 2 -6 6.78 0.44
-6 2 -6 8.08 1.07
-6 2 -6 6.68 0.44
-7 2 -6 18.25 1.7
-8 2 -6 23.5 2.01
-9 -1 6 7.24 1.48
-8 -1 6 0.53 1.05
-7 -1 6 -0.27 0.81
-7 -1 6 0.58 0.33
-6 -1 6 25.07 0.96
-6 -1 6 26.15 1.57
-6 -1 6 26.5 0.95
5 1 -6 74.67 3
-5 -1 6 79.85 3.01
-5 -1 6 75.57 2.48
-5 -1 6 77.87 2.48
4 1 -6 45.35 2.01
-4 -1 6 43.71 1.92
-4 -1 6 44.76 1.49
-4 -1 6 45.19 1.49
3 1 -6 0.98 0.5
-3 -1 6 0.7 0.39
-3 -1 6 0.93 0.2
-3 -1 6 1.11 0.18
2 1 -6 1.61 0.41
-2 -1 6 1.27 0.23
-2 -1 6 1.22 0.36
-2 -1 6 1.73 0.24
1 1 -6 0.15 0.27
1 1 -6 -0.18 0.19
-1 -1 6 -0.15 0.24
-1 -1 6 0.03 0.21
0 1 -6 9.63 0.58
0 -1 6 9.4 0.53
0 -1 6 9.71 0.61
-1 1 -6 1.5 0.31
1 -1 6 1.53 0.19
1 -1 6 1.39 0.2
1 -1 6 0.99 0.31
-2 1 -6 20.56 1.05
2 -1 6 20.24 1.08
-3 1 -6 6.03 0.64
3 -1 6 6.13 0.7
-4 1 -6 8.21 0.81
4 -1 6 7.26 0.86
-5 1 -6 4.77 0.8
-6 1 -6 4.39 0.51
-6 1 -6 3.45 0.45
-6 1 -6 4.74 0.81
-7 1 -6 1.58 0.95
-8 1 -6 1.02 1.17
-9 0 6 -2.27 0.97
-8 0 6 13.27 1.02
-8 0 6 10.12 1.34
7 0 -6 21.89 1.18
-7 0 6 24.5 1.15
-7 0 6 24.56 1.74
6 0 -6 66.04 2.36
-6 0 6 68.11 2.77
-6 0 6 66.29 2.37
5 0 -6 31.78 1.23
-5 0 6 29.79 1.57
-5 0 6 31.11 1.24
-4 0 6 15.19 0.72
-4 0 6 15.23 1.09
-4 0 6 14.73 0.74
-3 0 6 99.6 3.43
-3 0 6 94.54 3.21
-3 0 6 95.21 3.44
-3 0 6 97.82 3.2
-2 0 6 129.42 4.19
-2 0 6 124.43 4.16
-2 0 6 128.99 4.26
-2 0 6 127.21 4.27
1 0 -6 222.29 7.01
-1 0 6 216.4 6.9
-1 0 6 219.49 6.89
-1 0 6 215.11 7.02
0 0 -6 269.89 8.64
0 0 6 260.57 8.32
0 0 6 271.51 8.37
0 0 6 275.07 8.65
-1 0 -6 249.73 8.24
1 0 6 257.81 7.83
1 0 6 257.07 8.26
-2 0 -6 88.6 3.15
-2 0 -6 90.11 2.75
2 0 6 85.99 2.73
2 0 6 85.41 3.13
-3 0 -6 43.58 1.87
-3 0 -6 44.05 1.44
3 0 6 46.37 1.45
3 0 6 45.15 1.89
-4 0 -6 31.74 1.14
-4 0 -6 33.99 1.68
4 0 6 34.49 1.17
4 0 6 33.78 1.66
-5 0 -6 102.78 3.33
-5 0 -6 102 3.93
5 0 6 106.97 3.37
-6 0 -6 37.48 2.02
-6 0 -6 34.39 1.42
-7 0 -6 7.39 1.09
-8 0 -6 5.21 1.33
-9 1 6 0.49 1.15
-8 1 6 -0.56 0.62
-8 1 6 -1 0.93
7 -1 -6 8.11 1.03
-7 1 6 8.87 1.07
-7 1 6 10.32 0.95
6 -1 -6 1.1 0.49
-6 1 6 1.61 0.66
-6 1 6 1.19 0.43
5 -1 -6 5.52 0.59
-5 1 6 6.2 0.86
-5 1 6 5.66 0.6
-5 1 6 4.75 0.85
-4 1 6 1.6 0.47
-4 1 6 0.7 0.3
-4 1 6 0.67 0.57
-4 1 6 0.89 0.34
-3 1 6 18.51 1.05
-3 1 6 17.69 1.07
-3 1 6 17.76 0.9
-3 1 6 19.16 0.87
-2 1 6 17.28 0.88
-2 1 6 16.76 0.92
-2 1 6 18.27 0.96
-2 1 6 17.31 0.83
1 -1 -6 31.62 1.29
1 -1 -6 31.74 1.31
-1 1 6 29.52 1.27
-1 1 6 30.9 1.3
0 -1 -6 1.94 0.34
0 -1 -6 2.02 0.34
0 1 6 2.02 0.33
0 1 6 1.53 0.37
-1 -1 -6 15.39 0.9
-1 -1 -6 14.92 0.71
1 1 6 16.08 0.74
1 1 6 15.88 0.96
-2 -1 -6 2.42 0.44
-2 -1 -6 1.56 0.27
2 1 6 2 0.3
2 1 6 1.98 0.48
-3 -1 -6 11.72 0.98
-3 -1 -6 13.33 0.66
3 1 6 12.89 0.69
3 1 6 13.93 1.09
-4 -1 -6 31.3 1.24
-4 -1 -6 31.19 1.63
4 1 6 32.75 1.29
4 1 6 30.12 1.67
-5 -1 -6 1.74 0.4
-5 -1 -6 0.97 0.69
5 1 6 1.58 0.48
-6 -1 -6 3.32 0.94
-6 -1 -6 4.19 0.63
6 1 6 2.95 0.74
-7 -1 -6 -1.9 0.95
-8 -1 -6 0.45 1.33
-9 2 6 11.08 1.39
-9 2 6 9.08 1.16
-8 2 6 33.79 1.83
-8 2 6 31.22 2.04
7 -2 -6 21.4 1.53
-7 2 6 29.12 1.86
-7 2 6 23.12 1.4
6 -2 -6 8.71 0.99
-6 2 6 10.86 0.87
-6 2 6 12.05 1.14
5 -2 -6 27.12 1.32
-5 2 6 26.39 1.28
-5 2 6 23.43 1.41
4 -2 -6 40.07 1.65
-4 2 6 38.76 1.82
-4 2 6 40.66 1.86
-4 2 6 39.7 1.63
-3 2 6 67.34 2.4
-3 2 6 63.83 2.42
-3 2 6 65.78 2.54
2 -2 -6 132.88 4.5
-2 2 6 132.72 4.51
-2 2 6 136.79 4.51
-2 2 6 134.93 4.55
1 -2 -6 47.36 1.84
-1 2 6 48.66 1.91
-1 2 6 48.63 1.86
-1 2 6 48.83 1.88
0 -2 -6 59.23 2.13
0 -2 -6 57.45 2.22
0 2 6 58.91 2.13
0 2 6 59.91 2.29
-1 -2 -6 29.91 1.21
-1 -2 -6 29.47 1.35
1 2 6 29.28 1.22
1 2 6 28.98 1.4
-2 -2 -6 16.42 0.86
-2 -2 -6 16.46 1.01
2 2 6 18.24 1.17
2 2 6 16.91 0.88
-3 -2 -6 117.36 3.82
-3 -2 -6 115.2 4.16
3 2 6 114.73 4.18
3 2 6 113.97 3.81
-4 -2 -6 5.62 0.87
-4 -2 -6 5.17 0.66
4 2 6 5.84 0.8
-5 -2 -6 2.47 0.58
-5 -2 -6 1.87 0.8
5 2 6 2.76 0.69
-6 -2 -6 6.85 0.82
-6 -2 -6 4.22 1.06
-7 -2 -6 -2.79 1.08
-9 3 6 1.42 1.11
-9 3 6 0.13 1.37
-8 3 6 3.65 0.91
-8 3 6 1.48 1.03
-7 3 6 11.55 1.32
-7 3 6 8.53 1.09
6 -3 -6 -0.44 0.69
-6 3 6 0.24 0.68
-6 3 6 0.25 0.59
5 -3 -6 11.28 1
-5 3 6 10.66 0.91
-5 3 6 8.04 1.1
4 -3 -6 22.63 1.28
-4 3 6 23.55 1.45
-4 3 6 26.68 1.27
3 -3 -6 12.51 0.93
-3 3 6 11.95 0.87
-3 3 6 12.97 0.88
-3 3 6 12.45 1.13
2 -3 -6 6.9 0.8
-2 3 6 6.53 0.77
-2 3 6 9.43 0.91
-2 3 6 7.04 0.63
1 -3 -6 24.4 1.22
-1 3 6 24.1 1.24
-1 3 6 22.48 1.21
-1 3 6 25.01 1.21
0 -3 -6 6.87 0.69
0 3 6 6.82 0.86
0 3 6 6.24 0.76
0 3 6 7.12 0.65
-1 -3 -6 53.24 2.02
-1 -3 -6 52.79 2.17
1 3 6 50.88 2.03
1 3 6 54.48 2.26
-2 -3 -6 29.36 1.34
-2 -3 -6 28.61 1.5
2 3 6 28.49 1.39
2 3 6 27.94 1.52
-3 -3 -6 19.54 1.25
-3 -3 -6 21.69 1.15
3 3 6 20.81 1.18
-4 -3 -6 29.62 1.69
-4 -3 -6 28.41 1.44
4 3 6 27.53 1.56
-5 -3 -6 4.47 0.95
-5 -3 -6 5.02 0.79
5 3 6 6.04 1.02
-6 -3 -6 11.65 1.43
-6 -3 -6 14.56 1.68
-7 -3 -6 8.12 1.51
-9 4 6 4.5 1.56
-9 4 6 3.95 1.29
-8 4 6 2.51 0.97
-8 4 6 4.32 1.13
-7 4 6 4.24 0.93
-7 4 6 3.06 1.06
-6 4 6 10.04 1.07
-6 4 6 8.19 1.19
-5 4 6 16.52 1.19
4 -4 -6 22.2 1.44
4 -4 -6 21.03 1.37
-4 4 6 23.7 1.31
3 -4 -6 7.78 0.89
-3 4 6 7.48 0.89
-3 4 6 8.27 1.1
-3 4 6 7.84 0.85
2 -4 -6 27.11 1.44
-2 4 6 26.24 1.43
-2 4 6 26.18 1.36
-2 4 6 27.15 1.47
1 -4 -6 11.31 0.96
-1 4 6 11.24 0.97
-1 4 6 10.7 0.84
-1 4 6 8.88 0.95
0 -4 -6 2.91 0.57
0 4 6 2.78 0.7
0 4 6 3.57 0.61
0 4 6 3.22 0.55
-1 -4 -6 18.22 1.15
1 4 6 18.07 1.13
1 4 6 19.06 1.25
-2 -4 -6 8.9 0.97
-2 -4 -6 7.98 0.89
2 4 6 9.19 0.9
2 4 6 8.93 1.1
-3 -4 -6 0.74 0.57
-3 -4 -6 0.92 0.62
3 4 6 0.58 0.79
-4 -4 -6 -0.38 0.77
-4 -4 -6 0.21 0.61
4 4 6 -1.35 0.9
-5 -4 -6 0.34 0.97
-5 -4 -6 0.74 0.84
-6 -4 -6 -0.48 1
-6 -4 -6 1.43 1.14
-8 5 6 0.28 1.22
-8 5 6 0.6 1.11
-7 5 6 4.14 1.25
-7 5 6 4.63 1.04
-6 5 6 18.5 1.38
5 -5 -6 9.25 1.22
-5 5 6 9.03 1.11
4 -5 -6 20.82 1.46
-4 5 6 21.61 1.36
3 -5 -6 32.68 1.76
-3 5 6 34.98 1.72
2 -5 -6 16.61 1.19
-2 5 6 16.32 1.1
1 -5 -6 41.03 1.9
-1 5 6 41.66 1.89
0 -5 -6 10.17 1.03
0 5 6 7.97 0.88
-1 -5 -6 21.2 1.39
1 5 6 20.41 1.31
-2 -5 -6 18.85 1.38
2 5 6 19.68 1.43
-3 -5 -6 4.86 0.83
3 5 6 5.63 0.9
-4 -5 -6 14.95 1.52
4 5 6 19.52 1.64
-5 -5 -6 8.43 1.27
5 5 6 10.28 1.37
-7 6 6 0.74 1.05
6 -6 -6 -1.39 1.04
-6 6 6 0.52 0.92
5 -6 -6 0.23 0.82
-5 6 6 0.15 0.68
4 -6 -6 0.07 0.88
-4 6 6 -0.23 0.68
3 -6 -6 0.55 0.77
-3 6 6 0.26 0.67
2 -6 -6 0.85 0.66
-2 6 6 -0.15 0.62
1 -6 -6 0.7 0.62
-1 6 6 0.92 0.67
0 -6 -6 17.17 1.43
0 6 6 15.37 1.36
-1 -6 -6 5.42 0.94
1 6 6 5.51 0.96
-2 -6 -6 2.06 0.91
2 6 6 3.91 0.91
-3 -6 -6 4.74 1.09
3 6 6 5.12 1.09
-4 -6 -6 8.95 1.33
4 6 6 9.48 1.32
6 -7 -6 3.39 1.25
-6 7 6 2.82 1.13
5 -7 -6 9.13 1.35
-5 7 6 11.14 1.56
4 -7 -6 13.24 1.58
-4 7 6 8.87 1.25
3 -7 -6 15.31 1.55
-3 7 6 11.89 1.26
2 -7 -6 0.49 0.89
-2 7 6 1.35 0.86
1 -7 -6 3.56 1.02
-1 7 6 4.59 0.91
0 -7 -6 1.96 0.89
0 7 6 2.59 0.9
-1 -7 -6 0.49 0.89
1 7 6 1.11 0.97
-2 -7 -6 2.99 1.16
2 7 6 2.09 1.12
4 -8 -6 3.08 1.45
-4 8 6 3.62 1.19
3 -8 -6 3.21 1.26
-3 8 6 3.3 1.09
2 -8 -6 4.56 1.31
-2 8 6 4.14 1.04
1 -8 -6 2.54 1.08
-1 8 6 2.36 0.93
0 -8 -6 2.48 1.11
0 8 6 2.98 1.23
-1 -9 7 2.59 1.31
0 9 -7 0.08 1.03
0 -9 7 -1.07 0.99
-1 9 -7 0.7 1.04
1 -9 7 1.61 1.14
-2 9 -7 0.95 1.06
2 -9 7 0.14 1.07
-3 9 -7 1.91 1.2
3 -9 7 -1.65 1.05
-4 9 -7 -0.17 1.24
4 -9 7 1.5 1.1
-3 -8 7 10 1.57
-2 -8 7 13.7 1.87
1 8 -7 23.09 1.58
-1 -8 7 20.18 1.67
0 8 -7 8.95 1.08
0 -8 7 8.62 1.19
-1 8 -7 2.87 0.91
1 -8 7 1.45 0.9
-2 8 -7 3.19 0.97
2 -8 7 3.18 0.95
-3 8 -7 12.11 1.62
3 -8 7 10.2 1.37
-4 8 -7 9.97 1.39
4 -8 7 11.35 1.3
-5 8 -7 3.14 1.29
5 -8 7 3.01 0.98
-6 8 -7 0.41 1.08
-5 -7 7 -0.85 1.12
-4 -7 7 2.63 1.21
-3 -7 7 14.01 1.55
2 7 -7 2.53 0.59
-2 -7 7 1.79 0.81
1 7 -7 0.91 0.57
-1 -7 7 -0.46 0.6
-1 -7 7 0.92 0.79
0 7 -7 4.26 0.78
0 -7 7 3.01 0.77
0 -7 7 3.39 0.78
-1 7 -7 14.47 1.34
1 -7 7 11.72 1.29
1 -7 7 13.74 1.25
-2 7 -7 11.12 1.26
-2 7 -7 16.55 1.38
2 -7 7 15.73 1.29
-3 7 -7 5.36 0.92
-3 7 -7 4.84 1.05
3 -7 7 5.62 0.82
-4 7 -7 4.82 1
-4 7 -7 3.44 0.93
4 -7 7 4.79 0.82
-5 7 -7 4.04 1.1
5 -7 7 3.43 0.82
-6 7 -7 3.53 1.09
6 -7 7 4.19 1.11
-7 7 -7 4.64 1.22
-6 -6 7 3.47 1.44
-5 -6 7 7.59 1.24
-4 -6 7 13.3 1.75
-3 -6 7 5.94 0.95
2 6 -7 4.07 0.48
-2 -6 7 4.94 0.76
-2 -6 7 4.52 0.49
1 6 -7 2.19 0.5
-1 -6 7 2.14 0.65
-1 -6 7 2.69 0.52
0 6 -7 2.07 0.57
0 6 -7 2.61 0.69
0 -6 7 3.61 0.69
0 -6 7 3 0.58
-1 6 -7 17.29 1.32
-1 6 -7 16.23 1.21
1 -6 7 15.96 1.18
1 -6 7 15.89 1.15
-2 6 -7 6.2 0.89
-2 6 -7 6.94 0.83
2 -6 7 5.82 0.89
2 -6 7 6.76 0.79
-3 6 -7 -0.66 0.52
-3 6 -7 0.29 0.65
3 -6 7 -0.02 0.48
-4 6 -7 0.62 0.68
-4 6 -7 0.32 0.63
4 -6 7 0.9 0.53
-5 6 -7 -0.32 0.74
5 -6 7 0.59 0.61
-6 6 -7 -0.32 0.96
-7 6 -7 0.87 0.98
-6 -5 7 7.34 1.29
-5 -5 7 24.72 1.97
-4 -5 7 5.85 1.03
-3 -5 7 2.79 0.78
2 5 -7 19.16 0.82
-2 -5 7 19.75 1.31
-2 -5 7 19.17 0.84
1 5 -7 58.31 2.38
1 5 -7 57.89 2.12
-1 -5 7 58.17 2.33
0 5 -7 56.66 2.26
0 5 -7 59.44 2.21
0 -5 7 58.11 2.23
0 -5 7 55.57 2.17
-1 5 -7 17.53 1.06
-1 5 -7 18.11 1.07
1 -5 7 18.63 1.18
1 -5 7 17.44 1.05
-2 5 -7 16.36 0.99
-2 5 -7 16.12 1.09
2 -5 7 16.52 1.22
2 -5 7 15.82 0.94
-3 5 -7 17.2 1.16
-3 5 -7 16.71 0.98
3 -5 7 16.28 0.93
3 -5 7 16.91 1.39
-4 5 -7 16.76 0.99
-4 5 -7 17.89 1.36
4 -5 7 19.34 0.99
-5 5 -7 29.41 1.32
-5 5 -7 31.31 1.9
5 -5 7 28.48 1.31
-6 5 -7 19.57 1.05
-6 5 -7 19.99 1.71
-7 5 -7 7.77 1.29
-8 5 -7 5.62 1.39
-7 -4 7 3.45 1.29
-6 -4 7 3.7 1.02
-5 -4 7 1.09 0.75
-4 -4 7 0.37 0.72
-3 -4 7 0.51 0.53
2 4 -7 3.48 0.34
2 4 -7 4.06 0.71
-2 -4 7 4.19 0.36
-2 -4 7 3.52 0.64
1 4 -7 3.94 0.43
1 4 -7 4.32 0.62
-1 -4 7 3.96 0.48
-1 -4 7 3.89 0.58
0 4 -7 0.99 0.33
0 4 -7 1.1 0.43
0 -4 7 0.79 0.39
0 -4 7 0.47 0.37
-1 4 -7 12.21 0.84
-1 4 -7 12.84 0.77
1 -4 7 11.72 0.72
1 -4 7 11.62 0.89
-2 4 -7 29.15 1.21
-2 4 -7 29.8 1.43
2 -4 7 28.96 1.17
2 -4 7 27.96 1.5
-3 4 -7 32.23 1.21
-3 4 -7 31.25 1.6
3 -4 7 29.43 1.62
3 -4 7 31.27 1.19
-4 4 -7 17.13 0.77
-4 4 -7 17.92 1.3
4 -4 7 16.58 0.77
-5 4 -7 15.19 1.23
-5 4 -7 14.73 0.65
-5 4 -7 14.03 0.66
-6 4 -7 11.14 1.25
-7 4 -7 2.36 1.06
-8 4 -7 1.4 1.19
-8 -3 7 8.86 1.61
-7 -3 7 9.64 1.37
-6 -3 7 7.4 1.14
-5 -3 7 5.63 0.99
-4 -3 7 31.32 1.64
3 3 -7 128.31 4.57
-3 -3 7 134.96 4.56
2 3 -7 103.79 3.65
2 3 -7 101.22 3.32
-2 -3 7 103.53 3.32
-2 -3 7 105.78 3.62
1 3 -7 35.1 1.33
1 3 -7 36.58 1.52
-1 -3 7 35.15 1.46
-1 -3 7 35.05 1.37
0 3 -7 14.31 0.78
0 3 -7 16.09 0.85
0 -3 7 15.02 0.88
0 -3 7 16.1 0.83
-1 3 -7 8.43 0.67
-1 3 -7 9.17 0.6
1 -3 7 8.76 0.79
1 -3 7 8.32 0.54
-2 3 -7 13.3 0.88
-2 3 -7 11.38 0.59
2 -3 7 11.96 0.99
2 -3 7 11.65 0.56
-3 3 -7 38.12 1.76
3 -3 7 41.05 1.86
-4 3 -7 23.11 1.38
4 -3 7 17.91 1.26
-5 3 -7 4.65 0.8
-6 3 -7 13.18 1.39
-7 3 -7 2.26 1.09
-8 3 -7 1.86 1.1
-8 -2 7 1.18 1.08
-7 -2 7 4.78 0.98
-6 -2 7 8.18 1.1
-5 -2 7 17.78 1.39
4 2 -7 86.54 3.3
-4 -2 7 88.03 3.28
3 2 -7 37.23 1.71
-3 -2 7 38.31 1.71
2 2 -7 30.34 1.46
-2 -2 7 31.92 1.41
-2 -2 7 31.36 1.17
1 2 -7 46.35 1.7
1 2 -7 47.15 1.84
-1 -2 7 48.07 1.75
-1 -2 7 48.79 1.79
0 2 -7 45.79 1.72
0 2 -7 43.34 1.67
0 -2 7 46.78 1.65
0 -2 7 45.52 1.75
-1 2 -7 116.12 3.47
-1 2 -7 108.36 3.71
1 -2 7 94.14 3.4
1 -2 7 113.42 3.77
-2 2 -7 72.3 2.7
2 -2 7 71.32 2.72
-3 2 -7 39.79 1.8
3 -2 7 42.83 1.9
-4 2 -7 56.88 2.38
4 -2 7 55.03 2.39
-5 2 -7 8.58 1.01
-6 2 -7 13.33 1.28
-7 2 -7 24.05 1.95
-8 2 -7 8.29 1.49
-9 -1 7 0.78 1.19
-8 -1 7 0.92 1.11
-7 -1 7 -0.57 0.85
-6 -1 7 0.47 0.67
-5 -1 7 44.68 1.5
-5 -1 7 47.16 2.1
-5 -1 7 44.44 1.5
4 1 -7 22.71 1.46
-4 -1 7 22.29 0.87
-4 -1 7 23.11 0.85
-4 -1 7 21.25 1.27
3 1 -7 7.8 0.9
-3 -1 7 8 0.44
-3 -1 7 7.86 0.5
-3 -1 7 7.8 0.83
2 1 -7 11.21 0.78
2 1 -7 10.65 0.57
-2 -1 7 11.31 0.79
-2 -1 7 10.56 0.62
1 1 -7 0.91 0.27
-1 -1 7 0.68 0.3
-1 -1 7 0.9 0.28
0 1 -7 3.38 0.45
0 -1 7 3.91 0.5
0 -1 7 3.1 0.4
0 -1 7 3.77 0.52
-1 1 -7 20.69 0.99
1 -1 7 20.14 1.05
1 -1 7 17.63 0.75
1 -1 7 19.94 0.77
-2 1 -7 2.94 0.49
2 -1 7 2.38 0.48
-3 1 -7 0.72 0.49
3 -1 7 1.31 0.54
-4 1 -7 3.87 0.7
4 -1 7 4.49 0.72
-5 1 -7 0.24 0.58
-6 1 -7 0.13 0.75
-7 1 -7 1.16 0.94
-8 1 -7 -0.49 1.26
-9 0 7 0.3 1.17
-8 0 7 5.15 1.19
-7 0 7 19.65 1.55
-7 0 7 17.95 0.98
-6 0 7 71.49 2.55
-6 0 7 73.53 2.56
-6 0 7 74.63 3.06
-5 0 7 72.48 2.56
-5 0 7 72.91 2.93
-5 0 7 75.96 2.56
-4 0 7 40.21 1.46
-4 0 7 37.04 1.83
-4 0 7 36.47 1.81
-4 0 7 39.14 1.49
-3 0 7 44 1.66
-3 0 7 44.48 1.86
-3 0 7 42.56 1.6
-3 0 7 43.98 1.96
-2 0 7 38.06 1.65
-2 0 7 47.24 1.65
-2 0 7 46.99 1.83
-2 0 7 45.12 1.8
1 0 -7 104.48 3.49
-1 0 7 102.38 3.46
-1 0 7 101.42 3.47
-1 0 7 103.17 3.52
0 0 -7 85.34 3.04
0 0 7 84.79 3.06
0 0 7 87.12 2.88
0 0 7 89.6 2.92
-1 0 -7 66 2.5
1 0 7 69.68 2.27
1 0 7 66.34 2.22
1 0 7 68.43 2.54
-2 0 -7 112.6 3.96
2 0 7 113.36 3.49
2 0 7 110.32 3.96
-3 0 -7 18.98 1.11
3 0 7 16.68 1.13
-4 0 -7 26.36 1.54
-5 0 -7 34.7 1.81
-5 0 -7 31.06 1.09
-6 0 -7 6.04 0.5
-6 0 -7 7.74 1.18
-7 0 -7 6.56 1.16
-8 0 -7 1.76 1.38
-9 1 7 -2.64 1.08
-8 1 7 2.6 0.74
-8 1 7 2.34 0.98
7 -1 -7 0.51 0.65
-7 1 7 -0.93 0.87
-7 1 7 1.1 0.57
6 -1 -7 -0.49 0.49
-6 1 7 0.45 0.46
-6 1 7 0.37 0.63
-5 1 7 2.02 0.45
-5 1 7 2.28 0.53
-5 1 7 1.6 0.71
-4 1 7 4.55 0.64
-4 1 7 4.16 0.84
-4 1 7 4.09 0.66
-4 1 7 4.72 0.54
-3 1 7 -0.02 0.48
-3 1 7 -0.12 0.26
-3 1 7 0.02 0.38
-3 1 7 0.08 0.43
-2 1 7 -0.08 0.25
-2 1 7 -0.11 0.39
-2 1 7 -0.04 0.38
-2 1 7 0.03 0.36
1 -1 -7 0.62 0.32
-1 1 7 0.92 0.38
-1 1 7 0.38 0.36
0 -1 -7 6.67 0.58
0 -1 -7 6.45 0.56
0 1 7 5.84 0.65
0 1 7 6.34 0.59
-1 -1 -7 0.51 0.35
-1 -1 -7 0.18 0.26
1 1 7 -0.01 0.39
1 1 7 -0.15 0.26
-2 -1 -7 -0.14 0.35
-2 -1 -7 0.23 0.25
2 1 7 -0.06 0.47
2 1 7 0.32 0.27
-3 -1 -7 1.12 0.29
-3 -1 -7 2.02 0.55
3 1 7 1.59 0.61
3 1 7 0.98 0.32
-4 -1 -7 4.28 0.53
-4 -1 -7 3.5 0.7
4 1 7 5.18 0.6
-5 -1 -7 15.88 0.86
-5 -1 -7 14.29 1.29
5 1 7 15.26 0.95
-6 -1 -7 4.3 0.58
-6 -1 -7 3.17 1.07
-7 -1 -7 -0.67 1.15
-9 2 7 3.54 1.45
-8 2 7 14.48 1.45
-8 2 7 12.3 1.53
7 -2 -7 20.09 1.46
-7 2 7 24.2 1.7
-7 2 7 21.94 1.42
6 -2 -7 11.9 1.12
-6 2 7 14.02 1.07
-6 2 7 16.9 1.48
-5 2 7 13.36 1.18
-5 2 7 15.71 1.1
-5 2 7 17.7 1.01
-4 2 7 43.54 2.05
-4 2 7 43.07 1.77
-4 2 7 44.02 2.01
-4 2 7 43.08 1.84
-3 2 7 63.25 2.55
-3 2 7 63.1 2.41
-3 2 7 62.59 2.35
2 -2 -7 65.56 2.47
-2 2 7 61.33 2.46
-2 2 7 66.99 2.5
-2 2 7 66.31 2.42
1 -2 -7 67.45 2.47
-1 2 7 66.83 2.48
-1 2 7 64.79 2.55
-1 2 7 67.86 2.46
0 -2 -7 82.66 3.03
0 -2 -7 84.27 2.91
0 2 7 83.87 3.09
0 2 7 80.22 2.87
-1 -2 -7 29.39 1.25
-1 -2 -7 28.99 1.38
1 2 7 28.52 1.27
1 2 7 27.87 1.44
-2 -2 -7 15.58 1.02
-2 -2 -7 15.98 0.87
2 2 7 13.8 1.11
2 2 7 14.93 0.91
-3 -2 -7 19.46 0.99
-3 -2 -7 19.61 1.2
3 2 7 18.46 1
-4 -2 -7 1.41 0.72
-4 -2 -7 2.22 0.5
4 2 7 2.48 0.58
-5 -2 -7 0.24 0.72
-5 -2 -7 0.57 0.51
5 2 7 0.54 0.68
-6 -2 -7 0.28 0.85
-7 -2 -7 -0.85 1.2
-9 3 7 -2.73 1.39
-9 3 7 0.42 1.18
-8 3 7 1.67 1.1
-8 3 7 0.11 0.84
-7 3 7 3.53 1.01
-7 3 7 4.69 0.87
6 -3 -7 -0.23 0.72
-6 3 7 -0.69 0.67
-6 3 7 0.34 0.59
5 -3 -7 1.4 0.69
-5 3 7 1.37 0.67
-5 3 7 1.58 0.55
-4 3 7 16.11 1.03
-4 3 7 15.3 1.17
3 -3 -7 12.82 1.05
-3 3 7 15.07 1.07
-3 3 7 15.03 1.28
-3 3 7 13.27 0.93
2 -3 -7 38.99 1.72
-2 3 7 36.37 1.67
-2 3 7 37.11 1.77
-2 3 7 38.66 1.72
1 -3 -7 23.8 1.26
-1 3 7 24.67 1.32
-1 3 7 23.95 1.33
-1 3 7 22.44 1.2
0 -3 -7 26.79 1.31
0 3 7 26.16 1.36
0 3 7 28.29 1.54
0 3 7 27.42 1.35
-1 -3 -7 24.03 1.22
-1 -3 -7 25.29 1.34
1 3 7 24.76 1.29
-2 -3 -7 16.77 1.17
-2 -3 -7 19.49 1.09
2 3 7 18.88 1.18
-3 -3 -7 21.04 1.19
-3 -3 -7 20.46 1.33
3 3 7 20.03 1.26
-4 -3 -7 7.52 0.94
-4 -3 -7 5.89 0.95
4 3 7 4.76 0.86
-5 -3 -7 5.08 0.81
-5 -3 -7 5.41 1.01
-6 -3 -7 7.83 1.35
-8 4 7 3.38 1.38
-8 4 7 1.95 1.1
-7 4 7 3.39 0.93
-7 4 7 3.31 1.09
-6 4 7 11.44 1.38
-6 4 7 12.31 1.22
-5 4 7 11.55 1.05
4 -4 -7 2.34 0.79
-4 4 7 2.37 0.57
3 -4 -7 1.48 0.62
-3 4 7 1.62 0.52
2 -4 -7 0.94 0.54
-2 4 7 0.52 0.41
-2 4 7 1.71 0.66
1 -4 -7 1.09 0.47
-1 4 7 1.01 0.72
-1 4 7 0.37 0.5
0 -4 -7 1.44 0.52
0 4 7 0.97 0.49
0 4 7 1.85 0.74
-1 -4 -7 3.08 0.63
1 4 7 2.36 0.75
1 4 7 3.47 0.7
-2 -4 -7 0.1 0.6
-2 -4 -7 0.63 0.56
2 4 7 0.27 0.75
-3 -4 -7 3.2 0.74
-3 -4 -7 4.22 0.82
3 4 7 2.96 0.92
-4 -4 -7 -0.77 0.88
-4 -4 -7 0.71 0.74
4 4 7 -1.12 1.07
-5 -4 -7 0.19 1.04
-5 -4 -7 0.56 0.9
-8 5 7 1.66 1.18
-8 5 7 0.59 1.27
-7 5 7 0.36 1.1
-7 5 7 2.44 1.08
-6 5 7 13.76 1.37
5 -5 -7 6.5 1
-5 5 7 6.18 0.92
4 -5 -7 7.68 1.04
-4 5 7 6.34 0.79
3 -5 -7 16.48 1.44
-3 5 7 13.65 1.1
2 -5 -7 32.34 1.72
-2 5 7 31.47 1.68
1 -5 -7 31.28 1.63
-1 5 7 31.37 1.64
0 -5 -7 13.69 1.21
0 5 7 17.4 1.18
-1 -5 -7 6.21 0.84
1 5 7 8.91 1.15
-2 -5 -7 4.38 0.83
2 5 7 3.86 0.84
-3 -5 -7 4.61 0.97
3 5 7 6.87 1.11
-4 -5 -7 9.1 1.18
4 5 7 12.11 1.62
5 5 7 9.02 1.52
-7 6 7 0.81 1.17
-7 6 7 -0.86 1.48
6 -6 -7 -1.62 1.16
-6 6 7 0.26 0.97
5 -6 -7 2.84 1.14
-5 6 7 3.76 0.96
4 -6 -7 5.25 0.99
-4 6 7 5.03 0.87
3 -6 -7 5.43 0.98
-3 6 7 6.91 0.98
2 -6 -7 2.63 0.84
-2 6 7 1.64 0.75
1 -6 -7 1.15 0.72
-1 6 7 -0.79 0.6
0 -6 -7 -1.04 0.63
0 6 7 -1.14 0.66
-1 -6 -7 6.12 1.01
1 6 7 6.03 1.07
-2 -6 -7 0.06 0.93
2 6 7 2.2 1
-3 -6 -7 0.43 1.06
3 6 7 0.45 1.16
6 -7 -7 1.23 1.15
-6 7 7 -0.3 1.19
5 -7 -7 -0.09 1.23
-5 7 7 0.74 0.97
4 -7 -7 6.13 1.25
-4 7 7 7.6 1.2
3 -7 -7 9.39 1.31
-3 7 7 7.56 1.06
2 -7 -7 9.15 1.31
-2 7 7 7.7 1.1
1 -7 -7 2.55 0.94
-1 7 7 3.41 0.97
0 -7 -7 2.64 1.09
0 7 7 4.56 1.12
-1 -7 -7 6.49 1.2
1 7 7 7.26 1.3
-2 -7 -7 3.51 1.35
2 7 7 1.24 1.26
3 -8 -7 2.03 1.29
2 -8 -7 2.45 1.32
-1 -9 8 1.22 1.15
0 -9 8 0.55 1.23
-1 9 -8 0.05 1.02
1 -9 8 0.84 1.13
-2 9 -8 -2.15 1.12
2 -9 8 -0.35 1.04
-3 9 -8 -0.73 1.13
3 -9 8 0.51 1.22
-4 9 -8 -0.86 1.21
4 -9 8 2 1.1
-3 -8 8 6.11 1.3
-2 -8 8 13.77 1.92
-1 -8 8 5.19 1.23
0 8 -8 6.58 1.01
0 -8 8 5.8 1.14
-1 8 -8 2.68 0.9
1 -8 8 0.93 0.89
-2 8 -8 2.32 1
2 -8 8 4.18 0.95
-3 8 -8 9.34 1.37
3 -8 8 12.92 1.53
-4 8 -8 5.63 1.33
4 -8 8 6.77 1.04
-5 8 -8 0.37 1.01
-4 -7 8 -1.27 1.04
-3 -7 8 4.39 1.17
-2 -7 8 3.02 0.96
1 7 -8 0.42 0.54
-1 -7 8 0.97 0.8
0 7 -8 3.29 0.72
0 -7 8 3.77 0.82
0 -7 8 2.97 0.83
-1 7 -8 20.94 1.51
1 -7 8 21.81 1.47
1 -7 8 22.33 1.58
-2 7 -8 16.6 1.53
-2 7 -8 17.7 1.47
2 -7 8 20.08 1.35
-3 7 -8 6.4 1.06
-3 7 -8 5.74 0.99
3 -7 8 6.96 0.88
-4 7 -8 3.96 1.02
4 -7 8 4.63 0.79
-5 7 -8 2.67 1.07
5 -7 8 3.98 0.83
-6 7 -8 5.06 1.3
-5 -6 8 6.72 1.43
-4 -6 8 17.61 1.89
-3 -6 8 0.85 0.84
2 6 -8 4.25 0.55
-2 -6 8 3.89 0.82
-2 -6 8 4.29 0.48
1 6 -8 0.91 0.44
-1 -6 8 0.88 0.5
-1 -6 8 1.04 0.65
0 6 -8 0.68 0.72
0 6 -8 -0.47 0.45
0 -6 8 0.04 0.54
0 -6 8 -0.18 0.57
-1 6 -8 9.61 0.96
-1 6 -8 9.2 1.1
1 -6 8 8.52 1.05
1 -6 8 7.99 0.96
-2 6 -8 4.17 0.77
-2 6 -8 3.27 0.71
2 -6 8 2.62 0.62
2 -6 8 3.23 0.87
-3 6 -8 -0.37 0.66
-3 6 -8 0.33 0.65
3 -6 8 0.58 0.49
-4 6 -8 1.4 0.82
-4 6 -8 0.93 0.64
4 -6 8 1.03 0.55
-5 6 -8 0.67 0.89
5 -6 8 0.37 0.61
-6 6 -8 0.2 0.99
-7 6 -8 1.87 1.08
-6 -5 8 6.83 1.46
-5 -5 8 17.24 1.87
-4 -5 8 17.21 1.6
-3 -5 8 3.75 0.78
2 5 -8 18.15 0.84
-2 -5 8 21.12 1.37
-2 -5 8 20.5 0.86
1 5 -8 95.15 3.52
1 5 -8 92.34 3.24
-1 -5 8 95.36 3.25
-1 -5 8 97.85 3.49
0 5 -8 91.35 3.1
0 5 -8 84.8 3.17
0 -5 8 84.44 3.09
0 -5 8 83.05 3.08
-1 5 -8 41.19 1.82
-1 5 -8 41.48 1.76
1 -5 8 42.43 1.74
1 -5 8 40.92 1.88
-2 5 -8 18.15 1.08
-2 5 -8 18.44 1.2
2 -5 8 17.09 0.99
2 -5 8 16.18 1.34
-3 5 -8 9.9 0.83
-3 5 -8 10.79 1.1
3 -5 8 8.86 0.75
-4 5 -8 7.24 0.96
-4 5 -8 7.56 0.78
4 -5 8 8.47 0.7
-5 5 -8 17.66 1.55
-6 5 -8 11.19 1.4
-7 5 -8 4.26 1.1
-7 -4 8 -0.24 1.17
-6 -4 8 4.15 1.19
-5 -4 8 0.5 0.87
-4 -4 8 1.55 0.69
-3 -4 8 12.06 1.16
2 4 -8 40.64 1.89
-2 -4 8 44.09 1.89
-2 -4 8 41.09 1.47
1 4 -8 11.38 1
1 4 -8 11.03 0.68
-1 -4 8 12.8 0.92
-1 -4 8 11.72 0.78
0 4 -8 6.02 0.77
0 4 -8 5.86 0.62
0 -4 8 5.33 0.71
0 -4 8 6.49 0.71
-1 4 -8 6.15 0.67
-1 4 -8 5.84 0.69
1 -4 8 5.01 0.59
1 -4 8 4.99 0.7
-2 4 -8 3.73 0.56
-2 4 -8 4.73 0.59
2 -4 8 4.25 0.78
2 -4 8 3.7 0.43
-3 4 -8 5.63 0.8
-3 4 -8 5.33 0.53
3 -4 8 6.06 0.9
3 -4 8 5.03 0.45
-4 4 -8 4.22 0.73
-5 4 -8 7.58 1.09
-6 4 -8 7.39 1.21
-7 4 -8 1.27 0.96
-8 4 -8 1.86 1.27
-7 -3 8 8.44 1.29
-6 -3 8 10.59 1.35
-5 -3 8 0.66 0.67
-4 -3 8 2.21 0.63
3 3 -8 65.89 2.75
-3 -3 8 68.05 2.68
2 3 -8 53.74 1.82
2 3 -8 49.27 2.16
-2 -3 8 53.71 1.84
-2 -3 8 54.84 2.12
1 3 -8 38.53 1.49
1 3 -8 39.42 1.68
-1 -3 8 39.76 1.63
-1 -3 8 38.47 1.55
0 3 -8 28.07 1.2
0 3 -8 26.41 1.24
0 -3 8 28.09 1.3
0 -3 8 27.15 1.19
-1 3 -8 26.76 1.25
-1 3 -8 24.21 1.09
1 -3 8 24.67 1.33
1 -3 8 25.36 1.04
-2 3 -8 14.17 0.96
-2 3 -8 12.97 0.64
2 -3 8 11.99 1.11
2 -3 8 13.73 0.6
-3 3 -8 22.04 1.29
3 -3 8 22.71 1.5
-4 3 -8 15.26 1.27
-5 3 -8 5.71 0.96
-6 3 -8 3.23 1.04
-7 3 -8 1.41 1
-8 3 -8 1.82 1.16
-8 -2 8 0.22 1.13
-7 -2 8 1.7 0.97
-6 -2 8 4.07 0.96
-5 -2 8 12.18 1.29
-4 -2 8 51.21 2.23
3 2 -8 67.32 2.72
-3 -2 8 65.77 2.22
-3 -2 8 69.82 2.65
-3 -2 8 67.14 2.2
2 2 -8 24.16 0.99
2 2 -8 24.31 1.34
-2 -2 8 24.99 1.25
-2 -2 8 25.66 1.06
1 2 -8 27.44 1.15
1 2 -8 28.04 1.29
-1 -2 8 29.34 1.24
-1 -2 8 23.78 1.17
0 2 -8 10.07 0.72
0 2 -8 10.75 0.74
0 -2 8 9.68 0.64
0 -2 8 10.1 0.77
-1 2 -8 19.68 1.06
1 -2 8 19.79 1.13
1 -2 8 19.32 0.81
-2 2 -8 48.05 1.98
2 -2 8 45.62 2.03
-3 2 -8 28.39 1.45
3 -2 8 27.12 1.59
-4 2 -8 29.87 1.65
-5 2 -8 4.98 0.82
-6 2 -8 6.64 1.17
-7 2 -8 10.76 1.52
-8 2 -8 1.1 1.24
-8 -1 8 1.94 1.26
-7 -1 8 -0.15 0.87
-6 -1 8 1.19 0.77
-5 -1 8 12.33 0.57
-5 -1 8 10.24 1.08
-5 -1 8 10.92 0.54
4 1 -8 8.41 1.07
-4 -1 8 8.26 0.57
-4 -1 8 8.94 1.03
-4 -1 8 8.8 0.51
-3 -1 8 2.12 0.56
-3 -1 8 2.73 0.33
-3 -1 8 2.87 0.38
2 1 -8 24.66 1.04
-2 -1 8 24.66 1.1
-2 -1 8 25.1 1.25
1 1 -8 36.48 1.47
-1 -1 8 38.5 1.59
-1 -1 8 37.27 1.54
-1 -1 8 37.75 1.53
0 1 -8 8.66 0.69
0 -1 8 9.66 0.62
0 -1 8 10.31 0.78
0 -1 8 9.33 0.7
-1 1 -8 21.9 1.12
1 -1 8 21.5 0.87
1 -1 8 23.2 0.9
1 -1 8 22.78 1.22
-2 1 -8 12.94 0.88
2 -1 8 11.68 1.03
-3 1 -8 2.06 0.55
3 -1 8 2.46 0.73
-4 1 -8 -0.01 0.51
-5 1 -8 0.02 0.66
-6 1 -8 0 0.78
-7 1 -8 0.86 1.12
-8 1 -8 1.17 1.43
-8 0 8 2.63 1.09
-7 0 8 3.65 1.07
-7 0 8 2.82 0.52
-6 0 8 13.67 0.93
-6 0 8 14.74 0.86
-6 0 8 16.13 1.43
-5 0 8 38.7 1.51
-5 0 8 40.59 1.56
-5 0 8 35.04 1.87
-4 0 8 17.16 0.84
-4 0 8 16.77 1.36
-4 0 8 15.44 0.93
-4 0 8 17.76 1.2
-3 0 8 31.72 1.31
-3 0 8 31.22 1.69
-3 0 8 35.32 1.59
-3 0 8 32.81 1.38
-2 0 8 39.21 1.49
-2 0 8 35.98 1.56
-2 0 8 38.78 1.69
-2 0 8 38.05 1.72
1 0 -8 76.8 2.74
-1 0 8 78.24 2.76
-1 0 8 75.79 2.79
-1 0 8 76.12 2.72
0 0 -8 121.95 4.25
0 0 8 126.39 4.04
0 0 8 119.85 4.27
0 0 8 127.43 4.08
-1 0 -8 47.23 1.93
1 0 8 46.44 1.63
1 0 8 46.72 1.66
1 0 8 43.92 1.91
-2 0 -8 48.58 2.08
2 0 8 51.74 2.19
2 0 8 51.04 1.69
2 0 8 49.8 1.65
-3 0 -8 16.4 1.18
-4 0 -8 19.81 1.33
-5 0 -8 25.36 1.75
-6 0 -8 4.23 1
-7 0 -8 -1.48 1.02
-8 1 8 -1.69 1.07
-7 1 8 2.35 0.63
-7 1 8 -0.74 0.92
-6 1 8 2.45 0.88
-6 1 8 2.29 0.64
-6 1 8 2.77 0.55
-5 1 8 0.82 0.71
-5 1 8 0.65 0.53
-5 1 8 0.86 0.44
-4 1 8 4.55 0.73
-4 1 8 5.89 0.63
-4 1 8 3.9 0.96
-4 1 8 5.12 0.64
-3 1 8 5.3 0.75
-3 1 8 3.55 0.48
-3 1 8 2.9 0.7
-3 1 8 4.14 0.69
-2 1 8 3.55 0.55
-2 1 8 2.78 0.56
-2 1 8 3.01 0.45
-2 1 8 2.93 0.61
1 -1 -8 -0.08 0.34
-1 1 8 0.02 0.4
-1 1 8 -0.88 0.37
-1 1 8 0.75 0.43
0 -1 -8 9.69 0.72
0 1 8 8 0.82
0 1 8 9.28 0.73
-1 -1 -8 14.34 0.93
-1 -1 -8 14.87 0.84
1 1 8 15.16 1.12
1 1 8 14.63 0.83
-2 -1 -8 26.78 1.12
-2 -1 -8 26.35 1.45
2 1 8 27.22 1.1
2 1 8 26.75 1.48
-3 -1 -8 8.6 0.92
-3 -1 -8 11.29 0.64
3 1 8 10.06 0.67
-4 -1 -8 3.98 0.73
-4 -1 -8 2.29 0.35
4 1 8 2.59 0.42
-5 -1 -8 2.31 0.38
-5 -1 -8 2.94 0.83
-6 -1 -8 1.78 0.96
-7 -1 -8 1.61 1.24
-8 2 8 5.91 1.01
-8 2 8 3.86 1.24
-7 2 8 12.53 1.24
-7 2 8 16.47 1.79
-6 2 8 8.86 1.22
-6 2 8 12.98 1.53
-6 2 8 10.9 1.06
-5 2 8 13.84 1.01
-5 2 8 13.52 1.12
-5 2 8 16.25 1.39
-4 2 8 26.63 1.47
-4 2 8 28.64 1.67
-4 2 8 30.2 1.37
-3 2 8 52.88 2.32
-3 2 8 49.7 2.13
-3 2 8 54.44 2.23
-3 2 8 50.12 2.05
-2 2 8 25.18 1.37
-2 2 8 23.94 1.21
-2 2 8 23.37 1.38
1 -2 -8 1.98 0.53
-1 2 8 2.73 0.48
-1 2 8 2.93 0.65
-1 2 8 3.51 0.6
0 -2 -8 0.42 0.4
0 -2 -8 0.3 0.4
0 2 8 -1.45 0.55
0 2 8 0.65 0.47
-1 -2 -8 3.51 0.59
-1 -2 -8 4.56 0.62
1 2 8 3.27 0.54
1 2 8 3.81 0.75
-2 -2 -8 16.34 0.91
-2 -2 -8 16.67 1.18
2 2 8 15.63 0.98
-3 -2 -8 15.97 0.94
-3 -2 -8 17.71 1.23
3 2 8 16.6 1.02
-4 -2 -8 4.29 0.59
-4 -2 -8 3.78 0.91
4 2 8 4.92 0.68
-5 -2 -8 -0.48 0.54
-5 -2 -8 -0.29 0.77
-6 -2 -8 0.52 1
-8 3 8 1.62 1.15
-8 3 8 1.2 0.99
-7 3 8 3.36 1.09
-7 3 8 3.93 0.89
-6 3 8 0.79 0.65
-6 3 8 -0.11 0.9
-5 3 8 0.61 0.73
-5 3 8 0.34 0.58
-5 3 8 2.57 0.8
-4 3 8 11.54 0.97
-4 3 8 11.1 1.21
3 -3 -8 2.61 0.72
-3 3 8 4.17 0.64
-3 3 8 2.03 0.76
2 -3 -8 5.62 0.75
-2 3 8 6.54 0.86
-2 3 8 5.99 0.81
-2 3 8 7.03 0.82
1 -3 -8 17.65 1.15
-1 3 8 17.2 1.22
-1 3 8 14.49 1.12
-1 3 8 16.05 1.04
0 -3 -8 41.1 1.79
0 3 8 42.74 1.86
0 3 8 41.34 1.85
-1 -3 -8 25.69 1.29
-1 -3 -8 25.62 1.48
1 3 8 24.57 1.42
-2 -3 -8 14.06 1.01
-2 -3 -8 15.63 1.25
2 3 8 13.35 1.15
-3 -3 -8 8.77 0.95
-3 -3 -8 6.77 0.9
3 3 8 7.74 1.06
-4 -3 -8 8.02 1.17
-4 -3 -8 8.52 0.89
-5 -3 -8 4.93 1.17
-6 -3 -8 4.87 1.41
-8 4 8 1.89 1.17
-8 4 8 4.64 1.55
-7 4 8 1.37 1.08
-7 4 8 1.7 0.92
-6 4 8 4.8 0.86
-6 4 8 4.93 1.06
-5 4 8 7.54 1.08
4 -4 -8 0.35 0.75
-4 4 8 0.45 0.6
3 -4 -8 -0.12 0.67
-3 4 8 -0.29 0.52
2 -4 -8 4.62 0.81
-2 4 8 4.15 0.73
1 -4 -8 0.92 0.58
-1 4 8 0.71 0.49
-1 4 8 0.59 0.66
0 -4 -8 0.34 0.53
0 4 8 0.17 0.81
0 4 8 -0.49 0.51
-1 -4 -8 1.3 0.62
1 4 8 1.96 0.8
1 4 8 2.01 0.69
-2 -4 -8 1.53 0.7
-2 -4 -8 0.87 0.6
2 4 8 1.76 0.9
2 4 8 1.1 0.67
-3 -4 -8 2.26 0.89
-3 -4 -8 0.67 0.7
3 4 8 1.05 0.85
-4 -4 -8 1.98 1.09
-4 -4 -8 1.21 0.82
-5 -4 -8 -0.97 1.03
-7 5 8 0.55 1.12
-7 5 8 0.38 1.35
-6 5 8 8.48 1.15
-6 5 8 9.48 1.37
5 -5 -8 5.77 1.17
-5 5 8 5.77 1
4 -5 -8 -0.36 0.78
-4 5 8 -1.27 0.67
3 -5 -8 2.48 0.85
-3 5 8 0.76 0.63
2 -5 -8 9.3 1.14
-2 5 8 7.18 0.89
1 -5 -8 14.15 1.33
-1 5 8 10.78 1.12
0 -5 -8 22.07 1.54
0 5 8 21.21 1.41
-1 -5 -8 14.44 1.32
1 5 8 14.61 1.31
-2 -5 -8 19.14 1.59
2 5 8 21.48 1.56
-3 -5 -8 10.97 1.48
3 5 8 15.28 1.68
-4 -5 -8 7.65 1.32
4 5 8 11.41 1.51
-6 6 8 -0.78 1.04
5 -6 -8 -1.38 1.13
-5 6 8 -0.12 0.81
4 -6 -8 0.34 0.92
-4 6 8 -0.45 0.75
3 -6 -8 0.2 1
-3 6 8 -0.53 0.81
2 -6 -8 2.61 1.01
-2 6 8 0.97 0.83
1 -6 -8 0.26 0.84
-1 6 8 -0.19 0.86
0 -6 -8 0.95 0.89
0 6 8 -0.6 0.83
-1 -6 -8 2.16 0.99
1 6 8 3.07 0.96
-2 -6 -8 0.47 1.03
3 6 8 -0.25 1.19
5 -7 -8 0.96 1.29
-5 7 8 1.58 1.04
4 -7 -8 4.44 1.4
-4 7 8 2.74 0.91
3 -7 -8 7.74 1.48
-3 7 8 6.89 1.25
2 -7 -8 11.1 1.44
-2 7 8 10.3 1.4
1 -7 -8 8.4 1.35
-1 7 8 4.95 1.08
0 -7 -8 8.62 1.45
0 7 8 8.44 1.36
0 -9 9 -1.63 1.3
-1 9 -9 -0.95 1.05
1 -9 9 0.27 1.18
-2 9 -9 -0.26 1.13
2 -9 9 0.41 1.15
-3 9 -9 1.23 1.28
-2 -8 9 17.89 2.05
-1 -8 9 1.93 1.2
0 8 -9 2.35 0.9
0 -8 9 2.66 1.1
-1 8 -9 0.84 0.87
1 -8 9 -0.09 0.97
-2 8 -9 -0.71 0.94
2 -8 9 0.94 0.96
-3 8 -9 2.77 1.09
3 -8 9 4.34 1.01
-4 8 -9 4.85 1.34
4 -8 9 6.09 1.05
-5 8 -9 3.92 1.36
-4 -7 9 3.37 1.41
-3 -7 9 2.58 1.06
-2 -7 9 4.72 1.11
1 7 -9 2.43 0.59
-1 -7 9 0.33 0.85
0 7 -9 5.27 0.78
0 -7 9 3.56 0.87
0 -7 9 4.22 0.97
-1 7 -9 22.01 1.49
1 -7 9 18.32 1.43
-2 7 -9 31.88 1.86
-2 7 -9 27.02 1.81
2 -7 9 31.1 1.7
-3 7 -9 11.95 1.46
3 -7 9 13.13 1.28
-4 7 -9 4.79 1.04
4 -7 9 4.43 0.81
-5 7 -9 1.97 0.97
-6 7 -9 1.14 1.25
-5 -6 9 2.88 1.28
-4 -6 9 10.98 1.45
-3 -6 9 1.7 0.97
2 6 -9 0.67 0.34
-2 -6 9 0.02 0.8
1 6 -9 0.18 0.41
-1 -6 9 0.4 0.67
-1 -6 9 -0.11 0.54
0 6 -9 6.28 0.86
0 6 -9 6.9 1.03
0 -6 9 5.11 0.76
0 -6 9 4.69 0.8
-1 6 -9 1.48 0.8
-1 6 -9 0.11 0.53
1 -6 9 0.04 0.75
1 -6 9 0.02 0.58
-2 6 -9 1.84 0.74
-2 6 -9 1.6 0.67
2 -6 9 1.16 0.58
-3 6 -9 0.34 0.76
-3 6 -9 0.8 0.73
3 -6 9 0.63 0.53
-4 6 -9 1.32 0.9
4 -6 9 0.61 0.56
-5 6 -9 1.5 1.02
-6 6 -9 0.16 1
-6 -5 9 8.66 1.65
-5 -5 9 8.83 1.5
-4 -5 9 20.41 1.8
-3 -5 9 3.07 0.87
2 5 -9 2.26 0.35
-2 -5 9 1.56 0.7
-2 -5 9 2.09 0.37
1 5 -9 22.49 1.08
1 5 -9 22.53 1.52
-1 -5 9 22.58 1.36
-1 -5 9 20.62 1.12
0 5 -9 44.19 2
0 5 -9 45.91 1.85
0 -5 9 44.15 1.89
0 -5 9 43.55 1.92
-1 5 -9 18.65 1.19
-1 5 -9 18.79 1.23
1 -5 9 18.23 1.39
1 -5 9 20.1 1.11
-2 5 -9 21.01 1.2
-2 5 -9 21.54 1.34
2 -5 9 19.73 1.07
2 -5 9 19.15 1.46
-3 5 -9 8.32 1.1
-3 5 -9 8.48 0.83
3 -5 9 7.83 0.72
-4 5 -9 5.85 1
4 -5 9 5.76 0.59
-5 5 -9 15.69 1.49
-6 5 -9 7.73 1.3
-7 5 -9 3.48 1.18
-7 -4 9 0.31 1.18
-6 -4 9 0.35 1.18
-5 -4 9 0.79 0.82
-4 -4 9 -0.04 0.76
-3 -4 9 1.56 0.68
2 4 -9 9.25 1.21
2 4 -9 9.8 0.61
-2 -4 9 11.99 1.07
-2 -4 9 9.33 0.62
1 4 -9 7.21 1
1 4 -9 7.87 0.67
-1 -4 9 7.9 0.75
-1 -4 9 8.74 0.92
0 4 -9 2.08 0.56
0 4 -9 0.92 0.41
0 -4 9 1.09 0.55
0 -4 9 1.52 0.45
-1 4 -9 2.6 0.53
-1 4 -9 2.61 0.55
1 -4 9 3.26 0.68
1 -4 9 2.21 0.44
-2 4 -9 0.47 0.39
-2 4 -9 0.28 0.48
2 -4 9 -0.23 0.3
2 -4 9 -0.84 0.69
-3 4 -9 5.4 0.46
-3 4 -9 8.43 1.06
3 -4 9 6.68 0.43
-4 4 -9 -0.06 0.61
-5 4 -9 1.01 0.86
-6 4 -9 2.71 1.05
-7 4 -9 0.87 1.19
-7 -3 9 6.95 1.36
-6 -3 9 14.08 1.77
-5 -3 9 5.49 1.06
-4 -3 9 1.26 0.69
3 3 -9 21.22 1.35
-3 -3 9 23.48 1.43
2 3 -9 32.01 1.2
2 3 -9 29.87 1.63
-2 -3 9 30.52 1.24
-2 -3 9 30.19 1.46
1 3 -9 9.53 0.93
1 3 -9 10.1 0.71
-1 -3 9 10.28 0.81
-1 -3 9 9.88 0.83
0 3 -9 41.09 1.7
0 3 -9 41.04 1.67
0 -3 9 41.5 1.62
0 -3 9 41.06 1.81
-1 3 -9 18.12 0.97
-1 3 -9 18.91 1.1
1 -3 9 18.97 0.9
1 -3 9 19.15 1.26
-2 3 -9 44.56 1.91
2 -3 9 41.2 1.97
2 -3 9 41.19 1.42
-3 3 -9 33.32 1.7
-4 3 -9 9.12 1.08
-5 3 -9 2.11 0.88
-6 3 -9 -0.12 0.81
-7 3 -9 2.84 1.22
-8 -2 9 4.76 1.28
-7 -2 9 1.58 1.19
-6 -2 9 1.35 0.9
-5 -2 9 -1.25 0.65
-4 -2 9 0.87 0.7
3 2 -9 9.02 1.18
-3 -2 9 8.94 0.52
-3 -2 9 8.19 0.87
-3 -2 9 8.98 0.6
2 2 -9 9.07 1
2 2 -9 7.99 0.58
-2 -2 9 6.56 0.8
-2 -2 9 9.55 0.74
1 2 -9 8.34 0.67
1 2 -9 9.84 0.85
-1 -2 9 9.47 0.79
-1 -2 9 8.52 0.72
0 2 -9 19.68 1.07
0 -2 9 20.69 1.16
0 -2 9 20.4 0.97
-1 2 -9 37.25 1.66
1 -2 9 37.69 1.42
1 -2 9 39.17 1.78
1 -2 9 37.44 1.36
-2 2 -9 8.8 0.92
2 -2 9 8.18 0.94
-3 2 -9 17.22 1.18
-4 2 -9 10.49 1.2
-5 2 -9 12.9 1.44
-6 2 -9 5.21 1.18
-7 2 -9 7.17 1.44
-8 -1 9 1.89 1.19
-7 -1 9 7.27 1.27
-6 -1 9 5.84 1.03
-5 -1 9 24.71 0.98
-5 -1 9 25.72 1.03
-5 -1 9 26.07 1.59
-4 -1 9 22.68 0.97
-4 -1 9 23.29 1.06
-4 -1 9 23.14 1.51
-3 -1 9 3.29 0.66
-3 -1 9 2.7 0.39
-3 -1 9 3.24 0.48
2 1 -9 23.2 1.07
-2 -1 9 24.26 1.18
-2 -1 9 24.95 1.43
-2 -1 9 23.1 1.28
1 1 -9 14.17 0.82
-1 -1 9 12.9 0.86
-1 -1 9 12.9 0.97
-1 -1 9 13.01 0.93
0 1 -9 40.8 1.69
0 -1 9 36.02 1.56
0 -1 9 38.84 1.73
0 -1 9 41.72 1.55
-1 1 -9 1.87 0.45
1 -1 9 1.83 0.33
1 -1 9 1.15 0.29
1 -1 9 1.67 0.53
-2 1 -9 0.67 0.52
2 -1 9 -0.04 0.63
-3 1 -9 3.88 0.76
-4 1 -9 7.04 0.96
-5 1 -9 0.53 0.75
-6 1 -9 -0.34 0.99
-7 1 -9 0.1 1.14
-8 0 9 3.08 1.17
-7 0 9 1.69 1.1
-6 0 9 4.82 0.7
-6 0 9 5.3 0.72
-6 0 9 4.51 1.03
-5 0 9 18.47 1.49
-5 0 9 20.27 1.11
-5 0 9 18.14 0.98
-4 0 9 24.56 1.48
-4 0 9 24.46 1.24
-4 0 9 24.47 1.12
-3 0 9 14.05 1.13
-3 0 9 11.17 1.29
-3 0 9 10.19 0.89
-3 0 9 11.8 0.77
-2 0 9 62.25 2.36
-2 0 9 60.05 2.43
-2 0 9 61.71 2.26
-2 0 9 58.17 2.39
1 0 -9 22.27 1.11
-1 0 9 20.3 1.19
-1 0 9 22.99 1.18
-1 0 9 20.03 1.21
0 0 -9 15.4 0.95
0 0 9 14.02 1.09
0 0 9 14.36 0.88
0 0 9 15.13 0.9
-1 0 -9 10.45 0.94
1 0 9 11.72 0.75
1 0 9 11.69 0.71
1 0 9 13.02 1.03
-2 0 -9 0.31 0.54
2 0 9 0.65 0.52
2 0 9 -0.02 0.25
2 0 9 0.01 0.23
-3 0 -9 9.12 0.95
-4 0 -9 2.23 0.8
-5 0 -9 15.08 1.59
-6 0 -9 6.15 1.22
-7 0 -9 -0.01 1.15
-8 1 9 0.77 1.07
-7 1 9 2.23 0.69
-7 1 9 1.58 0.98
-6 1 9 1.66 0.6
-6 1 9 1.02 0.74
-6 1 9 1.65 1.01
-5 1 9 0.34 0.64
-5 1 9 0.5 0.47
-5 1 9 0.31 0.81
-4 1 9 1.43 0.61
-4 1 9 0.06 0.69
-4 1 9 -0.13 0.41
-3 1 9 7.1 0.93
-3 1 9 7.09 0.86
-3 1 9 4.11 0.57
-3 1 9 4.94 0.85
-2 1 9 0.72 0.56
-2 1 9 0.23 0.5
-2 1 9 -0.78 0.5
-2 1 9 0.51 0.36
1 -1 -9 12.08 0.89
-1 1 9 11.35 0.97
-1 1 9 10.84 1.04
-1 1 9 12.56 0.96
0 -1 -9 0.76 0.49
0 1 9 0.93 0.46
0 1 9 0.41 0.47
0 1 9 0.37 0.63
-1 -1 -9 5.48 0.75
1 1 9 5.74 0.69
1 1 9 3.46 0.7
-2 -1 -9 3.84 0.47
-2 -1 -9 2.58 0.6
2 1 9 3.76 0.47
-3 -1 -9 3.03 0.42
-3 -1 -9 1.23 0.69
3 1 9 2.7 0.42
-4 -1 -9 5.8 1
4 1 9 6.54 0.6
-5 -1 -9 3.84 1.09
-6 -1 -9 2.43 1.2
-8 2 9 1.76 1.39
-7 2 9 12.87 1.64
-7 2 9 12.64 1.31
-6 2 9 14.23 1.16
-6 2 9 13.78 1.54
-6 2 9 10.45 1.43
-5 2 9 3.68 0.87
-5 2 9 6.55 1.05
-5 2 9 3.29 0.66
-4 2 9 16.18 1.42
-4 2 9 17.35 1.37
-4 2 9 17.64 1.1
-3 2 9 3.85 0.76
-3 2 9 7.74 1.01
-3 2 9 5.11 0.95
-3 2 9 4.31 0.64
-2 2 9 25.52 1.32
-2 2 9 26.85 1.55
-2 2 9 23.26 1.53
1 -2 -9 11.76 1
-1 2 9 11.41 0.88
-1 2 9 13.29 1.21
-1 2 9 12.22 1.07
0 -2 -9 -0.09 0.42
0 -2 -9 -0.21 0.48
0 2 9 0.15 0.57
-1 -2 -9 2.57 0.56
-1 -2 -9 3.91 0.57
1 2 9 4.34 0.64
-2 -2 -9 0.52 0.46
-2 -2 -9 0.61 0.53
2 2 9 0.65 0.52
-3 -2 -9 14.78 1.34
-3 -2 -9 14.36 0.95
3 2 9 13.81 1.03
-4 -2 -9 12.1 1.44
-4 -2 -9 10.02 0.89
-5 -2 -9 1.09 1.04
-6 -2 -9 3.34 1.2
-8 3 9 1.47 1.25
-8 3 9 0.28 1.08
-7 3 9 0.7 1.14
-7 3 9 0.48 0.93
-6 3 9 0.6 0.65
-6 3 9 2.49 1.07
-5 3 9 0.54 0.88
-5 3 9 0.97 0.59
-4 3 9 18.95 1.58
-4 3 9 18.05 1.22
-3 3 9 25.46 1.43
2 -3 -9 2.16 0.73
-2 3 9 1.13 0.75
-2 3 9 2.13 0.61
1 -3 -9 0.04 0.55
-1 3 9 0.12 0.55
-1 3 9 0.71 0.74
0 -3 -9 0.54 0.54
0 3 9 0.92 0.53
0 3 9 0.58 0.69
-1 -3 -9 15.68 1.13
-1 -3 -9 14.24 1.16
1 3 9 12.75 1.27
-2 -3 -9 20.56 1.52
-2 -3 -9 22.18 1.27
2 3 9 21.16 1.41
-3 -3 -9 16.04 1.18
-3 -3 -9 15.04 1.52
-4 -3 -9 13.39 1.25
-4 -3 -9 13 1.47
-5 -3 -9 9.68 1.45
-7 4 9 -1.2 0.99
-7 4 9 2.25 1.18
-6 4 9 -0.99 0.78
-6 4 9 0.51 0.99
-5 4 9 0.72 0.7
-5 4 9 1.61 1.02
-4 4 9 24.34 1.53
3 -4 -9 16.24 1.51
-3 4 9 15.59 1.15
2 -4 -9 8.88 1.1
-2 4 9 8.37 0.98
1 -4 -9 4.02 0.82
-1 4 9 4.93 0.8
0 -4 -9 0.86 0.68
0 4 9 -0.21 0.56
-1 -4 -9 4.5 0.78
1 4 9 5.19 0.88
1 4 9 2.76 0.87
-2 -4 -9 1.53 0.73
2 4 9 1.93 0.89
2 4 9 1.56 0.91
-3 -4 -9 0.66 0.97
-3 -4 -9 -0.44 0.72
-4 -4 -9 1.74 1.18
-7 5 9 -0.66 1.18
-6 5 9 23.27 2.37
-6 5 9 22.51 1.9
-5 5 9 24.42 1.77
4 -5 -9 1.26 1.01
-4 5 9 1.25 0.79
3 -5 -9 3.88 0.94
-3 5 9 4.15 0.88
2 -5 -9 7 1.04
-2 5 9 6.49 0.95
1 -5 -9 29.08 1.85
-1 5 9 25.06 1.77
0 -5 -9 25.67 1.77
0 5 9 26.1 1.73
-1 -5 -9 18.79 1.53
1 5 9 15.2 1.47
-2 -5 -9 15.48 1.65
2 5 9 15.09 1.51
-3 -5 -9 9.4 1.33
3 5 9 12.56 1.61
-6 6 9 4.1 1.3
5 -6 -9 -0.45 1.23
-5 6 9 -1.45 1.04
4 -6 -9 1.3 1.16
-4 6 9 -0.66 0.94
3 -6 -9 0.34 1.15
-3 6 9 -0.32 0.93
2 -6 -9 0.25 0.92
-2 6 9 1.2 0.96
1 -6 -9 2.02 1.06
-1 6 9 -0.81 0.82
0 -6 -9 1.45 1.04
0 6 9 -1.28 0.85
-1 -6 -9 1.5 1.03
1 6 9 0.12 1.1
2 6 9 0.33 0.96
3 -7 -9 9.02 1.63
-3 7 9 8.07 1.18
2 -7 -9 4.9 1.28
-2 -8 10 6.36 1.44
-1 -8 10 5.07 1.39
0 -8 10 1.71 1.17
-1 8 -10 1.12 0.91
1 -8 10 -0.41 0.93
-2 8 -10 -0.31 1.01
2 -8 10 0.41 0.98
-3 8 -10 2.03 1.14
3 -8 10 0.47 0.94
-4 8 -10 2.33 1.29
-3 -7 10 8.66 1.26
-2 -7 10 8.4 1.3
-1 -7 10 0.9 0.94
0 7 -10 -0.04 0.63
0 -7 10 0.46 0.83
-1 7 -10 6.39 0.93
1 -7 10 4.43 0.94
-2 7 -10 4.54 0.97
2 -7 10 4.69 0.88
-3 7 -10 5.25 1.08
3 -7 10 4.38 0.86
-4 7 -10 1.96 1.03
-5 7 -10 3.02 1.28
-5 -6 10 -0.64 1.24
-4 -6 10 3.3 1.3
-3 -6 10 5.45 1.15
-2 -6 10 1.35 0.87
1 6 -10 3.69 0.59
-1 -6 10 3.27 0.82
0 6 -10 2.62 0.63
0 -6 10 1.43 0.74
0 -6 10 1.38 0.77
-1 6 -10 1.15 0.65
-1 6 -10 2.06 0.87
1 -6 10 1.81 0.92
1 -6 10 1.97 0.67
-2 6 -10 0.77 0.89
-2 6 -10 0.07 0.65
2 -6 10 0.49 0.58
-3 6 -10 1.33 0.74
3 -6 10 0.47 0.57
-4 6 -10 -0.44 0.86
-5 6 -10 3.24 1.04
-6 6 -10 0.11 1.07
-6 -5 10 3.72 1.48
-5 -5 10 17.25 2.13
-4 -5 10 18.5 1.88
-3 -5 10 8.07 1.13
2 5 -10 3.21 0.43
-2 -5 10 2.26 0.79
-2 -5 10 4.03 0.46
1 5 -10 18.18 1.02
1 5 -10 18.87 1.45
-1 -5 10 19.23 1.32
-1 -5 10 17.33 1.12
0 5 -10 10.85 1.24
0 5 -10 7.26 0.84
0 -5 10 7.48 0.91
0 -5 10 6.65 0.87
-1 5 -10 15.85 1.26
-1 5 -10 13.91 1.14
1 -5 10 14.24 1.04
1 -5 10 12.03 1.28
-2 5 -10 10.46 0.99
-2 5 -10 8.63 1.09
2 -5 10 7.08 0.81
-3 5 -10 26.87 1.63
3 -5 10 24.76 1.1
-4 5 -10 19.87 1.71
-5 5 -10 2.45 1.08
-6 5 -10 5.55 1.32
-6 -4 10 1.08 1.09
-5 -4 10 0.82 1.07
-4 -4 10 0.43 0.74
-3 -4 10 5.24 0.91
2 4 -10 12.89 0.75
2 4 -10 11.4 1.22
-2 -4 10 15.78 1.23
-2 -4 10 13.73 0.81
1 4 -10 -0.42 0.73
1 4 -10 0.16 0.38
-1 -4 10 0.21 0.52
-1 -4 10 0.14 0.55
0 4 -10 -0.43 0.61
0 4 -10 -0.28 0.44
0 -4 10 0.29 0.62
0 -4 10 0.16 0.44
-1 4 -10 0.77 0.58
-1 4 -10 1.38 0.52
1 -4 10 0.75 0.73
1 -4 10 0.9 0.43
-2 4 -10 3.01 0.51
-2 4 -10 3.76 0.73
2 -4 10 3.08 0.43
-3 4 -10 4.09 0.75
-4 4 -10 2.36 0.8
-5 4 -10 -0.34 0.95
-6 4 -10 1.11 1.06
-7 4 -10 -0.53 1.03
-7 -3 10 9.65 1.68
-6 -3 10 6.54 1.14
-5 -3 10 18.23 1.57
-4 -3 10 26.51 1.72
-3 -3 10 37.12 1.36
-3 -3 10 40.26 1.95
-3 -3 10 40.21 1.35
2 3 -10 28.8 1.18
2 3 -10 28.85 1.69
-2 -3 10 26.02 1.27
-2 -3 10 29.17 1.53
1 3 -10 25.13 1.2
1 3 -10 26.01 1.44
-1 -3 10 27.78 1.35
-1 -3 10 23.53 1.35
0 3 -10 15.49 1.07
0 3 -10 17.23 1.03
0 -3 10 18.19 0.98
0 -3 10 15.13 1.18
-1 3 -10 70.94 2.72
1 -3 10 68.95 2.84
1 -3 10 70.41 2.4
-2 3 -10 8.2 0.94
2 -3 10 6.33 0.41
2 -3 10 6.31 0.47
-3 3 -10 1 0.63
-4 3 -10 9.71 1.14
-5 3 -10 0.07 0.85
-6 3 -10 -0.23 1.05
-7 3 -10 -2.64 1.29
-7 -2 10 -1.31 1.02
-6 -2 10 2.77 1.08
-5 -2 10 -1.71 0.68
-4 -2 10 0.37 0.21
-4 -2 10 0.38 0.23
-4 -2 10 -0.82 0.71
3 2 -10 22.31 1.55
-3 -2 10 25.9 1.05
-3 -2 10 25.25 1.13
-3 -2 10 22.88 1.46
2 2 -10 8.43 1.09
2 2 -10 9.65 0.69
-2 -2 10 9.79 0.87
-2 -2 10 9.33 0.91
1 2 -10 14.03 0.9
-1 -2 10 14.93 0.98
-1 -2 10 14.43 1.06
0 2 -10 2.51 0.5
0 -2 10 2.7 0.46
0 -2 10 2.67 0.59
0 -2 10 3.14 0.7
1 -2 10 -0.01 0.36
1 -2 10 1.19 0.65
1 -2 10 0.67 0.3
-2 2 -10 40.49 1.91
-3 2 -10 3.47 0.76
-4 2 -10 1.37 0.74
-5 2 -10 -0.21 0.82
-6 2 -10 -1.62 1.05
-7 2 -10 4.86 1.41
-7 -1 10 7.8 1.44
-6 -1 10 14.5 1.72
-5 -1 10 6.02 0.57
-5 -1 10 5.4 0.68
-5 -1 10 4.91 1.03
-4 -1 10 14.98 1.36
-4 -1 10 15.57 0.83
-4 -1 10 15.92 0.97
-3 -1 10 6.53 0.88
-3 -1 10 6.94 0.85
-3 -1 10 7.37 0.64
-3 -1 10 6.76 1.03
2 1 -10 10.58 0.77
-2 -1 10 9.81 0.98
-2 -1 10 11.05 0.96
-2 -1 10 9.62 1.17
1 1 -10 44.3 1.81
-1 -1 10 42.01 1.91
-1 -1 10 43.58 1.83
-1 -1 10 43.73 1.91
0 1 -10 11.09 0.89
0 -1 10 11.32 0.79
0 -1 10 10.52 1.05
0 -1 10 10.7 0.85
-1 1 -10 0.55 0.49
1 -1 10 1.36 0.39
1 -1 10 0.25 0.29
1 -1 10 0.56 0.67
-2 1 -10 15.59 1.11
-3 1 -10 6.82 0.96
-4 1 -10 2.27 0.84
-5 1 -10 2.42 0.91
-6 1 -10 1.89 1.23
-8 0 10 1.79 1.14
-7 0 10 0.43 1.02
-6 0 10 3.43 0.56
-6 0 10 2.4 0.9
-5 0 10 36.97 2.1
-5 0 10 37.75 1.54
-5 0 10 32.55 1.67
-4 0 10 16.25 0.98
-4 0 10 17.39 1.31
-4 0 10 16.52 1.17
-3 0 10 8.69 1
-3 0 10 8.67 1.15
-3 0 10 8.36 1.03
-3 0 10 8.38 0.75
-2 0 10 0.93 0.59
-2 0 10 -0.66 0.68
-2 0 10 1.89 0.45
-2 0 10 1.18 0.63
1 0 -10 14.77 0.99
-1 0 10 14.58 1.04
-1 0 10 13.86 1.07
-1 0 10 14.13 1.12
0 0 -10 100.91 3.67
0 0 10 96.71 3.43
0 0 10 100.64 3.76
0 0 10 106.12 3.51
-1 0 -10 23.5 1.41
1 0 10 25.76 1.15
1 0 10 25.28 1.15
-2 0 -10 4.97 0.75
2 0 10 5.26 0.47
2 0 10 5.28 0.48
-3 0 -10 0.12 0.68
-4 0 -10 4.73 0.96
-5 0 -10 11.85 1.43
-6 0 -10 8.11 1.29
-8 1 10 -0.4 1.29
-7 1 10 -1.34 1.02
-6 1 10 1.45 0.64
-6 1 10 2.19 1.1
-5 1 10 0.55 0.8
-5 1 10 0.78 0.77
-5 1 10 0.16 0.5
-4 1 10 5.51 0.85
-4 1 10 4.99 0.98
-3 1 10 2.11 0.7
-3 1 10 2.36 0.78
-3 1 10 1.11 0.47
-3 1 10 2.5 0.78
-2 1 10 52.47 2.32
-2 1 10 55.57 2.21
-2 1 10 54.54 2.37
-2 1 10 54.01 2.32
1 -1 -10 1.28 0.52
-1 1 10 1.74 0.76
-1 1 10 0.73 0.6
-1 1 10 1.23 0.64
0 -1 -10 6.98 0.8
0 1 10 6.23 0.74
0 1 10 6.99 0.78
-1 -1 -10 12.96 1.11
1 1 10 13.75 0.99
1 1 10 12.14 0.97
-2 -1 -10 -0.04 0.59
2 1 10 0.19 0.42
-3 -1 -10 2.36 0.81
3 1 10 2.73 0.44
-4 -1 -10 1.2 0.81
-5 -1 -10 2.04 1.12
-6 -1 -10 1.24 1.21
-7 2 10 18.78 2.21
-7 2 10 14.57 1.45
-6 2 10 8.27 1.13
-6 2 10 6.69 1.32
-5 2 10 1.44 0.97
-5 2 10 0.94 0.95
-5 2 10 0.12 0.61
-4 2 10 3.46 0.91
-4 2 10 4.25 0.96
-4 2 10 2.39 0.63
-3 2 10 37.55 1.97
-3 2 10 34.33 1.71
-3 2 10 37.77 1.96
-2 2 10 80.85 3.06
-2 2 10 80.96 3.15
-2 2 10 77.07 3.14
-1 2 10 53.75 2.27
-1 2 10 50.64 2.25
0 -2 -10 21.89 1.34
0 -2 -10 24.07 1.48
0 2 10 23.2 1.45
-1 -2 -10 12.45 1.05
-1 -2 -10 13.42 1.23
1 2 10 11.61 1.09
-2 -2 -10 25.44 1.54
-2 -2 -10 24.19 1.34
2 2 10 23.61 1.32
-3 -2 -10 15.27 1.45
-3 -2 -10 13.1 1.03
-4 -2 -10 8.19 1.27
-5 -2 -10 2.78 1.26
-7 3 10 -0.98 1.4
-7 3 10 -0.59 0.98
-6 3 10 0.64 0.79
-6 3 10 1.71 1.04
-5 3 10 3.7 0.81
-5 3 10 3.73 1.17
-4 3 10 42.93 2.3
-4 3 10 39.13 1.95
-3 3 10 16.16 1.23
-2 3 10 3.58 0.77
1 -3 -10 1.72 0.74
-1 3 10 1.78 0.89
-1 3 10 1.15 0.69
0 -3 -10 23.47 1.55
0 3 10 28.53 1.6
0 3 10 22.97 1.69
-1 -3 -10 19.71 1.41
-1 -3 -10 19.75 1.37
1 3 10 17.27 1.52
-2 -3 -10 16.57 1.25
-2 -3 -10 13.64 1.37
-3 -3 -10 11.61 1.54
-3 -3 -10 13.76 1.26
-4 -3 -10 13.5 1.58
-7 4 10 0.63 1.37
-7 4 10 -0.56 1.07
-6 4 10 -1.36 1.09
-6 4 10 0.11 0.9
-5 4 10 14.74 1.93
-5 4 10 16.16 1.46
-4 4 10 13.97 1.32
3 -4 -10 6.94 1.07
-3 4 10 9.47 1.17
2 -4 -10 3.29 0.93
-2 4 10 1.76 0.81
1 -4 -10 4.42 0.92
-1 4 10 5.74 0.95
0 -4 -10 6.63 1.03
0 4 10 8.13 1.12
-1 -4 -10 3.26 0.8
1 4 10 1.9 0.9
-2 -4 -10 0.76 0.81
2 4 10 2.28 0.99
-3 -4 -10 -0.53 1.06
-6 5 10 11.99 1.66
-6 5 10 11.25 1.42
-5 5 10 12.13 1.35
4 -5 -10 4.11 1.31
-4 5 10 5.67 1.1
3 -5 -10 6.81 1.18
-3 5 10 6.37 1.1
2 -5 -10 30.24 2.08
-2 5 10 26.75 1.86
1 -5 -10 14.27 1.71
-1 5 10 10.46 1.31
0 -5 -10 12.72 1.6
0 5 10 11.13 1.5
-1 -5 -10 8.94 1.24
1 5 10 7.76 1.2
-2 -5 -10 8.87 1.3
2 5 10 9.59 1.47
4 -6 -10 -1.13 1.18
-4 6 10 -0.48 1.07
3 -6 -10 -1.01 1.25
-3 6 10 -1.56 1.04
2 -6 -10 -0.96 1.15
-2 6 10 0.18 0.88
1 -6 -10 1.38 1.2
-1 6 10 -0.75 1.02
0 -6 -10 1.61 1.14
0 6 10 -2.56 1.04
-1 -8 11 5.53 1.44
0 -8 11 0.59 1.16
-1 8 -11 7.63 1.22
1 -8 11 7.25 1.25
-2 8 -11 6.56 1.25
2 -8 11 6.24 1.19
-3 8 -11 1.87 1.25
-3 -7 11 6.25 1.44
-2 -7 11 3.71 1.17
-1 -7 11 3.07 1.1
0 7 -11 2.64 0.77
0 -7 11 3.1 1.03
-1 7 -11 1.1 0.83
1 -7 11 -1.08 0.8
-2 7 -11 2.8 0.94
2 -7 11 2.09 0.84
-3 7 -11 2.12 1.01
-4 7 -11 4.07 1.24
-4 -6 11 7.49 1.52
-3 -6 11 6 1.19
-2 -6 11 0.17 0.98
1 6 -11 24.87 1.34
-1 -6 11 23.78 1.67
0 6 -11 15.82 1.21
0 -6 11 15.95 1.36
-1 6 -11 1.09 0.71
1 -6 11 0.46 0.67
-2 6 -11 4.1 0.87
2 -6 11 2.46 0.69
-3 6 -11 0.65 0.9
-4 6 -11 7.56 1.32
-5 6 -11 1.88 1.3
-5 -5 11 5.81 1.32
-4 -5 11 4.31 1.15
-3 -5 11 21.06 1.62
2 5 -11 11.51 0.8
-2 -5 11 13.59 1.44
1 5 -11 7.81 0.85
-1 -5 11 8.85 1.15
-1 -5 11 7.76 1.06
0 5 -11 32.32 1.52
0 5 -11 25.72 1.76
0 -5 11 28.38 1.7
0 -5 11 29.35 1.58
-1 5 -11 15.41 1.21
-1 5 -11 11.41 1.3
1 -5 11 16.07 1.09
1 -5 11 12.38 1.45
-2 5 -11 26.2 1.63
2 -5 11 24.86 1.25
-3 5 -11 7.12 1.11
-4 5 -11 -0.56 0.79
-5 5 -11 1.78 1.22
-6 5 -11 4.75 1.34
-6 -4 11 4.8 1.52
-5 -4 11 1.01 1.02
-4 -4 11 0.48 0.98
-3 -4 11 9.76 1.33
2 4 -11 1.25 0.42
-2 -4 11 1.54 0.7
-2 -4 11 0.36 0.51
1 4 -11 4.02 0.92
1 4 -11 4.06 0.59
-1 -4 11 4.15 0.75
-1 -4 11 4.56 0.74
0 4 -11 0.08 0.72
0 4 -11 1.67 0.53
0 -4 11 1.22 0.76
0 -4 11 1.6 0.59
-1 4 -11 0.42 0.63
-1 4 -11 -0.14 0.55
1 -4 11 -0.56 0.83
1 -4 11 -0.03 0.44
-2 4 -11 8.25 1.06
2 -4 11 6.87 0.63
-3 4 -11 3.69 0.83
-4 4 -11 6.89 1.13
-5 4 -11 2.53 1.11
-6 4 -11 -0.26 1.24
-6 -3 11 3.73 1.37
-5 -3 11 17.61 1.81
-4 -3 11 7.64 1.14
-3 -3 11 9.46 0.61
-3 -3 11 7.53 0.65
-3 -3 11 8.65 1.03
2 3 -11 38.82 2.09
2 3 -11 41.83 1.61
-2 -3 11 39.42 1.74
-2 -3 11 40.57 1.91
1 3 -11 17.48 1.03
1 3 -11 16.2 1.34
-1 -3 11 14.92 1.24
-1 -3 11 18.08 1.16
0 3 -11 29.53 1.51
0 -3 11 32.05 1.42
0 -3 11 29.45 1.74
-1 3 -11 0.39 0.52
1 -3 11 0.07 0.38
1 -3 11 0.07 0.5
1 -3 11 0.43 0.86
-2 3 -11 -0.48 0.58
-3 3 -11 11.62 1.31
-4 3 -11 20.89 1.61
-5 3 -11 10.76 1.35
-6 3 -11 0.57 1.14
-7 -2 11 -0.99 1.17
-6 -2 11 -0.13 0.92
-5 -2 11 -0.25 0.79
-4 -2 11 4.13 0.47
-4 -2 11 4.02 0.47
-4 -2 11 3.45 0.85
-3 -2 11 15.95 0.86
-3 -2 11 13.28 1.26
-3 -2 11 15.36 1.05
2 2 -11 12.57 0.84
-2 -2 11 13.46 1.12
-2 -2 11 12.57 1.08
1 2 -11 5.34 0.74
-1 -2 11 3.82 0.63
-1 -2 11 5.56 0.83
-1 -2 11 5.1 0.91
0 2 -11 1.44 0.54
0 -2 11 1.01 0.47
0 -2 11 1.15 0.63
0 -2 11 1.72 0.79
-1 2 -11 31.64 1.63
1 -2 11 33.47 1.36
1 -2 11 34.58 1.31
1 -2 11 31.36 1.79
-2 2 -11 32.88 1.76
-3 2 -11 19.55 1.43
-4 2 -11 0.65 0.87
-5 2 -11 2.37 0.98
-6 2 -11 3.16 1.22
-7 -1 11 5.59 1.25
-6 -1 11 1.85 1.02
-5 -1 11 2.78 0.46
-5 -1 11 2.81 1.02
-4 -1 11 16.56 0.97
-4 -1 11 15.89 1.17
-4 -1 11 15.68 1.5
-3 -1 11 12.78 1.28
-3 -1 11 12.6 1.14
-3 -1 11 14.06 0.9
2 1 -11 9.57 0.85
-2 -1 11 10.84 1.05
-2 -1 11 9.07 1.11
-2 -1 11 8.89 1.09
1 1 -11 3.56 0.62
-1 -1 11 2.83 0.8
-1 -1 11 2.19 0.59
-1 -1 11 3.29 0.8
0 1 -11 -0.37 0.45
0 -1 11 -0.34 0.55
0 -1 11 0.97 0.72
0 -1 11 -0.13 0.45
-1 1 -11 2.6 0.68
1 -1 11 2.01 0.41
1 -1 11 3.36 0.49
-2 1 -11 17.82 1.28
-3 1 -11 10.12 1.13
-4 1 -11 0.06 0.81
-5 1 -11 1.17 1.07
-6 1 -11 1.33 1.15
-7 0 11 0.52 1.3
-6 0 11 6.92 1.22
-5 0 11 13.74 1.61
-5 0 11 13.5 0.99
-4 0 11 17.64 1.37
-4 0 11 14.88 1.53
-4 0 11 14.52 0.99
-3 0 11 2.9 0.85
-3 0 11 2.68 0.58
-3 0 11 3.06 0.78
-2 0 11 5.21 0.97
-2 0 11 7.55 0.81
-2 0 11 6.91 0.91
-2 0 11 5.48 0.91
1 0 -11 56.01 2.3
-1 0 11 53.35 2.31
-1 0 11 56.41 2.46
-1 0 11 54.03 2.29
0 0 -11 58.69 2.39
0 0 11 54.64 2.22
0 0 11 55.54 2.22
-1 0 -11 55.03 2.34
1 0 11 57.14 2
1 0 11 45.12 1.92
-2 0 -11 16.11 1.26
2 0 11 17.86 0.79
-3 0 -11 28.24 1.73
-4 0 -11 21.55 1.64
-5 0 -11 13.14 1.78
-6 0 -11 4.3 1.3
-7 1 11 -0.67 1.08
-6 1 11 1.62 0.76
-6 1 11 0.34 0.96
-5 1 11 6.45 1.21
-5 1 11 7.23 0.94
-4 1 11 0.11 0.86
-4 1 11 -0.23 0.52
-4 1 11 -0.95 0.89
-3 1 11 2 0.83
-3 1 11 1.77 0.88
-3 1 11 2.53 0.63
-2 1 11 -0.05 0.85
-2 1 11 1.49 0.82
-2 1 11 -0.38 0.53
-2 1 11 0.54 0.69
1 -1 -11 8.35 1.01
-1 1 11 10.07 1.08
-1 1 11 9.71 1.27
0 -1 -11 0.55 0.6
0 1 11 -0.83 0.62
0 1 11 -0.08 0.6
-1 -1 -11 3.81 0.82
1 1 11 3.35 0.67
1 1 11 2.43 0.65
-2 -1 -11 8.69 1.09
2 1 11 7.15 0.81
2 1 11 6.59 0.73
-3 -1 -11 1.8 0.77
-4 -1 -11 0.91 0.89
-5 -1 -11 5.64 1.2
-7 2 11 8.82 1.66
-6 2 11 10.19 1.41
-6 2 11 11.04 1.31
-5 2 11 0.31 0.71
-5 2 11 1.7 1.16
-4 2 11 18.85 1.54
-4 2 11 14.81 1.23
-3 2 11 20.33 1.41
-2 2 11 25.14 1.69
-2 2 11 28.81 1.57
-1 2 11 21.52 1.58
-1 2 11 21.3 1.37
-1 2 11 18.9 1.65
0 -2 -11 10.02 1.1
0 2 11 10.87 1.31
-1 -2 -11 20.32 1.43
1 2 11 19.33 1.44
-2 -2 -11 13.41 1.18
-2 -2 -11 15.94 1.35
-3 -2 -11 5.47 1.02
-4 -2 -11 6.29 1.29
-7 3 11 -0.22 1.09
-7 3 11 -0.21 1.39
-6 3 11 2.64 0.99
-6 3 11 3.49 1.47
-5 3 11 4.01 1.28
-5 3 11 3.08 0.86
-4 3 11 0.64 1.06
-4 3 11 2.12 0.8
-3 3 11 18.28 1.73
-3 3 11 17.62 1.41
-2 3 11 5.97 0.96
-1 3 11 10.62 1.16
0 -3 -11 14.59 1.42
0 3 11 13.04 1.46
0 3 11 19.1 1.49
-1 -3 -11 8.33 1.17
-1 -3 -11 8.28 0.97
-2 -3 -11 7.08 0.99
-2 -3 -11 6.15 1.17
-3 -3 -11 6.47 1.25
-4 -3 -11 -0.01 1.14
-6 4 11 7.22 1.27
-6 4 11 5.3 1.63
-5 4 11 5.31 1.43
-5 4 11 6.34 1.09
-4 4 11 6.97 1.08
-4 4 11 7.28 1.28
-3 4 11 2.56 0.89
2 -4 -11 -0.14 0.87
-2 4 11 -1.03 0.86
1 -4 -11 4.62 1.03
-1 4 11 4.31 1.04
0 -4 -11 2.71 0.97
0 4 11 2.19 0.97
-1 -4 -11 0.67 0.92
1 4 11 1.74 0.92
2 4 11 12.4 1.7
-5 5 11 11.1 1.86
-5 5 11 11.94 1.69
-4 5 11 4.53 1.14
3 -5 -11 2.16 1.2
-3 5 11 3.67 1.09
2 -5 -11 6.35 1.3
-2 5 11 6.63 1.09
1 -5 -11 8.41 1.39
-1 5 11 6.13 1.14
0 -5 -11 8.18 1.32
0 5 11 9.91 1.42
-1 -5 -11 7.71 1.35
1 5 11 3.9 1.19
-2 -7 12 1 1.25
-1 -7 12 3.7 1.18
0 -7 12 1.53 1.07
-1 7 -12 1.83 0.95
1 -7 12 2.17 0.99
-2 7 -12 6.55 1.22
-3 7 -12 6.28 1.32
-3 -6 12 8.86 1.43
-2 -6 12 2.38 1.14
-1 -6 12 2.75 0.94
0 6 -12 3.77 0.79
0 -6 12 3.6 0.92
-1 6 -12 0.54 0.72
1 -6 12 0.28 0.75
-2 6 -12 1.93 0.91
-3 6 -12 4.78 1.17
-4 6 -12 0.18 1.2
-4 -5 12 3.14 1.38
-3 -5 12 8.13 1.28
-2 -5 12 2.85 0.96
1 5 -12 8.61 1.01
-1 -5 12 11.57 1.25
0 5 -12 14.87 1.21
0 -5 12 11.26 1.44
0 -5 12 15.54 1.27
-1 5 -12 17.69 1.41
1 -5 12 18.77 1.24
-2 5 -12 2.76 0.81
-3 5 -12 0.04 0.84
-4 5 -12 2.64 1.13
-5 5 -12 4.27 1.28
-5 -4 12 4.01 1.24
-4 -4 12 1.11 1.04
-3 -4 12 0.39 0.85
2 4 -12 2.5 0.52
-2 -4 12 2.44 0.82
1 4 -12 1.05 0.56
1 4 -12 0.83 0.88
-1 -4 12 1.44 0.8
-1 -4 12 1.44 0.73
0 4 -12 0.91 0.81
0 4 -12 0.99 0.6
0 -4 12 0.36 0.93
0 -4 12 0.14 0.57
-1 4 -12 5.78 0.85
1 -4 12 4.51 0.62
-2 4 -12 -0.24 0.7
-3 4 -12 0.37 0.9
-4 4 -12 5.48 1.21
-5 4 -12 3.09 1.24
-6 -3 12 2.69 1.28
-5 -3 12 6.45 1.19
-4 -3 12 10.69 1.5
-3 -3 12 8.6 1.09
-3 -3 12 10.59 0.76
2 3 -12 17.94 1.06
-2 -3 12 16.25 1.32
-2 -3 12 16.37 1.35
1 3 -12 19.55 1.2
-1 -3 12 23.9 1.38
-1 -3 12 18.94 1.52
0 3 -12 1.51 0.62
0 -3 12 2.44 0.93
0 -3 12 2.4 0.6
0 -3 12 2.92 0.86
-1 3 -12 5.81 0.85
1 -3 12 4.13 0.67
1 -3 12 5.82 0.72
-2 3 -12 5.67 0.92
-3 3 -12 4.53 0.99
-4 3 -12 11.18 1.47
-5 3 -12 7.67 1.43
-6 -2 12 -0.3 1.22
-5 -2 12 1.31 1.09
-4 -2 12 -0.69 0.86
-3 -2 12 11.8 1.26
-3 -2 12 12.18 0.9
-3 -2 12 7.72 1.05
2 2 -12 7.49 0.87
-2 -2 12 6.68 0.93
-2 -2 12 9.26 1.23
-2 -2 12 6.6 1.26
1 2 -12 0.39 0.52
-1 -2 12 0.33 0.86
-1 -2 12 1.32 0.85
-1 -2 12 -0.06 0.53
0 2 -12 4.18 0.75
0 -2 12 4.95 0.66
0 -2 12 5.68 1.04
0 -2 12 3.17 0.77
-1 2 -12 7.33 0.93
1 -2 12 7.15 0.83
1 -2 12 7.97 0.71
-2 2 -12 23.08 1.56
-3 2 -12 26.98 1.85
-4 2 -12 12.08 1.47
-5 2 -12 15.92 1.98
-6 -1 12 6.14 1.4
-5 -1 12 3.17 1.15
-4 -1 12 5.96 1.12
-4 -1 12 5.36 0.66
-3 -1 12 12.78 1.37
-3 -1 12 14.27 1.03
-3 -1 12 12 1.35
-2 -1 12 -0.19 1.01
-2 -1 12 1.13 0.71
-2 -1 12 1.75 0.84
1 1 -12 12.43 1.05
-1 -1 12 12.66 1.09
-1 -1 12 12.17 1.34
-1 -1 12 13.02 1.4
0 1 -12 4.98 0.76
0 -1 12 4.15 0.76
0 -1 12 2.75 0.6
-1 1 -12 -1.15 0.63
1 -1 12 -0.34 0.39
-2 1 -12 1.38 0.79
-3 1 -12 -0.23 0.82
-4 1 -12 -2.01 0.8
-5 1 -12 -1.9 1.17
-7 0 12 2.33 1.39
-6 0 12 6.21 1.39
-5 0 12 17.36 1.87
-5 0 12 18.82 1.25
-4 0 12 19.98 1.22
-4 0 12 20.25 1.76
-3 0 12 9.77 1.37
-3 0 12 11.85 1.06
-3 0 12 10.49 1.44
-2 0 12 13.17 1.59
-2 0 12 14.17 1.35
-2 0 12 17.39 1.18
-2 0 12 14.94 1.66
1 0 -12 23.66 1.51
-1 0 12 26.64 1.68
-1 0 12 24.05 1.52
0 0 -12 39.34 1.93
0 0 12 37.2 1.75
0 0 12 38.26 1.85
-1 0 -12 28.45 1.69
1 0 12 24.45 1.29
1 0 12 28.82 1.36
-2 0 -12 9.76 1.32
-3 0 -12 10.3 1.32
-4 0 -12 7.43 1.37
-5 0 -12 2.82 1.36
-6 1 12 -1.22 1.29
-5 1 12 -0.9 1.12
-5 1 12 -0.65 0.67
-4 1 12 1.19 1
-4 1 12 1.42 1.03
-4 1 12 0.82 0.68
-3 1 12 0.54 0.63
-3 1 12 1.77 0.95
-2 1 12 -0.68 0.62
-2 1 12 -0.21 0.83
-1 1 12 4.29 0.91
-1 1 12 4.13 0.82
-1 1 12 3.53 1
0 -1 -12 -1.14 0.67
0 1 12 1.61 0.74
0 1 12 0.17 0.84
-1 -1 -12 0.45 0.72
1 1 12 1.36 0.67
-2 -1 -12 1.81 0.92
-3 -1 -12 2.11 1.02
-4 -1 -12 2.42 1.14
-6 2 12 7.88 1.4
-6 2 12 7.11 1.11
-5 2 12 9.14 1.42
-5 2 12 8.5 1.03
-4 2 12 13.08 1.74
-4 2 12 10.51 1.25
-3 2 12 19.15 1.5
-3 2 12 24.75 1.84
-2 2 12 31.3 2.03
-2 2 12 32.75 1.83
-1 2 12 14.34 1.25
-1 2 12 13.05 1.51
0 -2 -12 7.04 1.06
0 2 12 6.54 1.03
0 2 12 6.2 1.14
-1 -2 -12 6.13 1.01
1 2 12 6.1 0.97
-2 -2 -12 7.77 1.13
-3 -2 -12 10.48 1.31
-6 3 12 2.85 1.73
-6 3 12 1.88 1.07
-5 3 12 2.5 0.99
-5 3 12 4.72 1.28
-4 3 12 5.8 1
-4 3 12 4.98 1.36
-3 3 12 9 1.16
-3 3 12 9.45 1.41
-2 3 12 2.74 1.16
-2 3 12 3.49 0.93
-1 3 12 1.18 0.91
0 3 12 3.62 1.01
-1 -3 -12 5.42 1.08
1 3 12 5.97 1.2
-2 -3 -12 4.96 1.1
-5 4 12 5.41 1.66
-5 4 12 2.58 1.14
-4 4 12 6.42 1.19
-4 4 12 5.44 1.52
-3 4 12 2.42 0.99
-3 4 12 3.59 1.17
-2 4 12 0.42 1.1
1 -4 -12 1.22 1.06
-1 4 12 2.84 0.96
0 -4 -12 0.48 1.07
0 4 12 2.87 1.15
-1 -4 -12 3.11 1.28
1 4 12 3.43 1.09
2 -5 -12 5.29 1.42
-2 5 12 5.07 1.21
0 -7 13 1.14 1.15
-2 -6 13 0.75 1.22
-1 -6 13 2.67 1.03
0 6 -13 4.72 1.07
0 -6 13 3.49 1.04
-1 6 -13 -0.44 0.84
-2 6 -13 0.57 0.98
-3 6 -13 2.76 1.12
-4 -5 13 4.61 1.45
-3 -5 13 9.35 1.37
-2 -5 13 4.95 1.17
-1 -5 13 5.78 1.01
0 5 -13 11.54 1.28
0 -5 13 8.69 1.02
-1 5 -13 15.26 1.5
-2 5 -13 5.83 1.05
-3 5 -13 3.7 1.06
-4 5 -13 3.68 1.27
-4 -4 13 0.46 1.01
-3 -4 13 0.44 0.98
-2 -4 13 1.5 0.94
1 4 -13 2.09 0.69
-1 -4 13 3.3 0.85
0 -4 13 4.32 0.8
-1 4 -13 1.54 0.75
1 -4 13 -0.35 0.58
-2 4 -13 0.7 0.82
-3 4 -13 -1.15 0.93
-4 4 -13 3.83 1.28
-5 -3 13 2.19 1.31
-4 -3 13 8.05 1.31
-3 -3 13 4.66 1.07
2 3 -13 12.04 1.02
-2 -3 13 11.52 1.37
1 3 -13 24.12 1.41
-1 -3 13 19.37 1.73
-1 -3 13 24.73 1.96
-1 -3 13 26.15 1.54
0 3 -13 10.99 1.12
0 -3 13 8.94 1.07
-1 3 -13 8.13 1.03
1 -3 13 9.19 0.85
-2 3 -13 5.31 1
-3 3 -13 10.09 1.36
-4 3 -13 5.14 1.29
-5 3 -13 5.3 1.24
-6 -2 13 -1.45 1.21
-5 -2 13 3.43 1.3
-4 -2 13 2.9 1.09
-3 -2 13 14.07 1.5
-3 -2 13 16.64 1.14
2 2 -13 16.06 1.15
-2 -2 13 13.81 1.3
1 2 -13 5.78 0.81
-1 -2 13 4.35 0.8
-1 -2 13 3.07 1.07
-1 -2 13 7.21 1.2
0 2 -13 6.23 0.9
0 -2 13 6.1 0.75
-1 2 -13 17.08 1.39
1 -2 13 18.04 0.99
-2 2 -13 16.58 1.55
-3 2 -13 7.22 1.24
-4 2 -13 5.01 1.11
-5 2 -13 1.62 1.24
-6 -1 13 1.07 1.38
-5 -1 13 -0.37 1.14
-4 -1 13 4.11 1.15
-4 -1 13 3.01 0.67
-3 -1 13 6.51 1.11
-3 -1 13 6.94 0.99
-2 -1 13 1.28 0.68
-2 -1 13 -0.17 0.72
-2 -1 13 1.21 1
1 1 -13 1.93 0.69
-1 -1 13 0.87 0.98
-1 -1 13 2.37 0.78
0 1 -13 3.04 0.81
0 -1 13 1.77 0.63
-1 1 -13 2.46 0.84
1 -1 13 2.36 0.51
-3 1 -13 3.35 1.09
-4 1 -13 1.61 1.16
-6 0 13 5.77 1.5
-5 0 13 9.92 1.38
-4 0 13 8.1 1.34
-4 0 13 8.02 1.12
-3 0 13 7.11 1.21
-3 0 13 10.67 1.17
-2 0 13 12.07 1.25
-2 0 13 9.6 1.23
1 0 -13 37.12 1.88
-1 0 13 31.69 2
-1 0 13 31.17 1.85
0 0 -13 24.29 1.65
0 0 13 24.18 1.51
-1 0 -13 17.35 1.49
1 0 13 13.58 1.07
-2 0 -13 7.72 1.2
-3 0 -13 1.68 1.08
-4 0 -13 5.85 1.4
-6 1 13 -0.37 1.41
-5 1 13 0.46 1.1
-5 1 13 -0.45 0.83
-4 1 13 1.25 1.18
-4 1 13 1.06 0.78
-3 1 13 1.39 1.09
-3 1 13 0.25 0.83
-2 1 13 -0.03 0.78
-2 1 13 0.28 0.96
-1 1 13 0.97 0.88
-1 1 13 1.76 0.81
0 -1 -13 1.41 0.87
0 1 13 1.25 0.88
-1 -1 -13 0.25 0.9
-2 -1 -13 1.98 1.06
-3 -1 -13 2 1.15
-5 2 13 6.2 1.03
-5 2 13 6.89 1.58
-4 2 13 6.24 1
-4 2 13 5.52 1.38
-3 2 13 11.95 1.31
-3 2 13 17.15 1.94
-2 2 13 13.4 1.59
-2 2 13 13.41 1.68
-1 2 13 7.08 1.25
-1 2 13 9.38 1.22
0 2 13 6.48 1.04
0 2 13 3.92 1.1
-1 -2 -13 5.44 1.07
-2 -2 -13 4.64 1.15
-4 3 13 0.12 0.98
-4 3 13 3.82 1.34
-3 3 13 3.25 1.09
-3 3 13 4.32 1.39
-2 3 13 7.47 1.21
-2 3 13 6.53 1.38
-1 3 13 0.26 1.11
-1 3 13 1.15 1.07
0 3 13 5.33 1.07
0 3 13 2.96 1.19
1 3 13 8.4 1.36
-3 4 13 0.34 0.95
-2 4 13 -1.37 1.37
-2 4 13 -2.24 0.97
-1 4 13 1.84 1.2
-1 6 -14 0.7 1.07
-2 -5 14 4.05 1.24
-1 -5 14 4.21 1.08
0 5 -14 10.2 1.39
-1 5 -14 13.6 1.65
-2 5 -14 5.01 1.2
-3 5 -14 4.57 1.34
-3 -4 14 1.18 1.15
-2 -4 14 1.79 1.08
1 4 -14 1.19 0.78
-1 -4 14 2.44 0.89
0 4 -14 3.55 0.88
-1 4 -14 1.22 0.9
-2 4 -14 1.27 1.01
-3 4 -14 5.06 1.25
-4 -3 14 3.65 1.32
-3 -3 14 3.03 1.17
-2 -3 14 12.28 1.6
1 3 -14 4.3 0.85
-1 -3 14 2.98 0.88
0 3 -14 3.53 0.89
0 -3 14 3.87 0.82
-1 3 -14 3.44 0.96
-2 3 -14 6.57 1.2
-3 3 -14 2.79 1.18
-5 -2 14 -0.84 1.27
-4 -2 14 0.13 1.17
-3 -2 14 -0.8 1.04
-2 -2 14 7.15 1.1
1 2 -14 6.73 0.97
-1 -2 14 5.68 0.93
0 2 -14 4.31 0.9
0 -2 14 4.51 0.79
-1 2 -14 7.63 1.11
-2 2 -14 6.86 1.25
-3 2 -14 6.41 1.24
-5 -1 14 4.03 1.49
-4 -1 14 1.59 1.22
-3 -1 14 1.79 1.05
-3 -1 14 1.97 0.8
-2 -1 14 3.78 0.85
-2 -1 14 2.3 0.94
1 1 -14 0.04 0.84
-1 -1 14 0.51 0.76
0 1 -14 4.72 0.96
0 -1 14 4.08 0.79
-1 1 -14 1.81 0.92
-2 1 -14 0.79 0.98
-3 1 -14 -1.87 1.08
-5 0 14 4.44 1.48
-4 0 14 13.27 1.32
-4 0 14 12.92 1.61
-3 0 14 6.43 1.28
-3 0 14 8.49 1.1
-2 0 14 4.61 1
-2 0 14 3.11 1.05
1 0 -14 6.51 1.08
-1 0 14 5.61 1.05
0 0 -14 9.6 1.2
0 0 14 8.76 1.17
-1 0 -14 3.89 1.06
-2 0 -14 4.41 1.25
-3 0 -14 6.04 1.32
-4 1 14 1.11 0.93
-4 1 14 -1.19 1.28
-3 1 14 -2.19 1.13
-3 1 14 -2.42 0.92
-2 1 14 0.86 1.19
-2 1 14 1.52 0.93
-1 1 14 0.44 1.01
0 -1 -14 1.36 0.98
-1 -1 -14 0.5 1.03
-2 -1 -14 -1.33 0.99
-4 2 14 3.46 1.49
-4 2 14 5.05 1.16
-3 2 14 2.37 1.08
-3 2 14 4.3 1.49
-2 2 14 3.04 1.06
-2 2 14 2.18 1.4
-1 2 14 -0.19 1.05
-1 2 14 0.44 1.17
0 2 14 5.2 1.19
-1 -2 -14 1.8 1.15
-2 -4 15 -0.61 1.17
0 4 -15 1.34 1.02
-1 4 -15 1.33 1.08
-3 -3 15 4.36 1.29
-2 -3 15 4.58 1.16
1 3 -15 12.6 1.49
0 3 -15 7.21 1.1
-1 3 -15 -0.13 1.01
-2 3 -15 4.73 1.28
-3 -2 15 4.65 1.28
-2 -2 15 5.62 1.16
1 2 -15 2.65 0.98
0 2 -15 1.83 0.98
-1 2 -15 3.87 1.03
-2 2 -15 -1.36 1.07
-3 -1 15 4.16 1.36
-2 -1 15 -1 1.03
-2 -1 15 1.39 1.03
1 1 -15 1.4 1.03
0 1 -15 6.08 1.17
-1 1 -15 3.48 1.15
-2 1 -15 2.74 1.19
-3 0 15 3.28 1.4
-3 0 15 4.73 1.14
-2 0 15 3.94 1.24
-2 0 15 4.48 1.12
-1 0 15 7.6 1.26
0 0 -15 -0.05 1.11
-1 0 -15 1.89 1.18
-2 1 15 1.36 1.31
-2 1 15 5.96 1.24
-1 1 15 1.11 1.16
0 -1 -15 1.99 1.26

_cod_database_fobs_code 2021668
