#------------------------------------------------------------------------------
#$Date: 2019-12-26 21:49:16 +0200 (Thu, 26 Dec 2019) $
#$Revision: 246120 $
#$URL: file:///home/coder/svn-repositories/cod/cif/2/02/19/2021922.cif $
#------------------------------------------------------------------------------
#
# This file is available in the Crystallography Open Database (COD),
# http://www.crystallography.net/. The original data for this entry
# were provided by IUCr Journals, http://journals.iucr.org/.
#
# The file may be used within the scientific community so long as
# proper attribution is given to the journal article from which the
# data were obtained.
#
data_2021922
loop_
_publ_author_name
'Shukla, Rahul'
'Ruzi\'e, Christian'
'Schweicher, Guillaume'
'Kennedy, Alan R.'
'Geerts, Yves H.'
'Chopra, Deepak'
'Chattopadhyay, Basab'
_publ_section_title
;
 Insight from electron density and energy framework analysis on the
 structural features of F&#x000D; x&#x000D; -TCNQ (x = 0, 2, 4) family of
 molecules
;
_journal_coeditor_code           AW5018SUP1
_journal_issue                   1
_journal_name_full
'Acta Crystallographica Section B Structural Science, Crystal Engineering and Materials'
_journal_page_first              71
_journal_paper_doi               10.1107/S2052520618017109
_journal_volume                  75
_journal_year                    2019
_chemical_formula_moiety         'C12 F4 N4'
_chemical_formula_sum            'C12 F4 N4'
_chemical_formula_weight         276.16
_space_group_crystal_system      orthorhombic
_space_group_IT_number           61
_space_group_name_Hall           '-P 2ac 2ab'
_space_group_name_H-M_alt        'P b c a'
_audit_creation_method           SHELXL-2014/7
_cell_angle_alpha                90
_cell_angle_beta                 90
_cell_angle_gamma                90
_cell_formula_units_Z            4
_cell_length_a                   9.1905(18)
_cell_length_b                   8.0558(17)
_cell_length_c                   14.564(3)
_cell_measurement_reflns_used    4348
_cell_measurement_temperature    100(2)
_cell_measurement_theta_max      29.78
_cell_measurement_theta_min      2.80
_cell_volume                     1078.3(4)
_computing_structure_refinement  'SHELXL-2014/7 (Sheldrick, 2014)'
_diffrn_ambient_temperature      100(2)
_diffrn_measured_fraction_theta_full 1.000
_diffrn_measured_fraction_theta_max 1.000
_diffrn_measurement_device_type  'Bruker APEX-II CCD'
_diffrn_measurement_method       '\f and \w scans'
_diffrn_radiation_type           MoK\a
_diffrn_radiation_wavelength     0.71073
_diffrn_reflns_av_R_equivalents  0.1815
_diffrn_reflns_av_unetI/netI     0.0825
_diffrn_reflns_Laue_measured_fraction_full 1.000
_diffrn_reflns_Laue_measured_fraction_max 1.000
_diffrn_reflns_limit_h_max       13
_diffrn_reflns_limit_h_min       -13
_diffrn_reflns_limit_k_max       11
_diffrn_reflns_limit_k_min       -11
_diffrn_reflns_limit_l_max       20
_diffrn_reflns_limit_l_min       -20
_diffrn_reflns_number            24791
_diffrn_reflns_point_group_measured_fraction_full 1.000
_diffrn_reflns_point_group_measured_fraction_max 1.000
_diffrn_reflns_theta_full        25.242
_diffrn_reflns_theta_max         30.570
_diffrn_reflns_theta_min         2.797
_exptl_absorpt_coefficient_mu    0.157
_exptl_absorpt_correction_type   none
_exptl_crystal_colour            yellow
_exptl_crystal_density_diffrn    1.701
_exptl_crystal_description       block
_exptl_crystal_F_000             544
_exptl_crystal_size_max          0.33
_exptl_crystal_size_mid          0.12
_exptl_crystal_size_min          0.11
_exptl_transmission_factor_max   0.7461
_exptl_transmission_factor_min   0.5622
_refine_diff_density_max         0.358
_refine_diff_density_min         -0.372
_refine_diff_density_rms         0.081
_refine_ls_extinction_method     none
_refine_ls_goodness_of_fit_ref   1.119
_refine_ls_hydrogen_treatment    undef
_refine_ls_matrix_type           full
_refine_ls_number_parameters     91
_refine_ls_number_reflns         1658
_refine_ls_number_restraints     0
_refine_ls_restrained_S_all      1.119
_refine_ls_R_factor_all          0.1403
_refine_ls_R_factor_gt           0.0708
_refine_ls_shift/su_max          0.000
_refine_ls_shift/su_mean         0.000
_refine_ls_structure_factor_coef Fsqd
_refine_ls_weighting_details
'w=1/[\s^2^(Fo^2^)+(0.0424P)^2^+0.8314P] where P=(Fo^2^+2Fc^2^)/3'
_refine_ls_weighting_scheme      calc
_refine_ls_wR_factor_gt          0.1147
_refine_ls_wR_factor_ref         0.1330
_reflns_Friedel_coverage         0.000
_reflns_number_gt                1024
_reflns_number_total             1658
_reflns_threshold_expression     'I > 2\s(I)'
_cod_data_source_file            aw5018sup1.cif
_cod_data_source_block           F4-TCNQ
_cod_database_code               2021922
_shelx_shelxl_version_number     2014/7
_shelx_space_group_comment
;
The symmetry employed for this shelxl refinement is uniquely defined
by the following loop, which should always be used as a source of
symmetry information in preference to the above space-group names.
They are only intended as comments.
;
_shelx_res_file
;

    shelx.res created by SHELXL-2014/7


TITL TRY2F in Pbca
CELL 0.71073 9.1905 8.0558 14.5643 90.000 90.000 90.000
ZERR 4.00 0.0018 0.0017 0.0028 0.000 0.000 0.000
LATT 1
SYMM x+1/2, -y+1/2, -z
SYMM -x, y+1/2, -z+1/2
SYMM -x+1/2, -y, z+1/2
SFAC C N F
UNIT 48 16 16
TEMP -173.140
ACTA
L.S. 10
FMAP 2
PLAN 10
BOND $H
CONF
WGHT    0.042400    0.831400
FVAR       0.25840
F2    3    0.349681    0.994147    0.339875    11.00000    0.02034    0.02293 =
         0.02050    0.00378   -0.01014   -0.00102
F1    3    0.341366    1.263149    0.440535    11.00000    0.01915    0.01709 =
         0.02510    0.00446   -0.00584    0.00510
N1    2    0.388667    0.672822    0.231437    11.00000    0.02908    0.03270 =
         0.02292   -0.00047   -0.00156    0.00247
N2    2    0.655926    0.446657    0.427626    11.00000    0.02035    0.02497 =
         0.02610   -0.00269   -0.00042    0.00167
C1    1    0.444610    0.698861    0.300242    11.00000    0.01834    0.01864 =
         0.02004    0.00072    0.00430    0.00047
C3    1    0.516612    0.714982    0.387495    11.00000    0.01103    0.01877 =
         0.01790    0.00332    0.00191   -0.00137
C4    1    0.508099    0.852144    0.442666    11.00000    0.00992    0.01902 =
         0.01595    0.00473    0.00205   -0.00116
C6    1    0.420010    1.134252    0.470155    11.00000    0.00985    0.01788 =
         0.01977    0.00759   -0.00045   -0.00022
C5    1    0.425458    0.997524    0.418072    11.00000    0.01068    0.01969 =
         0.01370    0.00375   -0.00279   -0.00223
C2    1    0.597528    0.568540    0.411539    11.00000    0.01384    0.02136 =
         0.01870   -0.00248    0.00313   -0.00148
HKLF 4

REM  TRY2F in Pbca
REM R1 =  0.0708 for    1024 Fo > 4sig(Fo)  and  0.1403 for all    1658 data
REM     91 parameters refined using      0 restraints

END

WGHT      0.0423      0.8376

REM Highest difference peak  0.358,  deepest hole -0.372,  1-sigma level  0.081
Q1    1   0.5392  0.7985  0.4080  11.00000  0.05    0.36
Q2    1   0.4663  0.9090  0.4238  11.00000  0.05    0.32
Q3    1   0.7627  0.3706  0.3305  11.00000  0.05    0.31
Q4    1   0.4022  1.1969  0.4506  11.00000  0.05    0.31
Q5    1   0.3555  1.0695  0.2862  11.00000  0.05    0.30
Q6    1   0.3402  0.8690  0.2119  11.00000  0.05    0.29
Q7    1   0.5616  0.8695  0.4716  11.00000  0.05    0.28
Q8    1   0.4445  1.0515  0.4593  11.00000  0.05    0.28
Q9    1   0.4753  0.7689  0.4421  11.00000  0.05    0.28
Q10   1   0.2381  0.7493  0.1397  11.00000  0.05    0.27
;
_shelx_res_checksum              80947
_shelx_hkl_file
;
   0   1   0    0.02    0.23
   0  -1   0    0.00    0.23
   0  -1   0   -0.14    0.20
   0   1   0   -0.32    0.24
   0   2   0    2.24    0.67
   0   2   0    3.00    0.65
   0  -2   0    2.85    0.68
   0  -2   0    3.07    0.63
   0  -3   0   -0.22    0.56
   0  -3   0   -0.70    0.67
   0   3   0    0.37    0.69
   0   3   0    0.54    0.81
   0   4   0  382.87   17.00
   0   4   0  374.32   17.25
   0   4   0  373.18   16.96
   0  -4   0  379.13   16.91
   0  -4   0  414.65   16.77
   0  -5   0    0.67    1.02
   0   5   0   -2.38    1.25
   0   5   0   -0.52    1.54
   0  -5   0    0.92    1.31
   0   5   0   -1.06    1.42
   0  -5   0    2.23    1.82
   0  -6   0   45.64    4.82
   0   6   0   44.86    4.10
   0  -6   0   48.20    3.37
   0   6   0   35.79    3.99
   0  -6   0   48.13    4.57
   0   6   0   48.85    4.05
   0  -7   0   -1.70    2.97
   0  -7   0   -0.41    1.55
   0   7   0   -1.26    2.57
   0   7   0    0.33    2.44
   0  -7   0   -0.65    2.31
   0   7   0   -0.44    2.54
   0   8   0   21.08    4.18
   0   8   0   15.08    3.74
   0   8   0   16.12    4.17
   0  -8   0   21.66    3.53
   0  -8   0   20.89    4.71
   0   9   0    1.04    4.46
   0  -9   0   -7.40    4.71
   0   9   0   -5.27    4.73
   0   9   0   -0.72    3.96
   0  -9   0    3.45    4.21
   0  10   0    7.09    7.99
   0  10   0   -5.02    5.18
   0  10   0    6.35    6.44
   0  11   0   -1.80    7.29
  -1   1   0   -0.15    0.25
  -1  -1   0   -0.12    0.28
  -1   1   0   -0.39    0.26
  -1  -1   0   -0.44    0.34
  -1  -1   0    0.15    0.33
   1   1   0   -0.37    0.26
   1  -1   0   -0.18    0.34
   1  -1   0   -0.20    0.20
   1   1   0    0.47    0.42
  -1   2   0    0.03    0.52
  -1  -2   0   -0.63    0.52
  -1   2   0   -0.02    0.37
  -1  -2   0    0.24    0.55
   1   2   0    0.00    0.46
   1   2   0    0.09    0.62
   1  -2   0   -0.56    0.38
   1   2   0    0.40    0.63
  -1   3   0    0.40    0.63
  -1   3   0    0.49    0.75
  -1  -3   0    0.75    0.65
  -1  -3   0   -0.23    0.81
   1  -3   0   -0.82    0.42
   1   3   0   -0.70    0.81
   1   3   0   -0.34    0.76
   1   3   0   -0.23    0.91
   1  -3   0    0.29    0.63
  -1  -4   0   -1.22    0.99
  -1  -4   0    1.21    1.55
  -1  -4   0    0.57    0.86
  -1   4   0    0.26    0.96
  -1   4   0   -0.27    0.91
   1   4   0    0.33    1.13
   1   4   0   -1.50    1.03
   1   4   0   -0.12    0.99
   1  -4   0    0.35    0.93
  -1  -5   0   -1.51    1.16
  -1   5   0   -0.61    1.21
  -1   5   0   -0.21    1.48
  -1  -5   0   -2.63    1.45
  -1  -5   0   -0.42    1.96
   1   5   0    0.69    1.48
   1  -5   0    1.37    0.90
   1   5   0   -0.41    1.41
   1   5   0   -0.32    1.44
   1  -5   0    0.76    1.80
   1  -5   0   -0.31    1.27
  -1  -6   0    3.82    2.55
  -1   6   0    0.74    1.78
  -1  -6   0   -0.98    1.81
  -1  -6   0    3.61    1.56
  -1   6   0    0.79    1.63
  -1   6   0   -0.60    1.89
   1   6   0   -0.79    1.76
   1  -6   0    3.04    1.23
   1   6   0    0.79    2.33
   1  -6   0   -0.60    2.36
   1   6   0   -0.45    1.64
  -1   7   0   -2.86    2.33
  -1   7   0   -2.08    2.25
  -1  -7   0   -0.73    1.94
  -1   7   0    2.91    2.55
  -1  -7   0    4.72    3.69
  -1  -7   0   -2.92    2.82
   1   7   0   -0.10    2.52
   1  -7   0    2.00    2.33
   1   7   0    0.26    2.35
   1   7   0   -0.44    3.07
  -1  -8   0    5.46    4.21
  -1   8   0   -3.82    3.29
  -1   8   0   -3.25    3.21
  -1  -8   0    4.15    2.30
  -1   8   0    2.37    3.05
   1   8   0    4.35    3.57
   1   8   0   -0.44    3.84
   1   8   0    2.04    3.31
  -1   9   0    5.25    4.46
  -1  -9   0    3.20    4.46
  -1  -9   0   -6.35    4.99
  -1  -9   0    0.30    2.91
  -1   9   0    3.65    4.75
   1   9   0    4.25    7.23
   1   9   0   -2.40    5.39
   1   9   0   -1.22    4.24
   1  -9   0   -3.51    3.77
  -1 -10   0    9.31    3.94
  -1  10   0   -1.38    6.61
  -1  10   0   -4.25    5.28
  -1  10   0   -3.97    7.55
   1  10   0    4.88    8.12
   1  10   0   -1.77    6.24
   1  10   0   -0.12    5.33
  -1  11   0   -6.88    6.56
  -1  11   0    4.20   10.31
  -1  11   0    2.88    8.72
   1  11   0   -4.46    7.09
   1  11   0    0.19   10.75
   1  11   0   22.40    9.05
  -2   0   0  751.04   32.59
  -2   0   0  824.76   32.58
   2   0   0  757.74   32.53
  -2   1   0   44.04    2.00
  -2  -1   0   44.06    2.79
  -2  -1   0   42.15    2.13
  -2  -1   0   46.46    2.38
  -2   1   0   44.52    2.10
  -2  -1   0   46.16    2.37
   2   1   0   39.10    2.29
   2   1   0   39.24    2.29
   2  -1   0   36.68    2.10
   2   1   0   41.19    2.17
   2  -1   0   42.23    1.99
  -2  -2   0  135.03    5.92
  -2   2   0  124.55    5.69
  -2  -2   0  126.33    6.05
  -2   2   0  127.54    5.63
  -2  -2   0  117.56    6.49
  -2  -2   0  120.55    6.01
   2   2   0  132.17    6.05
   2  -2   0  131.48    5.78
   2   2   0  126.08    6.08
   2   2   0  122.43    5.83
   2  -2   0  128.76    5.54
  -2  -3   0   51.78    3.20
  -2  -3   0   52.40    3.88
  -2   3   0   51.19    2.88
  -2   3   0   49.37    2.82
  -2  -3   0   50.78    3.06
  -2  -3   0   53.32    3.18
   2  -3   0   52.34    2.67
   2   3   0   50.44    3.29
   2   3   0   49.81    3.06
   2   3   0   48.12    3.19
  -2   4   0   64.78    3.54
  -2  -4   0   59.54    4.70
  -2  -4   0   66.42    4.00
  -2   4   0   68.54    3.78
  -2  -4   0   69.31    4.14
  -2   4   0   63.19    3.68
   2   4   0   64.99    4.04
   2   4   0   62.25    4.09
   2  -4   0   63.29    3.48
   2   4   0   64.56    4.33
  -2   5   0   15.05    2.50
  -2  -5   0   20.89    2.87
  -2  -5   0   18.55    2.59
  -2   5   0   14.38    2.11
  -2  -5   0   18.19    3.30
  -2   5   0   18.61    2.40
   2   5   0   15.61    2.57
   2   5   0   16.79    2.83
   2  -5   0   16.93    2.30
   2   5   0   21.99    3.27
  -2  -6   0   34.65    3.72
  -2  -6   0   33.85    5.04
  -2  -6   0   36.21    3.93
  -2   6   0   27.32    3.39
  -2   6   0   34.82    3.88
  -2   6   0   41.57    3.64
   2   6   0   38.17    3.94
   2   6   0   23.39    3.73
   2   6   0   28.01    4.41
  -2   7   0  103.58    6.92
  -2  -7   0  116.61    7.01
  -2   7   0  121.38    7.97
  -2  -7   0  108.68    8.67
  -2   7   0  114.69    7.34
  -2   7   0  124.74    7.20
   2   7   0  112.77    7.63
   2  -7   0  115.39    6.71
   2   7   0  119.29    7.54
   2   7   0  120.23    8.38
  -2   8   0    7.10    3.22
  -2  -8   0    1.94    4.71
  -2  -8   0   -1.03    2.67
  -2   8   0    4.23    6.68
  -2   8   0   -1.28    3.08
   2   8   0   -3.19    5.99
   2   8   0    2.05    4.72
   2   8   0    2.81    3.77
  -2  -9   0   13.93    5.39
  -2   9   0   13.31    4.51
  -2   9   0   11.97    5.20
  -2   9   0   -0.22    5.61
  -2   9   0   -8.20    7.64
  -2   9   0    7.28    4.81
  -2  -9   0    6.31    6.60
   2   9   0    8.28    4.63
   2  -9   0    3.95    3.80
   2   9   0   17.79    5.09
   2   9   0    9.77    6.08
   2   9   0   -1.27    7.21
  -2  10   0   -0.30    6.57
  -2  10   0   10.12    5.24
  -2  10   0    0.34    6.25
  -2 -10   0   13.56    4.96
   2  10   0   12.42    6.77
   2  10   0   20.10    8.53
   2  10   0    7.39    5.81
  -2  11   0    6.19   10.98
  -2 -11   0   -2.00    9.46
  -2  11   0   13.32    7.49
  -2  11   0    7.84    9.36
   2  11   0   38.92   12.45
   2  11   0   12.16    8.83
   2  11   0   12.52    8.00
  -3   0   0   -0.14    0.48
  -3   0   0    0.07    0.83
  -3   0   0    0.03    0.40
  -3   0   0   -0.40    0.46
   3   0   0   -0.07    0.40
  -3  -1   0   -0.02    0.65
  -3   1   0    0.31    0.36
  -3  -1   0    0.16    1.11
  -3  -1   0    0.15    0.63
  -3  -1   0    0.10    0.50
  -3   1   0   -0.19    0.45
   3  -1   0   -0.47    0.38
   3  -1   0   -0.04    0.47
   3   1   0    0.32    0.61
   3   1   0   -0.19    0.58
   3   1   0    0.13    0.56
  -3  -2   0    0.59    0.82
  -3  -2   0    0.21    0.67
  -3  -2   0    0.96    1.28
  -3   2   0    0.16    0.55
  -3   2   0   -0.12    0.50
  -3  -2   0   -0.57    0.77
   3   2   0    0.13    0.79
   3   2   0   -0.39    0.67
   3  -2   0   -0.07    0.77
   3   2   0    0.49    0.81
  -3  -3   0   -0.53    1.00
  -3  -3   0    1.24    0.99
  -3  -3   0    0.25    0.99
  -3   3   0    0.53    0.73
  -3  -3   0   -0.23    1.29
  -3   3   0   -0.46    0.79
   3   3   0   -0.95    1.05
   3   3   0    0.09    1.12
   3   3   0   -0.45    0.93
  -3   4   0   -0.34    1.12
  -3  -4   0    0.48    1.34
  -3   4   0    0.45    0.82
  -3  -4   0    1.92    1.90
  -3  -4   0   -0.37    1.34
  -3   4   0    0.90    1.22
  -3  -4   0    0.92    1.18
   3  -4   0    0.10    0.82
   3   4   0   -0.64    1.24
   3   4   0   -0.34    1.49
   3   4   0    2.63    1.63
  -3  -5   0    1.00    2.26
  -3   5   0   -1.58    1.31
  -3  -5   0    0.16    1.80
  -3  -5   0   -0.77    1.60
  -3   5   0   -0.17    1.51
  -3   5   0   -0.14    1.27
   3   5   0   -1.27    1.57
   3  -5   0    0.63    0.93
   3   5   0    3.40    2.16
   3   5   0   -1.44    1.69
  -3  -6   0   -0.19    2.65
  -3   6   0    2.37    2.16
  -3   6   0   -0.64    1.79
  -3  -6   0    0.43    2.00
  -3   6   0    1.27    1.96
  -3  -6   0   -2.74    2.12
   3   6   0    1.79    2.70
   3   6   0   -0.41    2.32
   3   6   0   -0.78    2.13
  -3  -7   0   -4.41    2.74
  -3   7   0    1.41    2.50
  -3   7   0    4.26    3.00
  -3  -7   0   -2.89    3.55
  -3  -7   0    0.72    2.46
  -3   7   0   -2.06    2.07
   3  -7   0    2.39    1.85
   3   7   0   -1.02    2.54
   3   7   0    7.49    3.60
   3   7   0    1.60    2.94
  -3   8   0   -2.12    3.26
  -3   8   0    1.31    2.98
  -3  -8   0    1.15    3.95
  -3   8   0   -1.19    3.96
  -3  -8   0   -0.82    4.12
  -3   8   0    1.21    3.94
  -3  -8   0    5.47    4.71
   3   8   0   -1.13    3.63
   3   8   0   -3.17    3.52
   3   8   0    9.67    5.03
  -3  -9   0    4.37    6.16
  -3   9   0   -0.87    4.92
  -3   9   0   -6.76    7.16
  -3   9   0    4.84    4.05
  -3   9   0   -2.83    4.46
  -3   9   0   -1.38    7.01
   3  -9   0    0.46    3.38
   3   9   0    8.37    4.66
   3   9   0    0.08    4.70
   3   9   0    4.20    7.13
  -3  10   0   -7.31    6.70
  -3 -10   0   10.03    5.23
  -3 -10   0  -12.41    7.64
  -3  10   0   -9.07    6.24
  -3  10   0   17.84    6.59
   3  10   0    2.74    9.64
   3  10   0    4.01    6.40
   3  10   0    1.48    6.06
  -3  11   0  -10.55   10.03
  -3  11   0   -7.98    7.36
  -3  11   0   10.62   10.19
   3  11   0  -12.60    8.32
   3  11   0   -6.30   11.99
   3  11   0   -3.87    7.75
  -4   0   0  749.51   31.96
  -4   0   0  760.67   31.99
  -4   0   0  742.13   31.83
  -4   0   0  721.19   32.00
  -4   0   0  801.50   32.66
   4   0   0  768.64   31.90
  -4   1   0   30.79    1.74
  -4  -1   0   29.75    2.29
  -4   1   0   30.72    1.78
  -4  -1   0   29.80    3.09
  -4  -1   0   28.09    2.09
  -4   1   0   25.92    2.35
  -4  -1   0   28.53    2.21
  -4  -1   0   28.36    1.83
   4  -1   0   28.87    1.85
   4  -1   0   26.13    1.75
   4   1   0   25.62    1.72
  -4   2   0  197.59    8.49
  -4  -2   0  206.20    9.27
  -4  -2   0  190.54    9.18
  -4  -2   0  194.70    8.78
  -4  -2   0  195.43    9.92
  -4   2   0  198.25    8.65
   4   2   0  202.71    9.03
   4   2   0  183.90    8.57
   4  -2   0  195.43    8.77
   4   2   0  174.17    8.94
  -4  -3   0  335.33   16.23
  -4   3   0  339.96   14.71
  -4  -3   0  344.33   15.40
  -4  -3   0  342.68   15.40
  -4   3   0  335.09   14.59
  -4  -3   0  341.75   15.03
   4   3   0  334.35   15.30
   4  -3   0  343.08   14.97
   4   3   0  340.43   14.84
   4   3   0  322.47   15.20
  -4   4   0  115.76    5.65
  -4   4   0  106.31    5.61
  -4  -4   0  107.01    7.25
  -4  -4   0  109.57    6.01
  -4  -4   0  113.07    6.36
  -4  -4   0  112.52    6.39
   4   4   0  117.32    6.60
   4   4   0  107.29    6.30
   4   4   0  118.64    5.93
  -4  -5   0    5.37    2.17
  -4   5   0    3.86    1.40
  -4   5   0    6.78    1.90
  -4   5   0    7.65    1.85
  -4  -5   0    5.74    2.85
   4   5   0    2.94    1.88
   4   5   0    4.01    2.36
   4  -5   0    4.74    1.17
   4   5   0    6.52    2.33
  -4   6   0   -0.98    1.64
  -4  -6   0   -2.28    3.41
  -4  -6   0   -1.47    2.18
  -4  -6   0    3.14    2.74
  -4   6   0    3.05    2.13
  -4   6   0   -0.31    2.05
   4   6   0    1.43    2.56
   4   6   0   -1.44    3.07
   4   6   0   -3.12    2.21
   4  -6   0   -1.11    1.39
  -4   7   0    4.21    2.55
  -4  -7   0    4.42    4.22
  -4   7   0    7.67    2.94
  -4  -7   0    4.12    2.93
  -4  -7   0   -1.22    3.19
   4   7   0    6.15    3.33
   4   7   0    4.29    3.14
   4  -7   0    4.82    1.78
   4   7   0    5.06    3.80
  -4   8   0   -0.14    3.57
  -4  -8   0    3.53    5.16
  -4  -8   0    6.28    3.79
  -4   8   0   -2.57    3.10
  -4  -8   0   -4.37    4.36
  -4   8   0   -3.71    5.59
  -4   8   0   11.18    4.24
   4   8   0   -4.92    5.00
   4   8   0   -3.33    3.76
   4   8   0    4.79    4.01
   4   8   0    3.30    5.95
  -4  -9   0   -2.22    7.11
  -4   9   0    4.74    5.87
  -4   9   0    7.86    4.86
  -4   9   0    5.23    4.05
  -4   9   0   -4.93    6.84
  -4  -9   0   -3.63    4.56
   4   9   0   -2.43    7.34
   4   9   0   -6.36    5.12
   4  -9   0   -0.12    3.12
  -4 -10   0  -15.84    7.78
  -4  10   0    3.87    7.24
  -4  10   0    6.58    6.28
  -4  10   0    9.07    7.02
   4  10   0   -9.80    9.35
   4  10   0   -2.50    6.70
   4  10   0   -6.22    6.09
  -5   0   0    1.94    0.97
  -5   0   0    0.97    0.90
  -5   0   0    2.09    0.86
  -5   0   0    1.70    0.74
  -5   0   0   -0.79    1.47
   5   0   0    1.57    0.83
  -5   1   0   -1.73    1.19
  -5  -1   0   -0.67    0.76
  -5   1   0   -0.77    0.76
  -5  -1   0    0.74    1.09
  -5  -1   0    0.47    1.01
  -5  -1   0    0.14    1.78
  -5  -1   0    0.03    1.03
  -5   1   0   -0.04    0.70
   5  -1   0   -0.34    0.84
  -5  -2   0    0.25    0.97
  -5   2   0    0.56    0.85
  -5  -2   0   -2.22    1.35
  -5  -2   0   -1.34    1.78
  -5  -2   0    1.36    1.11
  -5   2   0   -0.29    0.65
  -5  -2   0   -1.24    1.22
   5   2   0    0.49    1.00
   5   2   0    1.29    1.21
   5   2   0   -0.85    1.12
   5   2   0    0.01    1.14
   5  -2   0    0.28    0.95
  -5   3   0    0.08    0.99
  -5  -3   0    0.59    1.30
  -5  -3   0   -0.94    2.20
  -5  -3   0    0.18    1.61
  -5  -3   0    0.07    1.42
   5   3   0    0.85    1.47
   5  -3   0   -0.20    1.34
   5   3   0    0.72    1.55
   5   3   0   -0.23    1.51
   5   3   0    1.12    1.16
  -5  -4   0   -0.24    2.78
  -5   4   0    0.98    1.21
  -5  -4   0   -1.33    1.95
  -5  -4   0    0.95    2.03
  -5   4   0    0.02    1.49
  -5  -4   0    0.72    1.65
   5   4   0    0.41    1.41
   5   4   0   -0.26    1.84
   5   4   0   -1.33    1.77
  -5  -5   0   -0.13    2.94
  -5  -5   0   -3.77    2.12
  -5   5   0    2.04    1.88
  -5   5   0    0.10    1.57
  -5  -5   0   -3.22    2.05
  -5  -5   0    1.39    2.45
   5   5   0   -0.75    1.80
   5   5   0    2.63    3.23
   5   5   0   -2.74    2.07
   5   5   0   -0.48    2.43
  -5  -6   0   -3.07    2.63
  -5   6   0   -0.18    1.73
  -5  -6   0   -4.61    2.81
  -5  -6   0   -2.88    3.52
   5   6   0    6.75    3.34
   5   6   0    2.13    3.46
   5   6   0   -1.35    2.77
   5   6   0   -0.45    2.31
  -5   7   0   -2.96    4.00
  -5   7   0   -1.88    2.99
  -5   7   0   -0.18    2.39
  -5   7   0    2.64    3.44
  -5  -7   0   -1.66    3.96
  -5  -7   0    0.95    4.54
   5   7   0    3.08    4.77
   5   7   0   -0.79    3.07
   5   7   0   -1.62    3.57
  -5  -8   0    5.15    5.12
  -5   8   0   -4.56    5.07
  -5   8   0   14.64    4.71
  -5  -8   0    6.76    5.88
  -5  -8   0    4.04    4.36
  -5   8   0    2.91    3.04
   5   8   0    1.22    5.95
   5   8   0   -2.75    3.81
   5   8   0    3.31    4.54
   5   8   0   -5.11    5.35
  -5   9   0    1.62    5.30
  -5   9   0   -1.38    6.09
  -5   9   0   12.70    7.62
  -5   9   0    1.14    4.72
  -5  -9   0    2.43    7.03
   5   9   0    2.57    7.65
   5   9   0   -0.88    4.67
   5   9   0    4.31    5.71
  -5 -10   0  -16.84    9.07
  -5  10   0    4.46    6.62
  -5  10   0   -1.01    7.62
   5  10   0   -7.74    6.83
   5  10   0   -0.43    6.62
   5  10   0   14.10   10.43
  -6   0   0  104.80    5.34
  -6   0   0  121.88    5.90
  -6   0   0  101.65    5.52
  -6   0   0  116.17    6.64
  -6   0   0  113.18    5.79
   6   0   0  111.39    5.49
  -6  -1   0    3.92    2.29
  -6   1   0    2.02    1.68
  -6  -1   0    2.26    1.05
  -6   1   0    1.43    1.30
  -6   1   0    3.75    1.11
  -6  -1   0    1.69    1.41
  -6  -1   0    2.72    1.41
  -6  -1   0    1.69    1.68
   6   1   0    4.85    1.17
   6  -1   0    2.24    1.18
  -6   2   0   22.94    1.94
  -6   2   0   16.79    2.61
  -6  -2   0   26.38    3.97
  -6  -2   0   24.96    2.72
  -6  -2   0   30.63    3.38
  -6  -2   0   21.87    3.03
  -6  -2   0   23.88    2.46
  -6   2   0   25.82    2.08
   6   2   0   22.38    2.18
   6  -2   0   23.44    2.33
  -6  -3   0    6.28    2.04
  -6  -3   0    6.54    2.96
  -6   3   0    5.61    1.43
  -6  -3   0    5.43    1.88
  -6  -3   0    4.89    1.92
  -6  -3   0    6.33    1.83
   6   3   0    7.35    2.07
   6  -3   0    5.38    1.94
   6   3   0    3.88    1.88
   6   3   0    5.93    1.93
   6   3   0    4.37    1.65
  -6  -4   0  101.18    6.53
  -6  -4   0  112.45    7.16
  -6  -4   0  112.77    6.95
  -6  -4   0   99.14    8.01
  -6   4   0  102.33    5.65
  -6   4   0  114.62    6.02
  -6  -4   0  105.17    6.27
   6   4   0  105.93    5.73
   6   4   0  117.51    6.65
   6   4   0  104.76    6.65
   6  -4   0  108.67    6.30
   6   4   0  109.43    6.90
  -6  -5   0   10.47    3.34
  -6  -5   0   10.70    3.00
  -6  -5   0   11.02    3.96
   6   5   0   11.83    3.15
   6   5   0   10.44    2.46
   6   5   0   12.25    3.48
   6   5   0    8.76    3.46
  -6  -6   0    5.81    3.67
  -6   6   0   12.45    2.42
  -6  -6   0   15.58    4.78
  -6   6   0   15.08    3.66
   6   6   0    5.11    3.20
   6   6   0    7.83    4.23
   6   6   0   15.02    4.48
   6   6   0   11.25    3.04
  -6   7   0    5.82    4.29
  -6   7   0    0.34    2.60
  -6  -7   0    3.64    4.23
  -6  -7   0   -1.47    4.44
  -6   7   0   -1.75    3.20
  -6  -7   0    7.34    5.17
   6   7   0   -0.34    4.06
   6   7   0   10.64    5.20
   6   7   0    4.23    3.08
  -6   8   0    6.72    3.80
   6   8   0   -3.88    4.83
   6   8   0   14.88    6.75
   6   8   0   11.70    4.53
   6   8   0    0.37    6.70
  -6   9   0   -1.82    6.44
  -6   9   0   11.69    7.93
   6   9   0   -2.11    8.06
   6   9   0    1.96    6.39
   6   9   0    5.03    5.05
  -6 -10   0   -3.26    7.26
  -6 -10   0  -18.16   10.92
  -6  10   0    7.94   10.76
  -6  10   0    9.39    7.02
   6  10   0   22.57   12.41
   6  10   0    6.14    8.53
   6  10   0   -0.47    6.79
  -7   0   0    1.51    1.68
  -7   0   0    0.39    1.13
  -7   0   0    1.53    1.71
  -7   0   0    3.08    1.34
  -7   0   0    1.91    2.21
   7   0   0    1.70    1.34
  -7  -1   0   -1.24    1.17
  -7  -1   0   -2.83    2.33
  -7  -1   0   -0.76    1.48
  -7  -1   0    2.87    2.04
  -7   1   0    0.30    1.03
  -7   1   0   -0.03    1.11
  -7   1   0   -0.35    1.39
  -7  -1   0    3.36    1.83
  -7   1   0    1.07    1.80
   7   1   0    0.19    1.20
   7  -1   0    1.65    1.43
  -7   2   0   -0.11    1.61
  -7  -2   0    0.70    1.52
  -7  -2   0    1.15    2.18
  -7  -2   0   -0.83    1.53
  -7  -2   0   -3.19    2.05
  -7   2   0   -2.55    1.28
  -7  -2   0   -0.35    2.48
  -7   2   0    0.21    0.94
   7  -2   0   -0.60    1.54
  -7  -3   0   -0.93    1.89
  -7  -3   0    3.22    3.30
  -7  -3   0    0.46    1.85
  -7   3   0    0.60    1.25
  -7  -3   0    1.47    2.74
  -7  -3   0   -2.08    2.15
  -7   3   0   -1.27    1.49
   7   3   0   -0.45    1.62
   7  -3   0    0.89    2.03
   7   3   0    5.53    2.22
  -7  -4   0    0.98    3.39
  -7  -4   0    0.30    3.10
  -7  -4   0   -0.42    2.31
  -7  -4   0    3.24    2.63
  -7  -4   0   -1.72    2.01
   7   4   0   -4.53    2.27
   7   4   0    0.65    2.68
   7  -4   0    4.36    2.45
   7   4   0   -0.38    2.29
   7   4   0    3.36    2.53
  -7  -5   0    1.37    3.07
  -7  -5   0   -1.04    2.57
  -7  -5   0    4.87    4.23
  -7  -5   0    0.53    3.83
   7   5   0   -4.90    2.78
   7   5   0    1.86    3.25
   7   5   0    7.44    2.42
   7   5   0   -4.84    2.92
  -7  -6   0   -1.56    4.87
  -7  -6   0   -4.40    2.96
  -7  -6   0    3.27    4.48
  -7   6   0    8.74    3.16
  -7  -6   0    1.16    4.69
   7   6   0   -3.13    3.67
   7   6   0   -1.94    4.14
   7   6   0   11.39    4.46
  -7  -7   0    1.62    6.99
  -7   7   0    8.40    3.99
  -7  -7   0   -6.00    3.91
  -7  -7   0   -3.15    5.38
   7   7   0   -3.33    4.46
   7   7   0    2.76    5.76
   7   7   0   14.75    5.71
   7   7   0    0.74    3.43
  -7   8   0   -2.23    5.55
  -7  -8   0   -8.56    7.72
  -7  -8   0  -10.44    4.80
   7   8   0   -1.06    5.72
   7   8   0   -3.45    7.21
   7   8   0    2.10    8.95
  -7  -9   0   -6.96    6.51
  -7  -9   0   -9.94    9.67
  -7   9   0   13.34    7.89
  -7   9   0   -4.10    6.86
   7   9   0    9.40    6.04
   7   9   0    3.66    7.19
   7   9   0  -13.47    9.91
  -8   0   0    3.59    1.55
  -8   0   0    1.71    1.30
  -8   0   0    3.34    2.53
  -8   0   0   -0.58    2.70
   8   0   0    1.39    1.73
  -8   1   0   22.35    2.39
  -8  -1   0   20.29    4.03
  -8  -1   0   19.28    2.73
  -8  -1   0   21.63    3.20
  -8   1   0   24.96    3.77
  -8   1   0   23.16    2.47
  -8   1   0   23.87    3.68
  -8   1   0   26.03    3.41
  -8  -1   0   32.12    4.43
  -8  -1   0   33.85    4.21
   8   1   0   25.62    2.69
   8  -1   0   20.69    2.85
  -8   2   0    1.62    2.34
  -8   2   0    2.59    2.03
  -8  -2   0   -2.89    2.60
  -8  -2   0    0.63    3.27
  -8   2   0    2.21    1.29
  -8  -2   0    1.59    1.99
  -8  -2   0    4.70    2.02
  -8  -2   0    1.42    2.87
   8  -2   0    3.82    1.97
   8   2   0    3.44    1.79
  -8  -3   0  151.16    8.15
  -8  -3   0  138.59    7.72
  -8  -3   0  141.04   10.19
  -8  -3   0  137.31    9.02
  -8  -3   0  148.18    9.02
  -8   3   0  130.68    6.90
  -8   3   0  140.86    7.17
   8  -3   0  138.63    7.76
   8   3   0  141.00    7.40
  -8  -4   0    8.52    4.42
  -8  -4   0    2.62    2.76
  -8  -4   0    1.43    4.50
  -8  -4   0    5.83    4.28
  -8  -4   0    2.50    3.29
   8   4   0    6.31    3.11
   8   4   0    6.59    2.40
   8  -4   0    1.22    4.99
  -8   5   0    4.19    2.69
  -8  -5   0    2.81    2.92
  -8  -5   0   -3.72    4.14
  -8  -5   0   -3.48    4.42
   8   5   0    2.60    4.81
   8   5   0    2.30    2.76
  -8  -6   0    0.73    5.12
  -8  -6   0  -10.22    5.31
  -8  -6   0   -6.15    6.35
  -8  -6   0   -5.03    3.67
   8   6   0   14.53    5.13
   8   6   0   -3.85    4.99
   8   6   0    2.36    3.45
  -8  -7   0   -7.01    9.65
  -8   7   0   -4.60    4.82
  -8  -7   0    0.77    6.97
  -8  -7   0    6.12    4.69
   8   7   0   -5.95    6.48
   8   7   0   14.96    5.48
  -8  -8   0  -14.30    7.65
  -8  -8   0   -6.85    5.74
  -8   8   0    8.75    6.82
   8   8   0   -2.55    4.84
   8   8   0   14.04    6.76
   8   8   0    9.63    8.33
  -8  -9   0  -14.01    7.01
  -8  -9   0    0.41   11.20
  -8   9   0   -2.80    6.28
   8   9   0    1.24    6.49
   8   9   0    8.09    8.33
   8   9   0    3.39   11.13
  -9   0   0    2.45    2.76
  -9   0   0   -1.97    1.67
  -9   0   0    0.16    2.71
  -9   0   0   -0.40    1.88
  -9   0   0    1.79    3.08
   9   0   0   -1.08    2.00
  -9   1   0    3.87    2.52
  -9  -1   0    2.72    2.05
  -9   1   0    0.61    1.39
  -9  -1   0    1.84    3.15
  -9   1   0    0.97    1.65
  -9  -1   0    0.11    2.07
  -9  -1   0   -4.87    2.91
  -9   1   0    1.04    2.48
  -9   1   0   -2.71    3.12
   9   1   0   -1.20    1.99
   9  -1   0   -1.58    2.03
  -9   2   0    1.61    1.89
  -9  -2   0   -4.07    3.70
  -9   2   0   -3.21    2.44
  -9  -2   0    3.86    3.46
  -9   2   0   -0.25    2.53
  -9  -2   0   -0.40    2.81
  -9  -2   0    1.51    3.37
  -9   2   0    1.40    2.23
  -9   2   0    0.05    1.46
  -9  -2   0   -2.12    2.46
   9  -2   0   -0.74    2.64
   9   2   0    3.17    2.04
  -9  -3   0   -4.54    2.86
  -9   3   0   -1.73    2.41
  -9  -3   0   -6.48    3.70
  -9  -3   0   -0.44    4.11
  -9  -3   0   -4.71    3.52
  -9  -3   0   -0.08    2.70
   9   3   0    0.59    2.40
   9  -3   0    2.73    3.06
  -9  -4   0   -3.57    2.79
  -9   4   0    2.12    2.58
  -9  -4   0    1.75    4.52
  -9  -4   0   -4.42    4.47
  -9  -4   0   -6.09    4.10
  -9  -4   0   -3.53    3.47
   9  -4   0    5.89    3.89
   9   4   0    0.74    3.15
  -9  -5   0    3.34    3.71
  -9  -5   0   -1.80    5.62
  -9  -5   0   -6.28    5.50
  -9  -5   0   -5.49    4.48
   9   5   0    2.22    4.00
  -9  -6   0    2.03    4.58
  -9  -6   0   -7.58    6.39
  -9  -6   0   -3.93    6.32
   9   6   0    2.62    4.03
   9   6   0    4.03    5.71
  -9  -7   0   -1.06    7.70
  -9  -7   0    5.97    5.71
   9   7   0   -2.42    7.24
   9   7   0    9.48    7.25
   9   7   0   -5.03    4.98
  -9  -8   0    5.89    6.99
  -9  -8   0    1.54    9.89
   9   8   0   11.34    6.30
   9   8   0   -3.48    9.67
 -10   0   0    4.14    3.88
 -10   0   0    8.76    3.95
 -10   0   0   12.82    4.35
 -10   0   0    3.63    2.29
  10   0   0    5.99    2.85
 -10   1   0    8.33    3.77
 -10   1   0   -0.64    3.79
 -10   1   0    0.54    1.99
 -10  -1   0    3.56    2.34
 -10  -1   0    1.09    2.65
 -10  -1   0   -5.45    3.80
 -10  -1   0    1.39    4.16
 -10  -1   0   -2.97    3.87
 -10   1   0    5.32    3.35
  10  -1   0   -1.07    2.76
  10   1   0    2.58    2.73
 -10  -2   0   -1.99    2.78
 -10  -2   0   10.40    4.78
 -10  -2   0    1.65    5.68
 -10   2   0   -1.58    2.09
 -10   2   0    4.32    3.27
 -10   2   0    2.71    2.09
 -10   2   0    4.82    3.33
 -10   2   0    2.78    3.33
 -10  -2   0    6.56    3.09
  10  -2   0   -1.00    3.20
  10   2   0    1.35    3.04
 -10  -3   0   -1.95    4.79
 -10  -3   0    3.65    5.46
 -10  -3   0    1.06    3.31
 -10   3   0    4.91    2.58
 -10  -3   0    1.93    5.12
 -10   3   0   -1.56    3.17
  10  -3   0    3.12    3.81
  10   3   0   -0.17    2.81
 -10  -4   0   58.86    9.76
 -10  -4   0   61.45    8.04
 -10   4   0   59.48    6.29
 -10  -4   0   60.60    7.22
 -10  -4   0   56.26    7.14
  10  -4   0   58.88    7.37
  10   4   0   60.31    5.73
 -10  -5   0    1.37    7.03
 -10  -5   0   -1.41    4.37
 -10  -5   0  -11.69    6.28
  10   5   0   -5.76    4.84
 -10  -6   0   -0.90    7.50
 -10  -6   0    0.31    5.17
 -10  -7   0  -11.49    9.57
 -10  -7   0   -0.02    6.24
 -11   0   0    3.28    5.36
 -11   0   0    5.84    2.58
 -11   0   0   -2.64    2.94
 -11   0   0   -5.52    4.69
  11   0   0    6.55    3.45
 -11  -1   0    9.70    5.24
 -11   1   0   -4.55    4.20
 -11  -1   0    2.38    3.68
 -11   1   0    4.03    4.72
 -11  -1   0   10.22    2.98
 -11  -1   0    6.96    5.15
 -11   1   0   -3.95    4.83
 -11  -1   0    5.55    5.98
 -11   1   0    2.29    2.42
  11   1   0   -3.94    3.44
  11  -1   0    3.11    3.66
 -11  -2   0    4.33    5.95
 -11   2   0    5.76    4.47
 -11  -2   0   -8.98    5.52
 -11  -2   0   -2.01    3.58
 -11   2   0    1.51    2.67
 -11   2   0    8.53    4.43
  11  -2   0    3.41    3.93
  11   2   0    2.48    3.62
 -11  -3   0   -6.64    6.61
 -11   3   0    4.38    3.25
 -11  -3   0   -8.20    6.29
 -11   3   0   -3.14    3.84
 -11  -3   0   -4.56    3.44
 -11   3   0   -3.91    4.22
  11  -3   0   -2.06    5.00
  11   3   0    1.62    4.33
 -11  -4   0   -2.45    7.05
 -11  -4   0    2.07    7.28
 -11  -4   0   -0.45    4.57
  11  -4   0    6.93    5.85
  11   4   0    0.06    4.49
 -11  -5   0    6.15    9.46
 -11  -5   0    0.39    5.22
  11   5   0   12.27    5.20
 -11  -6   0   -0.44    6.65
 -11  -6   0  -15.07   10.12
  11   6   0    5.69    5.80
 -12   0   0   71.41    7.63
 -12   0   0   80.65   10.95
 -12   0   0   81.49    6.68
  12   0   0   88.40    7.91
 -12  -1   0   10.41    3.90
 -12   1   0    9.12    4.10
 -12   1   0    1.86    2.90
 -12  -1   0   -4.37    6.26
 -12   1   0    3.33    5.69
  12  -1   0    5.81    5.21
  12   1   0    3.18    4.78
 -12   2   0   -3.86    3.58
 -12  -2   0   12.15    7.96
 -12   2   0    4.62    2.92
 -12   2   0    9.94    6.54
 -12  -2   0    4.24    4.06
 -12   2   0    0.48    5.40
  12   2   0    1.52    4.72
  12  -2   0    7.21    5.38
 -12   3   0   10.79    5.58
 -12  -3   0    3.46    5.21
 -12   3   0    5.22    4.21
 -12  -3   0    2.57    8.03
 -12   3   0   10.81    6.75
  12  -3   0    2.44    6.42
  12   3   0   -4.30    5.74
 -12   4   0    4.30    5.58
 -12  -4   0   15.30    9.31
 -12  -4   0   -6.97    5.74
  12   4   0   -1.03    6.43
  12  -4   0   11.25    7.19
 -13   0   0    1.79    4.09
 -13   0   0   -2.67    8.99
  13   0   0   -1.61    6.71
 -13  -1   0    0.49    4.62
 -13  -1   0   16.65    9.22
 -13   1   0   14.81    7.76
 -13   1   0   -4.97    3.67
  13   1   0    0.60    6.64
  13  -1   0   -8.48    6.53
   0  11   1   -5.90   10.47
   0  11   1   12.59    8.70
   0  11   1  -13.48    7.34
   0  10   1    1.61    5.72
   0 -10  -1   -2.96    7.05
   0  10   1    9.13    6.71
   0  10   1    5.24    8.34
   0   9   1    3.68    4.68
   0   9   1    4.02    6.76
   0   9   1    3.53    4.11
   0  -9  -1   -8.39    4.03
   0  -9  -1    1.48    2.75
   0   9   1   -4.78    5.22
   0  -9  -1    6.18    5.11
   0   8   1   11.13    5.58
   0  -8  -1    7.71    4.60
   0   8   1    9.32    3.93
   0   8   1   10.56    3.67
   0  -8  -1   13.77    4.07
   0   8   1   11.87    4.00
   0  -7  -1    1.45    2.50
   0   7   1    2.25    2.73
   0   7   1    0.62    2.70
   0   7   1   -3.23    2.48
   0  -7  -1   -1.54    1.64
   0  -7  -1   -3.85    3.18
   0  -6  -1   10.11    2.27
   0   6   1   11.61    2.52
   0   6   1    6.31    2.57
   0   6   1   10.27    2.38
   0  -6  -1   11.18    1.89
   0   5   1   -0.55    1.33
   0  -5  -1    1.01    1.38
   0  -5  -1    0.89    1.02
   0   5   1    0.47    1.41
   0   4   1  173.13    8.55
   0  -4  -1  190.83    8.55
   0   4   1  175.89    8.62
   0  -4  -1  183.94    8.35
   0  -3  -1    0.26    0.59
   0   3   1   -0.62    0.65
   0  -3  -1    0.07    0.73
   0   3   1    0.55    0.76
   0  -2  -1  192.75    8.68
   0   2   1  189.63    8.78
   0   2   1  212.50    8.78
   0  -2  -1  200.43    8.75
   0  -1  -1   -0.20    0.23
   0  -1  -1   -0.03    0.29
   0   1   1   -0.20    0.24
   0   1   1   -0.08    0.37
   0   1  -1   -0.11    0.30
   0   1  -1   -0.21    0.22
   0  -1   1    0.05    0.19
   0  -1   1    0.15    0.30
   0   1  -1    0.19    0.26
   0  -1   1    0.19    0.25
   0  -1   1    0.16    0.25
   0   2  -1  183.00    8.48
   0  -2   1  198.09    8.70
   0   2  -1  180.16    8.69
   0   2  -1  209.46    8.54
   0  -2   1  196.71    8.42
   0  -2   1  196.41    8.51
   0  -3   1   -0.51    0.58
   0   3  -1   -0.51    0.77
   0   3  -1   -0.21    0.85
   0  -3   1    0.24    0.89
   0   3  -1   -0.86    0.72
   0  -3   1    0.63    0.68
   0  -4   1  187.36    8.46
   0   4  -1  191.61    8.80
   0  -4   1  178.40    9.02
   0   4  -1  180.80    8.76
   0  -4   1  190.14    8.68
   0   4  -1  188.30    9.08
   0   5  -1    0.93    1.59
   0   5  -1    3.21    1.49
   0  -5   1    1.05    1.00
   0   5  -1   -0.75    1.44
   0  -5   1   -0.89    1.68
   0  -5   1   -0.22    1.45
   0  -6   1   11.96    2.60
   0  -6   1   10.94    1.76
   0   6  -1   11.24    2.32
   0   6  -1    7.63    2.25
   0   6  -1    8.79    2.35
   0   7  -1    0.79    2.52
   0  -7   1    1.18    1.62
   0  -7   1    4.29    2.37
   0  -7   1   -1.11    2.74
   0   7  -1    2.50    2.82
   0   7  -1   -3.01    2.36
   0   8  -1    5.94    4.29
   0   8  -1   11.26    3.82
   0   8  -1   10.20    3.39
   0   9  -1    1.95    3.70
   0  -9   1   -8.68    4.19
   0   9  -1    4.52    6.69
   0   9  -1   -1.10    4.55
   0  10  -1    7.93    6.74
   0  10  -1    1.20    5.67
   0  10  -1   19.05    7.77
   0  11  -1    8.75    9.35
   0  11  -1    3.72    6.89
   0  11  -1   -9.84   10.30
  -1  11   1    4.80   10.58
  -1  11   1    0.72    9.44
  -1 -11  -1  -14.81    8.78
  -1  11   1  -10.64    7.00
   1  11   1   10.62   11.69
   1  11   1   18.64    8.93
   1  11   1  -11.34    7.33
  -1  10   1   -5.22    6.76
  -1  10   1   10.24    6.19
  -1 -10  -1    4.86    7.50
  -1  10   1    1.12    6.87
   1  10   1   -7.15    5.37
   1  10   1   -0.64    6.31
   1  10   1    0.21    8.01
  -1   9   1    0.21    6.93
  -1  -9  -1    5.37    5.74
  -1   9   1    3.30    5.73
  -1   9   1    5.63    5.19
  -1   9   1    0.48    4.90
  -1   9   1    2.20    4.08
  -1  -9  -1    3.63    4.30
  -1  -9  -1   -1.29    3.14
   1   9   1    5.54    4.60
   1   9   1   -3.89    5.56
   1   9   1   -4.78    4.04
   1  -9  -1    5.26    4.43
   1   9   1  -10.00    6.98
  -1   8   1    8.98    4.07
  -1   8   1   18.26    3.76
  -1   8   1   15.04    5.30
  -1   8   1   11.31    3.77
  -1  -8  -1   15.96    2.86
  -1  -8  -1   11.49    4.67
   1   8   1   10.86    3.90
   1   8   1    7.65    5.36
   1   8   1    7.79    4.12
   1  -8  -1   10.86    4.29
  -1  -7  -1  234.77   13.12
  -1   7   1  237.20   12.07
  -1   7   1  236.59   12.58
  -1  -7  -1  225.94   12.87
  -1   7   1  254.79   12.10
   1   7   1  220.27   12.06
   1   7   1  229.30   12.35
   1  -7  -1  230.61   12.50
   1   7   1  238.11   12.63
   1  -7  -1  242.26   11.66
  -1  -6  -1   11.63    2.03
  -1   6   1   10.61    2.33
  -1   6   1   10.08    2.37
  -1  -6  -1   11.21    3.15
  -1  -6  -1   13.84    2.52
   1  -6  -1    7.75    1.60
   1   6   1   10.93    2.52
   1  -6  -1   10.63    2.30
   1   6   1    8.83    2.46
   1   6   1    6.90    2.29
  -1  -5  -1    1.61    1.57
  -1   5   1    0.36    1.33
  -1   5   1    1.53    1.49
  -1  -5  -1   -0.76    1.21
   1  -5  -1    0.37    0.99
   1   5   1    0.26    1.62
   1   5   1   -1.05    1.53
   1  -5  -1   -1.24    1.18
   1   5   1   -0.85    1.37
  -1   4   1   12.80    2.00
  -1   4   1   14.44    1.88
  -1  -4  -1   17.73    2.08
  -1  -4  -1   13.38    1.94
   1  -4  -1   15.51    1.46
   1   4   1   11.15    1.95
   1   4   1   15.90    2.08
   1  -4  -1   12.49    1.71
   1   4   1   13.41    2.07
  -1   3   1   -0.05    0.84
  -1   3   1    0.24    0.67
  -1  -3  -1   -0.62    0.66
  -1  -3  -1    0.53    0.83
   1   3   1    0.47    0.88
   1   3   1    0.32    0.90
   1   3   1    0.11    0.82
   1  -3  -1   -0.39    0.54
   1  -3  -1   -0.60    0.68
  -1   2   1   11.03    1.03
  -1  -2  -1   11.96    1.24
  -1   2   1   14.68    1.10
  -1  -2  -1   13.19    1.21
  -1   2   1   13.03    1.12
   1   2   1   12.57    1.18
   1   2   1   13.63    1.31
   1  -2  -1   13.39    0.98
   1  -2  -1   13.32    1.08
   1   2   1   13.03    1.34
  -1   1   1   96.14    4.29
  -1  -1  -1   99.79    4.38
  -1   1   1  101.64    4.18
  -1  -1  -1   93.49    4.35
  -1  -1  -1   91.29    4.46
  -1   1   1   86.99    4.19
   1  -1  -1  109.00    4.27
   1  -1  -1   88.77    4.19
   1   1   1   90.19    4.36
   1  -1  -1   96.36    4.19
   1   1   1   95.96    4.21
   1   1   1   94.95    4.38
  -1   0   1   -0.34    0.24
  -1   0  -1    0.07    0.14
  -1   0   1   -0.09    0.16
  -1   0   1    0.32    0.24
  -1   0  -1    0.00    0.17
  -1   0   1   -0.15    0.16
  -1   0  -1    0.17    0.19
   1   0  -1    0.07    0.14
   1   0  -1   -0.14    0.16
   1   0  -1    0.28    0.24
   1   0   1   -0.14    0.15
   1   0   1   -0.04    0.14
   1   0  -1   -0.14    0.23
  -1  -1   1   97.17    4.17
  -1   1  -1   89.74    4.02
  -1  -1   1   89.89    4.18
  -1  -1   1   79.86    4.22
  -1  -1   1   91.91    4.42
  -1  -1   1   96.85    4.15
   1   1  -1   90.48    4.44
   1   1  -1   92.51    4.15
   1   1  -1   90.44    4.17
   1   1  -1   90.86    4.13
  -1  -2   1   13.80    1.25
  -1  -2   1   12.87    1.33
  -1  -2   1   13.41    1.22
  -1   2  -1   14.59    1.07
  -1  -2   1   11.66    1.59
   1  -2   1   14.30    0.99
   1   2  -1   13.29    1.27
   1   2  -1   13.15    1.39
   1   2  -1   14.41    1.39
  -1  -3   1    0.08    1.11
  -1   3  -1    0.77    0.70
  -1  -3   1   -0.25    0.84
  -1  -3   1    0.08    0.68
  -1   3  -1    0.51    0.74
  -1  -3   1   -0.59    0.77
   1  -3   1   -0.10    0.61
   1   3  -1    0.52    0.77
   1   3  -1    0.32    0.87
   1   3  -1    0.10    0.81
  -1   4  -1   14.53    1.76
  -1  -4   1   14.07    2.06
  -1   4  -1   16.31    1.94
  -1  -4   1   12.97    1.81
  -1  -4   1   14.18    2.39
  -1   4  -1   12.32    2.01
   1   4  -1   13.49    2.25
   1   4  -1   14.08    2.10
   1  -4   1   17.29    1.78
   1   4  -1   15.29    1.96
  -1  -5   1   -1.00    1.24
  -1   5  -1    0.54    1.48
  -1  -5   1   -1.51    1.33
  -1   5  -1    0.06    1.22
  -1  -5   1    0.56    1.89
  -1   5  -1    1.62    1.44
   1   5  -1   -1.02    1.35
   1   5  -1    0.17    1.44
   1  -5   1    2.13    1.29
   1   5  -1   -1.40    1.60
  -1  -6   1    5.00    2.16
  -1   6  -1    9.83    2.12
  -1  -6   1   10.15    1.96
  -1   6  -1    9.92    2.65
  -1   6  -1    9.51    2.17
  -1  -6   1   12.47    2.95
   1   6  -1    7.66    2.58
   1   6  -1    8.67    2.73
   1   6  -1    7.85    2.26
   1  -6   1    6.44    2.47
  -1  -7   1  236.66   11.36
  -1   7  -1  239.74   11.90
  -1  -7   1  233.32   12.78
  -1   7  -1  266.23   12.19
  -1   7  -1  213.85   12.39
  -1  -7   1  237.39   11.93
   1  -7   1  246.86   11.65
   1   7  -1  242.91   12.72
   1   7  -1  231.26   12.42
   1   7  -1  218.61   11.96
  -1  -8   1    5.44    4.59
  -1  -8   1   12.13    2.68
  -1   8  -1    8.55    3.62
  -1   8  -1    9.49    3.95
  -1   8  -1   14.83    4.20
   1   8  -1   12.37    3.95
   1   8  -1   10.35    4.38
   1   8  -1    6.78    3.88
  -1   9  -1   -1.88    5.05
  -1  -9   1    6.48    4.89
  -1  -9   1    1.51    2.82
  -1   9  -1   -4.80    3.74
  -1  -9   1    2.54    4.77
  -1   9  -1   -3.77    4.55
   1   9  -1    4.34    6.02
   1   9  -1    0.53    4.74
   1  -9   1    7.42    4.14
   1   9  -1    0.53    4.05
  -1  10  -1   -2.53    7.20
  -1 -10   1   -4.70    6.48
  -1 -10   1    1.11    3.71
  -1  10  -1    7.01    6.69
  -1  10  -1    2.21    5.14
   1  10  -1    5.48    6.58
   1  10  -1   -2.31    5.28
   1  10  -1   -5.23    7.72
  -1  11  -1    5.25   10.04
  -1  11  -1    0.82    8.57
  -1  11  -1    1.44    7.29
   1  11  -1   11.63   11.05
   1  11  -1    9.13    8.02
   1  11  -1   -3.09    7.14
  -2  11   1    3.45    7.74
  -2  11   1    9.02    9.43
  -2 -11  -1   -4.97    9.89
  -2  11   1    2.41    9.19
   2  11   1   11.99    8.96
   2  11   1    1.59    8.01
   2  11   1   -5.69   11.41
  -2  10   1   -3.12    5.43
  -2 -10  -1   10.89    4.77
  -2  10   1   -5.79    6.52
  -2 -10  -1    4.41    7.73
   2  10   1   -3.76    5.68
   2  10   1   13.90    6.80
   2  10   1    6.25    8.57
  -2  -9  -1    9.37    5.76
  -2   9   1    1.66    7.05
  -2   9   1   -2.01    5.47
  -2   9   1    4.84    4.90
  -2   9   1   11.65    4.74
  -2  -9  -1   -1.11    6.92
   2   9   1    7.81    6.51
   2   9   1   13.59    5.31
   2   9   1    1.87    4.51
   2   9   1    2.62    7.08
   2  -9  -1    6.64    3.69
  -2   8   1   11.76    3.92
  -2   8   1   14.09    5.75
  -2   8   1   15.23    7.60
  -2   8   1   12.10    3.45
  -2  -8  -1    9.61    3.13
  -2  -8  -1    5.69    5.02
   2   8   1    8.64    3.70
   2   8   1    6.75    5.69
   2   8   1    3.61    5.01
  -2  -7  -1   21.07    3.61
  -2   7   1   20.79    3.27
  -2  -7  -1   15.96    4.49
  -2   7   1   15.89    3.50
  -2   7   1   12.00    3.32
   2   7   1   16.59    3.38
   2   7   1   19.23    4.14
   2  -7  -1   21.02    3.55
   2   7   1   20.89    3.87
  -2  -6  -1   32.01    4.67
  -2  -6  -1   37.04    3.94
  -2   6   1   29.91    3.75
  -2   6   1   33.00    3.48
  -2   6   1   38.76    4.00
  -2  -6  -1   39.69    4.22
   2   6   1   34.34    4.77
   2  -6  -1   43.94    3.55
   2   6   1   39.29    3.84
   2   6   1   35.62    4.08
  -2  -5  -1   -0.16    1.34
  -2   5   1   -0.53    1.28
  -2  -5  -1   -1.60    1.49
  -2   5   1   -1.88    1.37
   2  -5  -1    0.29    1.19
   2   5   1   -0.25    1.76
   2   5   1   -0.67    1.39
   2   5   1    1.87    1.58
  -2   4   1   16.54    1.79
  -2  -4  -1   16.59    2.37
  -2   4   1   15.90    2.09
  -2   4   1   16.41    1.92
  -2  -4  -1   18.35    2.15
   2   4   1   19.39    2.57
   2  -4  -1   16.68    1.79
   2   4   1   20.47    2.47
   2   4   1   20.13    2.16
  -2  -3  -1  653.17   27.69
  -2   3   1  655.82   27.28
  -2   3   1  630.26   27.34
  -2  -3  -1  642.12   27.70
  -2   3   1  643.57   27.25
   2  -3  -1  647.38   27.20
   2   3   1  628.11   27.52
   2   3   1  607.15   27.66
   2   3   1  663.57   27.81
   2  -3  -1  663.14   27.18
  -2  -2  -1   59.76    3.31
  -2  -2  -1   61.36    3.30
  -2   2   1   58.35    2.94
  -2  -2  -1   57.34    3.03
  -2   2   1   55.74    2.92
  -2   2   1   58.59    2.91
   2  -2  -1   66.84    2.88
   2   2   1   59.54    3.34
   2  -2  -1   55.70    2.99
   2  -2  -1   57.02    2.90
   2   2   1   61.26    3.32
   2   2   1   61.97    3.05
   2   2   1   59.70    3.31
  -2   1   1  352.57   15.06
  -2  -1  -1  368.64   15.31
  -2  -1  -1  360.31   15.30
  -2   1   1  362.44   15.03
  -2   1   1  337.85   15.02
  -2   1   1  341.58   15.19
   2   1   1  349.34   15.20
   2   1   1  331.19   15.29
   2  -1  -1  338.30   15.06
   2   1   1  373.11   15.28
   2  -1  -1  374.72   15.06
   2  -1  -1  380.49   15.24
  -2   0   1   -1.00    0.48
  -2   0  -1   -0.24    0.35
  -2   0  -1   -0.04    0.24
  -2   0  -1    0.13    0.29
  -2   0   1    0.45    0.35
  -2   0   1    0.13    0.36
   2   0   1    0.07    0.33
   2   0  -1    0.45    0.35
   2   0  -1    0.64    0.58
   2   0   1   -0.16    0.30
  -2  -1   1  365.36   14.95
  -2  -1   1  365.75   14.86
  -2   1  -1  360.95   14.75
  -2  -1   1  338.11   14.93
  -2  -1   1  354.35   14.99
  -2  -1   1  338.38   15.34
   2   1  -1  354.38   14.92
   2   1  -1  334.91   14.80
   2   1  -1  361.62   15.42
   2   1  -1  323.76   14.84
   2  -1   1  333.39   14.77
  -2  -2   1   57.28    3.25
  -2  -2   1   58.48    3.30
  -2   2  -1   69.37    3.05
  -2  -2   1   56.95    3.20
  -2  -2   1   54.49    3.69
   2   2  -1   64.33    3.40
   2   2  -1   63.28    3.18
   2   2  -1   54.60    3.22
  -2  -3   1  627.64   27.82
  -2  -3   1  683.93   27.32
  -2   3  -1  609.18   26.91
  -2  -3   1  629.25   27.27
  -2  -3   1  603.07   27.25
   2   3  -1  644.04   27.23
   2   3  -1  641.73   27.24
   2   3  -1  632.92   27.36
  -2  -4   1   14.04    2.62
  -2   4  -1   20.10    2.07
  -2  -4   1   18.15    2.44
  -2   4  -1   18.09    2.00
  -2  -4   1   19.26    2.28
  -2  -4   1   18.67    2.19
   2  -4   1   20.99    1.75
   2   4  -1   19.08    2.56
   2   4  -1   21.39    2.36
   2   4  -1   18.57    2.43
  -2  -5   1   -0.05    1.55
  -2   5  -1   -1.93    1.12
  -2  -5   1    0.01    1.97
  -2  -5   1   -1.72    1.37
  -2   5  -1    1.15    1.48
   2   5  -1   -1.07    1.49
   2   5  -1    2.98    1.55
   2   5  -1    0.63    1.76
   2  -5   1   -0.54    1.18
  -2  -6   1   30.81    4.06
  -2   6  -1   33.85    3.82
  -2  -6   1   44.80    4.98
  -2  -6   1   36.63    3.60
  -2   6  -1   39.78    3.54
  -2   6  -1   31.36    3.97
   2   6  -1   38.85    4.46
   2   6  -1   37.80    3.97
   2  -6   1   37.16    3.25
   2   6  -1   36.30    4.18
  -2   7  -1   18.94    3.18
  -2   7  -1   16.89    3.10
  -2   7  -1   16.05    3.76
  -2  -7   1   20.95    3.12
  -2  -7   1   19.94    4.30
  -2   7  -1   23.51    4.20
   2   7  -1   13.41    3.32
   2  -7   1   25.72    3.57
   2   7  -1   18.76    3.82
   2   7  -1   20.16    4.13
  -2   8  -1    9.32    3.48
  -2   8  -1    7.64    3.28
  -2  -8   1    7.95    2.85
  -2   8  -1   14.41    4.44
  -2   8  -1    2.39    5.01
  -2  -8   1    0.76    4.33
   2   8  -1    3.14    4.42
   2   8  -1   13.60    4.63
   2   8  -1   14.73    3.88
  -2   9  -1   12.82    4.28
  -2   9  -1   -5.24    5.09
  -2   9  -1    8.34    5.07
  -2  -9   1    5.13    4.49
  -2  -9   1   10.39    3.65
  -2   9  -1    7.37    4.54
  -2  -9   1   -1.52    5.19
   2   9  -1    6.08    4.24
   2   9  -1    8.13    4.84
   2  -9   1   -1.57    4.01
   2   9  -1   17.07    6.67
  -2 -10   1   -9.93    6.52
  -2 -10   1    3.16    5.74
  -2  10  -1   -8.35    5.99
  -2  10  -1   -0.31    6.76
  -2  10  -1   -8.17    5.39
   2  10  -1    9.98    8.43
   2  10  -1   -5.62    5.99
   2  10  -1   -0.31    5.54
  -2  11  -1   -6.38   10.01
  -2  11  -1   -2.52    6.90
  -2  11  -1    0.72    8.75
   2  11  -1    7.02   12.20
   2  11  -1  -15.51    7.14
   2  11  -1    7.82    7.92
  -3  11   1   20.54   11.04
  -3  11   1   33.19   11.08
  -3  11   1   25.80    8.77
   3  11   1    5.06    8.59
   3  11   1   40.98   14.29
   3  11   1    0.49    8.43
  -3 -10  -1   -7.34    5.35
  -3  10   1    4.30    5.70
  -3  10   1    4.98    6.56
  -3  10   1   11.29    6.00
  -3 -10  -1   -7.95    7.70
   3  10   1    5.51    6.50
   3  10   1    8.48    6.29
   3  10   1   31.93   10.26
  -3  -9  -1   19.37    6.68
  -3  -9  -1    9.57    3.90
  -3   9   1   25.91    7.47
  -3   9   1   13.62    6.32
  -3   9   1    7.49    5.87
  -3   9   1   14.03    5.52
  -3   9   1   15.28    5.03
   3   9   1   18.50    5.61
   3  -9  -1    4.57    3.70
   3   9   1    6.02    4.96
   3   9   1   12.49    6.97
  -3  -8  -1    3.88    5.27
  -3   8   1   -1.80    3.99
  -3   8   1    6.60    4.51
  -3   8   1    7.89    3.25
  -3   8   1    8.73    5.62
  -3  -8  -1    9.37    4.32
   3   8   1   15.91    4.07
   3   8   1    6.51    5.78
   3   8   1    6.33    5.05
  -3  -7  -1    0.82    2.60
  -3   7   1    3.71    2.42
  -3  -7  -1   10.40    4.41
  -3  -7  -1    5.64    2.89
  -3   7   1    6.49    2.86
  -3   7   1    6.19    3.14
  -3   7   1    2.50    4.21
   3  -7  -1    1.96    2.01
   3   7   1    6.17    4.22
   3   7   1    7.16    3.21
   3   7   1    3.27    3.26
   3   7   1    0.04    3.52
  -3   6   1   23.99    3.18
  -3  -6  -1   19.98    4.18
  -3  -6  -1   29.32    4.18
  -3   6   1   20.38    3.48
  -3   6   1   21.81    3.74
  -3  -6  -1   23.10    3.67
   3   6   1   22.98    4.64
   3   6   1   28.50    3.75
   3  -6  -1   27.45    2.76
   3   6   1   21.33    3.38
   3   6   1   28.64    4.69
  -3   5   1   23.96    2.70
  -3   5   1   25.19    3.05
  -3  -5  -1   22.93    3.66
  -3   5   1   22.83    2.43
  -3  -5  -1   29.33    3.50
  -3  -5  -1   20.52    2.87
   3  -5  -1   23.77    2.29
   3   5   1   22.44    3.33
   3   5   1   26.07    2.99
   3   5   1   21.82    3.63
  -3   4   1   12.30    1.78
  -3   4   1   17.82    1.80
  -3  -4  -1   17.95    2.42
  -3   4   1   16.20    2.08
  -3  -4  -1   14.30    2.17
   3   4   1   15.02    2.61
   3  -4  -1   14.73    1.65
   3   4   1   14.47    2.16
   3   4   1   11.60    2.22
  -3   3   1   28.57    1.92
  -3  -3  -1   26.33    2.13
  -3   3   1   24.95    1.96
  -3   3   1   27.69    1.90
  -3  -3  -1   28.19    2.50
  -3  -3  -1   25.80    2.48
   3  -3  -1   29.10    2.20
   3   3   1   28.10    2.56
   3   3   1   25.31    2.16
   3   3   1   22.03    2.63
   3  -3  -1   28.90    1.78
   3   3   1   28.16    2.74
  -3  -2  -1   10.43    1.55
  -3   2   1   13.18    1.32
  -3   2   1   12.42    1.30
  -3  -2  -1   11.59    1.66
  -3   2   1   11.77    1.21
  -3   2   1   11.78    1.12
  -3  -2  -1   10.86    1.18
   3   2   1   11.97    1.69
   3  -2  -1   11.21    1.24
   3   2   1   10.36    1.75
   3   2   1   10.06    1.16
   3   2   1   10.92    1.57
   3  -2  -1   13.60    1.02
  -3  -1  -1   67.10    3.41
  -3   1   1   64.51    3.06
  -3   1   1   63.88    3.06
  -3  -1  -1   62.19    3.35
  -3   1   1   64.87    3.37
   3   1   1   60.16    3.29
   3  -1  -1   66.28    3.06
   3  -1  -1   61.05    3.09
   3   1   1   58.58    3.22
   3   1   1   60.73    3.17
  -3   0  -1    0.20    0.42
  -3   0  -1    0.17    0.49
  -3   0  -1    0.46    0.51
  -3   0   1   -0.51    0.49
  -3   0   1    0.31    0.80
  -3   0   1   -0.71    0.43
   3   0  -1   -0.26    0.40
   3   0  -1    0.31    0.50
   3   0   1   -0.01    0.43
   3   0  -1    0.77    0.87
  -3  -1   1   61.05    3.35
  -3  -1   1   58.10    3.27
  -3   1  -1   61.96    3.03
  -3  -1   1   69.84    3.39
  -3  -1   1   65.65    3.17
  -3  -1   1   58.50    3.88
   3   1  -1   65.50    3.94
   3  -1   1   63.05    3.11
   3   1  -1   64.28    3.24
   3   1  -1   62.10    3.12
  -3  -2   1   13.60    2.27
  -3  -2   1   11.59    1.64
  -3  -2   1   11.12    1.72
  -3  -2   1   12.28    1.41
  -3   2  -1   10.75    1.12
   3   2  -1   11.67    1.61
   3  -2   1   11.83    1.44
   3   2  -1   14.70    1.32
   3   2  -1   12.50    1.62
  -3  -3   1   27.87    2.55
  -3  -3   1   27.35    2.25
  -3  -3   1   27.04    3.15
  -3  -3   1   26.77    2.50
  -3   3  -1   27.28    1.99
   3   3  -1   27.48    2.21
   3   3  -1   22.11    2.40
   3   3  -1   28.98    2.63
  -3  -4   1   15.51    2.58
  -3  -4   1   12.14    2.74
  -3   4  -1   14.32    1.97
  -3  -4   1   15.30    2.38
  -3  -4   1   14.74    2.24
   3   4  -1   13.74    2.02
   3   4  -1   13.57    2.37
   3   4  -1   12.28    1.99
  -3   5  -1   27.50    2.78
  -3  -5   1   23.54    3.78
  -3  -5   1   25.32    3.40
  -3   5  -1   24.88    2.84
  -3  -5   1   30.02    3.20
   3   5  -1   19.90    3.06
   3   5  -1   29.34    3.88
   3   5  -1   26.92    3.28
   3  -5   1   24.32    2.14
  -3   6  -1   21.14    3.31
  -3   6  -1   23.26    3.31
  -3  -6   1   21.17    4.13
  -3  -6   1   24.03    3.59
  -3   6  -1   25.97    3.17
  -3  -6   1   26.93    4.26
   3   6  -1   19.50    3.68
   3   6  -1   24.52    4.07
   3   6  -1   24.66    3.93
   3  -6   1   22.57    2.61
  -3   7  -1    0.84    2.35
  -3  -7   1    5.04    2.40
  -3  -7   1    0.89    3.80
  -3   7  -1    5.13    3.41
  -3   7  -1    3.83    2.33
   3  -7   1    0.87    1.96
   3   7  -1    5.44    2.88
   3   7  -1    5.29    2.99
   3   7  -1    4.39    4.12
  -3   8  -1   -4.89    3.93
  -3   8  -1    3.52    2.97
  -3  -8   1    1.84    3.36
  -3   8  -1    3.61    3.50
  -3  -8   1   -1.93    4.77
  -3   8  -1    6.43    3.55
   3   8  -1   10.14    5.63
   3   8  -1   11.44    3.83
   3   8  -1    6.56    3.75
  -3  -9   1    9.58    4.21
  -3   9  -1   14.88    5.65
  -3  -9   1   -2.51    5.94
  -3   9  -1   15.57    4.59
  -3   9  -1   17.01    5.03
   3   9  -1   17.83    7.38
   3   9  -1    5.88    4.81
   3   9  -1   17.67    5.47
   3  -9   1   10.66    3.53
  -3  10  -1   -2.06    5.15
  -3  10  -1    6.00    6.96
  -3 -10   1    5.48    5.35
  -3 -10   1  -11.41    7.24
  -3  10  -1   10.63    6.89
   3  10  -1   -3.99    5.74
   3  10  -1   -1.85    8.98
   3  10  -1    7.42    6.72
  -3  11  -1    6.30    7.52
  -3  11  -1    7.23    9.30
  -3 -11   1   19.60   10.16
  -3  11  -1   15.29   10.81
   3  11  -1    7.26    8.02
   3  11  -1   13.10   12.12
   3  11  -1    6.84    9.11
  -4  10   1   -5.03    7.04
  -4  10   1    9.02    6.42
  -4  10   1   19.88    7.16
  -4 -10  -1    8.43    9.31
   4  10   1   -5.16    6.62
   4  10   1  -17.86    9.67
   4  10   1   16.55    7.36
  -4   9   1   20.75    7.37
  -4  -9  -1   -2.84    6.86
  -4  -9  -1   -4.97    4.57
  -4   9   1    2.27    5.35
  -4   9   1   -1.05    6.08
   4   9   1    8.43    5.75
   4  -9  -1    3.98    3.18
   4   9   1   -0.89    4.87
   4   9   1    6.87    7.71
  -4  -8  -1   -2.22    5.17
  -4  -8  -1    3.46    3.71
  -4  -8  -1    4.24    4.43
  -4   8   1    6.36    3.55
  -4   8   1    8.99    3.91
  -4   8   1   19.76    5.93
   4   8   1    5.73    5.68
   4   8   1    9.42    4.89
   4   8   1    2.00    4.31
   4  -8  -1    7.68    4.07
   4   8   1   14.72    6.09
  -4   7   1    2.48    2.35
  -4  -7  -1   -0.76    4.05
  -4  -7  -1    3.15    3.52
  -4  -7  -1   -2.31    2.99
  -4   7   1   -0.65    3.96
  -4   7   1    1.66    3.04
   4   7   1    3.99    4.26
   4   7   1   -0.60    3.21
   4  -7  -1    4.19    1.82
   4   7   1    0.03    3.00
  -4   6   1   19.34    2.77
  -4  -6  -1   13.64    3.31
  -4   6   1   23.41    3.85
  -4   6   1   14.69    2.77
  -4   6   1   27.28    3.89
  -4  -6  -1   20.44    3.43
  -4  -6  -1   14.25    4.02
   4   6   1   13.58    3.11
   4   6   1   18.64    3.23
   4   6   1   18.62    3.88
   4  -6  -1   15.40    2.42
   4   6   1   23.26    4.28
  -4  -5  -1   22.27    3.31
  -4   5   1   23.52    2.52
  -4  -5  -1   26.02    3.81
  -4   5   1   21.60    3.79
  -4  -5  -1   28.50    4.81
  -4   5   1   19.85    3.11
  -4   5   1   23.88    2.74
   4   5   1   16.39    2.91
   4   5   1   26.37    4.06
   4   5   1   30.17    4.25
   4  -5  -1   24.01    2.22
   4   5   1   21.78    3.78
  -4   4   1    7.25    2.02
  -4  -4  -1    3.48    1.71
  -4   4   1    5.69    1.46
  -4   4   1    6.73    1.44
  -4   4   1    6.87    1.27
  -4  -4  -1    5.62    2.52
  -4  -4  -1    6.69    2.01
   4  -4  -1    7.01    1.15
   4   4   1    4.94    1.87
   4   4   1    4.46    2.17
   4   4   1    4.24    1.97
   4   4   1    6.13    1.58
  -4   3   1    2.01    0.91
  -4  -3  -1    2.79    1.48
  -4   3   1    2.65    0.94
  -4  -3  -1    0.22    1.05
  -4   3   1    3.15    1.13
  -4   3   1    1.55    0.92
  -4  -3  -1    2.68    1.38
   4   3   1    0.91    1.37
   4  -3  -1    3.15    1.30
   4   3   1    1.29    1.53
   4   3   1    0.69    1.39
   4   3   1    2.51    1.09
  -4  -2  -1   23.51    1.80
  -4  -2  -1   26.16    2.27
  -4   2   1   20.45    1.92
  -4   2   1   22.19    1.70
  -4   2   1   24.13    1.71
  -4  -2  -1   22.95    2.33
   4   2   1   17.79    2.21
   4  -2  -1   24.22    1.60
   4   2   1   25.44    1.63
   4   2   1   22.59    2.27
   4  -2  -1   25.53    1.84
   4   2   1   23.60    2.18
  -4   1   1   24.71    1.69
  -4  -1  -1   27.94    2.28
  -4  -1  -1   24.63    1.63
  -4  -1  -1   24.72    2.12
  -4   1   1   27.60    1.71
  -4   1   1   27.50    2.28
   4  -1  -1   27.77    1.79
   4  -1  -1   24.16    1.72
   4   1   1   26.89    2.02
   4   1   1   25.86    1.71
   4   1   1   26.99    1.92
  -4   0  -1    0.60    0.72
  -4   0  -1   -0.70    0.63
  -4   0  -1   -0.28    1.24
  -4   0   1    0.22    0.70
  -4   0  -1    0.04    0.64
  -4   0  -1    0.87    0.55
  -4   0   1   -0.28    0.60
  -4   0   1   -1.75    0.97
   4   0  -1    0.00    0.52
   4   0  -1    0.78    0.65
   4   0  -1    1.44    1.15
   4   0   1   -0.23    0.55
  -4  -1   1   25.86    2.89
  -4  -1   1   29.56    2.19
  -4  -1   1   27.68    1.86
  -4  -1   1   25.95    2.04
  -4  -1   1   28.78    2.16
  -4   1  -1   28.76    1.72
   4  -1   1   26.30    1.82
   4   1  -1   24.51    1.76
  -4  -2   1   22.59    2.14
  -4  -2   1   25.33    2.07
  -4  -2   1   25.71    3.07
  -4  -2   1   24.96    2.41
  -4   2  -1   24.77    1.70
  -4  -2   1   23.86    2.41
   4   2  -1   26.58    1.91
   4  -2   1   22.46    1.98
   4   2  -1   23.47    2.21
   4   2  -1   26.28    2.11
  -4  -3   1    2.23    1.32
  -4  -3   1    1.59    1.28
  -4  -3   1    1.96    1.77
  -4   3  -1    1.09    1.02
  -4  -3   1    0.87    1.45
   4   3  -1    1.99    1.15
   4   3  -1    0.78    1.35
   4  -3   1    0.95    1.15
   4   3  -1   -1.02    1.37
  -4  -4   1    5.36    2.46
  -4  -4   1    4.34    1.77
  -4   4  -1    7.21    1.55
  -4  -4   1    4.27    1.91
  -4  -4   1    4.78    1.66
   4   4  -1    3.93    1.58
   4   4  -1    4.01    1.57
   4   4  -1    4.31    1.85
  -4  -5   1   26.31    3.64
  -4   5  -1   29.02    2.89
  -4  -5   1   29.06    3.45
  -4  -5   1   22.87    3.83
  -4   5  -1   25.79    2.77
  -4  -5   1   24.99    4.81
   4   5  -1   23.05    3.88
   4   5  -1   23.83    3.04
   4   5  -1   23.86    3.51
  -4  -6   1   18.06    3.32
  -4  -6   1   20.16    4.29
  -4   6  -1   22.50    4.26
  -4   6  -1   21.16    2.59
  -4  -6   1   13.04    3.17
   4   6  -1   16.69    3.11
   4   6  -1   13.81    3.00
   4   6  -1   20.87    4.00
  -4  -7   1    1.83    3.42
  -4   7  -1    2.95    2.50
  -4  -7   1    0.86    4.09
  -4  -7   1    0.85    2.68
  -4   7  -1   -1.47    2.55
   4   7  -1    2.88    3.85
   4   7  -1   -3.38    2.73
   4   7  -1    0.09    3.08
  -4   8  -1   11.99    3.49
  -4   8  -1   12.72    4.71
  -4  -8   1    4.03    5.60
  -4   8  -1   13.25    4.66
  -4  -8   1    9.58    4.56
  -4   8  -1   13.33    3.95
  -4  -8   1   13.04    5.38
   4   8  -1    5.82    4.30
   4   8  -1   10.47    5.62
  -4  -9   1    1.19    6.51
  -4   9  -1    0.97    5.47
  -4   9  -1    0.40    4.52
  -4   9  -1    5.14    4.21
  -4  -9   1   -5.43    4.65
   4   9  -1   -5.07    4.83
   4   9  -1   -7.54    4.89
   4   9  -1    8.30    7.35
  -4  10  -1    1.72    5.75
  -4  10  -1    2.65    5.75
  -4  10  -1    2.01    7.43
  -4 -10   1    2.37    8.07
   4  10  -1   26.88   10.89
   4  10  -1    2.29    6.24
   4  10  -1   11.21    6.28
  -5  10   1   20.84    6.48
  -5 -10  -1  -11.51    9.97
  -5  10   1    2.19    8.03
  -5  10   1   22.27    7.99
   5  10   1    6.02    7.88
   5  10   1    7.74    6.64
   5  10   1    4.59   10.88
  -5  -9  -1   31.97    8.52
  -5   9   1   22.46    6.29
   5   9   1   11.10    5.39
   5   9   1   16.32    8.46
   5   9   1   10.17    6.14
  -5   8   1    2.65    3.62
  -5  -8  -1   -5.26    3.88
  -5   8   1    7.43    4.53
  -5   8   1    1.46    4.16
  -5  -8  -1    7.41    5.01
  -5  -8  -1   -2.22    5.78
  -5   8   1    1.18    5.34
   5   8   1    1.03    4.66
   5   8   1   -4.94    5.88
   5   8   1    5.87    6.23
   5   8   1    0.90    3.72
  -5  -7  -1   -6.13    5.00
  -5  -7  -1    4.69    3.78
  -5   7   1   -0.59    3.17
  -5   7   1    4.75    3.38
  -5   7   1    8.13    4.10
  -5  -7  -1    7.54    3.56
   5   7   1   -3.14    3.43
   5   7   1    3.28    3.04
   5  -7  -1    5.22    1.93
   5   7   1   -3.21    4.46
  -5   6   1   12.43    3.32
  -5  -6  -1    3.09    2.64
  -5   6   1    7.71    2.42
  -5  -6  -1    3.94    3.92
  -5   6   1    5.07    2.09
  -5  -6  -1    5.56    3.18
  -5   6   1    4.50    2.44
   5   6   1    4.80    3.26
   5   6   1    7.26    3.23
   5   6   1    5.85    2.62
   5   6   1    3.81    3.35
  -5   5   1   22.69    3.30
  -5  -5  -1   19.48    3.26
  -5  -5  -1   20.78    4.35
  -5   5   1   19.97    2.63
  -5  -5  -1   19.41    3.33
  -5   5   1   20.67    2.57
   5   5   1   15.42    2.95
   5   5   1   14.51    3.01
   5   5   1   19.85    3.67
  -5   4   1   43.12    3.15
  -5   4   1   42.82    3.19
  -5  -4  -1   43.65    4.37
  -5   4   1   48.24    3.70
  -5  -4  -1   44.39    3.55
  -5  -4  -1   47.69    4.28
  -5  -4  -1   44.29    5.22
   5   4   1   47.33    3.29
   5  -4  -1   49.74    3.73
   5   4   1   43.98    4.12
   5   4   1   47.95    4.45
   5  -4  -1   44.97    2.71
   5   4   1   44.76    4.29
  -5  -3  -1    1.19    2.17
  -5  -3  -1    0.85    1.50
  -5  -3  -1    0.02    1.17
  -5   3   1    0.81    0.87
  -5  -3  -1   -1.12    1.56
  -5   3   1    1.08    1.06
   5   3   1    0.19    1.54
   5   3   1    2.19    1.13
   5   3   1    1.08    1.58
   5  -3  -1    1.72    1.47
   5  -3  -1    0.32    0.81
   5   3   1    1.37    1.65
  -5  -2  -1    5.66    1.62
  -5  -2  -1    7.87    1.72
  -5   2   1    6.03    1.53
  -5   2   1    8.17    1.26
  -5   2   1    5.06    1.08
  -5  -2  -1    7.76    1.32
  -5  -2  -1    6.89    2.51
   5   2   1    6.20    1.59
   5   2   1    4.87    1.42
   5  -2  -1    4.85    1.30
   5  -2  -1    6.98    1.07
   5   2   1    7.25    1.46
  -5   1   1    1.34    0.74
  -5   1   1    1.71    1.29
  -5  -1  -1    0.16    0.95
  -5  -1  -1    1.59    0.75
  -5  -1  -1    3.13    2.02
  -5  -1  -1    0.44    1.16
  -5  -1  -1    2.25    1.11
   5   1   1    1.62    0.82
   5  -1  -1    2.16    0.97
   5  -1  -1    1.34    0.76
  -5   0  -1    0.03    0.77
  -5   0   1   -0.99    0.77
  -5   0   1   -0.80    0.84
  -5   0  -1    0.91    1.47
  -5   0  -1    0.15    0.64
  -5   0   1    0.02    0.96
  -5   0   1   -1.78    1.28
  -5   0  -1   -0.07    1.03
  -5   0   1   -0.30    0.77
  -5   0  -1    0.21    0.91
   5   0   1   -0.27    0.77
   5   0  -1   -0.26    0.70
  -5  -1   1    1.76    1.28
  -5  -1   1    0.78    0.88
  -5  -1   1    0.78    0.86
  -5   1  -1    1.50    0.87
  -5  -1   1    2.44    1.17
  -5  -1   1   -2.14    1.47
  -5   1  -1    2.35    0.87
  -5   1  -1    1.54    0.73
   5  -1   1    1.64    0.93
  -5  -2   1    8.13    1.59
  -5  -2   1    5.43    2.26
  -5   2  -1    6.92    1.16
  -5  -2   1    7.12    1.57
  -5  -2   1    5.43    1.64
  -5  -2   1    6.51    1.73
   5  -2   1    7.24    1.43
   5   2  -1    6.91    1.55
   5   2  -1    8.99    1.45
  -5  -3   1    0.35    1.49
  -5   3  -1    0.53    1.02
  -5  -3   1    1.48    2.18
  -5  -3   1   -0.21    1.23
  -5  -3   1    0.21    1.72
  -5  -3   1    1.00    1.31
   5  -3   1    0.49    1.47
   5   3  -1    0.58    1.46
   5   3  -1    1.73    1.28
   5   3  -1    2.89    1.33
  -5  -4   1   39.96    4.33
  -5  -4   1   43.40    3.65
  -5  -4   1   34.39    3.90
  -5  -4   1   44.06    5.04
  -5  -4   1   48.18    4.17
  -5   4  -1   44.18    3.13
   5   4  -1   51.10    4.30
   5   4  -1   49.42    3.93
   5   4  -1   46.52    3.33
  -5   5  -1   17.06    2.91
  -5  -5   1   23.57    3.76
  -5  -5   1   23.84    4.03
  -5  -5   1   22.28    3.47
  -5  -5   1   19.46    3.84
   5   5  -1   23.18    3.60
   5   5  -1   19.54    3.00
   5   5  -1   20.00    3.05
  -5  -6   1   -0.22    2.79
  -5  -6   1   10.39    3.94
  -5  -6   1    7.51    3.40
   5   6  -1    3.57    2.40
   5   6  -1    1.35    2.76
   5   6  -1    1.64    3.28
  -5   7  -1   -0.22    2.33
  -5   7  -1    3.54    3.00
  -5  -7   1    2.18    3.83
   5   7  -1   -0.58    3.55
   5   7  -1   -0.50    2.83
   5   7  -1   -0.23    4.20
  -5   8  -1   -0.28    3.34
  -5  -8   1   -4.98    4.94
  -5   8  -1   -0.17    4.16
  -5   8  -1   -3.74    4.21
  -5  -8   1   -9.71    5.22
  -5  -8   1   -4.85    4.30
   5   8  -1    3.13    5.33
   5   8  -1   -0.56    5.66
   5   8  -1   -5.02    6.22
   5   8  -1   -2.38    3.93
  -5   9  -1   30.75    5.54
  -5   9  -1   27.29    8.36
  -5  -9   1    5.15    7.43
  -5   9  -1   27.91    5.49
  -5   9  -1   27.87    7.15
   5   9  -1   14.87    5.38
   5   9  -1   16.35    8.49
   5   9  -1   16.87    5.66
  -5 -10   1    5.90    9.48
  -5  10  -1   12.11    8.17
  -5  10  -1   22.71    6.71
  -5 -10   1    9.22    6.93
   5  10  -1    4.69    7.75
   5  10  -1    1.27    6.41
   5  10  -1    5.60   10.49
  -6  10   1   -0.02    6.93
  -6  10   1   20.82    9.01
  -6  10   1   12.58    9.91
   6  10   1    2.41   12.46
   6  10   1   -2.67    8.44
   6  10   1    3.74    6.88
  -6   9   1   -1.78    6.34
  -6   9   1    1.54    5.06
  -6  -9  -1   -4.92    8.00
  -6   9   1    3.85    7.49
   6   9   1   -7.58    6.14
   6   9   1    3.93    5.11
   6   9   1   -2.53    8.66
  -6  -8  -1   14.84    7.15
  -6   8   1    9.37    5.57
  -6   8   1   -1.90    3.48
  -6   8   1    6.14    5.12
   6   8   1    5.17    6.74
   6   8   1    1.11    3.88
   6   8   1    1.51    5.49
   6   8   1   23.69    6.58
  -6  -7  -1    0.33    4.47
  -6  -7  -1   -4.64    3.96
  -6   7   1    2.99    3.25
  -6   7   1   -0.76    2.65
  -6   7   1   -0.07    3.50
  -6  -7  -1   -2.25    5.07
   6   7   1    0.76    2.78
   6   7   1    8.47    6.84
   6   7   1   -3.82    5.18
   6   7   1    1.59    5.07
  -6  -6  -1    5.51    3.47
  -6   6   1    3.33    2.93
  -6   6   1    1.54    2.10
  -6   6   1    9.88    3.13
  -6  -6  -1    1.37    4.34
   6   6   1   -2.17    3.55
   6   6   1    8.87    3.86
   6   6   1    7.72    3.92
   6   6   1    0.39    2.29
  -6  -5  -1    2.75    2.94
  -6  -5  -1    2.23    3.74
  -6   5   1    4.29    2.35
  -6   5   1    1.04    2.09
   6   5   1    2.50    2.68
   6   5   1    4.03    2.05
   6   5   1    6.85    3.06
   6   5   1    3.11    3.27
  -6   4   1    0.90    1.40
  -6  -4  -1    2.08    2.34
  -6  -4  -1    1.91    3.05
  -6   4   1    0.62    1.41
  -6  -4  -1   -0.53    2.21
  -6  -4  -1    1.59    1.86
  -6   4   1    2.38    1.63
   6   4   1    3.08    2.11
   6   4   1    3.56    2.25
   6   4   1   -0.98    2.31
   6  -4  -1    2.64    2.09
   6   4   1    2.07    1.63
  -6  -3  -1   26.79    4.61
  -6   3   1   25.91    2.76
  -6   3   1   30.95    2.46
  -6   3   1   23.24    2.37
  -6  -3  -1   24.67    4.30
  -6  -3  -1   27.11    3.76
   6  -3  -1   28.15    2.83
   6   3   1   24.15    3.34
   6   3   1   24.21    3.32
   6   3   1   30.70    3.22
  -6  -2  -1   52.29    3.77
  -6  -2  -1   48.46    4.12
  -6   2   1   52.39    3.06
  -6   2   1   54.85    3.18
  -6   2   1   52.97    3.91
  -6  -2  -1   53.83    3.24
  -6  -2  -1   48.97    5.10
  -6  -2  -1   47.81    3.95
   6   2   1   51.97    3.72
   6  -2  -1   50.35    3.38
   6   2   1   51.23    3.31
   6  -2  -1   53.47    3.09
  -6   1   1   16.16    1.73
  -6   1   1   18.03    2.67
  -6  -1  -1   19.72    3.11
  -6   1   1   15.16    1.80
  -6  -1  -1   17.46    2.41
  -6  -1  -1   16.38    2.81
  -6  -1  -1   17.66    2.29
   6  -1  -1   13.80    1.80
   6   1   1   15.56    1.70
   6  -1  -1   16.75    1.93
  -6   0  -1    1.18    1.11
  -6   0   1    0.47    0.98
  -6   0   1   -1.13    1.18
  -6   0   1   -1.77    1.67
  -6   0   1    0.96    1.02
  -6   0  -1   -0.73    1.30
  -6   0  -1    2.09    1.17
  -6   0  -1    1.63    1.97
  -6   0   1    0.40    1.35
  -6   0  -1    0.23    0.86
   6   0  -1   -0.06    0.92
   6   0   1   -0.62    0.93
  -6  -1   1   17.26    2.32
  -6  -1   1   15.57    2.47
  -6  -1   1   15.66    1.84
  -6   1  -1   19.29    2.04
  -6   1  -1   14.85    1.69
  -6  -1   1   20.60    3.21
  -6  -1   1   16.70    2.61
   6  -1   1   14.83    1.92
   6   1  -1   15.54    1.68
  -6   2  -1   52.54    3.12
  -6  -2   1   49.24    3.72
  -6  -2   1   59.77    3.68
  -6  -2   1   42.03    4.92
  -6  -2   1   60.73    4.29
  -6  -2   1   53.06    4.12
   6  -2   1   54.97    3.40
   6   2  -1   47.06    3.42
   6   2  -1   49.51    3.21
  -6  -3   1   24.52    2.90
  -6  -3   1   28.43    3.63
  -6  -3   1   28.05    4.31
  -6   3  -1   22.75    2.20
  -6  -3   1   26.66    3.17
  -6  -3   1   23.30    3.30
   6   3  -1   25.17    2.79
   6  -3   1   26.14    3.07
   6   3  -1   33.54    3.32
  -6  -4   1   -0.68    1.88
  -6  -4   1   -3.13    2.56
  -6  -4   1    1.87    2.10
  -6  -4   1    1.12    2.89
  -6  -4   1   -0.65    2.15
  -6   4  -1   -1.07    1.44
   6   4  -1    1.43    1.73
   6   4  -1   -0.57    2.02
   6   4  -1    1.83    2.17
  -6  -5   1   -0.67    2.42
  -6  -5   1    5.57    3.01
  -6  -5   1    2.45    3.43
  -6  -5   1    0.88    2.98
   6   5  -1   -1.87    2.71
   6   5  -1    1.72    2.00
   6   5  -1    3.30    2.61
  -6  -6   1    1.67    2.90
  -6  -6   1    3.95    3.51
  -6  -6   1   -2.14    3.93
  -6  -6   1    2.03    3.49
   6   6  -1    7.53    2.99
   6   6  -1   -0.87    3.62
   6   6  -1    0.86    3.31
  -6  -7   1   -9.94    4.97
  -6   7  -1   10.14    3.58
  -6  -7   1    2.67    4.25
  -6  -7   1    2.84    4.49
  -6  -7   1   -2.76    4.10
   6   7  -1   -2.15    3.29
   6   7  -1   -0.02    3.83
   6   7  -1    1.72    4.75
  -6  -8   1   -0.36    6.39
  -6  -8   1   -5.17    4.15
  -6   8  -1    6.68    6.22
   6   8  -1   -3.74    6.14
   6   8  -1    4.10    4.89
   6   8  -1    6.72    5.20
   6   8  -1   10.65    6.91
  -6   9  -1   -2.02    8.24
  -6   9  -1    5.17    6.72
  -6   9  -1    2.72    4.97
  -6  -9   1   -3.50    5.17
  -6  -9   1   -4.81    7.56
   6   9  -1    7.10    6.48
   6   9  -1    3.10    8.74
   6   9  -1    0.37    5.03
  -6 -10   1    1.20   10.45
  -6  10  -1   17.73    7.06
  -6 -10   1   -5.04    6.73
   6  10  -1    6.49    7.03
   6  10  -1   -2.23   11.90
   6  10  -1    6.77    8.24
  -7  -9  -1    2.97    6.58
  -7  -9  -1    1.13    9.65
  -7   9   1    5.01    5.68
  -7   9   1   28.28    8.43
   7   9   1    0.56    8.01
   7   9   1   14.34   10.88
   7   9   1   25.73    6.24
  -7  -8  -1   17.78    7.38
  -7   8   1    6.09    5.23
  -7   8   1   -2.03    3.89
   7   8   1    0.98    6.46
   7   8   1   15.58    7.65
   7   8   1    8.22    4.56
  -7  -7  -1   12.72    6.24
  -7   7   1    5.84    2.96
  -7  -7  -1    0.32    5.28
  -7   7   1   12.69    4.16
   7   7   1    2.20    5.97
   7   7   1    5.86    3.45
   7   7   1    9.20    5.49
   7   7   1    3.31    4.83
  -7  -6  -1   -7.56    4.21
  -7   6   1    2.16    3.00
  -7   6   1   -2.20    2.09
  -7  -6  -1    0.53    4.95
  -7   6   1   -2.55    3.11
   7   6   1    2.51    2.71
   7   6   1   -4.82    4.13
   7   6   1   -2.64    3.72
   7   6   1    9.96    4.37
  -7   5   1    5.06    2.04
  -7   5   1    5.35    2.34
  -7  -5  -1    0.93    4.00
  -7  -5  -1    0.65    3.38
   7   5   1    5.16    3.46
   7   5   1    3.42    3.15
   7   5   1    7.27    2.50
   7   5   1    4.18    3.44
  -7   4   1   20.75    3.06
  -7  -4  -1   20.26    3.17
  -7  -4  -1   17.85    4.25
  -7   4   1   22.05    2.71
  -7  -4  -1   15.55    3.01
  -7  -4  -1   14.33    3.34
   7   4   1   16.34    3.53
   7   4   1   15.51    3.04
   7   4   1   15.78    3.12
   7  -4  -1   17.99    3.44
  -7   3   1   -0.04    1.20
  -7  -3  -1    0.91    3.20
  -7  -3  -1   -0.10    2.22
  -7  -3  -1    0.79    2.42
  -7   3   1   -1.36    1.33
  -7  -3  -1   -0.40    1.72
  -7   3   1    1.63    1.71
   7  -3  -1   -1.19    1.90
   7   3   1   -0.36    1.97
   7   3   1    0.21    2.03
  -7  -2  -1    4.57    1.81
  -7   2   1    4.04    1.28
  -7  -2  -1    1.80    2.94
  -7  -2  -1    5.84    2.48
  -7   2   1    7.57    2.23
  -7  -2  -1    6.86    2.50
   7  -2  -1    8.66    1.50
   7   2   1    5.82    1.45
   7  -2  -1    3.74    1.76
  -7   1   1    9.69    2.50
  -7  -1  -1    8.49    1.90
  -7   1   1    7.89    1.60
  -7  -1  -1    2.68    2.09
  -7  -1  -1    6.85    1.56
  -7  -1  -1    4.74    2.32
  -7   1   1    8.41    1.56
  -7  -1  -1    7.68    2.84
  -7   1   1    8.75    1.83
   7   1   1    8.43    1.68
   7  -1  -1    6.38    1.71
  -7   0   1   -0.81    1.07
  -7   0  -1   -3.29    2.15
  -7   0   1   -0.48    2.00
  -7   0  -1    1.54    1.84
  -7   0   1   -0.49    1.22
  -7   0  -1   -0.90    1.45
  -7   0   1    0.16    1.76
  -7   0  -1   -1.23    0.98
  -7   0  -1   -0.87    1.22
  -7   0   1   -0.64    1.55
   7   0   1    0.25    1.31
   7   0  -1    0.69    1.33
  -7  -1   1    7.62    2.31
  -7   1  -1    6.66    1.63
  -7   1  -1    8.55    1.44
  -7   1  -1    7.73    1.87
  -7  -1   1    7.28    1.66
  -7   1  -1    6.06    2.27
  -7   1  -1    8.34    1.44
  -7  -1   1    9.19    1.87
  -7  -1   1    9.99    2.54
  -7  -1   1    5.03    2.64
   7  -1   1    5.86    1.75
   7   1  -1    7.27    1.56
  -7  -2   1    7.92    2.08
  -7  -2   1    9.98    2.69
  -7   2  -1    8.86    1.68
  -7  -2   1    6.24    1.85
  -7  -2   1    2.63    2.28
  -7  -2   1    6.65    3.14
   7  -2   1    6.17    1.91
  -7   3  -1    2.78    1.57
  -7  -3   1   -1.79    2.60
  -7  -3   1   -5.64    2.64
  -7  -3   1   -0.17    2.00
  -7  -3   1   -2.12    1.89
  -7  -3   1   -3.13    2.25
   7   3  -1   -0.90    1.84
   7  -3   1    1.03    2.14
   7   3  -1    2.21    2.13
  -7  -4   1   16.45    4.26
  -7  -4   1   19.79    3.21
  -7  -4   1   12.24    4.20
  -7   4  -1   18.72    2.55
  -7  -4   1   14.46    3.77
  -7  -4   1   20.34    3.38
   7  -4   1   20.11    3.23
   7   4  -1   23.99    4.18
   7   4  -1   20.69    3.55
   7   4  -1   25.68    4.25
  -7  -5   1    0.17    2.62
  -7  -5   1    3.26    3.83
  -7  -5   1    5.08    3.62
  -7   5  -1    4.32    2.91
  -7  -5   1    4.91    4.35
   7   5  -1    1.95    3.22
   7   5  -1    0.58    3.17
   7   5  -1    4.94    2.76
  -7   6  -1    1.65    3.39
  -7  -6   1    1.78    4.56
  -7  -6   1   -3.35    3.09
  -7   6  -1    2.27    2.95
  -7  -6   1   -4.31    4.40
  -7  -6   1    5.57    3.78
  -7  -6   1   -0.66    4.10
   7   6  -1    1.55    4.37
   7   6  -1   11.14    4.60
   7   6  -1    0.44    3.46
   7   6  -1   -0.51    2.73
  -7  -7   1  -10.37    6.71
  -7  -7   1    0.25    5.28
  -7  -7   1   -1.75    3.88
  -7   7  -1   10.10    4.71
  -7  -7   1    4.19    5.47
   7   7  -1    6.28    3.73
   7   7  -1    1.58    4.41
   7   7  -1    7.13    5.55
   7   7  -1    4.43    5.57
  -7  -8   1    7.74    7.87
  -7  -8   1   -4.14    4.99
  -7   8  -1   15.18    6.33
   7   8  -1   10.53    7.54
   7   8  -1    0.13    5.54
   7   8  -1    9.92   10.80
   7   8  -1    5.68    4.68
  -7  -9   1   -9.63    9.47
  -7  -9   1   -1.27    5.81
  -7   9  -1   12.80    7.40
  -7   9  -1    6.51    5.83
  -7   9  -1   24.68    9.10
   7   9  -1   12.97    5.88
   7   9  -1   23.66    9.95
   7   9  -1   -0.30    6.91
  -8  -9  -1   -9.33    7.37
  -8  -9  -1  -15.48   12.64
  -8   9   1   10.18    6.62
   8   9   1   11.60    6.81
   8   9   1   -3.57    8.14
  -8  -8  -1  -11.12    5.18
  -8  -8  -1  -12.28    8.34
  -8   8   1   -6.07    4.54
  -8   8   1   11.78    6.50
   8   8   1   11.84    6.34
   8   8   1   -7.00    8.30
  -8  -7  -1   -6.78    4.43
  -8   7   1    3.61    3.95
  -8  -7  -1   -5.75    6.84
  -8   7   1    9.14    3.38
  -8  -7  -1    0.20    6.63
   8   7   1   10.93    6.56
   8   7   1    3.76    6.21
   8   7   1    8.35    5.47
   8   7   1   12.69    3.92
  -8  -6  -1    5.33    3.72
  -8  -6  -1    6.71    5.65
  -8  -6  -1    1.98    5.49
   8   6   1   -2.36    4.44
   8   6   1   -4.75    4.57
   8   6   1    8.74    3.53
   8   6   1    9.05    4.84
  -8  -5  -1   14.23    4.77
  -8   5   1    7.18    4.17
  -8  -5  -1   17.76    4.46
  -8   5   1    8.91    2.63
  -8  -5  -1    5.81    3.16
  -8  -5  -1    9.80    4.78
   8   5   1    5.88    4.10
   8   5   1   13.24    2.86
   8   5   1    9.86    3.81
   8   5   1    4.03    3.73
  -8   4   1    2.41    1.94
  -8  -4  -1    0.63    3.66
  -8  -4  -1    5.72    2.99
  -8   4   1    0.18    2.22
  -8  -4  -1    3.94    3.53
  -8  -4  -1    0.11    4.16
   8   4   1   -0.69    2.76
   8   4   1    0.64    3.00
  -8  -3  -1    5.04    2.60
  -8  -3  -1    9.37    3.14
  -8  -3  -1    9.16    3.96
  -8   3   1    8.65    2.37
  -8   3   1    4.71    1.74
  -8  -3  -1    6.76    3.27
   8   3   1    6.13    2.17
   8  -3  -1    4.35    2.49
   8  -3  -1    6.89    1.87
  -8  -2  -1    2.91    3.24
  -8  -2  -1    2.46    2.62
  -8   2   1    2.12    2.15
  -8   2   1    0.40    1.29
  -8  -2  -1    0.82    2.62
  -8  -2  -1   -0.86    2.03
  -8   2   1    1.51    1.82
   8  -2  -1   -0.54    1.79
   8   2   1   -1.03    1.53
  -8   1   1   15.61    2.63
  -8  -1  -1   13.08    3.17
  -8  -1  -1   13.39    2.08
  -8  -1  -1   14.00    2.44
  -8  -1  -1    8.63    3.39
  -8  -1  -1   11.91    2.95
  -8   1   1   14.52    2.12
  -8   1   1   11.51    2.08
  -8   1   1   14.01    3.26
   8  -1  -1   14.69    2.34
   8   1   1   13.39    2.20
  -8   0   1    2.11    2.47
  -8   0   1   -0.46    1.44
  -8   0   1   -1.84    1.93
  -8   0  -1   -0.85    2.05
  -8   0   1    0.42    2.07
  -8   0   1    0.33    1.56
  -8   0  -1    2.64    2.24
  -8   0  -1   -0.89    1.42
  -8   0  -1   -0.95    1.16
  -8   0  -1   -1.10    2.53
   8   0   1   -1.29    1.66
   8   0  -1   -0.18    1.67
  -8   1  -1    8.92    2.87
  -8   1  -1   10.79    1.95
  -8  -1   1   13.61    3.00
  -8   1  -1   11.33    1.80
  -8   1  -1   11.83    2.63
  -8   1  -1   12.97    2.27
  -8  -1   1   12.80    2.24
  -8  -1   1   10.34    3.47
  -8  -1   1    9.81    2.77
  -8  -1   1   12.81    2.31
   8  -1   1   13.13    2.34
   8   1  -1   13.14    2.33
  -8  -2   1   -4.95    2.89
  -8  -2   1    3.27    2.79
  -8  -2   1    1.26    1.97
  -8  -2   1    3.61    2.21
  -8  -2   1    0.84    2.80
   8   2  -1    1.34    1.82
   8  -2   1    1.17    2.02
  -8   3  -1    4.77    1.99
  -8  -3   1    9.53    4.21
  -8  -3   1    5.67    2.39
  -8  -3   1    4.60    3.18
  -8  -3   1    4.88    2.47
   8  -3   1    4.51    2.89
  -8   4  -1    0.60    2.14
  -8  -4   1    4.11    3.43
  -8  -4   1    2.66    3.32
  -8  -4   1    1.36    3.85
  -8  -4   1   -3.83    3.46
   8  -4   1    4.26    3.82
   8   4  -1    2.54    3.01
  -8  -5   1   12.46    3.93
  -8   5  -1    9.13    2.83
  -8  -5   1    4.40    5.17
  -8  -5   1    9.36    4.66
  -8  -5   1    5.26    4.37
   8   5  -1   24.18    7.62
   8   5  -1    8.21    3.20
  -8  -6   1   -6.84    5.25
  -8  -6   1    1.69    3.64
  -8  -6   1   -4.79    4.93
  -8  -6   1    7.50    4.77
   8   6  -1   -7.05    4.47
   8   6  -1   10.11    4.98
   8   6  -1    7.62    3.44
  -8  -7   1   -0.49    4.78
  -8  -7   1    1.68    6.34
   8   7  -1   -8.06    5.96
  -8  -8   1    2.25    5.91
  -8  -8   1   -3.21    8.39
  -8   8  -1    2.16    6.39
   8   8  -1   -9.29    8.21
   8   8  -1    5.16    5.19
  -8   9  -1   -8.01    8.61
  -8  -9   1   -8.85   10.42
  -8  -9   1    0.93    7.54
   8   9  -1   -5.47    6.53
   8   9  -1  -16.76   11.58
  -9  -8  -1   -9.46    9.68
  -9  -8  -1  -13.69    6.47
  -9   8   1   -2.50    5.35
   9   8   1    8.13    6.80
   9   8   1  -17.43    9.64
  -9  -7  -1   -6.40    8.02
   9   7   1   -4.29    6.74
   9   7   1   -4.24    6.68
  -9  -6  -1   -0.39    6.48
  -9  -6  -1   -4.43    4.21
   9   6   1    9.86    5.57
   9   6   1   -3.25    3.62
  -9  -5  -1    6.49    6.18
  -9   5   1    0.79    2.59
  -9  -5  -1    0.61    3.52
  -9  -5  -1   10.27    5.44
   9  -5  -1    5.15    4.22
   9   5   1    5.08    4.04
  -9   4   1   17.18    3.35
  -9  -4  -1   15.23    5.94
  -9  -4  -1   18.72    5.07
  -9  -4  -1    7.11    4.85
  -9   4   1   20.36    2.83
  -9  -4  -1   13.13    3.64
  -9   4   1   17.43    3.56
   9   4   1   16.18    3.51
   9  -4  -1   16.30    4.27
  -9   3   1   18.97    2.62
  -9  -3  -1   18.48    5.22
  -9  -3  -1   18.20    4.33
  -9  -3  -1   17.66    3.56
  -9   3   1   19.32    3.42
   9  -3  -1   18.84    3.52
   9   3   1   20.74    3.12
  -9   2   1    0.27    1.59
  -9  -2  -1   -1.81    2.45
  -9   2   1    2.79    2.63
  -9  -2  -1   -3.05    3.47
  -9   2   1    1.88    1.83
  -9  -2  -1   -0.56    3.74
  -9  -2  -1   -2.27    3.51
  -9   2   1    3.84    2.77
   9   2   1    0.97    2.37
  -9   1   1    0.74    1.66
  -9   1   1    0.56    1.58
  -9  -1  -1   -2.11    1.95
  -9   1   1   -0.63    2.81
  -9  -1  -1   -2.53    3.44
  -9   1   1    3.49    2.52
  -9  -1  -1   -0.33    3.21
  -9  -1  -1    1.01    3.10
  -9   1   1    4.56    2.56
   9   1   1   -1.33    2.24
   9  -1  -1    2.26    2.22
  -9   0  -1   -0.30    2.83
  -9   0   1    1.32    2.81
  -9   0   1   -0.98    3.11
  -9   0  -1   -4.07    3.03
  -9   0  -1    0.30    1.50
  -9   0   1   -3.33    3.07
  -9   0  -1   -2.15    2.66
  -9   0   1   -0.38    1.81
  -9   0  -1    0.72    1.69
  -9   0   1   -1.33    1.82
   9   0   1    0.24    1.98
   9   0  -1   -0.88    1.96
  -9   1  -1    3.98    3.07
  -9   1  -1    1.48    2.56
  -9  -1   1   -1.98    2.05
  -9  -1   1    7.72    3.23
  -9  -1   1    0.89    1.92
  -9   1  -1    0.61    1.52
  -9  -1   1    4.12    3.50
  -9   1  -1    1.07    1.64
  -9  -1   1   -2.15    3.05
  -9   1  -1    0.78    2.58
   9   1  -1    2.05    2.09
   9  -1   1    2.12    2.43
  -9  -2   1    0.82    2.55
  -9  -2   1    1.17    3.54
  -9  -2   1    1.15    3.52
  -9  -2   1   -3.05    3.72
   9  -2   1   -2.62    2.41
   9   2  -1    0.71    2.02
  -9  -3   1   12.07    4.34
  -9  -3   1   19.40    3.41
  -9  -3   1   15.93    4.73
   9  -3   1   15.92    3.75
  -9  -4   1   10.22    3.69
  -9   4  -1   18.72    3.26
  -9  -4   1   24.86    4.53
  -9  -4   1   13.25    5.64
  -9  -4   1    8.46    4.78
  -9  -4   1   14.24    4.79
   9  -4   1   18.84    4.39
   9   4  -1   20.71    3.80
  -9  -5   1    3.60    5.21
  -9  -5   1   -4.94    5.03
  -9  -5   1    3.19    5.02
  -9  -5   1    3.53    3.64
   9   5  -1   -3.34    3.00
  -9  -6   1   -2.20    6.52
  -9  -6   1    6.22    6.99
  -9  -6   1    6.90    6.01
  -9  -6   1   -2.57    4.66
   9   6  -1   -0.39    5.70
   9   6  -1    4.07    4.11
  -9  -7   1    3.79    5.56
  -9  -7   1   -1.65    7.78
   9   7  -1   17.30    7.86
   9   7  -1   -5.84    5.95
   9   7  -1   19.79    7.55
  -9  -8   1    2.97    7.34
   9   8  -1   18.15    9.80
   9   8  -1   22.11    6.52
 -10   7   1   12.22    5.19
 -10  -7  -1  -10.27    9.76
 -10  -7  -1   19.30    7.05
  10   7   1   14.07    7.99
 -10  -6  -1    7.41    5.60
 -10  -6  -1   -8.28    8.13
 -10  -5  -1   -7.69    6.65
 -10  -5  -1   -4.67    6.54
 -10  -5  -1    0.42    4.73
 -10   5   1    2.13    3.37
  10   5   1   -1.53    4.91
  10  -5  -1    1.28    5.04
  10   5   1    6.22    4.11
 -10  -4  -1    1.88    4.02
 -10  -4  -1   -3.60    5.74
 -10   4   1    9.30    3.56
 -10  -4  -1    2.87    5.97
  10   4   1    8.58    3.64
  10  -4  -1    3.08    4.44
 -10   3   1   -1.21    3.33
 -10  -3  -1    6.69    5.11
 -10  -3  -1   -4.78    3.22
 -10   3   1    2.86    2.55
 -10  -3  -1    0.91    4.93
 -10   3   1   -0.29    2.42
 -10  -3  -1   -0.49    5.09
  10  -3  -1    0.28    3.48
  10   3   1    1.88    3.26
 -10   2   1   10.29    3.31
 -10  -2  -1    4.50    2.98
 -10  -2  -1   -1.97    4.42
 -10  -2  -1    2.22    4.49
 -10   2   1    0.19    2.23
 -10   2   1   -0.52    2.26
 -10   2   1   -1.73    3.17
 -10   2   1    3.60    3.42
  10  -2  -1    3.01    3.19
  10   2   1    5.83    3.01
 -10   1   1    7.35    3.55
 -10   1   1    5.30    2.07
 -10  -1  -1   10.37    4.90
 -10   1   1    3.42    3.57
 -10   1   1    3.97    3.82
 -10   1   1    4.11    2.17
 -10  -1  -1    7.16    3.94
 -10  -1  -1   -1.00    4.54
 -10  -1  -1    6.47    2.70
  10   1   1   11.38    3.03
  10  -1  -1    6.49    2.83
 -10   0   1   -1.18    2.30
 -10   0  -1   -0.70    4.09
 -10   0  -1   -3.18    2.15
 -10   0  -1   -3.20    3.54
 -10   0   1    0.15    3.74
 -10   0   1   -2.23    4.08
 -10   0  -1    2.31    3.69
 -10   0   1   -1.90    2.23
 -10   0   1    1.82    3.59
 -10   0  -1   -0.73    2.70
  10   0  -1   -3.13    2.75
  10   0   1    3.13    2.86
 -10   1  -1   11.34    3.71
 -10  -1   1    7.53    4.36
 -10  -1   1    4.51    3.08
 -10   1  -1    6.42    2.07
 -10  -1   1    2.71    4.59
 -10  -1   1    3.83    4.61
 -10  -1   1    6.11    2.75
 -10   1  -1    5.33    3.76
 -10   1  -1    6.19    3.62
  10  -1   1    7.30    3.18
  10   1  -1    3.13    2.76
 -10  -2   1    6.06    4.44
 -10  -2   1   -0.56    4.96
 -10   2  -1    0.56    2.94
 -10   2  -1   -2.15    3.38
 -10   2  -1    1.18    2.00
 -10  -2   1    3.79    2.85
 -10  -2   1   -4.49    4.56
 -10  -2   1    9.78    3.68
  10   2  -1    2.07    2.89
  10  -2   1    2.62    3.18
 -10  -3   1    2.46    3.22
 -10  -3   1   -2.50    5.28
 -10  -3   1    2.28    5.12
 -10  -3   1    6.90    5.10
 -10  -3   1   -3.25    3.76
 -10   3  -1    2.65    2.21
  10  -3   1   -5.27    3.78
  10   3  -1   -1.61    2.93
 -10  -4   1   -1.41    4.68
 -10  -4   1   12.84    6.31
 -10  -4   1    2.75    5.95
 -10  -4   1    7.88    3.80
  10   4  -1    5.89    3.46
  10  -4   1   10.04    4.90
 -10  -5   1   -1.34    6.10
 -10  -5   1    0.57    4.53
 -10  -5   1   -6.33    7.24
  10   5  -1    5.60    4.99
 -10  -6   1    7.59    5.40
 -10  -6   1   15.29    7.50
 -10  -6   1    4.81    7.99
 -10  -7   1   10.37    6.88
 -10  -7   1   11.68    9.99
  10   7  -1   -2.61    6.03
 -11  -6  -1   -9.86    9.95
 -11   6   1   -5.95    4.72
 -11  -6  -1   -0.87    6.94
  11   6   1   -6.22    5.71
 -11  -5  -1   -0.28    8.06
 -11  -5  -1   -0.37    5.47
 -11  -5  -1  -13.95    8.62
  11   5   1   -0.47    4.84
  11  -5  -1   11.24    6.41
 -11   4   1    4.29    3.78
 -11  -4  -1    1.85    5.02
 -11   4   1   -4.22    4.20
 -11  -4  -1    0.91    7.39
 -11  -4  -1    6.83    7.77
  11   4   1    3.67    4.84
  11  -4  -1    2.97    5.71
 -11   3   1   14.38    3.24
 -11   3   1   11.08    3.49
 -11  -3  -1   10.91    6.58
 -11   3   1   11.98    4.89
 -11  -3  -1    7.82    4.43
 -11   3   1   17.31    4.65
 -11  -3  -1   12.55    6.69
  11   3   1   10.49    4.55
  11  -3  -1   10.47    5.03
 -11   2   1    3.46    4.71
 -11   2   1    3.96    2.84
 -11   2   1    3.51    4.12
 -11  -2  -1    2.02    5.99
 -11  -2  -1   19.71    8.10
 -11  -2  -1   10.57    3.71
 -11   2   1   14.45    4.97
 -11   2   1    3.02    2.48
  11   2   1    3.73    3.99
  11  -2  -1    6.94    4.11
 -11   1   1    9.32    4.19
 -11  -1  -1    1.07    3.00
 -11  -1  -1   -2.21    5.19
 -11   1   1    5.95    2.42
 -11  -1  -1    1.64    5.29
 -11   1   1    2.49    4.74
 -11  -1  -1   -3.76    5.24
  11   1   1   -6.42    3.60
  11  -1  -1    5.13    3.50
 -11   0   1   -4.71    5.04
 -11   0  -1    5.59    4.90
 -11   0   1    2.03    2.75
 -11   0  -1    1.18    2.55
 -11   0  -1    5.39    5.59
 -11   0   1   -5.69    4.58
 -11   0  -1    0.36    4.87
 -11   0   1    6.65    4.89
 -11   0   1   -4.88    3.07
  11   0   1    7.56    3.74
  11   0  -1   -2.24    3.26
 -11  -1   1    7.31    6.11
 -11  -1   1    0.84    5.64
 -11   1  -1   -0.43    4.37
 -11   1  -1   -5.17    4.84
 -11   1  -1   -0.65    2.33
 -11   1  -1   -8.05    4.15
 -11  -1   1   -2.11    5.73
 -11  -1   1   -2.56    2.98
  11   1  -1    5.17    3.28
  11  -1   1   -5.18    4.24
 -11  -2   1   11.29    3.94
 -11  -2   1   14.79    4.72
 -11   2  -1    6.98    4.37
 -11  -2   1    3.94    6.20
 -11   2  -1   12.90    4.54
 -11   2  -1    7.88    2.83
 -11  -2   1    4.65    5.61
  11  -2   1    9.84    4.35
  11   2  -1    2.32    3.73
 -11   3  -1    8.85    3.18
 -11   3  -1    7.82    4.27
 -11  -3   1    3.63    5.06
 -11  -3   1   13.53    6.64
 -11  -3   1   17.75    4.40
 -11  -3   1    4.12    6.78
  11  -3   1   16.28    5.26
  11   3  -1    9.49    4.04
 -11  -4   1    5.76    6.98
 -11   4  -1    1.51    3.57
 -11  -4   1    1.13    4.82
 -11  -4   1  -11.23    5.95
 -11  -4   1   -1.15    7.46
  11  -4   1    5.16    5.79
  11   4  -1   -3.24    4.53
 -11  -5   1    6.96    5.61
 -11  -5   1  -14.38    8.31
  11   5  -1   -8.28    4.85
 -11  -6   1  -10.68   11.05
 -11  -6   1   -4.98    6.93
 -12   4   1   -1.41    5.32
 -12  -4  -1   -8.05    6.47
 -12  -4  -1   -7.15    9.03
  12  -4  -1    7.04    7.16
  12   4   1   -2.44    6.10
 -12  -3  -1   14.41    5.32
 -12  -3  -1    5.56    7.93
 -12   3   1    1.90    5.34
 -12   3   1   13.34    4.69
  12  -3  -1    4.81    6.57
  12   3   1    5.38    5.65
 -12   2   1   -0.72    5.07
 -12   2   1   -5.64    3.70
 -12  -2  -1    2.57    4.28
 -12  -2  -1    9.51    7.45
  12  -2  -1    5.19    5.12
  12   2   1   -5.07    5.19
 -12   1   1    2.47    4.36
 -12   1   1    1.32    5.93
 -12   1   1   -4.32    3.07
 -12  -1  -1   -2.60    3.60
 -12  -1  -1    2.67    6.60
  12   1   1    9.73    4.77
  12  -1  -1    7.65    5.03
 -12   0  -1   -0.41    3.24
 -12   0   1   -6.22    5.97
 -12   0   1    0.04    4.79
 -12   0   1    2.99    3.33
 -12   0  -1   -6.59    6.23
  12   0   1    0.40    4.85
  12   0  -1    0.13    4.61
 -12  -1   1   15.05    4.03
 -12   1  -1   22.34    7.56
 -12  -1   1    4.06    6.59
 -12   1  -1   -0.04    6.00
 -12  -1   1    7.52    5.55
 -12   1  -1    5.20    3.89
  12   1  -1    2.46    4.73
  12  -1   1    3.68    5.04
 -12  -2   1    0.19    4.42
 -12   2  -1   -5.90    3.37
 -12   2  -1    3.27    6.33
 -12   2  -1    7.51    5.56
 -12  -2   1   -5.51    7.21
  12  -2   1   -3.26    5.40
  12   2  -1    8.12    4.91
 -12   3  -1   12.52    6.46
 -12  -3   1    8.70    5.52
 -12  -3   1    9.32    8.22
  12   3  -1   17.64    5.48
  12  -3   1   17.41    7.40
 -12  -4   1   15.06    6.06
 -12  -4   1   11.55    9.36
  12   4  -1    6.79    6.16
  12  -4   1    4.42    7.36
 -13  -1  -1   10.75    4.58
 -13  -1  -1   -3.80    8.90
 -13   1   1    5.53    3.92
 -13   1   1    3.75    7.55
  13   1   1    4.29    6.80
  13  -1  -1   -4.66    6.75
 -13   0  -1    4.26    3.99
 -13   0  -1   -4.87    8.48
 -13   0   1   -6.27    7.53
 -13   0   1    1.70    4.42
  13   0  -1    5.46    6.35
  13   0   1   -1.60    7.22
 -13  -1   1   -1.02    8.75
 -13   1  -1    5.32    7.75
 -13  -1   1   16.11    5.16
  13  -1   1   14.64    6.91
  13   1  -1   19.10    6.68
   0  11   2    3.37    7.42
   0  11   2    9.00    9.07
   0  11   2  -20.20   10.37
   0  10   2   32.78    7.74
   0  10   2   28.17    6.64
   0  10   2   46.22    9.73
   0  -9  -2    4.38    4.56
   0   9   2    0.06    4.28
   0  -9  -2   -4.29    2.80
   0   9   2    0.16    4.54
   0  -9  -2    0.52    5.61
   0   9   2   -5.59    4.90
   0   8   2   30.73    4.97
   0  -8  -2   33.46    5.72
   0   8   2   31.96    6.12
   0   8   2   33.31    7.49
   0  -8  -2   29.40    4.14
   0   8   2   38.90    5.35
   0   7   2    6.33    3.35
   0  -7  -2   -1.37    1.77
   0   7   2   -1.81    2.41
   0   7   2   -1.19    2.63
   0   7   2    1.31    2.65
   0  -6  -2   82.66    5.26
   0   6   2   78.32    6.24
   0   6   2   81.31    5.67
   0  -6  -2   80.47    4.75
   0   6   2   73.29    5.34
   0  -5  -2   -0.38    1.04
   0   5   2    0.76    1.50
   0   5   2    1.91    1.34
   0   5   2   -2.55    1.82
   0   4   2    0.74    1.19
   0  -4  -2   -0.52    0.80
   0   4   2    0.15    1.03
   0   4   2   -0.64    1.49
   0  -4  -2   -0.59    1.07
   0   3   2    0.16    0.89
   0   3   2    0.09    0.77
   0  -3  -2   -0.75    0.54
   0  -3  -2   -0.75    0.79
   0   3   2    0.08    1.06
   0   2   2    5.85    1.07
   0  -2  -2    7.01    0.90
   0  -2  -2    6.06    1.00
   0   2   2    6.05    1.26
   0   2   2    6.12    1.00
   0  -1  -2   -0.45    0.31
   0  -1  -2   -0.24    0.31
   0   1   2   -0.43    0.36
   0  -1  -2   -1.02    0.47
   0   1   2   -0.70    0.32
   0   0  -2  439.96   18.42
   0   0   2  431.98   18.42
   0   0  -2  407.71   18.64
   0   0   2  452.81   18.44
   0   0   2  447.24   18.45
   0   0   2  447.29   18.52
   0   0  -2  458.90   18.43
   0   0  -2  434.44   18.45
   0  -1   2   -0.65    0.20
   0   1  -2   -0.18    0.41
   0  -1   2   -0.52    0.22
   0  -1   2    0.27    0.29
   0   1  -2   -0.85    0.28
   0   1  -2   -0.50    0.23
   0  -1   2   -0.56    0.36
   0   1  -2   -0.05    0.31
   0   2  -2    6.25    1.04
   0  -2   2    5.50    0.89
   0   2  -2    5.59    1.01
   0   2  -2    8.20    1.21
   0   2  -2    6.23    0.97
   0  -2   2    5.16    0.90
   0  -2   2    7.33    1.08
   0  -3   2    0.46    0.62
   0   3  -2   -0.87    0.75
   0   3  -2    1.06    0.75
   0  -3   2   -0.42    0.87
   0   3  -2    0.64    1.06
   0  -3   2    0.23    0.73
   0   3  -2    0.51    0.77
   0  -4   2   -1.03    1.17
   0   4  -2   -0.01    1.07
   0  -4   2    0.56    0.87
   0  -4   2    0.28    1.02
   0   4  -2   -0.43    1.04
   0   4  -2   -0.68    0.91
   0   5  -2   -1.74    1.25
   0  -5   2   -0.54    1.21
   0  -5   2   -2.62    1.62
   0  -5   2   -1.08    0.94
   0   5  -2   -1.92    1.35
   0   5  -2   -1.15    1.36
   0   6  -2   75.69    5.19
   0   6  -2   82.69    5.63
   0   6  -2   80.27    5.56
   0  -6   2   83.39    4.53
   0  -7   2    1.83    2.52
   0   7  -2    1.44    2.90
   0   7  -2   -3.24    2.16
   0  -7   2   -0.11    2.79
   0   8  -2   32.21    5.21
   0   8  -2   38.50    5.60
   0   8  -2   26.80    3.98
   0   9  -2    5.37    4.91
   0  -9   2   -4.85    4.19
   0   9  -2    6.18    4.15
   0  10  -2   47.66    9.29
   0  10  -2   25.85    7.80
   0  10  -2   33.70    6.41
   0  11  -2    3.05    6.65
   0  11  -2    0.99    8.60
   0  11  -2   17.87   10.88
  -1  11   2   -9.89    8.87
  -1  11   2    8.97   10.15
  -1 -11  -2   -0.18    9.99
  -1  11   2   16.89    8.09
   1  11   2    4.85    8.02
   1  11   2    5.05   11.49
  -1 -10  -2    5.48    4.51
  -1 -10  -2   10.93    7.77
  -1  10   2    8.11    6.83
  -1  10   2   15.54    6.30
  -1  10   2   10.92    7.10
   1  10   2    5.68    6.71
   1  10   2    6.43    5.93
   1  10   2   -0.66    8.12
  -1   9   2   10.84    4.87
  -1   9   2   10.83    5.10
  -1  -9  -2    6.85    6.32
  -1   9   2   -7.63    5.44
  -1   9   2   -0.70    6.66
  -1  -9  -2   -2.31    3.13
  -1  -9  -2   -4.32    4.43
  -1   9   2    4.28    4.81
   1   9   2    4.32    4.49
   1  -9  -2    9.49    3.47
   1  -9  -2    9.94    5.58
   1   9   2   -1.51    5.87
   1  -9  -2   11.52    4.15
   1   9   2   11.04    5.04
   1   9   2   18.18    7.31
  -1  -8  -2   62.85    8.59
  -1   8   2   71.13    9.04
  -1   8   2   57.55    6.98
  -1   8   2   67.66    8.10
  -1   8   2   55.91    6.42
  -1  -8  -2   78.48    5.74
   1  -8  -2   57.14    4.74
   1   8   2   67.75    6.96
   1   8   2   67.46    8.08
   1  -8  -2   72.94    8.19
  -1   7   2   11.65    2.95
  -1   7   2    5.13    3.10
  -1   7   2    8.81    2.83
  -1   7   2   10.85    4.09
  -1  -7  -2   13.14    2.54
   1   7   2   13.55    3.26
   1  -7  -2    9.13    2.07
   1   7   2    8.09    3.07
   1  -7  -2   11.70    2.66
   1   7   2    9.46    3.49
  -1   6   2   23.23    3.55
  -1  -6  -2   20.26    2.94
  -1   6   2   30.87    5.16
  -1   6   2   22.94    3.40
  -1  -6  -2   31.23    3.60
   1   6   2   28.54    4.92
   1   6   2   22.91    3.45
   1   6   2   20.97    3.09
   1  -6  -2   18.38    2.50
   1  -6  -2   23.61    3.15
   1   6   2   20.04    3.47
  -1   5   2   -1.86    2.03
  -1   5   2   -0.27    1.49
  -1  -5  -2    0.67    1.45
  -1   5   2    4.94    1.71
  -1  -5  -2    1.77    1.35
   1   5   2   -0.37    1.40
   1   5   2    0.59    1.44
   1  -5  -2    0.15    1.18
   1  -5  -2    1.14    1.03
   1   5   2    1.83    1.68
   1   5   2    0.30    1.85
  -1   4   2  192.34    9.24
  -1  -4  -2  206.78    9.36
  -1  -4  -2  201.78    9.22
  -1   4   2  206.02    9.72
  -1   4   2  186.24    9.12
   1   4   2  185.19    9.40
   1   4   2  198.68    9.74
   1  -4  -2  185.99    8.88
   1   4   2  205.46    9.49
   1  -4  -2  193.44    9.03
  -1   3   2    0.36    0.69
  -1  -3  -2   -0.06    0.93
  -1   3   2   -0.54    0.76
  -1   3   2   -1.10    0.65
  -1  -3  -2   -0.24    0.69
  -1   3   2   -0.25    1.02
   1  -3  -2   -0.10    0.65
   1   3   2    0.37    0.97
   1   3   2    0.56    0.89
   1   3   2   -0.12    0.74
   1  -3  -2    0.28    0.61
  -1   2   2    4.45    0.74
  -1  -2  -2    5.31    0.94
  -1   2   2    5.31    0.91
  -1   2   2    6.31    1.04
  -1  -2  -2    6.63    1.09
  -1   2   2    5.55    0.97
   1  -2  -2    5.38    0.82
   1   2   2    4.97    0.92
   1   2   2    8.27    1.30
   1   2   2    5.88    0.97
   1  -2  -2    5.55    0.86
  -1  -1  -2  129.52    5.87
  -1   1   2  132.56    5.73
  -1  -1  -2  139.32    5.79
  -1  -1  -2  128.19    5.76
  -1   1   2  129.87    5.70
  -1   1   2  123.32    5.65
  -1   1   2  125.26    5.52
   1  -1  -2  134.19    5.65
   1  -1  -2  118.67    5.53
   1   1   2  136.48    5.83
   1   1   2  126.30    5.77
   1  -1  -2  126.14    5.71
   1  -1  -2  119.52    5.74
  -1   0   2  173.61    7.02
  -1   0   2  161.59    7.00
  -1   0   2  150.99    7.10
  -1   0   2  165.99    7.02
   1   0  -2  150.01    7.12
   1   0  -2  167.04    7.01
   1   0  -2  176.88    7.01
   1   0   2  150.26    6.99
   1   0  -2  163.65    7.00
  -1   1  -2  128.66    5.65
  -1  -1   2  120.77    5.76
  -1  -1   2  133.43    5.67
  -1  -1   2  131.72    5.62
  -1  -1   2  125.49    5.64
   1   1  -2  125.46    5.82
   1   1  -2  115.23    5.57
   1   1  -2  122.87    5.59
   1   1  -2  124.28    5.61
  -1  -2   2    6.25    0.94
  -1  -2   2    4.55    1.01
  -1  -2   2    4.46    0.88
  -1  -2   2    5.51    1.05
  -1  -2   2    4.29    0.87
  -1   2  -2    6.51    1.12
   1   2  -2    4.57    0.93
   1   2  -2    6.06    1.00
   1   2  -2    5.03    0.97
   1   2  -2    3.99    1.14
  -1   3  -2    0.47    0.86
  -1   3  -2    0.11    0.69
  -1  -3   2    0.82    0.86
  -1  -3   2   -0.64    1.00
  -1  -3   2   -0.32    0.80
  -1  -3   2   -0.60    0.70
  -1   3  -2    0.43    0.95
   1  -3   2   -0.65    0.63
   1   3  -2    0.66    0.94
   1   3  -2   -0.74    1.19
   1   3  -2    0.69    0.87
   1   3  -2    0.12    0.95
  -1  -4   2  183.52    9.34
  -1  -4   2  173.03    9.50
  -1  -4   2  194.38    9.15
  -1  -4   2  195.63    9.04
  -1   4  -2  198.46    8.93
  -1   4  -2  189.18    8.88
  -1   4  -2  199.41    9.50
   1   4  -2  192.71    9.16
   1   4  -2  196.75    9.33
   1   4  -2  202.49    9.48
   1  -4   2  208.43    8.88
  -1  -5   2    0.92    1.52
  -1   5  -2    0.92    1.23
  -1   5  -2    0.70    1.21
  -1   5  -2    1.03    1.48
  -1  -5   2    1.67    1.28
  -1  -5   2   -0.54    1.83
   1  -5   2    3.20    1.43
   1   5  -2    0.29    1.57
   1   5  -2    0.29    1.56
   1   5  -2   -0.95    1.78
  -1   6  -2   24.08    3.38
  -1   6  -2   17.93    3.16
  -1  -6   2   17.29    3.26
  -1  -6   2   23.38    3.06
  -1  -6   2   17.08    2.74
  -1   6  -2   18.49    3.27
   1   6  -2   17.14    3.30
   1   6  -2   20.43    3.02
   1  -6   2   20.10    3.03
   1   6  -2   21.82    3.47
  -1  -7   2    7.40    2.83
  -1   7  -2    8.81    2.82
  -1   7  -2   11.21    3.32
  -1  -7   2    8.33    3.29
  -1  -7   2   11.40    2.25
  -1   7  -2   10.82    2.98
   1   7  -2    7.97    3.04
   1   7  -2    5.89    3.20
   1  -7   2   10.62    2.61
   1   7  -2    7.88    3.37
  -1  -8   2   64.14    8.18
  -1   8  -2   64.58    6.21
  -1  -8   2   56.55    6.21
  -1  -8   2   59.50    7.32
  -1   8  -2   65.47    7.43
   1   8  -2   56.71    6.76
   1   8  -2   75.91    7.65
   1   8  -2   72.69    9.58
  -1  -9   2    6.74    4.85
  -1   9  -2   10.26    5.76
  -1   9  -2    5.87    4.20
  -1  -9   2    9.88    3.32
  -1   9  -2    7.53    4.55
  -1  -9   2    2.28    4.39
   1   9  -2   11.91    4.82
   1   9  -2    8.94    5.58
   1  -9   2    9.47    4.39
   1   9  -2   11.23    4.54
  -1  10  -2    3.66    5.85
  -1  10  -2    9.04    7.40
  -1  10  -2    4.15    5.01
   1  10  -2    9.48    6.47
   1  10  -2   12.79    5.24
   1  10  -2    9.11    8.10
  -1  11  -2    2.02   10.78
  -1  11  -2    1.24    6.74
  -1  11  -2   -9.55    8.80
   1  11  -2    4.97    8.39
   1  11  -2   -2.34    7.15
   1  11  -2    5.62   10.95
  -2  11   2   -1.58    9.41
  -2  11   2   -0.99    7.81
  -2  11   2  -16.45    9.37
  -2 -11  -2   -9.60   10.26
   2  11   2   21.02    9.08
   2  11   2   -7.74    8.11
   2  11   2  -16.96   11.61
  -2  10   2    3.04    7.60
  -2 -10  -2   -0.12    4.60
  -2  10   2    2.21    6.06
  -2  10   2   -6.04    6.87
  -2 -10  -2    4.11    7.88
   2  10   2    6.36    6.90
   2  10   2    1.91    8.97
   2  10   2    0.94    5.74
  -2  -9  -2    2.80    7.53
  -2   9   2   -0.20    5.50
  -2   9   2   13.45    6.60
  -2  -9  -2    5.02    6.56
  -2   9   2    3.53    4.52
  -2  -9  -2    3.40    3.78
  -2   9   2    1.51    5.03
  -2   9   2    3.92    4.89
   2   9   2    3.37    4.74
   2   9   2   10.67    7.29
   2   9   2   -6.42    8.50
   2   9   2    0.62    5.01
  -2  -8  -2   11.51    3.22
  -2   8   2   15.52    3.62
  -2  -8  -2   14.57    5.24
  -2   8   2   27.01    5.66
   2   8   2   13.87    4.57
   2   8   2   13.27    4.55
   2  -8  -2    6.95    3.21
  -2   7   2    1.02    2.48
  -2  -7  -2    1.21    3.68
  -2  -7  -2    3.71    2.57
  -2   7   2    1.28    2.62
  -2  -7  -2    1.10    2.24
  -2   7   2   -2.08    3.49
  -2   7   2   -3.82    2.86
   2   7   2   -0.87    2.57
   2   7   2    2.31    3.47
   2  -7  -2   -2.09    2.08
   2   7   2   -0.12    2.40
  -2   6   2   23.70    3.17
  -2   6   2   14.52    2.95
  -2   6   2   21.09    3.60
  -2   6   2   15.88    5.48
  -2  -6  -2   24.11    3.70
  -2  -6  -2   17.98    2.89
   2   6   2   19.38    3.42
   2   6   2   19.86    3.23
   2  -6  -2   19.00    2.32
   2  -6  -2   18.45    2.97
   2   6   2   18.72    3.25
   2   6   2   23.05    3.86
  -2   5   2    5.59    1.78
  -2   5   2    7.06    1.59
  -2  -5  -2    3.80    1.79
  -2   5   2    4.14    1.76
  -2   5   2    5.36    2.29
  -2  -5  -2    3.61    1.79
   2   5   2    4.63    1.91
   2   5   2    6.13    2.16
   2   5   2    9.61    2.42
   2  -5  -2    5.10    1.39
   2   5   2    6.21    2.04
   2  -5  -2    7.87    1.42
  -2   4   2   41.82    3.38
  -2   4   2   41.88    2.74
  -2   4   2   36.04    2.92
  -2   4   2   43.57    2.85
  -2  -4  -2   42.95    3.09
  -2  -4  -2   38.78    3.25
   2  -4  -2   42.19    2.65
   2   4   2   40.84    3.39
   2   4   2   38.95    3.37
   2   4   2   45.23    3.63
   2   4   2   37.28    2.97
   2  -4  -2   44.91    2.60
  -2  -3  -2   68.75    3.81
  -2   3   2   69.89    3.33
  -2   3   2   66.80    3.57
  -2  -3  -2   62.67    3.82
  -2   3   2   70.37    3.85
  -2   3   2   63.03    3.48
   2   3   2   59.16    3.88
   2   3   2   55.32    3.49
   2   3   2   67.72    3.91
   2   3   2   66.51    3.98
   2  -3  -2   67.01    3.42
   2  -3  -2   70.06    3.40
  -2  -2  -2   75.92    3.90
  -2   2   2   72.96    3.60
  -2   2   2   71.77    3.61
  -2   2   2   75.75    3.73
  -2  -2  -2   70.08    3.86
  -2   2   2   72.75    3.45
   2   2   2   71.52    3.92
   2  -2  -2   76.85    3.64
   2   2   2   71.17    3.55
   2  -2  -2   76.55    3.53
   2   2   2   73.17    3.93
   2   2   2   73.25    3.92
  -2   1   2  925.48   36.21
  -2  -1  -2  896.09   36.44
  -2   1   2  879.42   36.26
  -2  -1  -2  874.71   36.45
  -2  -1  -2  837.44   36.43
  -2   1   2  877.42   36.19
  -2   1   2  865.65   36.42
   2   1   2  849.53   36.37
   2  -1  -2  868.93   36.45
   2  -1  -2  836.80   36.20
   2  -1  -2  808.87   36.23
   2   1   2  789.85   36.42
   2   1   2  933.94   36.45
  -2   0   2   17.17    1.48
  -2   0  -2   17.11    0.96
  -2   0  -2   15.85    1.14
  -2   0  -2   16.40    1.13
  -2   0   2   17.91    1.20
  -2   0   2   18.10    1.19
   2   0  -2   16.40    1.43
   2   0   2   13.87    1.20
   2   0   2   17.82    1.02
   2   0  -2   18.07    1.20
   2   0   2   19.39    1.09
   2   0  -2   19.62    1.04
  -2  -1   2  870.97   35.91
  -2   1  -2  863.62   35.82
  -2   1  -2  822.40   35.70
  -2  -1   2  831.96   35.95
  -2  -1   2  879.01   35.90
  -2  -1   2  899.85   36.33
  -2  -1   2  871.65   35.95
   2   1  -2  832.01   36.35
   2   1  -2  797.91   35.82
   2  -1   2  872.00   35.77
   2   1  -2  826.99   35.87
   2   1  -2  874.89   35.96
  -2  -2   2   70.57    3.87
  -2  -2   2   73.90    3.82
  -2  -2   2   81.90    3.87
  -2  -2   2   72.21    4.23
  -2  -2   2   75.19    3.82
  -2   2  -2   71.95    3.61
   2   2  -2   66.26    3.83
   2   2  -2   76.44    3.78
   2   2  -2   74.25    4.47
   2   2  -2   72.36    3.72
  -2  -3   2   68.13    3.87
  -2   3  -2   64.07    3.50
  -2  -3   2   63.72    3.75
  -2  -3   2   63.89    4.24
  -2  -3   2   68.83    3.80
   2   3  -2   63.32    3.71
   2   3  -2   62.24    4.60
   2   3  -2   64.17    3.90
   2   3  -2   64.62    3.67
  -2  -4   2   38.25    3.18
  -2   4  -2   40.91    2.76
  -2  -4   2   37.04    3.06
  -2  -4   2   41.26    3.96
  -2  -4   2   40.82    3.21
   2   4  -2   42.12    3.17
   2   4  -2   46.63    3.54
   2   4  -2   41.57    3.16
  -2   5  -2    6.39    1.58
  -2   5  -2    4.91    2.13
  -2  -5   2    5.40    1.84
  -2  -5   2    4.60    2.32
  -2  -5   2    3.17    1.60
  -2   5  -2    9.23    1.62
   2   5  -2    6.29    1.98
   2  -5   2    5.85    1.41
   2   5  -2    3.22    1.75
   2   5  -2    9.26    2.30
  -2  -6   2   21.66    3.24
  -2   6  -2   22.02    3.11
  -2  -6   2   20.06    2.76
  -2   6  -2   19.53    3.50
  -2  -6   2   18.39    3.58
  -2   6  -2   24.05    3.07
   2   6  -2   19.72    3.37
   2   6  -2   18.32    2.82
   2   6  -2   23.41    3.67
   2  -6   2   17.49    2.36
  -2  -7   2   -0.73    3.16
  -2   7  -2    0.04    2.23
  -2  -7   2    2.32    2.54
  -2   7  -2    2.44    2.65
  -2   7  -2    1.16    2.36
   2   7  -2    1.40    2.54
   2   7  -2    5.36    3.46
   2  -7   2   -0.19    2.09
   2   7  -2    0.11    2.60
  -2   8  -2   12.78    3.98
  -2  -8   2    4.29    4.21
  -2   8  -2    9.94    4.30
  -2  -8   2    8.58    2.80
  -2   8  -2    6.71    3.77
  -2   8  -2    7.37    3.16
   2   8  -2   11.50    3.82
   2  -8   2    4.10    3.50
   2   8  -2   16.69    4.36
  -2   9  -2    0.68    4.50
  -2   9  -2    6.16    3.94
  -2   9  -2    0.51    4.84
  -2  -9   2    1.78    3.39
  -2  -9   2   -4.71    4.81
  -2   9  -2    8.16    5.75
  -2  -9   2    1.74    5.17
   2   9  -2    2.79    4.50
   2  -9   2   -3.91    3.75
   2   9  -2   -0.38    6.07
   2   9  -2    2.30    4.39
  -2  10  -2   -2.37    5.96
  -2  10  -2   -2.12    5.04
  -2 -10   2   -4.14    6.55
  -2  10  -2    2.67    7.76
   2  10  -2   -1.90    5.50
   2  10  -2   20.83    9.07
   2  10  -2   12.54    5.80
  -2  11  -2   -5.40    6.87
  -2 -11   2  -12.65    7.50
  -2  11  -2    6.49    8.93
  -2  11  -2    4.58   10.45
   2  11  -2   -2.59    8.74
   2  11  -2   -8.14   11.45
   2  11  -2    2.77    7.03
  -3  11   2    2.33   10.15
  -3  11   2  -10.85    9.37
  -3  11   2   -5.50    8.44
   3  11   2   22.09   14.57
   3  11   2   21.01    8.64
   3  11   2   20.34    9.43
  -3  10   2   14.92    6.39
  -3  10   2   17.78    6.77
  -3  10   2    4.17    7.50
  -3 -10  -2   21.29    9.24
   3  10   2   13.54    9.31
   3  10   2   15.29    6.80
   3  10   2    3.78    6.89
  -3  -9  -2    0.76    4.02
  -3   9   2    5.52    5.89
  -3   9   2   -1.21    4.81
  -3   9   2    4.70    4.34
  -3  -9  -2   -1.64    6.95
  -3   9   2   18.45    7.38
  -3   9   2   -2.28    5.17
   3   9   2    3.37    5.16
   3   9   2    7.35    5.21
   3   9   2    2.11    6.93
  -3   8   2   26.68    6.43
  -3  -8  -2   24.83    4.76
  -3   8   2   31.47    4.61
  -3   8   2   23.16    4.53
  -3   8   2   35.28    6.50
   3   8   2   37.89    5.83
   3  -8  -2   28.48    3.54
   3   8   2   35.35    6.69
   3   8   2   32.92    6.47
   3   8   2   26.38    5.11
  -3  -7  -2    0.01    2.51
  -3   7   2    0.30    3.83
  -3   7   2    2.30    2.94
  -3   7   2    3.60    2.60
  -3  -7  -2    2.03    3.07
  -3  -7  -2   -0.62    4.16
  -3   7   2   -1.38    2.83
   3   7   2    0.98    3.88
   3   7   2   -0.10    2.81
   3   7   2    3.47    3.01
   3   7   2    3.81    3.99
  -3   6   2   31.19    4.34
  -3  -6  -2   31.58    4.51
  -3   6   2   33.52    3.68
  -3   6   2   42.09    5.08
  -3  -6  -2   37.29    4.14
  -3   6   2   35.65    3.77
   3   6   2   36.51    4.53
   3   6   2   38.60    4.89
   3  -6  -2   33.00    3.22
   3   6   2   34.84    3.89
   3   6   2   45.84    5.54
  -3   5   2   27.49    3.62
  -3   5   2   23.76    3.02
  -3  -5  -2   24.06    3.07
  -3   5   2   30.32    2.63
  -3   5   2   20.91    2.49
  -3  -5  -2   24.79    3.38
   3   5   2   24.09    3.45
   3   5   2   24.29    4.00
   3  -5  -2   19.51    2.28
   3   5   2   20.95    2.93
   3   5   2   25.40    3.72
  -3   4   2   37.45    2.70
  -3  -4  -2   42.45    3.25
  -3   4   2   36.57    2.62
  -3   4   2   38.18    3.40
  -3  -4  -2   42.64    3.44
  -3   4   2   39.87    2.93
   3   4   2   40.36    3.55
   3   4   2   39.55    3.53
   3   4   2   40.44    3.03
   3  -4  -2   36.56    2.51
   3   4   2   38.54    3.62
  -3   3   2   76.69    4.02
  -3   3   2   75.30    4.26
  -3  -3  -2   81.02    4.58
  -3   3   2   84.12    3.91
  -3   3   2   77.49    4.06
  -3  -3  -2   74.83    4.44
   3   3   2   74.44    4.56
   3   3   2   83.54    4.61
   3   3   2   75.84    4.05
   3   3   2   75.17    4.58
   3  -3  -2   80.60    4.01
   3  -3  -2   79.22    4.10
   3  -3  -2   71.54    3.81
  -3   2   2   11.62    1.25
  -3   2   2   10.56    1.21
  -3   2   2    9.19    1.34
  -3  -2  -2    9.95    1.56
  -3  -2  -2    8.81    1.40
  -3   2   2    7.41    0.98
   3  -2  -2    9.70    1.36
   3   2   2    9.90    1.51
   3  -2  -2    6.93    1.12
   3  -2  -2    8.05    0.99
   3   2   2    9.25    1.57
   3   2   2    9.85    1.71
  -3  -1  -2  609.11   26.17
  -3   1   2  641.59   25.91
  -3  -1  -2  574.75   26.08
  -3   1   2  645.54   26.28
  -3  -1  -2  645.85   26.21
  -3   1   2  596.74   25.94
   3   1   2  594.65   26.11
   3  -1  -2  610.25   25.94
   3  -1  -2  669.44   26.02
   3   1   2  549.82   25.99
   3  -1  -2  634.63   26.30
   3   1   2  602.14   26.00
  -3   0  -2   27.24    1.77
  -3   0   2   27.66    1.77
  -3   0  -2   27.89    1.55
  -3   0   2   27.48    2.19
  -3   0  -2   26.90    1.69
  -3   0   2   29.28    1.77
   3   0   2   30.63    1.57
   3   0  -2   26.23    1.79
   3   0  -2   28.53    1.64
   3   0   2   29.29    1.62
   3   0   2   30.72    1.65
   3   0  -2   31.20    2.29
  -3  -1   2  523.92   25.41
  -3  -1   2  609.40   26.00
  -3  -1   2  632.58   25.42
  -3  -1   2  614.93   25.46
  -3  -1   2  622.23   25.55
  -3   1  -2  631.38   25.17
  -3   1  -2  589.11   25.18
   3  -1   2  580.94   25.24
   3   1  -2  597.15   26.09
   3   1  -2  592.80   25.51
   3   1  -2  584.10   25.30
  -3  -2   2   10.18    1.62
  -3   2  -2    8.95    1.09
  -3  -2   2    8.42    1.42
  -3  -2   2    9.52    1.43
  -3  -2   2    8.42    1.40
  -3  -2   2    7.49    1.76
   3   2  -2   10.27    2.03
   3   2  -2   10.11    1.29
   3  -2   2    9.22    1.32
   3   2  -2   10.30    1.59
  -3  -3   2   81.52    4.47
  -3  -3   2   73.29    4.37
  -3  -3   2   66.26    4.91
  -3   3  -2   84.09    4.04
  -3  -3   2   73.33    4.39
  -3  -3   2   76.84    4.36
   3   3  -2   78.53    4.52
   3   3  -2   74.97    4.18
   3   3  -2   76.17    4.31
  -3  -4   2   37.10    3.30
  -3   4  -2   44.17    2.98
  -3  -4   2   37.00    3.35
  -3  -4   2   36.65    4.11
  -3  -4   2   39.37    3.20
   3   4  -2   40.03    3.23
   3   4  -2   40.52    3.56
   3   4  -2   38.87    3.15
  -3  -5   2   22.46    3.79
  -3  -5   2   25.24    3.13
  -3  -5   2   29.67    3.28
  -3  -5   2   25.17    3.49
  -3   5  -2   22.66    3.97
  -3   5  -2   23.17    2.53
   3   5  -2   19.72    3.04
   3   5  -2   19.83    2.92
   3   5  -2   27.16    3.80
  -3  -6   2   29.54    4.61
  -3  -6   2   34.35    4.43
  -3   6  -2   37.32    3.35
  -3  -6   2   32.42    3.91
  -3   6  -2   33.23    3.90
  -3   6  -2   40.38    3.50
  -3   6  -2   37.57    4.38
   3   6  -2   34.96    5.15
   3   6  -2   26.59    4.01
   3   6  -2   27.31    4.17
  -3   7  -2    1.81    2.33
  -3   7  -2    0.89    2.89
  -3   7  -2    1.90    2.22
  -3  -7   2   -3.22    2.37
  -3  -7   2   -2.11    3.52
   3   7  -2   -0.10    2.88
   3   7  -2    0.22    3.45
   3   7  -2   -2.27    2.94
  -3   8  -2   31.72    4.07
  -3  -8   2   34.44    5.47
  -3   8  -2   28.06    5.35
  -3   8  -2   15.15    4.84
  -3   8  -2   32.84    5.30
  -3  -8   2   22.25    5.24
   3   8  -2   23.37    5.98
   3   8  -2   31.49    6.75
   3   8  -2   24.77    4.55
  -3   9  -2   -7.87    4.33
  -3   9  -2    0.26    3.76
  -3  -9   2   -4.61    5.63
  -3   9  -2    4.08    5.19
   3   9  -2   -0.80    6.66
   3   9  -2    0.60    4.47
   3   9  -2   -6.18    4.64
  -3  10  -2    6.26    7.63
  -3 -10   2    5.71    7.17
  -3  10  -2   -5.33    6.90
  -3 -10   2   19.32    5.25
  -3  10  -2    4.50    5.48
   3  10  -2   13.10    5.69
   3  10  -2    5.55    8.72
   3  10  -2    5.11    6.62
  -3  11  -2    3.74   11.44
  -3  11  -2   -7.92   10.10
  -3 -11   2   -7.22    7.39
  -3 -11   2   18.02    9.39
  -3  11  -2  -10.66    6.87
   3  11  -2   -5.99    8.39
   3  11  -2    5.06    7.94
   3  11  -2    4.82   12.45
  -4  10   2   12.94    6.16
  -4 -10  -2   21.31   10.54
  -4  10   2    3.93    7.58
  -4  10   2   -2.48    7.03
   4  10   2   17.87   10.49
   4  10   2   -8.75    6.14
   4  10   2   -5.82    7.00
  -4   9   2    3.54    4.49
  -4   9   2   11.24    6.74
  -4  -9  -2    2.54    4.73
  -4   9   2    8.25    5.66
  -4  -9  -2    8.50    7.23
   4   9   2    0.42    4.85
   4   9   2   11.04    7.92
   4  -9  -2   13.68    3.60
   4   9   2   -0.09    5.40
  -4   8   2    2.54    3.90
  -4  -8  -2    3.27    3.51
  -4   8   2   16.47    5.04
  -4   8   2   -2.79    3.22
  -4  -8  -2    0.17    4.49
  -4   8   2   -3.46    3.62
  -4  -8  -2    4.70    5.73
   4  -8  -2    0.01    2.45
   4   8   2    4.68    5.75
   4   8   2   -2.28    3.58
   4   8   2   -1.67    4.19
   4   8   2    3.98    5.49
  -4  -7  -2    9.48    3.84
  -4   7   2   11.41    4.35
  -4   7   2   18.90    3.35
  -4  -7  -2    7.14    4.73
  -4   7   2   19.68    3.89
   4  -7  -2   13.95    2.35
   4   7   2   14.94    4.02
   4   7   2   16.82    3.69
   4   7   2   24.24    4.81
  -4   6   2   52.26    4.58
  -4  -6  -2   61.60    6.98
  -4   6   2   71.35    6.19
  -4   6   2   73.86    4.76
  -4  -6  -2   63.50    5.80
  -4  -6  -2   61.57    5.57
  -4   6   2   59.07    5.43
   4   6   2   82.19    6.72
   4   6   2   68.51    5.22
   4   6   2   66.01    6.32
   4  -6  -2   67.99    4.20
   4   6   2   55.25    5.73
  -4  -5  -2   30.79    4.04
  -4   5   2   38.19    4.02
  -4   5   2   28.98    3.59
  -4  -5  -2   32.91    3.67
  -4   5   2   27.07    2.81
  -4   5   2   27.18    2.90
   4   5   2   30.27    4.19
   4   5   2   28.07    4.37
   4   5   2   27.07    4.02
   4  -5  -2   30.59    2.56
   4   5   2   28.72    3.26
  -4   4   2   17.45    1.97
  -4  -4  -2   18.19    2.70
  -4   4   2   20.84    2.68
  -4   4   2   13.80    2.23
  -4   4   2   15.11    1.88
  -4  -4  -2   16.15    2.46
   4   4   2   19.11    2.92
   4  -4  -2   17.92    1.80
   4   4   2   14.90    2.55
   4   4   2   17.92    3.11
   4   4   2   13.14    2.11
  -4   3   2   67.85    3.68
  -4   3   2   66.16    3.74
  -4  -3  -2   68.66    4.42
  -4   3   2   68.44    3.52
  -4   3   2   65.91    3.74
  -4  -3  -2   65.31    4.26
   4  -3  -2   63.73    3.46
   4   3   2   69.31    4.25
   4   3   2   68.22    4.41
   4   3   2   64.59    4.39
   4   3   2   65.06    3.55
  -4   2   2    0.23    0.74
  -4  -2  -2   -0.60    0.97
  -4   2   2   -0.30    0.79
  -4  -2  -2   -0.54    1.13
  -4   2   2   -0.34    0.68
   4  -2  -2    1.56    0.93
   4   2   2    0.53    1.14
   4   2   2   -1.39    0.98
   4  -2  -2    0.04    0.60
   4   2   2    0.15    1.18
   4  -2  -2    0.41    0.84
  -4   1   2   45.47    2.75
  -4  -1  -2   52.01    3.17
  -4   1   2   56.64    3.37
  -4  -1  -2   48.46    3.07
   4  -1  -2   53.46    2.79
   4   1   2   52.94    2.74
   4   1   2   47.77    2.58
   4  -1  -2   61.01    3.46
   4   1   2   45.88    2.79
   4  -1  -2   49.93    2.76
   4   1   2   50.36    3.01
  -4   0   2    1.61    0.76
  -4   0   2    1.31    0.70
  -4   0  -2    1.60    0.86
  -4   0   2    0.02    0.98
   4   0  -2    2.67    1.31
   4   0  -2    2.04    0.71
   4   0  -2    1.22    0.74
   4   0   2    2.01    0.64
  -4  -1   2   55.44    3.18
  -4  -1   2   58.88    3.27
  -4   1  -2   51.54    2.71
  -4  -1   2   52.37    2.94
  -4  -1   2   56.10    3.14
  -4  -1   2   48.89    3.77
   4   1  -2   48.06    2.90
   4  -1   2   49.62    2.82
   4   1  -2   50.47    3.95
  -4  -2   2    0.36    1.12
  -4  -2   2    0.72    1.02
  -4  -2   2   -0.44    1.62
  -4  -2   2    0.27    1.05
  -4   2  -2   -0.23    0.69
  -4  -2   2   -0.82    0.92
   4   2  -2    0.54    0.94
   4   2  -2    2.37    1.78
   4  -2   2    1.33    1.08
   4   2  -2    0.30    0.91
  -4  -3   2   57.96    4.22
  -4  -3   2   68.22    4.14
  -4  -3   2   62.81    4.89
  -4  -3   2   66.98    4.02
  -4   3  -2   66.23    3.57
  -4  -3   2   75.53    4.44
   4   3  -2   68.56    3.84
   4   3  -2   62.24    3.93
   4   3  -2   59.27    4.12
  -4   4  -2   19.91    2.17
  -4  -4   2   22.23    2.94
  -4  -4   2   16.90    2.52
  -4  -4   2   15.37    2.55
  -4  -4   2   15.71    3.05
  -4  -4   2   16.99    2.57
   4   4  -2   13.89    2.46
   4   4  -2   17.38    2.38
   4   4  -2   19.43    2.73
  -4  -5   2   29.99    4.21
  -4  -5   2   23.91    4.17
  -4  -5   2   31.03    3.89
  -4   5  -2   35.17    3.20
  -4  -5   2   32.32    3.63
   4   5  -2   31.23    4.18
   4   5  -2   27.48    3.63
   4   5  -2   27.24    3.21
  -4  -6   2   49.36    5.18
  -4  -6   2   47.75    6.89
  -4  -6   2   62.62    5.41
  -4  -6   2   54.85    6.60
   4   6  -2   66.25    5.07
   4   6  -2   63.46    5.30
   4   6  -2   67.28    6.13
  -4  -7   2   11.18    4.43
  -4  -7   2   11.66    3.21
  -4   7  -2   17.93    4.14
  -4  -7   2   13.12    3.89
   4   7  -2   17.94    4.74
   4   7  -2   13.62    3.43
   4   7  -2   16.26    3.44
  -4   8  -2    2.43    2.84
  -4   8  -2    6.40    3.96
  -4  -8   2   -3.56    4.36
  -4  -8   2   -8.04    4.95
   4   8  -2    7.25    5.58
   4   8  -2    1.56    3.34
  -4  -9   2    1.40    5.03
  -4  -9   2    2.86    6.63
  -4   9  -2    7.16    4.73
  -4   9  -2   -4.66    5.33
   4   9  -2    2.86    7.41
   4   9  -2    1.48    4.89
   4   9  -2    2.93    4.72
  -4 -10   2  -10.21    5.86
  -4  10  -2    1.31    7.45
  -4  10  -2    0.69    7.45
  -4 -10   2    1.94    8.25
   4  10  -2    1.96    6.54
   4  10  -2    2.88    6.41
   4  10  -2    5.74    9.34
  -5  10   2  -14.73    7.69
  -5 -10  -2    4.45   10.21
  -5  10   2    6.84    6.87
  -5  10   2   -5.32    8.51
   5  10   2    8.89    8.75
   5  10   2   -7.55    6.69
   5  10   2  -12.02   10.36
  -5   9   2   18.91    6.71
  -5   9   2    1.28    4.53
  -5   9   2    0.45    6.05
  -5  -9  -2   -8.68    8.16
   5   9   2  -10.61    7.67
   5   9   2    3.20    6.15
   5   9   2   -1.59    4.91
  -5  -8  -2   22.14    7.63
  -5  -8  -2   17.10    5.03
  -5   8   2   27.57    4.29
  -5  -8  -2   18.85    5.52
  -5   8   2   14.47    4.75
  -5   8   2   27.66    5.38
  -5   8   2   28.81    6.12
   5   8   2   25.80    4.81
   5  -8  -2   25.24    4.36
   5   8   2   25.74    6.49
   5   8   2   18.29    5.68
   5   8   2   15.60    6.64
  -5  -7  -2   -4.34    3.18
  -5  -7  -2    8.14    5.37
  -5   7   2    0.42    3.13
  -5  -7  -2   -7.32    3.80
  -5   7   2    2.91    3.82
  -5   7   2    1.27    2.58
  -5   7   2   -3.86    3.32
   5   7   2   -2.32    3.78
   5   7   2   -6.61    4.33
   5  -7  -2    1.24    2.49
   5   7   2   -2.46    2.98
  -5   6   2   -0.09    1.84
  -5  -6  -2    0.15    3.97
  -5   6   2    1.27    2.53
  -5  -6  -2    0.06    2.76
  -5   6   2    2.07    2.27
  -5   6   2    2.75    2.73
   5   6   2   -1.35    3.05
   5  -6  -2    0.11    1.41
   5   6   2    0.13    3.37
   5   6   2    2.22    2.45
   5   6   2    6.08    3.48
  -5   5   2   28.35    3.45
  -5   5   2   32.07    3.01
  -5   5   2   39.50    3.86
  -5  -5  -2   37.21    4.22
  -5   5   2   29.34    3.07
  -5  -5  -2   29.02    4.38
  -5  -5  -2   27.20    4.57
   5   5   2   26.32    3.13
   5   5   2   28.08    4.93
   5   5   2   32.59    4.75
   5   5   2   32.87    5.34
   5  -5  -2   29.47    2.55
  -5   4   2   62.63    4.00
  -5   4   2   62.81    4.11
  -5  -4  -2   59.42    4.68
  -5  -4  -2   62.67    4.83
  -5   4   2   63.03    3.72
  -5   4   2   54.37    3.80
   5   4   2   64.22    4.87
   5   4   2   57.67    3.78
   5  -4  -2   68.94    4.31
   5  -4  -2   60.20    3.46
   5   4   2   60.74    5.00
   5   4   2   63.46    5.01
  -5   3   2   16.08    1.77
  -5   3   2   18.68    2.04
  -5   3   2   16.03    2.12
  -5  -3  -2   16.61    2.42
  -5  -3  -2   18.23    2.62
   5   3   2   13.57    2.38
   5  -3  -2   17.51    1.75
   5  -3  -2   15.56    2.27
   5   3   2   15.35    2.47
   5   3   2   16.87    2.72
  -5   2   2   19.01    1.79
  -5  -2  -2   13.71    2.29
  -5   2   2   15.88    1.60
  -5  -2  -2   18.46    2.44
  -5   2   2   13.94    2.09
   5   2   2   17.33    2.33
   5   2   2   14.61    2.13
   5  -2  -2   17.38    1.78
   5  -2  -2   15.04    1.61
   5   2   2   16.52    1.98
  -5   1   2   23.20    2.61
  -5  -1  -2   22.04    2.38
  -5  -1  -2   21.49    2.36
  -5   1   2   25.57    1.91
   5  -1  -2   24.89    2.73
   5   1   2   22.54    1.69
   5  -1  -2   26.05    1.90
   5  -1  -2   22.17    1.88
   5   1   2   24.95    2.19
   5   1   2   24.02    1.75
  -5   0   2   41.01    2.57
  -5   0  -2   42.48    2.56
  -5   0   2   39.32    3.55
  -5   0  -2   38.57    2.61
  -5   0  -2   42.43    2.82
  -5   0   2   36.16    2.61
   5   0  -2   38.81    2.40
   5   0  -2   41.74    2.66
   5   0  -2   41.13    3.63
   5   0   2   42.70    2.46
  -5  -1   2   22.36    2.05
  -5  -1   2   24.72    2.20
  -5  -1   2   24.84    2.48
  -5  -1   2   26.62    2.46
  -5   1  -2   26.43    1.80
  -5  -1   2   25.40    3.29
   5   1  -2   27.78    3.45
   5  -1   2   26.03    2.00
  -5   2  -2   15.05    1.60
  -5  -2   2   17.97    2.18
  -5  -2   2   16.76    2.82
  -5  -2   2   20.80    2.66
  -5  -2   2   18.01    2.50
  -5  -2   2   16.91    2.20
   5  -2   2   18.92    2.15
   5   2  -2   15.67    2.02
  -5   3  -2   15.46    1.79
  -5  -3   2   13.82    2.28
  -5  -3   2   24.67    3.31
  -5  -3   2   15.17    3.16
  -5  -3   2   17.46    2.85
  -5  -3   2   15.79    2.36
   5  -3   2   16.59    2.34
   5   3  -2   18.48    2.17
   5   3  -2   14.06    2.30
  -5  -4   2   67.11    4.97
  -5  -4   2   69.77    4.65
  -5  -4   2   59.93    4.83
  -5  -4   2   59.02    4.48
  -5   4  -2   62.46    3.86
  -5  -4   2   58.65    5.67
   5   4  -2   63.05    4.16
   5   4  -2   61.49    4.81
   5   4  -2   65.79    4.46
  -5  -5   2   34.86    4.41
  -5  -5   2   29.66    3.97
  -5  -5   2   28.68    4.66
  -5   5  -2   32.13    3.28
  -5  -5   2   24.69    3.87
  -5  -5   2   32.56    5.57
   5   5  -2   34.51    3.42
   5   5  -2   29.25    3.95
   5   5  -2   25.72    4.43
  -5  -6   2   -1.26    2.89
  -5  -6   2   -0.75    2.99
  -5  -6   2   -2.49    2.50
  -5  -6   2   -0.55    3.71
  -5  -6   2   -0.66    3.02
   5   6  -2    0.08    3.46
   5   6  -2    4.99    2.67
   5   6  -2    0.97    2.28
  -5  -7   2   -0.45    3.89
  -5  -7   2   -5.92    2.90
   5   7  -2    2.68    4.11
   5   7  -2   -3.11    3.01
  -5   8  -2   23.30    4.25
  -5  -8   2   19.48    5.71
  -5  -8   2   20.95    5.15
  -5  -8   2   12.52    6.45
  -5   8  -2   19.03    5.32
  -5   8  -2   22.59    5.43
   5   8  -2   18.03    4.84
   5   8  -2   31.58    6.78
   5   8  -2   19.83    5.36
  -5  -9   2   -3.79    6.97
  -5   9  -2    2.46    6.22
  -5  -9   2   -4.31    5.15
  -5   9  -2    4.13    4.82
   5   9  -2    1.16    5.10
   5   9  -2    8.39    7.67
   5   9  -2    6.59    5.73
  -5 -10   2   -5.99    6.58
  -5  10  -2   -6.30    8.47
  -5 -10   2    9.74    8.60
   5  10  -2   17.80    6.71
   5  10  -2   -5.69    5.98
   5  10  -2    4.51   10.33
  -6  10   2   23.47    7.70
  -6 -10  -2   20.35   12.00
  -6  10   2   34.97    9.28
   6  10   2   16.08    7.19
   6  10   2   -4.05   12.41
   6  10   2   -3.53    9.16
  -6   9   2    0.50    5.52
  -6   9   2    0.99    7.52
  -6  -9  -2   11.11    8.86
  -6   9   2   -2.51    6.72
   6   9   2    2.93    5.21
   6   9   2   -6.71    6.84
   6   9   2  -11.78    8.86
  -6   8   2    5.22    5.24
  -6   8   2    5.76    3.98
  -6  -8  -2    0.78    6.71
  -6   8   2    6.70    5.21
   6   8   2   13.43    6.74
   6   8   2    5.82    3.99
   6   8   2   -1.43    6.48
   6   8   2    1.99    5.83
  -6  -7  -2    3.92    4.12
  -6   7   2    8.83    3.43
  -6  -7  -2    3.23    4.54
  -6  -7  -2   -1.61    5.24
  -6   7   2    5.62    6.42
  -6   7   2    0.60    2.67
  -6   7   2    0.94    3.37
   6   7   2    5.18    3.17
   6   7   2   14.50    5.31
   6   7   2   -8.18    4.73
  -6   6   2   12.43    2.67
  -6   6   2    9.12    3.44
  -6  -6  -2   10.84    8.35
  -6   6   2   13.22    3.16
  -6  -6  -2    9.54    4.03
   6   6   2    9.54    4.30
   6  -6  -2   12.66    2.08
   6   6   2   10.07    2.80
   6   6   2   13.75    3.93
   6   6   2   17.53    4.28
  -6   5   2    2.37    1.98
  -6   5   2    0.09    1.71
  -6  -5  -2   -3.15    2.85
  -6  -5  -2    0.10    3.52
  -6   5   2   -1.16    1.74
  -6   5   2   -2.33    2.12
   6  -5  -2   -1.45    1.21
   6   5   2   -4.53    2.74
   6   5   2    7.45    3.22
   6   5   2    0.32    2.73
   6   5   2   -0.25    1.81
  -6  -4  -2    8.66    2.39
  -6  -4  -2    6.98    2.72
  -6   4   2    4.86    1.72
  -6   4   2    4.75    1.52
  -6   4   2    5.95    1.67
  -6  -4  -2    7.50    3.39
   6   4   2    1.85    2.57
   6   4   2    5.52    2.54
   6   4   2    2.90    2.57
   6  -4  -2    2.67    2.37
  -6  -3  -2   -0.28    2.63
  -6   3   2   -0.36    1.15
  -6   3   2    0.00    1.27
  -6   3   2    1.92    1.43
  -6  -3  -2   -1.07    2.03
  -6  -3  -2   -0.33    2.06
   6  -3  -2   -0.58    0.98
   6  -3  -2   -0.45    1.53
   6   3   2   -2.30    1.63
   6   3   2    1.58    1.89
   6   3   2   -0.73    1.64
  -6  -2  -2  129.41    8.01
  -6  -2  -2  141.69    7.25
  -6   2   2  123.46    6.83
  -6   2   2  132.74    6.29
  -6   2   2  128.17    6.63
  -6  -2  -2  133.33    7.11
   6   2   2  121.29    6.77
   6  -2  -2  120.37    6.30
   6   2   2  141.22    6.45
   6  -2  -2  125.27    6.43
   6   2   2  127.61    6.57
  -6  -1  -2   -0.57    1.19
  -6  -1  -2    1.60    1.62
  -6   1   2    1.97    1.00
  -6  -1  -2   -0.18    1.98
  -6   1   2    1.12    1.11
  -6   1   2    0.98    1.55
  -6  -1  -2   -0.25    1.43
   6   1   2    1.56    1.05
   6  -1  -2    0.38    1.01
   6  -1  -2   -0.98    1.00
  -6   0  -2   32.50    2.56
  -6   0   2   32.33    3.65
  -6   0   2   32.48    2.88
  -6   0  -2   29.38    3.00
  -6   0   2   35.23    2.93
  -6   0   2   33.73    2.59
  -6   0   2   30.76    2.47
  -6   0  -2   35.47    3.78
  -6   0  -2   32.21    2.71
   6   0  -2   30.29    2.30
   6   0   2   35.87    2.40
   6   0  -2   34.80    2.65
  -6  -1   2   -0.50    2.08
  -6   1  -2    0.76    0.84
  -6  -1   2    0.93    1.11
  -6  -1   2   -0.36    1.48
  -6   1  -2    0.60    1.05
  -6   1  -2   -0.06    1.20
  -6  -1   2   -0.24    1.13
  -6  -1   2    0.74    1.52
   6   1  -2    2.51    0.96
   6  -1   2    0.27    1.27
  -6  -2   2  142.83    7.15
  -6  -2   2  137.94    8.24
  -6  -2   2  130.36    7.30
  -6  -2   2  138.80    6.88
  -6  -2   2  135.32    7.37
  -6   2  -2  136.81    6.46
   6  -2   2  131.67    6.75
   6   2  -2  123.41    6.57
  -6  -3   2   -0.64    1.94
  -6  -3   2    0.37    1.50
  -6  -3   2    0.39    2.46
  -6   3  -2    0.01    1.26
  -6  -3   2    1.41    2.23
  -6  -3   2    0.68    1.61
   6   3  -2   -0.06    1.64
   6   3  -2   -0.22    1.83
   6  -3   2   -2.00    1.83
  -6   4  -2    5.98    1.72
  -6  -4   2    1.46    2.54
  -6  -4   2    2.54    2.78
  -6  -4   2    3.98    2.44
  -6  -4   2    4.40    2.41
  -6  -4   2    4.70    2.22
   6   4  -2    2.28    2.29
   6   4  -2    6.28    1.96
  -6  -5   2   -1.14    2.90
  -6   5  -2   -1.16    1.92
  -6  -5   2   -3.36    2.12
  -6  -5   2   -0.46    2.76
  -6  -5   2   -1.56    3.31
   6   5  -2    1.78    2.23
   6   5  -2    1.95    2.48
   6   5  -2   -1.76    2.73
  -6  -6   2   10.24    3.39
  -6  -6   2   12.16    4.06
  -6  -6   2    7.76    4.67
  -6  -6   2   13.71    3.82
   6   6  -2    9.46    3.17
   6   6  -2   11.11    3.01
   6   6  -2   12.70    4.33
  -6  -7   2    2.13    4.72
  -6  -7   2    5.26    4.56
  -6  -7   2    0.81    4.21
   6   7  -2    2.13    3.58
   6   7  -2   -1.72    4.79
   6   7  -2    3.41    3.55
  -6  -8   2   -2.73    5.90
  -6  -8   2    0.58    7.69
  -6   8  -2    3.92    5.27
  -6  -8   2    2.63    4.75
   6   8  -2    3.04    4.41
   6   8  -2    6.44    4.36
   6   8  -2    7.09    6.54
  -6   9  -2   -6.40    8.78
  -6  -9   2   -1.98    5.65
  -6   9  -2    1.64    6.85
  -6  -9   2   -2.08    8.15
   6   9  -2   -3.86    5.53
   6   9  -2   -1.15    5.37
   6   9  -2   -6.82    8.25
  -6 -10   2   -8.46   10.28
  -6  10  -2    5.76    6.94
  -6 -10   2    3.37    7.25
  -6  10  -2   11.84    9.66
   6  10  -2    5.85    7.14
   6  10  -2   11.24    7.75
   6  10  -2   -1.15   11.88
  -7   9   2    9.13    8.05
  -7   9   2    1.39    6.03
  -7  -9  -2    8.65   10.22
   7   9   2    3.56    5.62
   7   9   2    2.45    7.72
   7   9   2   22.80   11.16
  -7  -8  -2    8.09    7.35
  -7   8   2    6.45    5.90
  -7   8   2    1.97    4.39
  -7   8   2   11.72    5.25
   7   8   2    8.68    6.41
   7   8   2    7.95    4.48
   7   8   2    7.99    7.83
  -7  -7  -2    1.44    5.68
  -7   7   2    8.71    3.91
  -7   7   2   -0.57    2.74
  -7  -7  -2    3.20    5.67
   7   7   2   -0.24    5.56
   7   7   2   16.78    5.43
   7   7   2    3.76    3.38
   7   7   2   -1.64    4.80
  -7  -6  -2    0.18    5.24
  -7   6   2    3.41    2.88
  -7   6   2    1.35    2.39
  -7  -6  -2    4.26    4.36
  -7   6   2    4.74    2.90
  -7  -6  -2    4.30    4.45
  -7   6   2    1.17    3.39
   7   6   2    2.48    2.62
   7   6   2    1.14    4.28
   7   6   2    7.75    4.41
   7   6   2   -1.73    4.00
  -7   5   2   29.02    3.60
  -7  -5  -2   25.79    4.68
  -7   5   2   37.46    3.96
  -7  -5  -2   25.38    4.55
  -7  -5  -2   24.07    5.33
   7   5   2   34.75    3.44
   7   5   2   33.11    5.14
   7   5   2   33.85    5.58
   7  -5  -2   27.26    2.99
   7   5   2   31.53    4.70
  -7  -4  -2    2.78    4.08
  -7  -4  -2    9.57    3.51
  -7   4   2    6.67    2.22
  -7   4   2   11.01    1.96
  -7  -4  -2    5.97    2.90
   7   4   2    2.73    2.63
   7   4   2    0.69    2.88
   7   4   2    2.06    2.41
   7  -4  -2    6.07    2.84
   7  -4  -2    5.91    1.53
  -7   3   2    1.59    1.62
  -7  -3  -2    1.62    2.37
  -7   3   2    0.22    1.31
  -7   3   2   -0.17    2.57
  -7  -3  -2   -1.44    2.29
  -7  -3  -2    1.86    3.28
   7   3   2    1.63    2.05
   7  -3  -2   -1.41    1.26
   7   3   2    4.79    2.06
   7  -3  -2   -0.86    1.83
   7   3   2   -1.64    1.84
  -7  -2  -2   -1.26    2.21
  -7   2   2   -0.02    1.16
  -7   2   2   -1.45    1.49
  -7  -2  -2   -0.82    2.70
  -7  -2  -2   -2.81    2.10
  -7  -2  -2   -2.10    1.49
   7   2   2    1.26    1.52
   7  -2  -2   -0.10    1.29
   7  -2  -2   -0.70    1.48
  -7  -1  -2    1.76    1.61
  -7   1   2    1.86    1.31
  -7  -1  -2    2.76    2.07
  -7  -1  -2    1.69    2.65
  -7   1   2   -0.48    1.84
  -7   1   2    0.97    1.03
  -7  -1  -2    2.25    1.84
   7  -1  -2    0.45    1.39
   7  -1  -2    0.30    1.27
   7   1   2    1.20    1.42
  -7   0  -2   13.47    3.09
  -7   0   2   12.26    1.99
  -7   0   2   16.95    3.10
  -7   0  -2   16.58    2.77
  -7   0  -2   15.00    2.35
  -7   0   2   17.66    2.53
  -7   0  -2   15.91    2.38
  -7   0   2   15.10    2.12
  -7   0   2   16.35    2.58
   7   0   2   13.44    2.12
   7   0  -2   15.55    2.04
  -7  -1   2    2.06    1.41
  -7  -1   2    1.14    2.49
  -7  -1   2   -0.09    1.77
  -7  -1   2    1.48    2.37
  -7  -1   2    0.15    1.38
  -7   1  -2   -0.85    2.06
   7  -1   2    1.69    1.41
   7   1  -2    2.71    1.41
  -7  -2   2   -0.88    2.31
  -7  -2   2   -3.97    2.36
  -7  -2   2    1.66    1.67
  -7  -2   2    1.68    2.10
  -7   2  -2   -0.69    1.26
  -7  -2   2    0.93    1.77
   7  -2   2   -0.09    1.88
  -7  -3   2    3.41    2.16
  -7   3  -2    2.30    1.67
  -7  -3   2   -1.93    2.92
  -7  -3   2    3.62    2.44
  -7  -3   2    0.37    2.02
   7   3  -2    0.02    2.00
   7  -3   2    2.21    2.29
  -7   4  -2    3.84    1.93
  -7  -4   2    4.62    3.42
  -7  -4   2    1.00    2.09
  -7  -4   2    2.99    3.44
  -7  -4   2    5.79    3.36
   7   4  -2    8.37    2.99
   7   4  -2    6.10    2.63
  -7  -5   2   36.86    5.08
  -7  -5   2   27.71    5.53
  -7  -5   2   27.21    4.99
  -7   5  -2   24.59    3.28
  -7  -5   2   29.75    4.50
   7   5  -2   30.45    4.31
   7   5  -2   23.65    4.14
  -7   6  -2    3.51    2.86
  -7  -6   2    3.52    4.43
  -7  -6   2   13.85    4.74
  -7  -6   2   -0.47    3.52
  -7  -6   2   -4.61    4.12
  -7  -6   2   11.84    4.85
   7   6  -2    4.55    3.20
   7   6  -2   -0.66    4.25
  -7  -7   2    5.76    3.99
  -7  -7   2   11.23    7.87
  -7  -7   2    1.09    5.64
  -7  -7   2    2.79    5.88
   7   7  -2   -6.44    5.80
   7   7  -2    0.03    3.60
   7   7  -2   -1.92    5.57
  -7   8  -2    6.02    6.70
  -7   8  -2   -8.67    5.59
  -7  -8   2   -7.23    7.03
  -7  -8   2    4.77    5.59
   7   8  -2    3.30    4.65
  -7  -9   2   16.48    9.38
  -7   9  -2   18.38    9.19
  -7   9  -2    1.80    6.66
  -7  -9   2    4.82    6.12
   7   9  -2    6.95    6.17
   7   9  -2  -15.86    9.26
  -8   9   2    9.36    6.72
  -8  -9  -2  -13.82   18.02
   8   9   2   23.94    9.69
   8   9   2   -2.97   11.46
   8   9   2    7.60    6.96
  -8  -8  -2  -12.69    6.19
  -8   8   2   -1.00    5.28
  -8  -8  -2   14.19    8.51
   8   8   2   11.46    4.72
   8   8   2   10.06    7.19
   8   8   2   -4.85    8.47
  -8  -7  -2   -1.22    6.36
  -8  -7  -2    2.08    7.19
  -8   7   2    2.33    3.55
   8   7   2    9.84    3.85
   8   7   2   -3.67    6.04
   8   7   2   -6.57    6.02
   8   7   2    4.18    5.73
  -8   6   2    0.68    4.47
  -8   6   2    7.06    3.05
  -8  -6  -2   -7.93    5.69
  -8  -6  -2    3.78    5.11
   8   6   2    7.62    4.99
   8   6   2    1.86    4.48
  -8  -5  -2    2.70    3.27
  -8   5   2    1.85    2.47
  -8  -5  -2    0.99    4.34
  -8  -5  -2    2.89    4.30
  -8   5   2    5.57    2.66
  -8   5   2    3.77    2.40
  -8  -5  -2    4.33    5.14
   8   5   2   10.06    3.60
   8   5   2    3.50    3.93
   8  -5  -2    4.87    3.93
   8   5   2    3.83    3.55
  -8  -4  -2    2.05    4.01
  -8   4   2    1.24    2.17
  -8  -4  -2    3.36    3.55
  -8   4   2    2.75    2.07
  -8  -4  -2    7.65    3.86
   8   4   2    0.89    2.80
   8   4   2    6.29    2.99
   8  -4  -2    0.98    1.82
   8   4   2   -3.30    2.67
  -8  -3  -2   51.46    4.71
  -8  -3  -2   42.81    5.88
  -8   3   2   44.62    4.49
  -8  -3  -2   55.44    5.67
  -8  -3  -2   48.93    6.80
  -8   3   2   38.51    3.52
   8  -3  -2   47.56    4.13
   8   3   2   46.93    4.01
   8   3   2   43.85    3.62
   8  -3  -2   41.87    3.66
  -8  -2  -2    8.91    2.95
  -8  -2  -2   10.92    2.44
  -8   2   2    9.02    2.77
  -8   2   2    5.55    1.68
  -8  -2  -2    5.71    3.48
  -8   2   2   10.12    2.11
  -8  -2  -2   12.56    3.23
   8   2   2    7.86    1.79
   8  -2  -2    4.95    1.85
   8  -2  -2    8.96    2.17
  -8  -1  -2    2.70    3.11
  -8   1   2    0.92    2.06
  -8   1   2    1.43    2.49
  -8  -1  -2    4.35    1.91
  -8   1   2    4.47    2.17
  -8  -1  -2    1.77    2.33
  -8  -1  -2   -1.74    2.40
  -8   1   2    0.16    1.45
   8  -1  -2    0.21    1.51
   8   1   2    0.98    1.78
  -8   0   2    7.16    2.55
  -8   0  -2    3.38    2.46
  -8   0  -2    2.44    2.30
  -8   0  -2    1.17    1.47
  -8   0   2    7.41    3.05
  -8   0   2    3.11    2.10
  -8   0   2    2.28    1.70
  -8   0  -2   -0.37    2.75
  -8   0   2    2.51    1.66
   8   0  -2    4.30    1.74
   8   0   2    3.67    1.80
  -8  -1   2    2.60    1.66
  -8   1  -2    2.61    1.26
  -8  -1   2    4.63    3.24
  -8  -1   2    2.05    1.93
  -8  -1   2    3.96    2.69
  -8   1  -2    4.79    1.94
  -8  -1   2   -2.51    2.59
   8   1  -2    2.93    1.49
   8  -1   2    2.88    1.85
  -8  -2   2    9.08    2.43
  -8  -2   2    9.50    3.20
  -8  -2   2    4.92    3.33
  -8  -2   2    0.22    2.89
  -8  -2   2    4.43    2.18
   8  -2   2    6.26    2.33
   8   2  -2    8.45    2.11
  -8  -3   2   49.59    5.52
  -8  -3   2   56.71    5.13
  -8  -3   2   47.19    5.95
  -8   3  -2   50.04    3.78
  -8  -3   2   44.30    6.47
  -8  -3   2   46.40    6.52
   8  -3   2   47.04    4.90
  -8  -4   2    4.25    3.73
  -8  -4   2   -4.80    3.32
  -8  -4   2   -7.10    6.91
  -8  -4   2    1.20    3.40
  -8   4  -2    0.25    2.21
   8   4  -2    3.10    3.12
   8   4  -2   -2.01    2.83
   8  -4   2    2.96    3.59
  -8  -5   2    4.65    4.48
  -8  -5   2    2.51    3.76
  -8   5  -2    3.03    2.70
  -8  -5   2    5.01    5.21
  -8  -5   2    0.60    4.65
  -8  -5   2   -1.78    3.15
   8   5  -2    2.66    3.32
   8   5  -2    4.25    3.84
   8   5  -2    8.71    4.18
  -8  -6   2    2.36    5.27
  -8  -6   2   -3.60    4.94
  -8  -6   2    3.01    5.68
  -8  -6   2    2.80    4.01
   8   6  -2   -3.01    5.05
   8   6  -2   -0.27    3.72
   8   6  -2   11.20    4.82
  -8  -7   2   -8.75    6.07
  -8  -7   2   11.42    5.14
   8   7  -2  -10.56    6.28
   8   7  -2    8.45    5.55
   8   7  -2    2.67    6.36
  -8   8  -2   25.42    8.01
  -8  -8   2   16.95    9.49
  -8  -8   2   -0.42    5.84
   8   8  -2   12.64    5.64
   8   8  -2   -1.87    8.24
  -8   9  -2  -10.64    7.99
  -8  -9   2   -3.20    7.49
  -8  -9   2    8.61   11.49
   8   9  -2   12.85    6.86
   8   9  -2   -6.65   12.89
  -9   8   2    2.65    5.48
   9   8   2   -1.71    8.08
   9   8   2   -7.78    9.66
  -9  -7  -2    0.74    5.60
  -9  -7  -2  -16.72    7.75
   9   7   2   10.17    7.09
   9   7   2  -13.20    7.25
   9   7   2    2.96    6.68
  -9   6   2   -0.76    3.15
  -9  -6  -2   -0.04    4.08
  -9  -6  -2   -5.12    6.54
  -9  -6  -2   14.56    7.22
   9   6   2    4.56    5.49
   9   6   2   12.30    5.64
  -9  -5  -2   11.91    5.95
  -9  -5  -2   11.60    5.73
  -9   5   2    5.25    3.05
  -9  -5  -2    8.80    3.73
   9   5   2   12.74    4.77
   9   5   2    4.70    4.02
   9  -5  -2   13.07    4.61
  -9   4   2    6.38    2.98
  -9  -4  -2    4.72    4.38
  -9   4   2    1.29    2.63
  -9  -4  -2   -2.21    4.59
  -9  -4  -2   -0.29    3.34
  -9  -4  -2    7.57    5.09
   9  -4  -2   -0.12    3.54
   9   4   2    1.62    3.09
   9   4   2    0.53    2.78
  -9   3   2    2.93    2.32
  -9  -3  -2   -4.44    3.48
  -9   3   2    1.43    2.62
  -9  -3  -2   -3.27    3.79
  -9  -3  -2    4.22    2.80
  -9   3   2   -0.89    1.77
  -9  -3  -2    2.18    4.60
   9   3   2    0.44    2.29
   9  -3  -2   -1.68    2.79
  -9  -2  -2    0.92    3.44
  -9  -2  -2    1.14    3.40
  -9   2   2    3.03    1.82
  -9   2   2    1.07    2.79
  -9  -2  -2   -0.27    4.23
  -9   2   2    4.72    2.46
  -9   2   2    5.46    2.14
  -9  -2  -2    0.57    2.73
   9  -2  -2    4.38    3.36
   9   2   2    4.34    2.60
  -9  -1  -2   22.41    4.92
  -9   1   2   30.35    3.68
  -9   1   2   26.96    4.43
  -9  -1  -2   25.75    4.04
  -9   1   2   29.35    3.77
  -9   1   2   22.87    3.00
  -9  -1  -2   23.53    3.70
  -9  -1  -2   21.03    4.14
  -9   1   2   22.43    3.11
   9   1   2   30.69    3.48
   9  -1  -2   28.13    3.29
  -9   0   2    0.27    1.94
  -9   0   2    5.71    2.96
  -9   0   2    3.12    2.98
  -9   0  -2   -1.63    3.25
  -9   0  -2    3.48    2.92
  -9   0   2    3.91    3.62
  -9   0   2    5.13    2.14
  -9   0  -2    5.06    2.82
  -9   0  -2    3.95    1.70
   9   0  -2    2.49    2.13
   9   0   2    3.36    2.39
  -9   1  -2   25.89    3.60
  -9  -1   2   28.80    3.62
  -9   1  -2   32.43    4.77
  -9   1  -2   26.61    4.33
  -9  -1   2   23.67    4.79
  -9  -1   2   28.19    4.31
  -9  -1   2   26.12    4.27
  -9  -1   2   22.67    3.37
   9  -1   2   22.86    3.76
   9   1  -2   25.87    3.41
  -9  -2   2   -0.75    3.60
  -9  -2   2    0.05    3.92
  -9  -2   2    5.90    3.55
  -9  -2   2    7.73    3.21
   9   2  -2    2.69    2.75
   9  -2   2    2.29    2.80
  -9  -3   2    1.39    4.04
  -9  -3   2   -0.45    4.21
  -9  -3   2    3.04    2.70
  -9   3  -2   -4.57    2.62
  -9  -3   2    8.18    3.33
  -9  -3   2   -0.18    4.41
   9   3  -2    4.27    2.23
   9  -3   2   -0.53    3.38
  -9  -4   2   -3.63    4.08
  -9  -4   2    1.72    4.58
  -9  -4   2   -5.17    4.91
  -9   4  -2   -1.51    2.74
  -9  -4   2    0.72    3.26
  -9  -4   2   -3.11    4.46
   9  -4   2   -0.70    4.05
  -9  -5   2   13.62    6.02
  -9  -5   2   12.16    5.39
  -9  -5   2    8.00    4.13
  -9  -5   2    8.98    5.90
   9   5  -2   11.52    4.50
   9   5  -2   11.47    3.61
  -9  -6   2    5.31    6.93
  -9  -6   2    7.80    4.76
  -9  -6   2    7.49    6.46
  -9  -6   2  -10.80    6.62
   9   6  -2    8.01    4.39
  -9  -7   2    3.38    7.34
  -9  -7   2    1.92    5.74
   9   7  -2   -0.59    5.57
   9   7  -2    5.38    7.72
   9   7  -2    5.29    7.34
  -9  -8   2    4.69    7.27
  -9  -8   2   -2.78    9.58
  -9   8  -2   -0.62    7.52
   9   8  -2   25.05    9.73
   9   8  -2   12.29    6.74
 -10   7   2   13.89    5.25
 -10  -7  -2    2.48    6.32
 -10  -7  -2    4.52    9.99
  10   7   2   14.78    7.98
 -10  -6  -2   14.01    5.47
 -10  -6  -2  -13.68    7.90
 -10  -6  -2    9.58    8.95
  10   6   2   -4.87    8.51
 -10  -5  -2   -2.68    6.62
 -10  -5  -2   -5.17    6.76
 -10   5   2   -5.30    3.23
 -10  -5  -2    0.76    4.31
  10   5   2   -5.31    4.67
  10  -5  -2    4.77    5.25
  10   5   2   -2.94    3.88
 -10   4   2    8.51    3.37
 -10  -4  -2    8.56    4.01
 -10  -4  -2   -6.48    5.96
 -10  -4  -2   -5.91    5.54
 -10   4   2    3.45    3.10
  10   4   2    5.35    3.58
  10  -4  -2    0.96    4.43
  10   4   2    2.80    3.58
 -10   3   2   -5.65    3.39
 -10   3   2   -1.20    2.29
 -10  -3  -2   -0.99    3.39
 -10   3   2   -5.35    3.01
 -10   3   2    4.64    2.70
 -10  -3  -2   -4.75    4.84
 -10  -3  -2    1.48    5.07
 -10  -3  -2   -6.35    5.10
  10  -3  -2    3.44    3.43
  10   3   2    5.84    3.48
 -10   2   2    4.63    2.10
 -10   2   2    1.57    3.35
 -10   2   2   -0.30    2.37
 -10   2   2    3.28    3.67
 -10  -2  -2   -1.71    4.90
 -10  -2  -2    9.16    4.49
 -10   2   2    5.00    3.52
 -10  -2  -2    7.82    3.19
 -10  -2  -2    0.17    4.22
  10   2   2    0.15    3.09
  10  -2  -2    1.46    2.98
 -10   1   2    3.43    3.93
 -10   1   2    4.38    3.64
 -10  -1  -2    1.10    4.22
 -10  -1  -2   -0.87    4.29
 -10  -1  -2    1.86    3.95
 -10   1   2   -0.02    2.25
 -10   1   2   -1.09    2.05
 -10  -1  -2    0.58    2.49
  10   1   2   -1.88    3.37
  10  -1  -2    6.55    2.67
 -10   0  -2    0.40    4.05
 -10   0   2    7.04    4.20
 -10   0   2    4.89    2.19
 -10   0   2    2.91    2.53
 -10   0   2    7.71    3.91
 -10   0  -2    3.88    3.63
 -10   0  -2    5.56    4.16
 -10   0   2   10.14    4.31
  10   0   2    7.46    3.01
  10   0  -2    5.33    2.89
 -10  -1   2    4.77    2.67
 -10  -1   2   12.52    4.34
 -10   1  -2    2.24    1.86
 -10   1  -2    3.90    3.77
 -10  -1   2    6.17    4.41
 -10   1  -2   -2.52    3.36
 -10  -1   2    5.24    3.17
  10   1  -2    0.92    2.96
  10  -1   2   -3.06    3.32
 -10  -2   2   -1.04    5.09
 -10  -2   2    6.67    3.31
 -10  -2   2    4.75    3.62
 -10   2  -2    6.05    3.52
 -10  -2   2    3.81    4.93
 -10   2  -2    2.30    2.04
 -10  -2   2    1.59    5.17
  10  -2   2   -0.16    3.50
  10   2  -2    2.28    2.77
 -10  -3   2   -1.39    3.34
 -10  -3   2    0.63    5.74
 -10  -3   2   -1.61    5.02
 -10  -3   2   -1.24    4.83
 -10  -3   2    9.23    4.15
  10  -3   2    5.76    4.21
  10   3  -2   -2.09    2.86
 -10  -4   2    2.18    5.75
 -10  -4   2    9.22    4.28
 -10  -4   2    3.85    6.40
 -10  -4   2   -2.83    5.26
  10  -4   2    7.09    5.02
  10   4  -2    3.16    3.24
 -10  -5   2   -0.78    7.84
 -10  -5   2  -12.70    6.52
 -10  -5   2   15.82    6.84
 -10  -5   2   -2.38    4.22
  10   5  -2   13.04    5.41
 -10  -6   2   -2.39    8.33
 -10  -6   2   11.55    6.61
  10   6  -2   -0.38    4.76
 -10  -7   2    1.46    7.24
 -10  -7   2  -13.57    9.69
 -11   6   2    2.83    4.94
 -11  -6  -2   -1.47    7.64
 -11  -6  -2    1.20   10.02
  11   6   2   -0.52    6.20
 -11  -5  -2  -12.19    8.42
 -11  -5  -2   -5.18    7.76
 -11  -5  -2   -6.46    5.28
 -11   5   2   -6.28    4.04
  11   5   2    0.02    5.28
 -11  -4  -2   10.84    7.76
 -11   4   2   16.98    4.06
 -11  -4  -2   12.67    4.92
 -11   4   2   26.15    5.38
 -11  -4  -2    1.34    7.68
  11   4   2   24.06    5.31
  11  -4  -2   20.54    6.17
 -11   3   2    7.60    8.02
 -11  -3  -2    2.13    6.64
 -11   3   2    2.08    3.55
 -11   3   2    3.76    3.01
 -11   3   2    4.94    4.38
 -11  -3  -2    8.03    6.64
 -11  -3  -2    1.91    4.05
  11   3   2   -0.17    4.67
  11  -3  -2   -0.50    4.17
 -11  -2  -2    0.30    3.41
 -11  -2  -2   -1.57    6.66
 -11   2   2    5.35    4.57
 -11  -2  -2   -6.12    5.08
 -11   2   2    4.60    4.92
 -11   2   2    7.02    4.83
 -11   2   2    3.72    3.12
 -11   2   2    1.85    2.66
 -11  -2  -2   -6.16    5.53
  11  -2  -2   -5.69    3.58
  11   2   2    8.94    4.25
 -11   1   2    7.29    4.94
 -11   1   2    2.69    4.40
 -11   1   2    1.47    2.58
 -11  -1  -2   -4.92    5.86
 -11  -1  -2    0.87    2.72
 -11   1   2    3.29    4.39
 -11  -1  -2    4.10    4.69
  11  -1  -2    2.84    3.59
  11   1   2   -0.22    3.71
 -11   0   2   82.45    9.44
 -11   0  -2   91.76    9.10
 -11   0   2   76.74    6.06
 -11   0   2   60.58    6.55
 -11   0  -2   93.14    9.99
 -11   0  -2   69.55    5.84
 -11   0  -2   69.12    9.28
 -11   0   2   86.41   10.20
 -11   0   2  102.27    9.21
  11   0  -2   82.76    6.54
  11   0   2   82.83    7.07
 -11   1  -2   -3.16    5.09
 -11   1  -2    1.08    4.82
 -11  -1   2   -2.22    7.01
 -11  -1   2    2.56    3.97
 -11  -1   2    1.68    3.29
 -11   1  -2    3.76    2.19
 -11  -1   2   13.16    5.66
 -11  -1   2    4.87    5.29
  11  -1   2    3.17    4.14
  11   1  -2    9.24    3.45
 -11  -2   2    5.60    5.09
 -11   2  -2    1.92    2.57
 -11  -2   2    0.61    6.66
 -11   2  -2    5.93    4.63
 -11  -2   2    0.91    5.99
 -11  -2   2    4.97    3.52
 -11   2  -2   -2.91    4.42
  11  -2   2    3.44    4.54
  11   2  -2    2.08    3.64
 -11  -3   2  -10.68    6.34
 -11  -3   2   -1.89    5.10
 -11  -3   2    5.93    6.99
 -11   3  -2    5.91    2.84
 -11  -3   2    4.97    4.24
  11  -3   2    4.92    5.52
  11   3  -2    0.99    4.00
 -11  -4   2   25.64    8.62
 -11  -4   2   11.18    5.02
 -11  -4   2   32.91    8.02
 -11  -4   2   22.48    7.05
  11  -4   2   20.23    6.39
  11   4  -2   25.19    4.81
 -11  -5   2   28.23    9.62
 -11  -5   2   10.41    5.50
  11   5  -2    7.25    5.09
 -11  -6   2   19.10    7.57
 -11  -6   2    9.33   11.21
 -12   4   2    3.14    5.93
 -12  -4  -2   -2.45    8.58
 -12  -4  -2    6.04    6.12
  12  -4  -2    5.34    7.19
 -12   3   2   10.92    6.05
  12  -3  -2   12.12    6.30
  12   3   2    8.18    5.72
 -12   2   2    3.57    3.16
 -12  -2  -2    0.34    4.27
 -12   2   2   -0.97    5.30
 -12  -2  -2   -3.82    7.39
  12  -2  -2    4.09    4.89
  12   2   2    0.77    4.92
 -12  -1  -2    2.51    3.76
 -12   1   2   -3.11    5.70
 -12   1   2    0.56    3.09
 -12   1   2    6.34    4.35
 -12  -1  -2   -4.22    6.62
  12   1   2    6.27    5.05
  12  -1  -2    2.79    4.74
 -12   0   2   47.66    6.20
 -12   0  -2   73.94   10.97
 -12   0  -2   43.02    5.93
 -12   0   2   70.83   10.82
 -12   0   2   57.09    6.96
  12   0   2   48.41    7.99
  12   0  -2   58.25    6.93
 -12   1  -2   -3.07    6.15
 -12  -1   2    3.00    5.59
 -12  -1   2   -0.14    6.60
 -12   1  -2   -1.37    6.81
 -12  -1   2   -1.87    3.49
  12   1  -2   -6.93    4.34
  12  -1   2    2.66    5.18
 -12  -2   2    6.40    7.33
 -12  -2   2   -0.15    4.50
 -12  -2   2   23.36    6.86
 -12   2  -2  -11.37    6.79
  12   2  -2    6.33    5.10
  12  -2   2   -7.82    6.15
 -12  -3   2    6.50    5.24
 -12  -3   2    4.20    8.78
  12  -3   2    8.77    6.99
  12   3  -2    8.93    5.27
 -12  -4   2   11.04    6.01
 -12  -4   2  -10.21    8.59
  12  -4   2    8.96    7.76
  12   4  -2    8.15    5.89
 -13  -1  -2    5.86    9.35
 -13   1   2   -0.25    3.96
 -13  -1  -2    7.32    4.54
  13   1   2    2.07    6.53
 -13   0   2   24.59    4.74
 -13   0   2   28.31    8.98
 -13   0  -2   29.31    9.19
 -13   0  -2   23.04    4.42
  13   0   2   34.32    7.19
  13   0  -2   34.08    7.46
 -13  -1   2    1.92    4.74
  13   1  -2  -11.15    5.88
  13  -1   2   -3.41    7.45
   0 -11  -3   12.82   10.20
   0  11   3   -0.03    8.10
   0  11   3   15.44    9.17
   0  11   3    0.79   11.84
   0  10   3    4.10    5.78
   0  10   3    3.70    7.27
   0 -10  -3   -8.73    7.65
   0  10   3   -9.38    6.45
   0   9   3   -0.42    4.25
   0   9   3   -0.62    5.46
   0   9   3   10.21    6.31
   0   9   3   -2.59    4.63
   0  -9  -3    2.08    4.14
   0  -9  -3   -1.82    3.15
   0  -9  -3    1.83    5.70
   0   8   3   13.48    4.00
   0   8   3   20.93    5.33
   0  -8  -3   18.50    3.24
   0   8   3   14.07    4.09
   0   7   3   -0.58    2.64
   0  -7  -3    1.34    1.82
   0   7   3    0.59    2.87
   0   7   3   -1.53    3.47
   0   6   3   19.73    3.08
   0  -6  -3   23.40    3.48
   0   6   3   21.58    3.67
   0   6   3   19.50    3.37
   0  -6  -3   21.44    2.76
   0   5   3    0.23    1.96
   0   5   3   -0.86    1.56
   0  -5  -3   -0.34    1.15
   0   5   3    1.86    1.40
   0  -5  -3    1.20    1.49
   0   4   3   71.38    4.24
   0   4   3   67.36    4.26
   0   4   3   75.47    4.58
   0  -4  -3   73.46    3.98
   0  -4  -3   64.79    4.06
   0   3   3   -0.01    0.79
   0   3   3    1.02    1.01
   0   3   3   -1.32    0.89
   0  -3  -3    1.26    0.73
   0  -3  -3    0.13    0.75
   0   2   3  165.54    7.60
   0   2   3  152.54    7.48
   0  -2  -3  165.28    7.70
   0   2   3  161.49    7.46
   0  -2  -3  172.80    7.42
   0  -2  -3  167.83    7.45
   0  -1  -3   -0.16    0.39
   0   1   3   -0.11    0.41
   0  -1  -3    0.12    0.41
   0   1   3   -0.61    0.47
   0   1   3    0.46    0.48
   0  -1  -3    0.10    0.60
   0   0   3   -0.77    0.31
   0   0  -3   -0.82    0.27
   0   0   3   -0.98    0.27
   0   0   3   -0.41    0.35
   0   0  -3   -0.69    0.30
   0   0  -3   -0.97    0.34
   0   0   3   -0.92    0.30
   0   0  -3   -0.94    0.37
   0  -1   3    0.11    0.27
   0   1  -3   -0.03    0.47
   0   1  -3    0.03    0.34
   0   1  -3   -0.16    0.31
   0   1  -3   -0.25    0.46
   0  -1   3   -0.37    0.35
   0  -1   3    0.37    0.48
   0  -2   3  161.68    7.47
   0  -2   3  161.20    7.45
   0   2  -3  177.63    7.85
   0   2  -3  169.09    7.70
   0   2  -3  172.58    7.60
   0  -2   3  175.55    7.87
   0  -2   3  172.07    7.48
   0   3  -3   -0.81    1.06
   0  -3   3    0.95    0.82
   0   3  -3   -0.49    0.72
   0  -3   3   -0.41    0.68
   0  -3   3    0.29    0.91
   0   3  -3   -0.62    0.90
   0   3  -3   -0.33    0.92
   0   4  -3   72.41    4.37
   0  -4   3   68.61    3.98
   0   4  -3   72.06    4.73
   0   4  -3   67.39    4.11
   0  -4   3   69.85    3.99
   0   4  -3   67.37    3.91
   0   5  -3    0.05    1.48
   0   5  -3   -0.56    1.31
   0  -5   3    0.98    1.48
   0   5  -3   -0.53    1.56
   0  -6   3   25.11    3.77
   0  -6   3   19.76    3.38
   0   6  -3   20.37    3.34
   0   6  -3   21.77    3.15
   0   6  -3   21.60    2.96
   0   7  -3   -0.30    3.02
   0   7  -3    1.00    2.35
   0   7  -3    0.66    2.39
   0  -7   3    0.79    2.44
   0   8  -3   15.83    3.85
   0   8  -3   13.41    4.57
   0   9  -3   -3.04    3.83
   0   9  -3   -4.09    4.31
   0  -9   3    5.14    4.29
   0  10  -3   17.90    7.67
   0  10  -3    1.88    5.11
   0  10  -3    5.85    6.39
   0  11  -3   16.53    8.98
   0  11  -3   13.32    6.45
   0  11  -3   11.51   10.45
  -1  11   3  -11.85   10.00
  -1  11   3    8.38    8.75
  -1 -11  -3   18.79   11.19
  -1  11   3   -0.73    9.72
   1  11   3    5.57   11.58
   1  11   3    0.44    9.18
   1  11   3   10.55    8.04
  -1  10   3   13.69    6.34
  -1 -10  -3    4.19    4.69
  -1 -10  -3   -7.91    7.61
  -1  10   3   -4.54    6.78
   1  10   3    4.91    8.95
   1 -10  -3  -10.68    7.33
   1  10   3    8.85    6.79
   1  10   3    8.96    6.15
  -1   9   3    1.64    4.56
  -1  -9  -3    5.55    5.68
  -1   9   3    0.94    5.93
  -1  -9  -3   -2.96    7.09
  -1   9   3   13.30    6.40
  -1   9   3    5.30    4.70
  -1   9   3    5.73    4.60
   1   9   3    6.50    6.38
   1   9   3   18.97    7.24
   1  -9  -3    8.00    4.21
   1  -9  -3    2.36    2.64
   1   9   3   -1.79    4.78
   1   9   3    0.46    5.06
   1  -9  -3    6.18    5.77
  -1  -8  -3   15.68    3.14
  -1   8   3    6.37    6.87
  -1   8   3   12.18    5.24
  -1   8   3   12.01    3.82
  -1   8   3   -1.61    4.01
   1   8   3    3.83    3.54
   1   8   3   15.72    5.56
   1  -8  -3    9.04    3.29
   1  -8  -3    6.45    2.35
   1   8   3    9.48    5.76
  -1  -7  -3    4.26    2.14
  -1   7   3    0.26    2.81
  -1   7   3    4.92    3.78
  -1   7   3    6.74    2.79
  -1   7   3    3.68    2.53
   1  -7  -3    1.88    1.74
   1   7   3    5.05    3.21
   1   7   3    5.55    2.83
   1   7   3    1.51    3.00
  -1   6   3    1.30    2.09
  -1   6   3    3.69    2.66
  -1   6   3    0.56    2.11
  -1  -6  -3    2.44    2.17
  -1  -6  -3    3.93    1.75
  -1   6   3    2.91    2.20
   1   6   3    1.07    2.14
   1  -6  -3    3.45    1.56
   1   6   3   -0.03    2.56
   1   6   3    2.19    2.19
   1  -6  -3    2.84    2.05
   1   6   3    0.31    2.26
  -1   5   3   10.12    2.04
  -1   5   3   10.00    2.49
  -1   5   3    8.57    1.89
  -1   5   3    9.97    2.02
  -1  -5  -3    8.77    1.85
  -1  -5  -3   10.43    2.26
   1   5   3    5.89    1.96
   1  -5  -3    8.58    1.71
   1   5   3    6.96    2.38
   1  -5  -3    7.49    1.75
   1   5   3    6.54    1.98
  -1   4   3   14.14    2.25
  -1   4   3   11.14    1.70
  -1   4   3   11.27    1.78
  -1  -4  -3   13.08    1.82
  -1   4   3   12.30    2.11
  -1  -4  -3   12.32    1.91
   1  -4  -3   10.77    1.62
   1  -4  -3    9.64    1.60
   1   4   3   14.15    2.19
   1   4   3   12.49    1.97
   1   4   3   10.75    1.85
  -1   3   3  302.85   13.38
  -1   3   3  289.59   13.16
  -1   3   3  303.77   12.78
  -1   3   3  273.10   13.05
  -1  -3  -3  279.74   13.15
  -1  -3  -3  312.48   13.28
   1   3   3  300.63   13.47
   1  -3  -3  319.22   13.04
   1  -3  -3  297.32   13.03
   1   3   3  294.75   13.31
   1   3   3  285.43   13.30
  -1   2   3   30.29    2.02
  -1   2   3   28.73    1.88
  -1   2   3   28.68    1.55
  -1   2   3   29.48    1.93
  -1  -2  -3   28.53    2.02
  -1  -2  -3   28.15    2.19
  -1  -2  -3   29.67    1.96
   1  -2  -3   30.07    1.80
   1   2   3   27.36    1.98
   1  -2  -3   28.37    1.78
   1   2   3   28.95    2.08
   1  -2  -3   27.31    2.15
   1  -2  -3   24.60    1.64
   1   2   3   29.31    2.12
  -1   1   3    0.39    0.26
  -1  -1  -3    0.85    0.55
  -1  -1  -3    0.64    0.47
  -1   1   3    0.84    0.50
  -1   1   3    1.60    0.53
  -1  -1  -3    0.93    0.62
  -1   1   3    0.83    0.48
   1  -1  -3    0.59    0.34
   1   1   3    0.01    0.49
   1  -1  -3    0.80    0.47
   1   1   3    0.80    0.54
   1  -1  -3    0.11    0.44
   1   1   3    0.60    0.58
   1  -1  -3    0.09    0.54
  -1   0   3    0.15    0.35
  -1   0   3    0.03    0.43
  -1   0  -3    0.28    0.44
  -1   0   3    0.19    0.48
  -1   0   3   -0.39    0.34
  -1   0  -3   -0.25    0.32
  -1   0  -3   -0.30    0.30
   1   0  -3   -0.21    0.45
   1   0   3   -0.40    0.33
   1   0  -3   -0.07    0.33
   1   0   3   -0.12    0.35
   1   0  -3    0.33    0.44
   1   0  -3   -0.42    0.40
  -1   1  -3    0.81    0.51
  -1  -1   3    0.96    0.50
  -1   1  -3    1.48    0.56
  -1  -1   3    0.33    0.53
  -1  -1   3    0.18    0.48
  -1  -1   3    0.38    0.43
   1  -1   3    0.64    0.48
   1   1  -3    0.39    0.56
   1   1  -3    0.66    0.52
   1   1  -3    0.83    0.43
   1   1  -3    0.37    0.42
  -1  -2   3   25.91    2.02
  -1  -2   3   28.36    2.04
  -1  -2   3   26.89    1.83
  -1  -2   3   28.62    1.84
  -1   2  -3   28.64    1.98
  -1  -2   3   24.35    1.86
   1   2  -3   29.70    2.25
   1   2  -3   25.34    1.93
   1  -2   3   30.13    2.01
   1   2  -3   29.31    1.96
  -1  -3   3  305.43   13.54
  -1   3  -3  282.74   13.55
  -1   3  -3  301.08   12.99
  -1  -3   3  301.88   13.60
  -1  -3   3  313.45   13.35
  -1  -3   3  285.15   13.23
  -1  -3   3  297.64   13.29
   1   3  -3  318.92   14.01
   1   3  -3  295.13   13.25
   1  -3   3  314.99   12.95
   1   3  -3  282.28   13.47
   1   3  -3  302.27   13.45
   1  -3   3  307.17   13.01
  -1   4  -3   13.64    1.61
  -1  -4   3   10.62    1.72
  -1  -4   3    8.19    1.69
  -1   4  -3   10.12    2.01
  -1  -4   3   10.68    2.05
  -1  -4   3   11.35    2.01
  -1   4  -3   11.75    1.78
   1   4  -3   10.59    1.97
   1   4  -3    9.71    2.28
   1  -4   3    9.31    1.63
   1   4  -3    9.92    1.63
   1   4  -3   10.55    1.99
  -1  -5   3    7.94    1.72
  -1  -5   3    9.27    1.98
  -1   5  -3    6.01    1.85
  -1  -5   3    8.71    2.20
  -1   5  -3   10.15    1.88
  -1   5  -3    9.47    1.90
   1   5  -3    8.94    2.15
   1  -5   3    8.11    1.69
   1   5  -3    8.48    1.91
   1   5  -3   10.47    2.12
  -1   6  -3   -0.49    1.85
  -1   6  -3    1.26    2.07
  -1  -6   3    1.95    1.54
  -1  -6   3    2.29    1.90
  -1   6  -3    0.93    1.94
  -1  -6   3    3.73    2.43
   1   6  -3    6.20    2.30
   1   6  -3    1.17    2.28
   1   6  -3    0.82    1.84
   1  -6   3    3.38    1.81
  -1  -7   3    8.50    2.72
  -1   7  -3    1.75    2.79
  -1  -7   3    8.78    3.00
  -1  -7   3    3.77    1.97
  -1   7  -3    1.72    2.40
  -1   7  -3   -0.16    2.76
   1   7  -3    6.53    2.73
   1   7  -3    4.32    2.59
   1  -7   3    8.19    2.46
   1   7  -3    2.74    3.04
  -1  -8   3    9.68    2.66
  -1   8  -3    8.98    4.00
  -1   8  -3   10.61    3.45
  -1  -8   3   14.24    3.94
  -1  -8   3   10.04    3.70
  -1   8  -3   11.62    4.98
   1   8  -3    9.02    4.77
  -1   9  -3    1.08    3.71
  -1  -9   3    3.71    4.40
  -1   9  -3    2.17    5.18
  -1   9  -3    5.65    4.43
   1   9  -3   11.70    6.14
   1  -9   3    6.15    4.28
   1   9  -3    1.08    4.80
   1   9  -3   -3.06    3.70
  -1  10  -3   -4.11    5.01
  -1  10  -3  -13.55    7.24
  -1 -10   3   -3.24    4.98
   1  10  -3   -4.45    7.47
   1  10  -3    1.72    6.35
   1  10  -3    2.47    5.42
  -1 -11   3    3.74    9.49
  -1  11  -3   33.62    9.39
  -1  11  -3   23.68   10.47
  -1  11  -3    2.97    6.41
   1  11  -3   13.74    6.91
   1  11  -3   12.91    8.15
   1  11  -3   35.47   11.77
  -2  11   3   -4.98   10.75
  -2  11   3   12.67   10.51
  -2 -11  -3   13.00   11.89
  -2  11   3   15.46    8.82
   2  11   3   28.24    9.50
   2  11   3    2.80    8.73
   2  11   3    3.01   12.69
  -2  10   3   -3.37    6.55
  -2 -10  -3   -3.70    4.80
  -2  10   3    0.01    7.11
  -2 -10  -3    8.75    8.71
  -2  10   3    0.56    6.30
   2  10   3   -9.02    9.30
   2  10   3   -7.49    5.85
   2  10   3   -5.94    6.48
  -2   9   3   15.64    5.15
  -2   9   3   18.31    5.06
  -2  -9  -3   11.68    4.04
  -2  -9  -3   10.23    6.68
  -2   9   3   16.83    6.14
  -2   9   3   22.98    6.99
   2   9   3    9.11    5.23
   2  -9  -3   10.24    4.48
   2   9   3   12.46    5.30
   2   9   3   20.67    7.12
  -2   8   3   28.67    5.52
  -2   8   3   14.63    4.47
  -2  -8  -3   17.34    5.75
  -2   8   3   18.35    3.90
  -2  -8  -3   14.25    4.51
   2   8   3   18.01    5.75
   2   8   3   18.18    4.43
   2  -8  -3   12.94    3.31
   2  -8  -3   17.74    2.91
   2   8   3   19.08    4.45
  -2  -7  -3   -0.06    2.84
  -2   7   3   -1.79    2.81
  -2   7   3    6.67    2.90
  -2   7   3    5.81    3.25
  -2  -7  -3    4.21    2.26
   2   7   3    6.45    3.03
   2   7   3    3.49    3.33
   2   7   3   -0.15    2.74
  -2   6   3   19.63    3.10
  -2   6   3   28.85    4.95
  -2  -6  -3   21.55    3.16
  -2  -6  -3   20.75    3.23
  -2   6   3   19.87    3.31
   2   6   3   28.71    4.75
   2   6   3   19.40    3.42
   2  -6  -3   20.33    2.47
   2   6   3   17.55    3.04
   2  -6  -3   16.76    2.46
   2   6   3   17.24    3.49
  -2   5   3   11.93    2.34
  -2   5   3   10.15    1.93
  -2   5   3   10.34    2.05
  -2  -5  -3    9.36    2.15
  -2   5   3    9.07    2.10
  -2  -5  -3    6.32    1.89
   2   5   3    9.23    2.22
   2   5   3    7.30    2.02
   2   5   3    5.42    2.08
   2  -5  -3    9.80    1.58
   2  -5  -3    9.01    1.61
   2   5   3   11.22    2.37
  -2  -4  -3   18.81    2.56
  -2   4   3   20.50    2.67
  -2   4   3   19.71    2.38
  -2   4   3   18.53    2.13
  -2   4   3   22.29    1.93
  -2  -4  -3   21.07    2.37
   2   4   3   17.56    2.70
   2  -4  -3   21.31    1.90
   2   4   3   20.16    2.19
   2   4   3   16.67    2.69
   2   4   3   19.78    2.70
   2  -4  -3   20.67    1.93
  -2   3   3   10.17    1.58
  -2   3   3    9.43    1.19
  -2   3   3    8.86    1.36
  -2  -3  -3    8.46    1.45
  -2   3   3    9.09    1.31
  -2  -3  -3    9.23    1.57
   2   3   3    6.05    1.45
   2   3   3    8.96    1.69
   2  -3  -3    8.43    1.23
   2   3   3    8.79    1.40
   2   3   3    5.64    1.49
   2  -3  -3    7.58    1.26
  -2  -2  -3   -0.34    0.62
  -2  -2  -3    0.59    0.73
  -2   2   3    0.12    0.60
  -2  -2  -3   -0.99    0.91
  -2   2   3    0.04    0.48
  -2   2   3   -0.55    0.62
  -2   2   3   -0.10    0.64
   2  -2  -3   -0.26    0.62
   2   2   3   -0.51    0.74
   2  -2  -3    0.21    0.56
   2  -2  -3   -0.35    0.85
   2   2   3   -0.35    0.74
   2  -2  -3    0.11    0.60
   2   2   3    0.75    0.90
  -2   1   3  891.13   39.82
  -2   1   3 1000.00   39.65
  -2   1   3  964.35   39.54
  -2  -1  -3  950.65   39.81
  -2  -1  -3  974.70   39.83
  -2   1   3  904.24   39.67
   2  -1  -3  932.76   39.56
   2  -1  -3  914.56   39.87
   2   1   3  972.82   39.82
   2  -1  -3  947.74   39.69
   2   1   3  922.48   39.82
   2   1   3  982.64   39.81
   2  -1  -3  937.97   39.70
  -2   0   3    0.17    0.52
  -2   0  -3    0.89    0.42
  -2   0   3    0.15    0.39
  -2   0   3   -0.28    0.58
  -2   0  -3    0.07    0.52
  -2   0   3   -0.16    0.41
   2   0   3   -0.56    0.40
   2   0  -3   -0.52    0.58
   2   0  -3    0.02    0.39
   2   0  -3   -0.08    0.59
   2   0   3   -0.39    0.46
   2   0  -3   -0.13    0.42
  -2  -1   3  931.16   39.19
  -2   1  -3  929.73   38.62
  -2  -1   3  908.12   38.84
  -2   1  -3  943.57   38.83
  -2   1  -3  971.11   38.83
  -2  -1   3  892.00   38.87
  -2  -1   3  988.70   38.95
   2   1  -3  884.88   38.78
   2   1  -3  920.02   38.90
   2   1  -3  866.34   39.21
  -2   2  -3   -0.59    0.73
  -2  -2   3    1.16    0.95
  -2  -2   3   -0.20    0.68
  -2  -2   3   -0.29    0.70
  -2  -2   3    0.40    0.80
  -2  -2   3   -0.02    0.76
  -2   2  -3   -0.21    0.76
   2   2  -3    0.85    0.73
   2   2  -3   -0.19    0.78
   2   2  -3    0.69    1.04
  -2   3  -3   10.02    1.77
  -2  -3   3    8.49    1.50
  -2  -3   3    8.69    1.67
  -2  -3   3    7.98    1.38
  -2  -3   3    8.92    1.53
  -2  -3   3    7.83    1.49
   2   3  -3    9.32    2.20
   2   3  -3    6.89    1.40
   2   3  -3    8.09    1.55
   2   3  -3    6.87    1.23
  -2  -4   3   18.54    2.64
  -2   4  -3   17.80    2.41
  -2  -4   3   19.80    2.38
  -2  -4   3   18.97    2.44
  -2  -4   3   18.11    2.32
  -2  -4   3   16.63    2.51
   2   4  -3   20.50    2.74
   2   4  -3   17.97    2.34
   2   4  -3   18.11    2.98
   2   4  -3   15.07    2.33
  -2   5  -3    9.96    1.67
  -2  -5   3    6.91    1.92
  -2   5  -3    7.82    1.72
  -2  -5   3    8.19    2.43
  -2  -5   3    8.67    2.37
  -2   5  -3   10.45    2.40
  -2  -5   3    5.64    1.85
   2   5  -3    7.37    2.16
   2   5  -3    7.04    2.21
   2   5  -3    7.17    1.72
  -2   6  -3   20.97    3.69
  -2  -6   3   17.27    2.66
  -2   6  -3   21.36    2.67
  -2  -6   3   18.75    3.63
  -2   6  -3   20.71    3.11
  -2  -6   3   22.45    3.91
   2  -6   3   19.73    2.81
   2   6  -3   22.31    3.73
   2   6  -3   17.36    2.78
   2   6  -3   20.99    3.71
  -2  -7   3   -0.16    3.33
  -2   7  -3    0.35    2.55
  -2  -7   3   -0.92    3.26
  -2   7  -3   -0.71    2.10
  -2   7  -3    0.49    2.51
   2   7  -3    1.72    2.49
   2  -7   3   -1.21    2.08
   2   7  -3    3.10    2.97
   2   7  -3    2.79    3.48
  -2   8  -3   17.95    3.62
  -2  -8   3   12.54    3.66
  -2  -8   3   15.43    4.73
  -2   8  -3   14.75    4.43
  -2   8  -3   14.44    4.26
  -2  -8   3   12.75    3.06
   2   8  -3   26.82    5.40
   2  -8   3    7.01    3.11
   2   8  -3   10.46    3.90
  -2  -9   3    4.82    4.34
  -2  -9   3   16.19    5.65
  -2   9  -3   17.84    5.75
  -2  -9   3   16.60    7.66
  -2  -9   3   11.55    3.65
  -2   9  -3   12.56    4.19
  -2   9  -3    8.14    5.17
   2   9  -3    9.72    4.64
   2   9  -3   18.39    4.42
   2  -9   3    9.48    4.06
   2   9  -3   17.04    6.63
  -2 -10   3    8.52    4.40
  -2  10  -3   -0.61    7.49
  -2  10  -3    6.50    6.64
  -2 -10   3    0.41    5.33
  -2  10  -3    3.41    5.02
   2  10  -3    2.55    5.26
   2  10  -3    6.51    8.69
   2  10  -3   -9.76    6.52
  -2  11  -3    5.04    9.06
  -2  11  -3    3.54    6.74
  -2  11  -3   14.40   10.57
   2  11  -3    1.90    8.86
   2  11  -3   -7.80    6.90
   2  11  -3   26.63   11.75
  -3  11   3   -0.04    9.04
  -3  11   3  -17.38    8.56
  -3 -11  -3   24.78   12.41
  -3  11   3    5.46   10.91
   3  11   3   -3.91    8.78
   3  11   3   27.74   14.77
   3  11   3    2.76   11.67
  -3  10   3   -6.47    7.19
  -3  10   3   11.14    6.87
  -3  10   3    5.53    6.28
  -3 -10  -3    0.51    9.32
   3  10   3    0.43   10.29
   3  10   3   -0.15    6.71
   3  10   3    2.92    6.57
  -3   9   3   18.81    7.35
  -3  -9  -3   16.04    7.50
  -3   9   3   12.46    5.05
  -3  -9  -3   22.94    4.73
  -3   9   3   13.57    5.62
  -3   9   3   15.48    5.50
   3   9   3   12.68    7.32
   3   9   3   23.16    5.75
   3  -9  -3    7.12    5.02
   3   9   3    3.81    5.53
  -3   8   3    7.99    4.52
  -3  -8  -3   -4.28    5.16
  -3   8   3    3.45    3.90
  -3  -8  -3   10.12    4.82
  -3  -8  -3    8.13    3.40
  -3   8   3    7.52    4.96
  -3   8   3    6.08    3.58
   3   8   3   13.00    5.39
   3   8   3    5.50    4.40
   3   8   3   11.80    5.60
   3  -8  -3    5.39    2.89
   3   8   3    5.87    4.15
  -3  -7  -3    2.49    2.73
  -3   7   3    3.50    2.51
  -3   7   3    8.61    2.90
  -3   7   3    5.21    3.68
  -3  -7  -3    4.97    3.07
  -3   7   3    1.84    2.91
   3   7   3    2.53    3.22
   3   7   3    6.42    3.89
   3  -7  -3    3.47    2.19
   3   7   3   10.46    6.65
   3   7   3    0.22    2.94
  -3  -6  -3   11.04    2.76
  -3  -6  -3   10.42    3.01
  -3   6   3   13.04    2.43
  -3   6   3   13.77    2.89
  -3   6   3   13.03    2.39
   3   6   3   14.32    3.51
   3   6   3   15.08    3.06
   3  -6  -3   15.84    2.30
   3   6   3   12.60    3.31
   3   6   3   18.25    3.67
  -3   5   3  118.55    5.95
  -3   5   3  111.92    6.17
  -3  -5  -3  122.97    6.79
  -3   5   3  104.62    6.38
  -3   5   3  119.95    6.75
   3  -5  -3  117.00    5.91
   3   5   3  118.34    7.10
   3   5   3  109.45    6.25
   3  -5  -3  110.03    5.94
   3   5   3  119.24    7.28
   3   5   3  113.59    6.92
  -3   4   3    3.23    1.22
  -3  -4  -3    0.87    1.49
  -3  -4  -3   -0.19    1.30
  -3   4   3    2.90    1.44
  -3   4   3    0.78    1.06
  -3   4   3    0.68    1.14
   3  -4  -3    0.94    0.90
   3   4   3    2.48    1.57
   3  -4  -3    1.25    0.89
   3   4   3    2.52    1.89
   3   4   3    2.89    1.32
   3   4   3    1.17    1.72
  -3  -3  -3    3.89    1.29
  -3  -3  -3    1.50    1.14
  -3   3   3    4.18    0.97
  -3   3   3    3.51    1.17
  -3   3   3    3.84    1.21
  -3   3   3    2.16    0.98
   3  -3  -3    3.05    0.90
   3   3   3    2.84    1.36
   3   3   3    4.95    1.50
   3  -3  -3    3.93    1.01
   3  -3  -3    3.89    1.23
   3   3   3    4.59    1.54
  -3  -2  -3   37.33    2.63
  -3  -2  -3   38.12    2.67
  -3   2   3   39.58    2.17
  -3   2   3   40.03    2.38
  -3  -2  -3   33.62    2.77
  -3   2   3   38.48    2.49
  -3   2   3   40.56    2.36
   3  -2  -3   36.54    2.54
   3   2   3   36.24    2.73
   3   2   3   40.32    2.82
   3  -2  -3   38.11    2.22
   3   2   3   38.61    2.61
   3  -2  -3   37.67    2.30
   3  -2  -3   37.54    2.55
  -3  -1  -3  384.52   15.70
  -3  -1  -3  379.98   15.66
  -3   1   3  401.80   15.31
  -3  -1  -3  345.33   15.64
  -3   1   3  320.32   15.40
  -3   1   3  368.95   15.79
   3   1   3  323.16   15.45
   3  -1  -3  351.91   15.37
   3  -1  -3  357.89   15.81
   3  -1  -3  355.81   15.47
   3   1   3  335.84   15.58
   3  -1  -3  370.22   15.40
   3   1   3  373.56   15.52
  -3   0  -3    0.03    0.51
  -3   0   3    0.36    0.62
  -3   0  -3   -0.26    0.64
  -3   0  -3   -0.20    0.39
  -3   0   3    0.34    0.58
  -3   0   3    0.13    0.86
   3   0  -3    0.45    0.75
   3   0  -3   -0.05    0.50
   3   0   3   -0.28    0.48
   3   0  -3    0.05    0.56
   3   0   3    0.15    0.50
  -3   1  -3  366.96   15.19
  -3  -1   3  342.94   15.86
  -3  -1   3  354.36   15.48
  -3  -1   3  369.62   15.43
  -3  -1   3  348.52   15.39
  -3   1  -3  348.66   15.07
   3  -1   3  361.72   15.20
   3   1  -3  351.07   15.29
   3   1  -3  336.41   15.96
   3   1  -3  359.94   15.48
  -3  -2   3   39.96    2.69
  -3  -2   3   37.68    2.77
  -3  -2   3   44.12    2.70
  -3   2  -3   38.73    2.28
  -3  -2   3   42.47    3.26
  -3  -2   3   39.65    2.62
   3   2  -3   40.21    2.67
   3   2  -3   40.31    3.50
   3   2  -3   37.15    2.48
  -3   3  -3    2.92    1.10
  -3  -3   3    2.70    1.31
  -3  -3   3    2.26    1.21
  -3  -3   3    1.89    1.27
  -3  -3   3    2.02    1.25
  -3  -3   3    3.85    1.76
   3   3  -3    2.58    1.32
   3   3  -3    4.03    2.12
   3   3  -3    3.33    1.19
  -3   4  -3   -0.98    1.44
  -3  -4   3    2.19    1.43
  -3  -4   3    2.53    1.60
  -3   4  -3    0.89    1.45
  -3  -4   3    0.50    1.38
  -3  -4   3   -0.76    1.51
  -3  -4   3    1.88    1.93
   3   4  -3    1.49    1.55
   3   4  -3    1.79    1.28
   3   4  -3    1.33    1.34
  -3  -5   3  104.87    6.21
  -3  -5   3  105.79    6.27
  -3   5  -3  111.75    6.57
  -3  -5   3   94.29    6.96
  -3  -5   3  112.78    6.43
   3   5  -3  104.96    6.22
   3   5  -3  113.07    6.70
   3   5  -3   95.67    6.18
  -3  -6   3   15.69    2.97
  -3  -6   3    7.76    2.69
  -3  -6   3   15.92    3.18
  -3   6  -3   14.77    2.23
  -3  -6   3   11.52    3.26
  -3   6  -3   16.88    2.90
  -3   6  -3   15.39    3.30
  -3  -6   3   12.74    3.01
   3   6  -3    9.90    2.76
   3   6  -3    8.34    2.40
   3   6  -3   13.39    3.46
  -3  -7   3    3.09    2.81
  -3   7  -3    3.22    3.05
  -3   7  -3    2.20    2.12
  -3  -7   3   -2.61    3.37
  -3   7  -3    2.62    2.34
  -3  -7   3    0.79    2.61
   3   7  -3    1.40    2.64
   3   7  -3   -0.06    2.83
   3   7  -3    2.96    3.91
  -3  -8   3    6.39    4.50
  -3  -8   3    1.49    3.45
  -3   8  -3    8.88    3.23
  -3   8  -3    8.01    3.69
  -3  -8   3    8.39    3.63
  -3   8  -3   10.94    4.73
   3   8  -3    4.15    3.34
   3   8  -3    2.00    4.10
   3   8  -3   11.93    5.59
  -3   9  -3   15.66    5.49
  -3   9  -3    7.45    5.26
  -3  -9   3    6.77    5.73
  -3   9  -3   10.68    3.94
  -3  -9   3    4.26    4.49
   3   9  -3    8.29    5.35
   3   9  -3    7.56    4.39
   3   9  -3   16.63    7.47
  -3 -10   3    8.63    7.38
  -3  10  -3    5.18    6.43
  -3 -10   3    3.05    5.18
  -3  10  -3    8.58    5.15
  -3  10  -3   -7.73    7.64
   3  10  -3   -8.30    6.47
   3  10  -3    5.16    5.76
   3  10  -3   10.04    8.83
  -3 -11   3    6.01    7.80
  -3  11  -3    4.76   10.82
  -3 -11   3    3.03    8.91
  -3  11  -3   -4.05    6.24
  -3  11  -3    5.81   11.44
   3  11  -3   -1.45    8.76
   3  11  -3    5.33   12.04
  -4  10   3   -6.75    8.37
  -4  10   3   10.11    6.02
  -4  10   3    5.33    7.19
   4  10   3   -2.96    7.37
   4  10   3   13.40   11.08
   4  10   3   -6.80    6.36
  -4   9   3   22.54    5.99
  -4   9   3   12.89    5.10
  -4  -9  -3    8.94    7.66
   4   9   3   18.30    5.94
   4   9   3   18.04    6.02
  -4  -8  -3    7.25    4.72
  -4   8   3    5.20    3.71
  -4  -8  -3   -3.04    3.58
  -4   8   3   10.74    4.79
  -4   8   3    5.60    4.84
  -4   8   3    4.62    3.97
  -4  -8  -3    4.59    5.95
   4  -8  -3    6.48    2.86
   4   8   3    9.49    3.86
   4   8   3   20.87    6.56
   4   8   3    5.16    4.63
  -4   7   3    7.51    3.73
  -4  -7  -3    2.98    4.31
  -4  -7  -3    6.01    3.62
  -4   7   3    5.02    3.58
  -4   7   3   -1.79    2.42
   4   7   3   -5.05    3.36
   4   7   3    3.29    4.03
  -4   6   3   42.35    4.07
  -4  -6  -3   45.12    5.42
  -4  -6  -3   52.06    4.74
  -4   6   3   46.94    5.05
  -4   6   3   51.82    5.37
  -4   6   3   48.24    3.90
   4   6   3   57.11    5.95
   4  -6  -3   37.96    3.52
   4   6   3   38.26    5.18
   4   6   3   60.49    5.90
   4   6   3   44.59    4.39
  -4   5   3   30.37    3.04
  -4  -5  -3   30.58    4.38
  -4  -5  -3   21.41    3.45
  -4   5   3   33.24    3.82
  -4   5   3   35.54    2.90
  -4   5   3   29.70    3.45
   4   5   3   41.14    6.97
   4   5   3   33.91    4.62
   4   5   3   28.81    3.35
   4  -5  -3   35.05    2.79
   4   5   3   28.10    4.14
  -4  -4  -3   27.06    3.09
  -4   4   3   20.40    2.91
  -4  -4  -3   23.21    3.11
  -4   4   3   20.20    2.55
  -4   4   3   26.33    2.20
  -4   4   3   24.94    2.37
   4  -4  -3   28.83    2.18
   4   4   3   25.58    3.45
   4   4   3   28.15    3.67
   4   4   3   28.61    3.53
   4  -4  -3   21.17    2.68
  -4  -3  -3   27.41    2.63
  -4   3   3   24.35    1.87
  -4   3   3   23.70    2.22
  -4   3   3   18.97    2.09
  -4  -3  -3   28.18    2.86
  -4   3   3   21.57    2.11
   4   3   3   26.19    2.90
   4  -3  -3   23.20    2.34
   4   3   3   23.99    2.96
   4   3   3   18.85    2.67
   4  -3  -3   20.68    1.85
  -4  -2  -3    1.28    1.23
  -4   2   3    2.20    0.98
  -4   2   3    3.33    0.82
  -4   2   3    2.78    0.80
  -4  -2  -3    2.20    1.09
  -4   2   3    2.58    1.06
   4   2   3   -0.15    1.18
   4  -2  -3    1.76    0.86
   4  -2  -3    2.02    1.00
   4   2   3   -0.18    1.19
   4  -2  -3    2.18    0.73
   4   2   3    1.32    1.03
  -4   1   3   61.96    3.62
  -4  -1  -3   54.08    3.40
  -4  -1  -3   60.32    3.44
  -4   1   3   55.75    3.12
  -4  -1  -3   61.64    3.46
   4  -1  -3   59.59    3.19
   4   1   3   54.79    3.43
   4  -1  -3   63.67    3.74
   4  -1  -3   59.00    3.14
   4   1   3   56.78    2.90
   4   1   3   59.81    3.12
  -4   0   3    0.09    0.76
  -4   0  -3    0.33    0.77
  -4   0   3   -0.03    0.66
  -4   0  -3    0.43    0.79
  -4   0   3   -0.68    1.12
   4   0   3    0.03    0.53
   4   0   3    0.51    0.61
   4   0  -3    0.78    1.11
   4   0  -3   -0.42    0.55
   4   0  -3    0.47    0.77
   4   0   3   -0.62    0.62
  -4  -1   3   62.25    4.13
  -4  -1   3   62.15    3.41
  -4   1  -3   59.70    3.00
  -4  -1   3   61.26    3.54
  -4   1  -3   58.77    2.98
  -4  -1   3   57.03    3.30
   4   1  -3   61.33    3.45
   4  -1   3   61.15    3.17
   4   1  -3   56.64    4.24
   4   1  -3   53.28    3.23
  -4  -2   3    1.73    1.16
  -4  -2   3    0.98    1.20
  -4   2  -3    1.56    0.81
  -4  -2   3    1.73    1.13
  -4   2  -3    1.24    0.93
  -4  -2   3   -0.56    1.36
  -4  -2   3    0.72    0.96
   4  -2   3    2.86    1.19
   4   2  -3    3.52    1.20
   4   2  -3    1.65    1.14
   4   2  -3    1.12    1.62
  -4   3  -3   23.21    2.09
  -4  -3   3   23.57    3.36
  -4  -3   3   24.76    2.85
  -4  -3   3   25.89    2.81
  -4  -3   3   20.12    2.38
  -4  -3   3   21.38    2.58
   4   3  -3   22.44    2.29
   4   3  -3   25.66    3.99
   4   3  -3   19.97    2.63
  -4  -4   3   22.96    2.84
  -4  -4   3   19.97    3.42
  -4  -4   3   19.61    3.04
  -4  -4   3   21.05    3.40
  -4  -4   3   22.60    2.96
   4   4  -3   23.60    3.20
   4   4  -3   27.52    2.87
   4   4  -3   19.20    2.54
  -4  -5   3   29.34    4.34
  -4  -5   3   29.43    3.55
  -4  -5   3   32.99    4.03
  -4  -5   3   29.31    4.16
  -4  -5   3   26.09    4.40
  -4   5  -3   32.67    3.47
   4   5  -3   33.75    3.62
   4   5  -3   22.59    3.22
   4   5  -3   31.63    4.27
  -4   6  -3   37.26    5.56
  -4  -6   3   44.15    5.06
  -4   6  -3   42.40    5.07
  -4  -6   3   39.05    4.54
  -4  -6   3   33.49    5.67
  -4  -6   3   56.74    5.15
  -4  -6   3   43.09    5.39
   4   6  -3   45.47    5.50
   4   6  -3   46.36    4.58
   4   6  -3   42.65    4.38
  -4  -7   3   -6.70    3.86
  -4  -7   3    0.09    2.90
  -4  -7   3    0.77    2.87
  -4   7  -3    2.73    2.96
  -4  -7   3    2.11    4.54
   4   7  -3    0.64    4.11
   4   7  -3    3.35    3.34
   4   7  -3    1.82    2.81
  -4  -8   3    7.45    5.90
  -4   8  -3   -1.23    4.60
  -4  -8   3   15.75    4.85
  -4   8  -3    9.49    3.55
  -4  -8   3    5.33    3.79
  -4   8  -3   10.31    4.64
   4   8  -3    5.97    3.82
   4   8  -3    5.21    3.88
   4   8  -3    3.29    5.05
  -4   9  -3   22.13    6.70
  -4  -9   3   12.82    6.87
  -4  -9   3    8.69    5.34
  -4  -9   3    2.11    6.71
  -4   9  -3   20.98    5.85
   4   9  -3   13.31    4.92
   4   9  -3    2.57    7.38
   4   9  -3    9.84    5.31
  -4 -10   3   -6.36    6.12
  -4  10  -3  -11.73    7.79
  -4 -10   3   15.81    7.91
  -4  10  -3   -0.38    7.38
  -4 -10   3   -5.42    6.15
   4  10  -3   -1.81    9.59
   4  10  -3   -5.28    6.41
   4  10  -3    4.59    5.72
  -5 -10  -3    3.69   11.24
  -5  10   3   -5.78    7.03
  -5  10   3    1.18    8.27
   5  10   3  -10.91    7.07
   5  10   3  -22.52   10.99
   5  10   3    3.71    8.11
  -5   9   3   11.18    6.95
  -5   9   3   -0.49    6.17
  -5  -9  -3   -4.07    7.85
  -5   9   3   -2.84    4.55
   5   9   3    2.84    6.56
   5   9   3  -10.97    8.12
  -5  -8  -3   -2.84    4.69
  -5   8   3    2.61    3.65
  -5  -8  -3   -2.56    6.12
  -5   8   3    8.33    5.04
  -5   8   3    1.10    4.00
  -5   8   3    4.31    4.71
  -5  -8  -3   12.00    5.51
   5   8   3    6.37    5.08
   5   8   3    6.05    6.20
   5   8   3    7.93    6.27
   5  -8  -3    0.72    2.82
  -5   7   3    0.32    3.50
  -5   7   3    2.95    3.18
  -5  -7  -3    0.77    3.96
  -5  -7  -3    6.74    3.34
  -5   7   3   -0.45    2.84
  -5   7   3    5.14    4.03
  -5  -7  -3    0.50    4.85
   5   7   3   -2.53    3.67
   5   7   3   -0.07    3.07
   5   7   3   -1.32    4.19
  -5  -6  -3    9.47    3.83
  -5   6   3    9.91    3.35
  -5   6   3   11.34    2.60
  -5   6   3   16.92    2.76
  -5   6   3    9.60    3.18
   5   6   3    8.03    3.35
   5  -6  -3   12.43    2.18
   5   6   3   10.28    4.22
   5   6   3    9.87    2.85
   5   6   3   18.93    4.17
  -5   5   3    3.41    2.32
  -5   5   3    5.20    1.79
  -5  -5  -3    4.25    2.48
  -5   5   3    7.15    1.73
  -5  -5  -3    8.40    2.67
  -5   5   3    6.23    2.19
   5   5   3    8.59    2.94
   5   5   3   11.29    2.97
   5   5   3    2.50    2.75
   5  -5  -3    6.28    1.54
   5   5   3    5.78    1.98
  -5   4   3    1.88    1.38
  -5   4   3   -1.14    1.36
  -5   4   3    3.03    1.62
  -5  -4  -3    0.96    1.96
  -5  -4  -3    1.60    1.77
  -5   4   3    3.68    1.55
   5  -4  -3   -0.01    2.03
   5   4   3    4.40    2.22
   5   4   3    1.09    2.18
   5  -4  -3    0.79    1.29
   5   4   3    1.62    2.27
  -5  -3  -3    3.58    1.61
  -5  -3  -3    2.53    2.81
  -5   3   3    3.37    1.17
  -5   3   3    3.77    1.34
  -5   3   3    3.37    1.41
  -5   3   3    2.79    1.23
   5   3   3    4.09    1.90
   5   3   3    3.74    1.63
   5   3   3    3.81    1.87
   5  -3  -3    2.28    1.10
   5  -3  -3    1.49    1.44
  -5  -2  -3   -0.48    1.43
  -5  -2  -3    1.07    1.30
  -5   2   3    0.87    0.92
  -5   2   3   -0.32    1.13
  -5   2   3    0.04    0.96
   5   2   3   -0.23    1.19
   5   2   3   -0.07    1.39
   5  -2  -3   -0.17    1.00
   5  -2  -3    0.08    0.85
   5  -2  -3   -0.58    1.23
   5   2   3    0.00    1.16
  -5   1   3    3.04    1.11
  -5   1   3   -0.67    1.31
  -5  -1  -3    0.46    1.24
  -5  -1  -3   -0.07    1.10
  -5  -1  -3    0.89    1.31
  -5   1   3    0.80    0.83
   5  -1  -3    1.24    0.83
   5   1   3    0.57    0.81
   5   1   3    0.20    1.14
   5  -1  -3    3.04    1.59
   5  -1  -3    0.01    0.79
   5   1   3    0.76    0.82
  -5   0   3   -0.63    0.80
  -5   0   3    0.49    1.32
  -5   0  -3    1.04    1.00
  -5   0   3   -0.18    0.94
  -5   0  -3    0.57    0.98
   5   0  -3   -0.62    0.69
   5   0  -3   -1.23    0.85
   5   0  -3   -1.25    1.49
   5   0   3   -0.10    0.85
  -5   1  -3    0.32    0.77
  -5  -1   3   -1.39    1.12
  -5  -1   3   -0.53    1.12
  -5  -1   3    0.91    0.98
  -5  -1   3    0.46    0.98
  -5  -1   3    0.30    1.66
   5   1  -3    1.89    1.78
   5  -1   3    0.45    1.00
   5   1  -3   -0.66    1.00
   5   1  -3   -0.94    1.02
   5   1  -3    0.82    0.89
  -5  -2   3   -0.39    1.11
  -5  -2   3    0.71    1.41
  -5  -2   3   -1.01    1.85
  -5   2  -3    0.49    0.82
  -5  -2   3   -0.86    1.45
  -5   2  -3    0.40    0.90
  -5  -2   3    0.09    1.26
   5   2  -3    1.45    1.28
   5  -2   3    1.17    1.31
   5   2  -3   -3.29    1.87
  -5  -3   3    2.53    1.84
  -5  -3   3    4.61    1.67
  -5  -3   3    1.69    1.74
  -5  -3   3    2.53    1.55
  -5  -3   3    2.46    2.17
  -5   3  -3    2.24    1.17
   5   3  -3    4.38    1.54
   5   3  -3    5.08    1.65
  -5  -4   3    1.89    2.00
  -5  -4   3    0.88    1.95
  -5  -4   3   -1.31    2.50
  -5   4  -3    3.05    1.53
  -5  -4   3    1.49    1.96
  -5  -4   3   -0.22    2.50
   5   4  -3    1.05    1.94
   5   4  -3    3.80    1.61
  -5  -5   3   -0.30    2.94
  -5  -5   3    8.93    2.84
  -5   5  -3    9.22    2.37
  -5  -5   3    4.83    2.35
  -5  -5   3    5.95    2.68
  -5  -5   3    6.23    2.75
   5   5  -3    4.52    2.78
   5   5  -3    3.79    2.30
  -5  -6   3    9.15    2.78
  -5  -6   3    5.10    3.75
  -5   6  -3    7.64    4.02
  -5  -6   3    5.83    3.34
  -5   6  -3    7.95    3.33
  -5  -6   3    8.38    3.49
   5   6  -3   11.90    3.78
   5   6  -3    8.39    2.90
   5   6  -3   12.28    2.80
  -5  -7   3   -2.21    4.08
  -5  -7   3   -1.25    3.15
   5   7  -3    1.23    3.35
   5   7  -3    2.54    3.14
   5   7  -3    0.66    4.80
  -5  -8   3    0.14    8.20
  -5  -8   3    2.08    5.35
  -5   8  -3   -6.73    4.16
  -5  -8   3   -1.81    4.63
   5   8  -3    2.11    5.78
   5   8  -3   -2.68    3.92
   5   8  -3    1.45    3.78
  -5   9  -3   -0.35    5.95
  -5  -9   3    3.39    5.00
  -5  -9   3    8.70    8.85
  -5  -9   3   -9.60    7.01
   5   9  -3    7.43    5.26
   5   9  -3   -7.02    5.17
   5   9  -3   -1.54    7.83
  -5  10  -3    0.43    8.26
  -5 -10   3   15.32    8.69
  -5 -10   3   -6.97    6.57
  -5  10  -3   10.46    8.48
   5  10  -3    0.40    6.24
   5  10  -3   -3.26   10.81
   5  10  -3    6.15    6.65
  -6  10   3   21.78    9.98
  -6  10   3   -5.98    7.23
  -6 -10  -3    4.11   12.29
   6  10   3   -8.65    9.58
   6  10   3   -4.15    6.73
   6  10   3   -6.50   13.63
  -6   9   3   28.37    6.48
  -6   9   3   33.70    7.38
  -6  -9  -3    8.93    9.15
  -6   9   3   23.30    7.75
   6   9   3   23.50    7.89
   6   9   3   27.43    9.96
  -6   8   3    6.26    4.84
  -6  -8  -3    1.55    6.80
  -6   8   3   11.56    5.22
  -6   8   3    2.04    5.42
   6   8   3    5.60    5.76
   6   8   3    1.67    7.33
   6   8   3    2.33    3.86
  -6   7   3    0.51    3.56
  -6   7   3   -2.19    2.66
  -6  -7  -3    0.64    4.92
  -6  -7  -3    5.72    5.61
  -6   7   3    2.51    3.34
  -6   7   3    2.39    4.19
  -6  -7  -3   -0.95    3.97
   6   7   3    1.94    2.97
   6   7   3   12.06    5.16
   6  -7  -3    0.36    2.22
   6   7   3    0.71    5.52
  -6   6   3   -3.56    2.51
  -6   6   3    0.94    2.85
  -6   6   3   -1.46    2.30
  -6  -6  -3    0.38    3.76
   6   6   3    6.54    3.54
   6   6   3   -1.88    3.73
   6  -6  -3   -0.04    1.70
   6   6   3    0.08    2.29
   6   6   3    3.25    3.49
  -6  -5  -3   10.13    3.40
  -6   5   3   16.91    2.77
  -6   5   3   15.11    2.82
  -6   5   3   12.47    2.39
  -6   5   3   18.31    3.25
  -6  -5  -3   13.48    4.16
   6   5   3   12.27    3.16
   6   5   3    9.69    3.68
   6   5   3   13.95    3.34
   6  -5  -3   14.22    2.33
  -6   4   3   35.75    3.40
  -6   4   3   33.57    3.05
  -6  -4  -3   35.46    4.51
  -6   4   3   33.57    3.00
  -6  -4  -3   38.26    4.41
  -6   4   3   37.90    3.37
   6   4   3   41.52    4.72
   6  -4  -3   37.38    3.94
   6   4   3   33.87    4.63
   6   4   3   35.45    3.90
   6  -4  -3   39.79    3.02
  -6  -3  -3   -0.43    1.92
  -6   3   3    1.21    1.41
  -6  -3  -3    0.86    1.92
  -6   3   3    2.11    1.36
  -6   3   3    1.34    1.38
   6   3   3    1.37    2.16
   6   3   3   -0.98    1.87
   6   3   3    1.23    1.59
   6  -3  -3    1.60    1.47
  -6  -2  -3   59.10    4.49
  -6   2   3   59.13    4.13
  -6  -2  -3   57.28    4.45
  -6   2   3   63.41    3.70
   6   2   3   58.95    3.67
   6  -2  -3   62.34    3.64
   6   2   3   59.61    3.39
   6   2   3   61.92    3.83
   6  -2  -3   60.89    3.79
   6   2   3   63.40    4.20
   6  -2  -3   57.33    4.39
  -6  -1  -3    9.92    2.04
  -6   1   3   10.72    1.68
  -6   1   3   10.54    2.35
  -6   1   3    9.56    1.81
  -6  -1  -3   13.49    2.20
   6  -1  -3   11.74    1.73
   6  -1  -3   11.40    1.76
   6   1   3   10.31    1.50
   6   1   3   10.04    1.63
   6  -1  -3    9.66    2.33
   6   1   3    9.81    1.26
  -6   0   3    0.04    1.10
  -6   0  -3    0.30    1.05
  -6   0   3   -0.55    1.09
  -6   0   3   -2.07    1.24
  -6   0   3    0.43    1.82
  -6   0  -3    2.16    1.26
  -6   0  -3    1.00    1.36
   6   0  -3    0.68    1.12
   6   0  -3    0.33    0.93
   6   0  -3    0.18    1.88
   6   0   3   -0.56    1.09
  -6  -1   3   10.07    2.13
  -6  -1   3   10.80    2.00
  -6  -1   3    7.70    1.69
  -6  -1   3   14.72    2.80
  -6   1  -3   11.08    1.51
  -6  -1   3   12.13    2.03
   6   1  -3   11.10    2.78
   6  -1   3    8.90    1.55
  -6  -2   3   59.46    4.07
  -6  -2   3   58.95    5.38
  -6  -2   3   59.88    4.51
  -6   2  -3   60.24    3.53
  -6  -2   3   66.09    4.25
   6   2  -3   65.30    3.93
   6  -2   3   62.06    4.02
  -6  -3   3    2.28    1.97
  -6  -3   3    5.35    2.28
  -6   3  -3   -1.96    1.20
  -6  -3   3    6.38    2.02
  -6  -3   3    0.01    1.69
  -6  -3   3   -1.55    2.30
  -6   3  -3    1.11    1.09
   6  -3   3   -0.04    1.84
   6   3  -3    1.77    2.03
  -6   4  -3   33.92    2.96
  -6  -4   3   31.25    4.51
  -6  -4   3   28.48    4.05
  -6  -4   3   31.83    4.85
  -6  -4   3   28.72    3.93
  -6  -4   3   30.87    5.03
   6   4  -3   36.71    3.55
   6   4  -3   36.45    4.12
  -6  -5   3   12.83    3.54
  -6   5  -3   14.23    2.71
  -6  -5   3   10.90    2.91
  -6  -5   3   11.23    3.21
  -6  -5   3   14.55    3.56
  -6  -5   3    6.24    3.94
   6   5  -3   12.03    2.92
   6   5  -3   13.20    3.19
  -6  -6   3    5.68    3.72
  -6   6  -3    1.07    2.82
  -6  -6   3    0.74    3.26
  -6  -6   3    0.73    3.95
   6   6  -3   -0.29    2.80
  -6   7  -3    5.17    3.95
  -6  -7   3    6.11    4.33
  -6  -7   3    3.21    4.98
  -6  -7   3   -3.36    5.15
  -6   7  -3    4.74    3.84
  -6  -7   3   10.62    5.20
   6   7  -3   -0.50    4.94
   6   7  -3    5.64    3.75
  -6  -8   3    1.15    4.65
  -6   8  -3    1.23    4.38
  -6  -8   3   -6.91    6.62
  -6  -8   3    2.39    6.58
   6   8  -3    6.15    6.69
   6   8  -3    4.43    4.52
  -6  -9   3   16.05    6.08
  -6   9  -3    2.89    6.44
  -6  -9   3    8.07    8.05
   6   9  -3    8.45    5.77
   6   9  -3   29.44    9.39
  -6 -10   3   -3.60    7.66
  -6 -10   3   33.70   10.55
  -6  10  -3    5.89    8.74
   6  10  -3   12.24   14.62
   6  10  -3    1.39    7.16
  -7   9   3   11.50    6.32
  -7   9   3   14.11    8.31
  -7  -9  -3    1.20    9.49
   7   9   3    9.41    5.86
   7   9   3    6.18   10.91
   7   9   3   13.94    8.49
  -7   8   3    2.38    6.51
  -7  -8  -3   -6.40    7.30
  -7   8   3    0.72    4.36
  -7   8   3    7.70    5.04
   7   8   3   10.32    4.49
   7   8   3    2.08    6.51
   7   8   3    6.73    7.64
  -7  -7  -3   -0.14    5.97
  -7   7   3    8.51    3.91
  -7   7   3    5.29    3.25
  -7   7   3   -2.82    4.34
  -7  -7  -3    1.88    5.97
   7   7   3    4.13    6.00
   7   7   3   -6.43    5.16
   7   7   3    5.29    5.37
   7   7   3   10.70    3.48
   7  -7  -3    4.58    2.42
  -7  -6  -3   -2.96    4.39
  -7  -6  -3    0.29    5.13
  -7   6   3   -3.17    2.61
  -7   6   3   -0.66    5.90
  -7   6   3   -1.74    2.30
  -7  -6  -3   -2.17    3.89
  -7   6   3   -0.18    2.85
   7   6   3    1.18    3.89
   7   6   3   -4.46    4.46
   7   6   3    0.63    4.55
  -7   5   3   19.05    3.00
  -7  -5  -3   20.37    3.96
  -7   5   3   10.01    3.47
  -7   5   3   13.99    2.31
  -7  -5  -3   16.37    4.97
  -7   5   3   15.13    2.86
  -7  -5  -3   20.30    4.06
   7   5   3   11.37    3.88
   7  -5  -3   13.29    4.04
   7   5   3   11.27    3.16
   7  -5  -3   13.49    2.10
   7   5   3   13.39    4.14
  -7  -4  -3    4.34    2.81
  -7   4   3    5.83    2.22
  -7   4   3    9.14    1.98
  -7  -4  -3    2.70    3.99
  -7  -4  -3    8.57    3.35
  -7   4   3    4.71    1.97
   7  -4  -3    7.33    2.72
   7  -4  -3    2.68    1.59
   7   4   3    3.56    2.83
   7   4   3   -0.21    2.62
   7   4   3    5.05    2.86
  -7  -3  -3    9.49    2.79
  -7   3   3   12.20    2.48
  -7   3   3   13.23    2.25
  -7  -3  -3    4.67    2.67
  -7  -3  -3    4.50    3.16
  -7   3   3   14.30    2.18
   7   3   3    7.41    2.72
   7   3   3    9.96    2.51
   7  -3  -3   11.52    2.42
   7  -3  -3   10.20    1.88
   7   3   3   11.86    2.45
  -7   2   3    3.87    1.60
  -7   2   3    5.26    1.79
  -7   2   3    2.81    2.14
  -7  -2  -3    2.24    2.34
  -7  -2  -3    8.55    3.05
  -7  -2  -3    2.95    2.35
   7   2   3    5.62    1.59
   7  -2  -3    2.12    1.57
   7   2   3    4.81    1.49
   7   2   3    3.87    1.89
   7  -2  -3    5.03    1.81
  -7   1   3   63.38    3.91
  -7  -1  -3   66.42    4.31
  -7   1   3   57.65    3.89
  -7  -1  -3   68.63    4.77
  -7   1   3   66.13    4.95
  -7  -1  -3   58.05    5.70
  -7  -1  -3   63.10    4.71
   7   1   3   63.65    3.84
   7  -1  -3   66.69    5.35
   7  -1  -3   58.31    4.08
   7  -1  -3   65.18    3.91
  -7   0  -3    0.16    1.62
  -7   0   3   -0.94    1.74
  -7   0  -3   -0.41    1.20
  -7   0   3   -1.81    1.35
  -7   0   3   -1.46    2.00
  -7   0   3    0.32    1.40
  -7   0  -3   -0.10    2.46
  -7   0  -3   -1.08    1.83
   7   0  -3    1.67    1.39
   7   0  -3   -0.11    1.25
   7   0   3   -1.27    1.36
  -7  -1   3   75.94    4.87
  -7  -1   3   54.99    5.70
  -7  -1   3   62.80    4.23
  -7  -1   3   62.57    4.19
  -7  -1   3   66.71    4.94
   7  -1   3   65.85    4.08
   7   1  -3   61.84    3.84
  -7  -2   3    6.71    2.87
  -7  -2   3    5.85    2.19
  -7  -2   3    6.26    2.50
  -7  -2   3    4.27    2.50
  -7  -2   3    2.83    1.76
  -7   2  -3    6.70    1.66
   7  -2   3    6.61    2.28
  -7  -3   3   12.05    3.17
  -7  -3   3    4.36    3.30
  -7  -3   3    7.45    2.18
  -7  -3   3   11.96    2.76
  -7   3  -3   13.70    2.18
   7  -3   3   13.68    2.56
   7   3  -3   13.29    2.73
  -7  -4   3    1.30    3.56
  -7  -4   3    1.62    3.70
  -7  -4   3    3.45    2.89
  -7  -4   3    3.06    2.69
  -7   4  -3    4.53    1.90
   7   4  -3    4.43    2.83
  -7  -5   3   11.55    3.45
  -7   5  -3   20.66    3.24
  -7  -5   3   14.19    4.34
  -7  -5   3   16.96    4.07
   7   5  -3   18.10    3.58
   7   5  -3   19.98    3.98
  -7   6  -3   -0.26    3.07
  -7  -6   3   -2.45    4.71
  -7  -6   3    4.15    4.70
  -7  -6   3    1.62    4.63
  -7  -6   3   -0.85    4.36
  -7  -6   3    1.61    3.45
   7   6  -3    2.64    3.29
  -7  -7   3   -2.27    5.63
  -7  -7   3    4.46    4.41
  -7  -7   3   11.78    5.78
  -7   7  -3   -3.79    4.34
  -7  -7   3   -4.53    6.40
   7   7  -3    3.34    4.90
   7   7  -3   10.94    6.12
  -7  -8   3   -0.95    5.52
  -7   8  -3   -4.35    5.09
   7   8  -3   -2.92    7.15
   7   8  -3   -0.15    5.10
  -7   9  -3  -15.33    9.24
  -7  -9   3   11.05    6.72
  -7   9  -3   -9.00    6.79
  -7  -9   3   -0.32    9.62
   7   9  -3   14.33    6.61
   7   9  -3    6.23    9.64
  -8   8   3   15.86    8.02
  -8   8   3    8.27    5.37
  -8  -8  -3   14.99    9.17
   8   8   3   15.31    7.83
   8   8   3   16.50    9.20
  -8   7   3   11.30    4.59
  -8  -7  -3   -4.85    6.77
  -8   7   3  -10.15    5.19
  -8  -7  -3   -4.63    6.94
  -8   7   3   -3.83    5.30
   8   7   3    1.11    5.84
   8   7   3    0.32    5.80
   8   7   3    1.47    6.84
  -8  -6  -3   13.78    6.54
  -8   6   3   15.41    3.05
  -8  -6  -3    8.39    5.33
  -8   6   3   18.93    3.52
  -8   6   3   23.94    4.88
   8   6   3   15.76    4.97
   8   6   3   11.27    5.42
  -8  -5  -3    3.27    5.22
  -8   5   3    9.42    2.84
  -8   5   3    1.97    2.35
  -8  -5  -3    3.40    4.02
  -8   5   3    0.50    2.64
  -8  -5  -3    5.67    4.24
   8   5   3    1.19    4.03
   8   5   3   -4.83    3.74
   8  -5  -3    1.28    3.84
  -8  -4  -3   -5.67    3.54
  -8   4   3   -0.43    2.09
  -8  -4  -3    0.36    4.28
  -8  -4  -3    5.66    3.79
  -8   4   3    3.73    2.43
   8   4   3    4.49    3.17
   8  -4  -3    1.19    2.03
   8   4   3    5.79    3.15
   8  -4  -3    2.56    3.84
  -8  -3  -3    4.78    4.13
  -8   3   3    9.41    2.63
  -8  -3  -3    5.33    3.48
  -8   3   3    6.37    2.08
  -8  -3  -3    8.32    3.38
  -8  -3  -3    2.28    2.45
   8   3   3    5.50    2.23
   8   3   3    6.61    2.51
   8   3   3    4.87    2.41
   8  -3  -3    8.93    2.08
   8  -3  -3    5.94    2.26
  -8   2   3   16.15    2.57
  -8  -2  -3   10.09    2.56
  -8  -2  -3    6.61    3.19
  -8  -2  -3   10.53    3.06
  -8  -2  -3    9.61    3.66
  -8   2   3    9.83    2.72
  -8   2   3   12.22    2.09
   8  -2  -3    9.47    2.03
   8  -2  -3    7.70    2.26
   8   2   3   10.41    2.30
  -8   1   3    8.75    2.07
  -8  -1  -3   10.63    2.22
  -8   1   3    8.12    1.89
  -8   1   3   15.06    3.10
  -8  -1  -3    8.10    2.72
  -8  -1  -3   14.39    2.93
  -8  -1  -3    8.82    3.41
   8   1   3    9.22    2.12
   8  -1  -3    9.57    2.23
   8  -1  -3   10.96    2.35
  -8   0   3   -1.74    1.66
  -8   0  -3   -2.01    2.75
  -8   0  -3    1.19    1.40
  -8   0   3   -2.26    2.25
  -8   0   3    0.41    1.48
  -8   0  -3    1.43    2.30
  -8   0   3    0.97    2.25
  -8   0  -3   -3.26    2.10
  -8   0   3   -0.72    2.35
   8   0  -3   -1.86    1.43
   8   0   3    2.56    1.87
  -8  -1   3   11.17    2.36
  -8   1  -3    8.01    2.30
  -8  -1   3   10.21    2.91
  -8  -1   3    9.34    2.99
  -8  -1   3   11.68    3.29
   8   1  -3   10.60    2.01
   8  -1   3    9.22    2.40
  -8  -2   3   15.34    3.34
  -8  -2   3   13.92    3.27
  -8  -2   3    9.28    3.32
  -8   2  -3   10.50    2.24
  -8  -2   3    9.52    2.34
  -8  -2   3   13.99    4.27
   8  -2   3   11.37    2.78
   8   2  -3    9.73    2.20
  -8  -3   3    4.28    3.54
  -8  -3   3    8.39    3.13
  -8  -3   3    8.08    3.67
  -8  -3   3    7.48    2.44
  -8  -3   3    3.14    3.41
  -8   3  -3    9.00    2.20
   8  -3   3    7.18    3.11
   8   3  -3    3.34    2.52
  -8  -4   3   -5.74    4.35
  -8   4  -3    1.77    2.38
  -8  -4   3   -1.10    3.88
  -8  -4   3   -1.56    3.27
   8   4  -3   -0.97    2.85
  -8  -5   3    3.67    4.08
  -8  -5   3   -1.96    4.41
  -8   5  -3    3.75    2.87
  -8  -5   3    0.38    4.66
  -8  -5   3    2.62    4.69
  -8  -5   3   -4.61    3.42
   8   5  -3   -0.22    3.47
  -8  -6   3    9.32    5.98
  -8  -6   3   17.95    4.58
  -8   6  -3   16.25    3.26
  -8  -6   3    7.80    6.33
   8   6  -3   22.51    4.21
   8   6  -3   32.96    6.33
   8   6  -3    7.52    5.36
  -8  -7   3    6.04    4.96
  -8  -7   3   10.86    6.61
  -8  -7   3   15.95    7.28
  -8   7  -3    3.23    5.11
   8   7  -3    9.42    7.01
   8   7  -3    9.00    4.88
   8   7  -3   13.66    6.72
  -8   8  -3   20.80   10.22
  -8  -8   3   21.33    8.94
  -8   8  -3   10.59    6.19
  -8  -8   3   18.04    6.70
   8   8  -3   19.56    5.88
   8   8  -3    9.18    9.28
  -8   9  -3    7.27    8.09
   8   9  -3   -1.17    7.34
  -9  -8  -3   -7.49    6.58
  -9   8   3   -2.90    5.96
   9   8   3   -2.49    9.66
   9   8   3   -1.12    8.56
  -9  -7  -3  -11.06    5.32
  -9  -7  -3   13.56    9.12
  -9   7   3    0.81    4.62
   9   7   3  -12.78    6.90
   9   7   3   -2.39    6.98
   9   7   3    5.37    6.94
  -9   6   3    7.87    3.68
  -9  -6  -3    5.57    7.60
  -9  -6  -3    0.55    4.46
  -9  -6  -3    1.51    6.61
   9   6   3    1.52    6.62
   9   6   3    3.12    5.87
   9   6   3    7.82    5.59
  -9   5   3    0.58    2.94
  -9  -5  -3    2.14    3.69
  -9  -5  -3   -1.18    5.29
  -9   5   3    0.26    2.77
  -9  -5  -3   -5.66    5.85
   9  -5  -3    7.94    4.52
   9   5   3    2.92    4.43
   9   5   3   -5.38    4.11
   9   5   3    0.72    5.02
  -9   4   3    4.02    2.89
  -9  -4  -3   -4.10    2.90
  -9   4   3    1.16    2.35
  -9  -4  -3    1.26    4.25
  -9  -4  -3   -5.50    4.56
  -9  -4  -3    1.29    4.49
   9   4   3   -3.56    2.79
   9  -4  -3   -0.27    3.84
   9  -4  -3    3.94    2.32
  -9   3   3   12.71    2.82
  -9   3   3    8.54    2.97
  -9  -3  -3    5.84    4.63
  -9  -3  -3   13.16    4.69
  -9  -3  -3    5.40    2.86
  -9  -3  -3    2.65    3.91
  -9   3   3    5.53    3.78
   9   3   3    9.04    2.46
   9  -3  -3    9.59    3.10
   9   3   3   12.40    2.98
  -9  -2  -3    1.35    2.79
  -9   2   3    3.84    2.98
  -9  -2  -3    3.45    3.33
  -9  -2  -3    1.84    4.19
  -9  -2  -3    3.91    3.54
  -9   2   3    1.41    1.78
  -9   2   3    4.22    2.30
   9   2   3   -0.83    2.44
   9  -2  -3    0.59    2.40
  -9   1   3    4.35    2.97
  -9   1   3   12.11    2.33
  -9  -1  -3   13.02    2.75
  -9   1   3    6.34    2.99
  -9   1   3   11.89    2.36
  -9  -1  -3    7.77    3.30
  -9  -1  -3   11.47    4.33
  -9  -1  -3    9.73    3.33
  -9   1   3    8.34    3.44
   9   1   3    5.43    2.54
  -9   0   3   -2.66    2.89
  -9   0   3   -2.31    3.10
  -9   0   3   -1.74    2.02
  -9   0   3    0.22    1.82
  -9   0  -3    0.68    2.92
  -9   0  -3    0.07    1.77
  -9   0  -3    1.41    3.46
  -9   0  -3   -1.29    2.81
   9   0  -3   -0.27    2.42
   9   0   3    1.56    2.52
  -9   1  -3    7.85    3.55
  -9  -1   3   10.43    3.61
  -9  -1   3   12.85    3.79
  -9   1  -3   11.85    4.97
  -9  -1   3    7.44    2.83
  -9  -1   3    8.00    3.81
   9  -1   3    4.56    2.80
  -9  -2   3   -0.60    2.90
  -9  -2   3    1.44    3.64
  -9  -2   3    2.40    2.41
  -9  -2   3    9.05    3.78
  -9   2  -3    3.50    1.52
  -9  -2   3   -6.03    3.58
   9   2  -3    0.30    2.53
   9  -2   3    2.66    3.13
  -9  -3   3   12.33    3.63
  -9  -3   3    6.71    3.24
  -9  -3   3    7.27    4.65
  -9   3  -3    7.73    2.78
  -9  -3   3    8.97    4.60
  -9  -3   3   14.94    5.12
   9  -3   3    7.45    3.79
  -9  -4   3   -3.40    4.66
  -9  -4   3    5.05    5.02
  -9   4  -3    3.46    3.11
  -9  -4   3    5.35    3.26
  -9  -4   3   -2.72    5.00
   9   4  -3    8.94    3.76
  -9  -5   3   -3.01    3.74
  -9  -5   3   -1.78    5.68
  -9  -5   3    0.52    5.24
   9   5  -3    6.26    4.96
   9   5  -3   -0.12    3.62
  -9  -6   3   -6.57    6.46
  -9  -6   3    0.02    5.10
  -9  -6   3    2.81    6.78
   9   6  -3    5.22    4.96
  -9  -7   3   -1.23    5.69
  -9  -7   3   18.02    7.93
  -9  -7   3    8.65    8.48
  -9   7  -3   -1.51    5.70
   9   7  -3   -7.03    7.80
   9   7  -3    5.22    5.87
  -9  -8   3   19.15   10.97
  -9  -8   3   -0.52    7.82
  -9   8  -3   -7.40    8.03
   9   8  -3    8.27   10.76
   9   8  -3   16.92    7.15
 -10  -7  -3   15.88   12.18
 -10   7   3   20.03    5.94
  10   7   3   25.54    8.27
 -10  -6  -3   11.15    5.93
 -10  -6  -3   47.76    9.06
 -10   6   3   31.56    5.29
 -10  -6  -3   31.54    9.63
  10   6   3   27.38   12.34
  10   6   3   19.92    5.14
 -10  -5  -3   -0.55    6.82
 -10  -5  -3   -5.03    4.36
 -10  -5  -3    6.84    6.92
 -10   5   3    6.92    3.46
  10  -5  -3    0.64    5.53
  10   5   3    1.31    4.96
  10   5   3    5.09    4.19
 -10   4   3   11.77    3.56
 -10   4   3    4.29    3.11
 -10  -4  -3   14.50    4.26
 -10  -4  -3    1.75    5.45
 -10  -4  -3    8.56    6.07
 -10   4   3   12.87    3.92
  10   4   3   10.50    3.76
  10  -4  -3    4.99    4.59
  10   4   3   12.51    4.53
  10  -4  -3   18.50    3.43
 -10  -3  -3   -4.92    5.44
 -10  -3  -3    9.02    5.77
 -10  -3  -3    9.35    3.74
 -10   3   3   11.11    3.44
 -10   3   3    6.89    2.79
 -10  -3  -3   12.46    5.73
 -10   3   3   15.58    3.96
  10   3   3   12.36    3.76
  10  -3  -3    7.43    3.52
 -10   2   3    1.48    3.81
 -10   2   3    5.79    2.32
 -10   2   3    7.71    3.61
 -10  -2  -3    6.45    3.16
 -10  -2  -3    5.59    4.72
 -10   2   3    5.65    3.41
 -10  -2  -3   15.05    5.47
 -10   2   3    0.40    2.65
 -10  -2  -3    1.04    4.47
  10  -2  -3    6.49    3.19
  10   2   3    9.68    5.82
 -10   1   3   20.33    2.97
 -10  -1  -3   18.06    5.28
 -10  -1  -3   18.33    4.89
 -10   1   3   22.03    3.37
 -10   1   3   21.22    4.17
 -10  -1  -3   19.83    4.64
 -10  -1  -3   23.05    3.45
 -10   1   3   23.26    4.47
 -10   1   3   18.16    4.63
  10  -1  -3   22.07    3.97
 -10   0  -3    1.61    3.44
 -10   0   3   -1.85    3.82
 -10   0   3   -4.58    4.26
 -10   0   3    3.49    2.44
 -10   0   3   -1.13    2.59
 -10   0  -3   -5.00    4.09
 -10   0  -3    1.32    3.51
 -10   0  -3    3.36    4.12
 -10   0   3    2.12    4.21
  10   0  -3    2.07    2.50
  10   0   3    1.14    3.54
 -10  -1   3   18.71    3.44
 -10  -1   3   32.63    5.44
 -10  -1   3   21.37    4.21
 -10  -1   3   24.33    5.31
 -10  -1   3   16.99    4.74
 -10   1  -3   23.54    4.29
 -10   1  -3   15.10    4.67
  10   1  -3   23.58    3.74
  10  -1   3   19.39    3.84
 -10  -2   3    0.50    3.04
 -10  -2   3    6.81    4.09
 -10  -2   3   -1.44    4.83
 -10  -2   3    3.99    5.29
 -10   2  -3    4.41    2.15
 -10  -2   3    9.42    5.00
  10  -2   3    5.68    3.64
  10   2  -3    7.68    2.79
 -10  -3   3   11.11    3.71
 -10  -3   3   18.59    4.84
 -10  -3   3   11.19    5.75
 -10  -3   3    7.27    5.66
  10  -3   3   11.34    4.61
  10   3  -3   10.73    3.26
 -10  -4   3    6.40    4.17
 -10  -4   3    9.48    6.59
 -10  -4   3    4.03    6.35
 -10  -5   3   -9.81    6.74
 -10  -5   3   -5.93    7.63
 -10  -5   3   14.58    7.47
 -10  -5   3   -0.41    4.71
  10   5  -3    9.77    5.69
 -10  -6   3   40.35    9.59
 -10  -6   3   21.91    6.46
  10   6  -3   14.01    5.25
 -10  -7   3   20.18   10.13
 -10  -7   3    8.73    7.23
 -10   7  -3    0.05    7.00
  10   7  -3   -4.80    6.13
 -11  -6  -3    5.07   10.63
 -11   6   3    6.12    5.58
  11   6   3  -10.59    6.68
 -11  -5  -3  -10.98   12.54
 -11  -5  -3   10.66    5.80
 -11  -5  -3  -13.78    8.48
  11  -5  -3    2.57    6.32
  11   5   3    7.18    5.81
 -11  -4  -3    3.62    5.26
 -11  -4  -3   -5.80    7.28
 -11  -4  -3   -5.66    7.69
 -11   4   3    8.42    3.88
  11   4   3    2.20    5.02
  11  -4  -3   10.71    5.74
 -11  -3  -3    5.82    4.52
 -11   3   3   -1.41    4.87
 -11  -3  -3   -8.50    6.00
 -11   3   3    4.80    3.11
 -11   3   3    0.35    3.63
 -11   3   3   -8.43    4.95
 -11  -3  -3  -13.15    6.59
 -11   3   3   -1.70    3.98
  11   3   3   -6.98    4.36
  11  -3  -3   -5.38    4.09
 -11   2   3    0.95    3.40
 -11  -2  -3    1.77    5.93
 -11   2   3   -2.13    4.40
 -11   2   3    1.81    2.77
 -11  -2  -3    4.52    3.82
 -11  -2  -3   -8.52    5.55
 -11   2   3    3.62    4.65
 -11   2   3    1.10    4.20
  11  -2  -3   -5.10    3.70
  11   2   3   -0.90    4.04
 -11   1   3   16.84    5.11
 -11   1   3    7.48    2.93
 -11  -1  -3    8.13    5.38
 -11   1   3   12.01    5.66
 -11  -1  -3   11.05    3.46
 -11   1   3   14.38    5.09
 -11  -1  -3   15.04    5.30
 -11  -1  -3    6.73    6.12
  11   1   3   13.48    4.24
  11  -1  -3   11.47    3.83
 -11   0   3   -5.74    3.46
 -11   0   3   -0.02    2.84
 -11   0  -3   -7.13    4.38
 -11   0   3    3.69    5.28
 -11   0   3    1.10    6.03
 -11   0  -3   -1.14    2.63
 -11   0  -3    0.01    5.24
  11   0  -3   -1.40    3.32
  11   0   3   -0.27    4.16
 -11   1  -3   12.31    5.21
 -11  -1   3    7.55    5.50
 -11  -1   3   14.02    6.42
 -11   1  -3   14.01    5.35
 -11  -1   3   11.37    4.64
 -11  -1   3    5.33    3.49
  11  -1   3    5.62    4.27
  11   1  -3   12.11    3.90
 -11  -2   3    3.21    6.04
 -11  -2   3   -2.13    5.08
 -11  -2   3    2.62    3.63
 -11  -2   3   -2.17    6.79
  11  -2   3   -5.02    4.80
  11   2  -3    4.31    3.46
 -11  -3   3   -2.00    5.49
 -11   3  -3    3.39    2.75
 -11  -3   3   -4.46    4.16
 -11  -3   3    8.19    7.43
 -11  -3   3   11.70    6.71
  11   3  -3    8.59    3.87
  11  -3   3    3.31    5.68
 -11  -4   3   -0.98    7.33
 -11  -4   3    8.48    4.85
 -11  -4   3   -7.61    7.60
 -11  -4   3   21.68    8.70
  11   4  -3    9.66    4.71
 -11  -5   3    1.69    5.73
 -11  -5   3   -8.44    9.05
 -11  -5   3   -0.95   11.80
  11   5  -3    2.88    4.62
 -11  -6   3   -9.63   10.82
 -12   4   3    9.91    6.19
 -12  -4  -3    6.47    6.28
 -12  -4  -3   -6.17    9.10
  12   4   3  -13.74    6.65
  12  -4  -3   -0.26    9.17
 -12   3   3    7.78    6.22
 -12  -3  -3    2.49    8.12
 -12  -3  -3    9.42    5.50
 -12   3   3    1.62    4.26
  12   3   3    4.01    6.27
  12  -3  -3    4.10    5.79
 -12   2   3    5.80    5.78
 -12  -2  -3    1.46    4.21
 -12  -2  -3  -15.38    7.12
 -12   2   3    0.89    3.69
  12  -2  -3   13.27    5.35
  12   2   3   -1.78    5.18
 -12   1   3    2.92    4.53
 -12  -1  -3   -3.75    7.46
 -12  -1  -3   -0.33    3.56
 -12   1   3   -1.78    3.40
 -12   1   3   -0.83    5.58
  12  -1  -3    7.39    4.93
  12   1   3    0.71    5.30
 -12   0  -3    3.69    6.62
 -12   0  -3   -0.97    8.69
 -12   0   3   -3.53    3.27
 -12   0   3   -0.97    6.03
  12   0  -3   -3.90    4.27
  12   0   3    0.69    5.46
 -12  -1   3    1.46    3.87
 -12  -1   3   15.09    5.86
 -12  -1   3   -7.10    6.36
 -12   1  -3    0.27    7.40
 -12   1  -3   12.88    7.83
  12  -1   3   -3.27    6.07
  12   1  -3    1.69    4.42
 -12  -2   3   10.03    4.97
 -12  -2   3   13.07    7.04
 -12   2  -3   -5.41    5.76
 -12  -2   3   -7.69   12.24
 -12  -2   3   -4.35    6.94
  12   2  -3   -3.71    4.80
  12  -2   3  -10.18    6.27
 -12  -3   3    0.61    8.61
 -12  -3   3    6.53    5.44
  12   3  -3    3.96    5.65
  12  -3   3    8.06    7.09
 -12  -4   3   -6.11    9.32
 -12  -4   3    5.74    6.32
  12   4  -3    6.95    5.36
   0  11   4  -12.79    9.52
   0  11   4   11.04    8.29
   0  11   4  -14.23   11.54
   0 -11  -4   -5.63   10.70
   0  10   4    4.79    6.94
   0  10   4    3.69    7.62
   0 -10  -4   11.61    4.75
   0 -10  -4   15.93    8.39
   0  10   4   14.71    6.32
   0   9   4    0.44    4.73
   0   9   4   -5.20    5.15
   0   9   4   -5.52    6.29
   0   9   4    1.83    4.45
   0   9   4    0.55    5.45
   0   8   4    8.52    4.77
   0   8   4    3.36    4.11
   0  -8  -4    7.13    2.70
   0   8   4   -0.76    3.92
   0   8   4   -1.67    3.65
   0   8   4    6.05    5.39
   0   7   4    1.26    3.35
   0  -7  -4    1.71    2.02
   0   7   4    1.58    2.80
   0   7   4   -1.00    2.73
   0   6   4    2.08    2.22
   0   6   4    1.16    2.68
   0  -6  -4    5.31    2.10
   0   6   4    4.54    2.19
   0  -6  -4    2.14    1.79
   0   5   4    1.47    1.67
   0  -5  -4    1.04    1.58
   0   5   4    5.91    2.11
   0  -5  -4    1.37    1.29
   0   5   4   -0.99    1.42
   0   4   4  256.47   12.00
   0   4   4  266.67   12.26
   0   4   4  245.60   12.02
   0  -4  -4  268.06   11.88
   0  -4  -4  254.08   11.72
   0   3   4   -0.81    1.06
   0  -3  -4   -0.26    1.10
   0  -3  -4    0.23    0.95
   0   3   4    0.30    0.76
   0   3   4   -0.08    0.81
   0  -3  -4    0.31    0.70
   0   3   4   -0.55    0.97
   0   2   4  345.11   14.68
   0   2   4  338.13   14.55
   0  -2  -4  328.16   14.48
   0  -2  -4  322.58   14.75
   0  -2  -4  329.94   14.47
   0   2   4  332.99   14.57
   0  -1  -4    0.15    0.71
   0  -1  -4    0.27    0.46
   0  -1  -4   -0.66    0.44
   0   1   4   -0.21    0.55
   0   1   4   -0.38    0.45
   0   1   4    0.11    0.52
   0   0   4   82.70    3.73
   0   0   4   84.53    3.78
   0   0   4   75.30    3.87
   0   0  -4   78.99    3.76
   0   0  -4   79.67    3.69
   0   0  -4   76.32    3.88
   0   0   4   79.69    3.77
   0   0  -4   78.30    3.69
   0   1  -4   -0.62    0.36
   0   1  -4    0.29    0.35
   0   1  -4    0.17    0.49
   0  -1   4   -0.18    0.34
   0   1  -4    0.03    0.58
   0  -1   4   -0.32    0.47
   0  -1   4    0.08    0.38
   0  -1   4    0.84    0.59
   0  -2   4  307.79   13.79
   0   2  -4  309.54   13.88
   0  -2   4  328.76   14.23
   0   2  -4  335.08   13.85
   0   2  -4  341.77   14.05
   0   2  -4  317.51   14.13
   0  -2   4  310.48   13.78
   0  -3   4    1.09    0.79
   0  -3   4    2.69    0.92
   0   3  -4    0.65    0.92
   0  -3   4    0.21    1.09
   0   3  -4    0.35    0.96
   0   3  -4    1.08    0.96
   0   4  -4  291.02   12.87
   0   4  -4  255.44   12.51
   0  -4   4  255.85   12.01
   0  -4   4  262.84   11.92
   0  -4   4  273.68   12.60
   0   4  -4  263.43   12.18
   0   4  -4  267.36   11.97
   0   5  -4    0.11    1.32
   0   5  -4   -0.92    1.44
   0  -5   4   -0.08    1.27
   0   5  -4    1.14    1.68
   0  -5   4    0.70    1.50
   0   6  -4    1.87    1.69
   0  -6   4    4.21    2.13
   0  -6   4    2.15    1.75
   0   6  -4    3.60    2.29
   0   6  -4    1.40    2.23
   0   7  -4    1.38    2.77
   0  -7   4   -2.11    1.98
   0   7  -4   -1.12    2.43
   0  -7   4   -3.05    2.44
   0   7  -4    0.38    2.81
   0   8  -4    6.03    3.69
   0  -8   4   -2.58    2.65
   0   8  -4   -0.46    3.32
   0   8  -4   -1.22    4.11
   0   9  -4   11.19    4.79
   0   9  -4    3.00    3.65
   0  -9   4   10.37    4.66
   0  -9   4   -1.37    3.83
   0 -10   4    4.48    4.99
   0  10  -4   10.90    8.32
   0  10  -4   12.18    6.25
   0  10  -4   10.16    4.82
   0  11  -4    2.99    8.41
   0  11  -4    1.76    6.47
   0  11  -4    7.45   11.38
  -1  11   4  -18.35    9.59
  -1  11   4   -5.79    8.45
  -1 -11  -4  -15.77   11.29
  -1  11   4    3.53   10.51
   1  11   4   19.67   12.88
   1  11   4    3.30    8.86
   1  11   4    9.03    9.26
  -1  10   4   -6.11    5.91
  -1 -10  -4   -1.23    4.78
  -1  10   4   -0.37    7.05
  -1 -10  -4    3.16    8.46
  -1  10   4    5.21    6.95
   1  10   4    1.06    6.13
   1  10   4  -10.36    9.00
   1  10   4   -0.10    7.28
   1  10   4   -8.40    8.33
   1 -10  -4    6.25    8.84
  -1   9   4    1.36    5.39
  -1   9   4   -0.53    6.31
  -1   9   4    4.29    4.86
  -1   9   4    0.53    4.68
  -1  -9  -4   -7.77    6.29
  -1  -9  -4    3.74    3.78
   1   9   4    8.61    5.04
   1   9   4   -0.49    6.16
   1  -9  -4   -1.11    2.84
  -1   8   4   25.56    4.69
  -1  -8  -4   20.78    3.68
  -1   8   4   29.52    5.78
  -1   8   4   33.63    4.89
   1   8   4   20.38    4.80
   1  -8  -4   25.76    3.40
   1   8   4   22.61    6.10
   1  -8  -4   18.24    6.74
   1   8   4   20.30    5.39
   1   8   4   18.70    4.53
  -1   7   4    4.39    2.95
  -1   7   4    6.83    3.76
  -1   7   4    2.11    2.82
  -1   7   4    2.66    2.73
  -1  -7  -4   -0.64    2.19
   1   7   4    2.90    2.91
   1   7   4   -0.85    3.06
   1  -7  -4   -0.17    1.97
   1   7   4    2.86    2.69
  -1  -6  -4   14.13    2.40
  -1   6   4   16.33    2.95
  -1   6   4   16.97    3.33
  -1  -6  -4   14.86    2.91
  -1   6   4   10.11    2.57
  -1   6   4   11.75    2.46
   1  -6  -4   16.88    2.32
   1   6   4   18.35    3.48
   1   6   4   14.12    2.93
   1  -6  -4   15.53    2.45
   1   6   4   14.77    3.24
  -1   5   4   41.63    3.33
  -1   5   4   49.61    3.89
  -1   5   4   47.69    4.03
  -1  -5  -4   56.06    3.96
  -1   5   4   52.38    4.18
  -1  -5  -4   52.67    3.63
   1  -5  -4   45.26    3.35
   1   5   4   48.16    4.44
   1  -5  -4   46.19    3.62
   1   5   4   45.88    4.12
   1   5   4   47.20    4.14
  -1   4   4    0.15    1.06
  -1   4   4    0.79    1.54
  -1   4   4   -1.37    1.13
  -1  -4  -4    2.28    1.25
  -1   4   4   -1.44    1.29
  -1  -4  -4    0.29    0.94
   1   4   4    0.51    1.23
   1  -4  -4    1.10    0.96
   1  -4  -4    0.33    1.12
   1   4   4   -0.17    1.38
   1   4   4    2.68    1.70
  -1  -3  -4   45.65    3.41
  -1  -3  -4   47.47    2.90
  -1   3   4   45.74    2.91
  -1   3   4   44.30    2.42
  -1   3   4   41.18    2.89
  -1   3   4   49.24    3.14
  -1  -3  -4   45.92    2.98
   1   3   4   44.34    3.17
   1   3   4   44.91    3.26
   1   3   4   46.49    3.11
   1  -3  -4   41.64    2.71
   1  -3  -4   48.52    2.82
   1  -3  -4   45.86    3.30
  -1   2   4  528.92   23.07
  -1   2   4  523.30   22.65
  -1   2   4  583.60   23.23
  -1  -2  -4  548.96   23.11
  -1   2   4  521.97   23.06
  -1  -2  -4  543.10   23.13
  -1  -2  -4  542.33   23.39
   1   2   4  547.47   23.26
   1   2   4  549.01   23.20
   1   2   4  519.78   23.18
   1  -2  -4  542.24   22.98
   1  -2  -4  533.40   23.03
   1  -2  -4  503.35   22.70
   1  -2  -4  564.22   23.33
  -1  -1  -4   33.07    2.00
  -1   1   4   34.26    2.01
  -1   1   4   32.36    2.01
  -1  -1  -4   34.22    1.99
  -1   1   4   33.06    2.01
  -1  -1  -4   33.49    2.20
   1   1   4   34.46    2.08
   1  -1  -4   34.32    1.68
   1   1   4   32.25    2.09
   1  -1  -4   33.52    2.11
   1  -1  -4   31.60    1.91
   1   1   4   32.67    2.06
   1  -1  -4   36.82    2.07
  -1   0  -4   13.97    0.98
  -1   0   4   12.94    1.15
  -1   0   4   13.43    1.10
  -1   0   4   12.53    1.05
  -1   0  -4   12.08    1.18
  -1   0   4   12.24    1.16
   1   0  -4   14.63    1.16
   1   0  -4   11.38    1.14
   1   0   4   13.50    1.18
   1   0  -4   11.21    1.18
   1   0  -4   13.65    1.06
   1   0   4   11.93    0.97
  -1   1  -4   30.95    1.90
  -1  -1   4   30.98    1.91
  -1   1  -4   31.83    1.60
  -1  -1   4   30.51    1.97
  -1  -1   4   29.07    1.97
  -1   1  -4   30.83    2.06
  -1  -1   4   33.94    1.89
   1   1  -4   32.51    1.89
   1   1  -4   34.77    2.11
   1   1  -4   33.80    2.13
   1  -1   4   33.47    1.98
  -1  -2   4  505.27   22.59
  -1  -2   4  557.07   22.82
  -1  -2   4  494.25   22.69
  -1   2  -4  528.54   22.86
  -1  -2   4  518.19   22.60
  -1  -2   4  546.33   22.93
   1  -2   4  572.53   22.96
   1   2  -4  543.93   22.68
   1   2  -4  523.14   22.80
   1   2  -4  516.85   22.68
   1   2  -4  536.89   23.04
  -1  -3   4   47.92    2.98
  -1  -3   4   44.61    3.12
  -1   3  -4   44.21    3.13
  -1  -3   4   42.39    2.89
  -1  -3   4   42.53    3.04
  -1  -3   4   46.66    2.89
   1   3  -4   45.77    3.06
   1   3  -4   56.78    3.62
   1   3  -4   45.58    3.07
   1  -3   4   48.04    2.63
  -1   4  -4    1.16    1.00
  -1   4  -4    0.67    1.14
  -1  -4   4    0.10    1.10
  -1  -4   4    0.41    1.23
  -1  -4   4    1.29    1.41
  -1  -4   4    0.59    1.07
  -1   4  -4    1.80    1.31
  -1  -4   4   -1.62    1.10
   1  -4   4   -1.11    1.02
   1   4  -4   -0.73    1.42
   1  -4   4   -0.23    0.77
   1   4  -4    1.17    1.40
   1   4  -4    2.20    1.07
   1   4  -4    5.20    2.00
  -1   5  -4   45.15    3.65
  -1  -5   4   41.21    3.81
  -1  -5   4   46.31    3.33
  -1  -5   4   44.18    3.63
  -1   5  -4   48.08    3.89
  -1  -5   4   45.25    3.68
  -1  -5   4   44.10    3.91
  -1   5  -4   43.41    3.37
   1  -5   4   48.09    3.30
   1  -5   4   42.91    3.15
   1   5  -4   44.63    3.53
   1   5  -4   52.91    4.28
   1   5  -4   49.27    3.94
  -1  -6   4   13.45    2.66
  -1  -6   4   11.43    2.04
  -1   6  -4   12.54    2.77
  -1   6  -4   12.38    2.23
  -1  -6   4   10.78    2.31
  -1  -6   4   14.81    2.81
  -1   6  -4   16.74    2.77
   1   6  -4   15.74    3.26
   1   6  -4   16.24    2.42
   1   6  -4   17.07    3.18
   1  -6   4   11.57    2.74
  -1   7  -4    3.32    2.70
  -1  -7   4    1.35    2.84
  -1   7  -4    0.47    2.27
  -1  -7   4    1.57    1.85
  -1  -7   4    1.68    2.34
  -1   7  -4    3.53    3.11
   1   7  -4    2.57    2.63
   1  -7   4    0.63    2.32
   1   7  -4    3.47    2.44
   1   7  -4    2.44    3.23
  -1   8  -4   24.76    4.64
  -1   8  -4   23.14    5.10
  -1   8  -4   24.51    3.82
  -1  -8   4   27.75    4.09
   1   8  -4   33.22    5.30
   1   8  -4   18.88    4.38
   1  -8   4   24.02    3.55
   1   8  -4   25.59    4.69
  -1   9  -4    3.41    3.77
  -1  -9   4    3.56    5.11
  -1  -9   4   -4.24    3.75
  -1   9  -4    3.49    5.02
  -1   9  -4   -2.24    5.29
   1  -9   4   -7.75    4.25
   1   9  -4    1.21    4.11
   1   9  -4    6.35    4.89
   1   9  -4   16.51    6.19
   1  -9   4    2.89    3.55
  -1  10  -4    8.45    7.60
  -1  10  -4    7.66    4.73
  -1  10  -4    2.24    5.93
  -1 -10   4    6.22    4.95
   1  10  -4   -4.83    5.14
   1  10  -4    3.88    6.54
   1  10  -4   -5.74    8.17
   1 -10   4    3.14    4.57
  -1  11  -4   11.98    8.79
  -1  11  -4   25.00   11.55
  -1  11  -4    9.02    6.75
   1  11  -4   29.51   11.87
   1  11  -4    8.72    6.46
   1  11  -4    7.91    8.87
  -2  11   4   17.08    9.84
  -2 -11  -4  -23.52   11.36
  -2  11   4  -20.64    9.65
   2  11   4   -1.43    8.87
   2  11   4   -2.22   14.33
   2  11   4   -9.84    8.48
  -2 -10  -4   14.98    9.28
  -2  10   4    7.94    7.43
  -2  10   4    4.73    6.53
  -2  10   4   14.76    6.85
   2  10   4    0.41    6.55
   2  10   4    2.30    9.19
   2  10   4   -5.43    6.71
  -2   9   4   24.38    5.55
  -2   9   4   32.26    7.41
  -2   9   4   12.44    5.69
  -2  -9  -4   10.41    7.43
  -2   9   4   28.57    5.82
   2   9   4   15.20    7.67
   2   9   4   22.46    5.71
   2  -9  -4   20.23    3.70
   2  -9  -4   21.21    6.60
   2   9   4   10.75    5.38
  -2   8   4    0.77    4.71
  -2  -8  -4    7.34    4.04
  -2   8   4    2.74    3.90
  -2   8   4    0.69    3.43
   2  -8  -4    1.48    2.41
   2   8   4    6.24    4.92
   2  -8  -4    5.21    2.90
   2   8   4    5.88    4.35
   2   8   4    3.65    3.66
  -2   7   4    4.35    3.45
  -2   7   4    8.24    3.29
  -2   7   4    2.27    2.60
  -2  -7  -4    6.08    3.09
  -2  -7  -4    7.27    2.68
  -2   7   4    8.67    3.00
   2  -7  -4    6.20    2.24
   2   7   4    4.92    3.27
   2  -7  -4    4.88    2.36
   2   7   4    5.86    3.88
   2   7   4    3.09    3.04
  -2  -6  -4    8.33    2.77
  -2   6   4   10.88    3.04
  -2  -6  -4   10.79    2.23
  -2   6   4   12.11    3.78
  -2   6   4   12.24    2.92
  -2   6   4   10.13    2.53
   2   6   4    6.30    2.93
   2   6   4    7.68    2.79
   2  -6  -4    7.04    1.84
   2   6   4   10.76    2.67
   2   6   4   12.28    3.25
   2  -6  -4   10.93    2.09
  -2   5   4    0.21    1.44
  -2   5   4    1.23    1.64
  -2   5   4   -1.21    1.59
  -2   5   4    1.59    1.90
  -2  -5  -4    2.26    2.08
  -2  -5  -4    0.42    1.45
   2   5   4    1.16    1.77
   2  -5  -4   -0.06    1.20
   2   5   4    0.96    1.82
   2   5   4    2.12    2.06
   2   5   4    0.46    2.18
   2  -5  -4    1.45    1.36
  -2   4   4   19.65    2.30
  -2   4   4   21.24    2.28
  -2   4   4   19.48    2.78
  -2  -4  -4   18.99    2.45
  -2  -4  -4   23.81    2.74
  -2   4   4   20.85    1.91
   2  -4  -4   22.48    2.08
   2   4   4   19.54    2.94
   2  -4  -4   23.77    2.09
   2   4   4   22.25    2.88
   2   4   4   17.77    2.69
  -2  -3  -4    8.13    1.43
  -2   3   4    8.49    1.42
  -2  -3  -4    8.50    1.62
  -2   3   4    7.26    1.13
  -2  -3  -4    8.32    1.83
  -2   3   4    8.00    1.49
  -2   3   4    7.03    1.41
   2   3   4    9.89    1.83
   2  -3  -4    8.33    1.34
   2   3   4    5.22    1.33
   2  -3  -4    7.39    1.21
   2  -3  -4    7.94    1.75
   2  -3  -4    9.12    1.40
   2   3   4    6.50    1.44
  -2  -2  -4   17.93    1.84
  -2   2   4   18.65    1.69
  -2   2   4   17.47    1.65
  -2   2   4   19.67    1.63
  -2  -2  -4   18.14    1.71
  -2  -2  -4   19.56    2.15
  -2   2   4   19.77    1.30
   2   2   4   18.18    2.02
   2  -2  -4   18.15    1.52
   2  -2  -4   14.63    1.88
   2   2   4   17.45    1.79
   2   2   4   18.00    1.88
   2  -2  -4   17.41    1.34
   2  -2  -4   16.97    1.61
  -2   1   4   36.60    2.46
  -2  -1  -4   42.87    2.45
  -2  -1  -4   41.37    2.47
  -2   1   4   45.43    2.34
  -2   1   4   43.33    2.43
   2  -1  -4   43.99    2.35
   2  -1  -4   44.12    2.18
   2   1   4   45.05    2.50
   2  -1  -4   39.11    2.42
   2   1   4   41.03    2.54
   2  -1  -4   40.67    2.55
   2   1   4   41.46    2.48
  -2   0   4    0.05    0.51
  -2   0   4    0.34    0.57
  -2   0  -4    0.11    0.62
  -2   0   4    0.99    0.62
  -2   0   4    0.50    0.65
  -2   0  -4    1.17    0.53
   2   0  -4    0.20    0.55
   2   0   4    0.64    0.51
   2   0   4    0.14    0.56
   2   0  -4   -0.68    0.58
   2   0  -4   -0.54    0.65
   2   0  -4   -0.06    0.48
  -2   1  -4   38.53    2.40
  -2   1  -4   40.90    2.14
  -2  -1   4   41.55    2.48
  -2  -1   4   38.82    2.37
  -2  -1   4   41.79    2.68
  -2   1  -4   44.75    2.39
  -2  -1   4   40.78    2.48
   2   1  -4   41.23    2.83
   2   1  -4   42.36    2.45
   2   1  -4   42.98    2.45
   2   1  -4   42.28    2.53
  -2  -2   4   14.84    1.67
  -2  -2   4   18.61    1.72
  -2   2  -4   18.00    1.67
  -2  -2   4   18.43    1.89
  -2  -2   4   17.32    1.80
  -2  -2   4   15.44    1.96
   2   2  -4   22.46    2.22
   2   2  -4   18.85    1.66
   2   2  -4   15.68    1.75
   2   2  -4   17.87    1.63
  -2  -3   4    8.95    1.49
  -2  -3   4    7.84    1.73
  -2   3  -4    8.71    1.65
  -2  -3   4    8.56    1.77
  -2  -3   4    6.57    1.37
  -2  -3   4    7.79    1.41
   2   3  -4    4.50    1.84
   2   3  -4    6.78    1.49
   2   3  -4    5.89    1.38
  -2   4  -4   18.54    2.43
  -2  -4   4   17.13    2.45
  -2  -4   4   18.99    2.74
  -2  -4   4   19.53    2.68
  -2  -4   4   19.86    2.49
  -2  -4   4   19.43    2.96
   2   4  -4   22.11    2.86
   2   4  -4   21.94    3.45
   2   4  -4   21.98    2.23
   2   4  -4   19.30    2.50
  -2  -5   4    0.57    1.84
  -2   5  -4   -0.41    1.20
  -2  -5   4    0.84    1.45
  -2  -5   4   -0.39    1.82
  -2   5  -4    0.94    1.55
  -2  -5   4    4.38    2.18
  -2  -5   4    0.20    1.53
   2   5  -4    5.03    2.27
   2   5  -4    2.01    1.43
   2   5  -4   -1.42    1.49
  -2   6  -4   11.60    2.81
  -2  -6   4    8.22    2.18
  -2   6  -4   13.44    2.43
  -2  -6   4    9.20    2.26
  -2   6  -4    9.97    2.01
  -2  -6   4    6.71    2.48
  -2  -6   4   16.37    3.17
   2   6  -4   13.11    2.48
   2   6  -4   11.85    3.22
   2   6  -4    7.36    2.68
  -2   7  -4    3.03    2.92
  -2  -7   4   -3.93    3.47
  -2   7  -4    7.22    2.29
  -2   7  -4    2.46    2.98
  -2  -7   4    3.97    3.10
  -2  -7   4    4.32    2.44
  -2  -7   4    3.40    2.77
   2   7  -4    2.44    2.97
   2   7  -4    4.01    3.61
   2   7  -4    1.76    3.02
  -2  -8   4    2.69    3.26
  -2   8  -4   -0.69    2.61
  -2  -8   4   -5.13    3.70
  -2  -8   4    0.14    2.68
  -2   8  -4   -0.41    3.61
  -2  -8   4    5.11    4.07
  -2   8  -4    1.67    4.10
   2  -8   4    1.30    2.60
   2   8  -4    0.42    4.52
   2   8  -4    0.00    3.28
   2   8  -4    0.66    4.03
   2  -8   4   -5.77    2.98
  -2  -9   4   19.38    5.18
  -2  -9   4    6.59    4.13
  -2   9  -4   20.41    5.90
  -2   9  -4    4.76    3.84
  -2  -9   4   14.01    3.47
  -2   9  -4   13.69    5.63
   2  -9   4   11.38    3.80
   2   9  -4   20.18    6.72
   2  -9   4    7.13    3.43
   2   9  -4    4.99    4.20
   2   9  -4    6.72    4.93
  -2  10  -4    0.97    4.73
  -2  10  -4    5.53    8.07
  -2  10  -4   -1.57    6.34
  -2 -10   4    0.52    5.26
   2  10  -4   -9.79    6.13
   2 -10   4   -1.27    5.06
   2  10  -4    9.56    5.37
   2  10  -4   11.04    8.57
  -2  11  -4   10.09   11.14
  -2  11  -4   16.97    9.67
   2  11  -4   25.46   12.62
   2  11  -4   13.73    7.69
  -3  11   4   12.77    9.18
   3  11   4   21.83   10.02
  -3  10   4    0.10    6.32
  -3  10   4   -6.11    7.77
  -3 -10  -4    9.44   10.24
  -3  10   4   -7.43    6.78
   3  10   4   -9.53    9.71
  -3   9   4   43.44    7.07
  -3   9   4   31.76    7.65
  -3  -9  -4   46.63    7.64
  -3  -9  -4   25.32    7.81
  -3   9   4   36.53    5.88
   3   9   4   35.00    6.43
   3   9   4   44.05    8.99
   3   9   4   30.78    6.56
  -3   8   4   11.28    5.63
  -3   8   4   31.67    4.92
  -3   8   4   38.60    6.04
  -3  -8  -4   29.97    5.50
  -3   8   4   26.77    5.19
  -3  -8  -4   29.28    4.55
   3  -8  -4   25.76    3.85
   3   8   4   26.19    5.24
   3   8   4   24.84    5.05
   3   8   4   39.73    6.62
   3   8   4   19.93    5.90
  -3   7   4    8.56    3.39
  -3   7   4    9.98    3.64
  -3   7   4    8.64    2.85
  -3  -7  -4    2.51    3.70
  -3   7   4    3.43    2.82
  -3  -7  -4    1.14    3.44
   3   7   4    3.86    3.01
   3   7   4    8.23    4.04
   3   7   4   -0.55    3.18
   3  -7  -4    3.45    2.09
  -3  -6  -4   10.62    2.73
  -3  -6  -4   15.72    3.18
  -3   6   4    7.90    2.83
  -3   6   4   11.55    2.47
  -3   6   4   13.20    3.30
  -3   6   4    8.48    2.46
   3   6   4   12.16    3.67
   3   6   4   15.75    3.34
   3  -6  -4   11.56    2.32
   3   6   4   13.24    2.85
   3   6   4    7.37    3.33
   3  -6  -4   14.35    2.27
  -3   5   4   62.11    3.85
  -3   5   4   62.37    4.25
  -3  -5  -4   69.67    4.95
  -3   5   4   62.54    4.61
  -3  -5  -4   61.93    4.68
  -3   5   4   66.23    4.91
   3   5   4   62.81    4.35
   3  -5  -4   61.63    3.96
   3   5   4   62.62    5.23
   3   5   4   59.73    5.19
   3   5   4   62.88    7.92
   3  -5  -4   61.04    4.02
  -3  -4  -4    2.13    1.50
  -3   4   4    2.28    1.21
  -3  -4  -4    3.27    1.69
  -3   4   4    1.38    1.40
  -3   4   4    1.61    1.23
  -3   4   4   -1.29    1.33
   3   4   4    1.28    1.23
   3   4   4    0.52    1.85
   3   4   4    2.35    1.81
   3   4   4   -1.32    1.67
   3  -4  -4    1.63    1.12
   3  -4  -4    1.64    1.11
  -3  -3  -4    7.52    1.54
  -3   3   4    7.72    1.35
  -3  -3  -4    7.09    1.69
  -3   3   4    6.11    1.11
  -3   3   4    7.64    1.50
  -3   3   4    8.22    1.40
   3   3   4    6.90    1.79
   3  -3  -4    6.02    1.33
   3   3   4    6.40    1.83
   3   3   4    6.56    1.56
   3  -3  -4    8.63    1.47
   3  -3  -4    8.17    1.26
  -3   2   4    1.05    0.80
  -3  -2  -4   -0.10    0.93
  -3   2   4    0.77    0.77
  -3  -2  -4    0.03    1.17
  -3   2   4    1.14    0.84
  -3   2   4    0.06    0.65
  -3  -2  -4    0.98    0.95
   3   2   4   -0.05    1.11
   3  -2  -4    0.10    1.00
   3   2   4    0.39    0.98
   3   2   4    0.92    1.05
   3  -2  -4    0.30    0.66
   3  -2  -4    0.58    0.66
   3  -2  -4    0.18    0.82
  -3   1   4  317.73   12.36
  -3  -1  -4  280.66   12.57
  -3  -1  -4  286.88   12.56
  -3   1   4  282.33   12.45
  -3   1   4  300.20   12.79
  -3   1   4  284.95   12.51
   3  -1  -4  272.89   12.39
   3  -1  -4  277.13   12.29
   3  -1  -4  283.79   12.47
   3   1   4  288.93   12.50
   3  -1  -4  279.78   12.83
   3   1   4  268.05   12.43
   3   1   4  276.40   12.55
  -3   0   4    1.86    0.72
  -3   0  -4    1.75    0.78
  -3   0   4    3.31    0.91
  -3   0  -4    2.80    0.69
  -3   0   4    2.18    0.89
   3   0   4    1.76    0.69
   3   0  -4    1.80    0.94
   3   0  -4    2.13    0.71
   3   0  -4    1.76    0.68
   3   0   4    2.36    0.77
  -3   1  -4  280.19   12.17
  -3   1  -4  282.15   12.20
  -3  -1   4  261.77   12.28
  -3  -1   4  267.77   12.74
  -3  -1   4  283.57   12.40
  -3   1  -4  266.52   11.96
  -3  -1   4  287.99   12.46
   3  -1   4  276.70   12.08
   3   1  -4  266.85   12.24
   3   1  -4  284.60   12.42
   3   1  -4  311.05   12.32
   3   1  -4  279.85   12.95
  -3  -2   4    1.05    1.02
  -3  -2   4    1.09    1.15
  -3  -2   4    1.07    0.89
  -3  -2   4    1.32    1.00
  -3   2  -4    1.36    0.79
  -3   2  -4   -0.52    1.02
  -3  -2   4   -0.51    1.03
  -3   2  -4    0.37    0.96
   3   2  -4    1.44    0.84
   3   2  -4    1.04    1.03
   3   2  -4    0.90    0.90
   3   2  -4    3.01    1.58
  -3  -3   4    6.43    1.64
  -3   3  -4    7.95    1.80
  -3  -3   4    7.45    1.54
  -3   3  -4    7.74    1.50
  -3  -3   4    8.09    1.61
  -3  -3   4    5.66    1.62
  -3  -3   4    7.30    1.84
   3   3  -4    5.11    1.66
   3   3  -4    9.06    2.29
   3   3  -4    8.41    1.61
  -3  -4   4    1.37    1.61
  -3  -4   4    1.82    1.51
  -3  -4   4    2.57    1.93
  -3   4  -4    2.33    1.73
  -3  -4   4   -1.06    1.36
  -3  -4   4    2.66    1.56
  -3   4  -4    2.79    1.82
   3   4  -4    0.33    2.35
   3   4  -4    1.19    1.59
   3   4  -4    1.61    1.46
  -3  -5   4   68.72    4.87
  -3  -5   4   69.47    5.39
  -3  -5   4   68.53    4.64
  -3   5  -4   64.01    4.29
  -3   5  -4   56.71    4.79
  -3  -5   4   64.15    4.82
   3   5  -4   67.45    5.21
   3   5  -4   56.69    4.52
   3   5  -4   58.58    4.32
  -3  -6   4   12.02    3.96
  -3  -6   4    7.48    3.38
  -3   6  -4   10.39    3.02
  -3  -6   4    9.51    3.14
  -3   6  -4   12.46    2.93
  -3  -6   4    8.40    3.33
  -3  -6   4    8.81    2.57
   3   6  -4    8.94    2.51
   3   6  -4    8.40    3.28
   3   6  -4    9.38    2.81
  -3   7  -4    4.63    2.66
  -3  -7   4    0.55    2.82
  -3  -7   4    1.99    2.84
  -3  -7   4    7.04    3.59
  -3   7  -4    7.00    3.14
   3   7  -4    6.70    2.57
   3   7  -4    4.62    3.99
   3   7  -4    0.17    2.75
  -3  -8   4   29.00    5.67
  -3   8  -4   32.44    6.17
  -3  -8   4   38.21    5.46
  -3  -8   4   36.20    5.73
  -3  -8   4   31.86    4.60
  -3   8  -4   28.21    4.81
  -3   8  -4   24.67    5.27
   3   8  -4   33.73    5.98
   3   8  -4   32.51    5.53
   3   8  -4   28.54    5.11
  -3   9  -4   29.43    6.74
  -3   9  -4   31.65    4.65
  -3   9  -4   25.32    6.20
  -3  -9   4   31.75    4.95
   3   9  -4   29.97    7.34
   3   9  -4   28.70    5.15
   3   9  -4   22.17    5.65
  -3  10  -4   -1.58    8.29
  -3  10  -4   -2.06    6.89
  -3 -10   4    3.99    4.92
  -3 -10   4   10.80    7.18
  -3  10  -4    6.62    4.41
  -3 -10   4    6.29    6.06
   3  10  -4    2.06    6.32
   3  10  -4    9.76    5.26
   3  10  -4  -14.04    8.65
  -3  11  -4    2.65    6.58
  -3  11  -4   -8.65   11.37
   3  11  -4   15.97    8.80
   3  11  -4    6.46   12.28
  -4 -10  -4   11.76   10.99
  -4  10   4   18.81    8.26
  -4  10   4    1.36    6.77
   4  10   4   21.06   11.08
  -4  -9  -4    1.02    7.76
  -4   9   4   11.57    6.99
  -4   9   4    9.70    6.41
  -4   9   4   15.42    5.40
   4   9   4   12.29    6.14
   4   9   4   16.27    8.59
  -4  -8  -4    8.80    3.90
  -4  -8  -4    6.87    5.19
  -4   8   4    8.58    4.96
  -4   8   4    2.11    5.06
  -4   8   4   -2.46    4.19
  -4   8   4    4.42    3.81
  -4  -8  -4   -1.06    6.08
   4   8   4   15.67    5.59
   4   8   4    6.64    4.11
   4   8   4    2.19    4.63
   4   8   4    9.03    5.93
   4  -8  -4    5.59    2.78
  -4  -7  -4    8.49    4.83
  -4   7   4    2.78    3.71
  -4   7   4    3.34    3.52
  -4   7   4    4.96    2.94
  -4  -7  -4    9.98    3.82
   4   7   4    9.92    3.36
   4   7   4    4.58    4.00
  -4   6   4   -0.26    2.03
  -4   6   4   -1.45    2.29
  -4   6   4   -0.17    2.03
  -4  -6  -4    1.58    2.88
   4   6   4    2.01    2.90
   4   6   4    2.62    3.12
   4  -6  -4   -0.19    1.86
   4   6   4    0.83    3.04
   4   6   4    4.44    2.40
  -4  -5  -4   17.26    2.87
  -4   5   4   15.78    2.38
  -4  -5  -4   18.85    3.94
  -4   5   4   20.62    2.78
  -4   5   4   18.26    2.83
  -4   5   4   15.96    2.75
   4   5   4   19.05    3.55
   4   5   4   19.03    3.43
   4   5   4   15.50    2.90
   4  -5  -4   19.37    2.51
   4   5   4   21.26    3.96
  -4  -4  -4   11.39    2.62
  -4   4   4   13.76    2.19
  -4  -4  -4   16.25    2.63
  -4   4   4   13.76    2.27
  -4   4   4   16.96    2.31
  -4   4   4   10.85    1.83
   4  -4  -4   15.00    2.31
   4   4   4   19.13    3.06
   4  -4  -4   15.35    2.33
   4   4   4   12.21    2.55
   4   4   4   12.72    2.68
   4  -4  -4   12.97    1.97
  -4   3   4    5.49    1.32
  -4   3   4    2.62    1.28
  -4  -3  -4    1.99    1.60
  -4  -3  -4    3.64    1.47
  -4   3   4    3.53    1.39
  -4   3   4    5.89    1.21
   4  -3  -4    5.55    1.54
   4   3   4    3.43    1.83
   4   3   4    2.86    1.54
   4  -3  -4    4.12    1.27
   4  -3  -4    5.62    1.13
   4   3   4    3.62    1.81
  -4   2   4  189.52    9.69
  -4   2   4  192.75    9.44
  -4   2   4  214.12    9.29
  -4  -2  -4  209.46    9.97
  -4  -2  -4  210.66    9.85
  -4  -2  -4  214.96    9.82
  -4   2   4  230.83    9.30
   4  -2  -4  205.54    9.39
   4   2   4  222.70    9.71
   4  -2  -4  184.06    9.75
   4   2   4  209.77    9.86
   4  -2  -4  224.90    9.49
   4  -2  -4  204.04    9.51
   4   2   4  201.43    9.76
  -4  -1  -4   23.02    2.06
  -4  -1  -4   22.00    2.24
  -4   1   4   18.70    2.19
  -4   1   4   20.98    1.83
  -4   1   4   24.10    1.58
  -4  -1  -4   23.04    2.07
  -4   1   4   25.81    1.97
   4  -1  -4   24.31    1.82
   4   1   4   20.70    1.52
   4  -1  -4   18.30    2.33
   4   1   4   20.56    2.21
   4  -1  -4   22.03    1.79
   4   1   4   23.76    1.84
   4  -1  -4   23.29    1.72
  -4   0  -4    6.04    1.12
  -4   0   4    2.75    1.36
  -4   0   4    4.30    0.97
  -4   0   4    6.62    1.25
  -4   0  -4    5.62    0.98
   4   0  -4    5.97    0.97
   4   0   4    4.81    0.94
   4   0   4    4.11    0.86
   4   0  -4    4.56    1.04
   4   0  -4    5.31    0.97
   4   0  -4    6.06    1.60
  -4  -1   4   19.40    2.65
  -4  -1   4   20.77    1.96
  -4  -1   4   22.64    1.99
  -4  -1   4   23.52    2.23
  -4   1  -4   24.23    1.76
  -4   1  -4   22.42    1.52
   4   1  -4   22.10    1.83
   4   1  -4   19.00    2.02
   4   1  -4   22.46    2.01
   4   1  -4   27.93    2.99
   4  -1   4   20.61    1.83
  -4   2  -4  207.36    9.46
  -4  -2   4  219.12   10.70
  -4  -2   4  200.62    9.99
  -4  -2   4  217.12    9.97
  -4   2  -4  232.71    9.73
  -4  -2   4  203.41   10.11
  -4  -2   4  208.11    9.97
   4   2  -4  214.93   11.00
   4   2  -4  215.78    9.80
  -4  -3   4    7.16    2.19
  -4  -3   4    4.60    1.83
  -4  -3   4    6.80    1.76
  -4   3  -4    4.68    1.71
  -4   3  -4    3.31    1.27
  -4  -3   4    7.32    1.78
  -4  -3   4    3.02    1.51
   4   3  -4    3.60    2.41
   4   3  -4    4.00    1.31
   4   3  -4    2.99    1.42
  -4  -4   4   14.63    2.60
  -4  -4   4   19.71    3.36
  -4  -4   4   16.67    3.05
  -4   4  -4   13.35    2.58
  -4   4  -4   14.43    2.46
  -4  -4   4   15.10    2.38
  -4  -4   4   12.28    2.51
   4   4  -4   13.76    4.14
   4   4  -4   17.67    2.56
   4   4  -4   11.91    2.35
  -4  -5   4   21.16    3.86
  -4  -5   4   16.62    2.83
  -4  -5   4   12.33    3.15
  -4  -5   4   17.92    2.92
  -4   5  -4   16.05    3.09
  -4  -5   4   14.20    3.04
  -4   5  -4   19.36    2.94
   4   5  -4   14.81    3.08
   4   5  -4   19.51    3.13
  -4  -6   4    3.41    2.65
  -4   6  -4   -0.35    2.34
  -4  -6   4    0.21    3.06
  -4  -6   4   -1.65    2.69
  -4   6  -4   -0.08    2.55
  -4  -6   4    4.40    3.22
  -4  -6   4    2.05    2.67
   4   6  -4    2.00    2.21
   4   6  -4    2.06    3.07
  -4  -7   4    4.19    3.28
  -4   7  -4    1.29    3.53
  -4  -7   4    2.17    3.09
  -4  -7   4    8.39    4.27
   4   7  -4    3.60    3.09
   4   7  -4    8.27    4.54
  -4  -8   4    6.30    5.74
  -4   8  -4    3.26    4.80
  -4  -8   4   -0.60    4.56
  -4   8  -4    2.94    4.58
  -4  -8   4    8.00    3.93
   4   8  -4    2.70    5.56
   4   8  -4   -0.38    4.12
   4   8  -4    1.28    3.62
  -4  -9   4    0.52    4.99
  -4   9  -4    3.42    5.43
  -4  -9   4    7.09    5.15
  -4   9  -4   13.39    6.32
  -4  -9   4   12.70    6.12
   4   9  -4   12.74    5.32
   4   9  -4   13.68    7.64
   4   9  -4    4.32    4.48
  -4  10  -4  -15.19    8.12
  -4 -10   4   10.35    6.03
  -4 -10   4   -6.79    6.25
  -4 -10   4   14.34    7.65
  -4  10  -4   -1.07    7.59
   4  10  -4   -7.45    6.14
   4  10  -4   -1.61    6.03
   4  10  -4   10.12    9.67
  -5 -10  -4   -5.66   11.24
  -5  10   4    0.84    7.10
  -5  10   4   16.63    8.85
   5  10   4  -15.28   11.62
   5  10   4   -1.23    9.00
  -5   9   4    4.06    5.38
  -5  -9  -4    3.34    9.15
  -5   9   4   -4.45    6.82
  -5   9   4    2.30    6.75
   5   9   4    9.16    7.18
   5   9   4   11.21    8.62
   5   9   4   -1.29    6.61
  -5  -8  -4   -5.01    6.40
  -5   8   4   11.35    4.50
  -5   8   4   -3.74    4.72
  -5   8   4    6.95    4.94
  -5  -8  -4   -3.44    5.88
  -5  -8  -4    5.76    5.92
   5   8   4    2.37    5.27
   5   8   4    0.17    4.05
   5   8   4    1.64    6.70
   5   8   4    2.28    6.01
   5  -8  -4   -2.60    2.91
  -5   7   4    0.64    3.46
  -5  -7  -4    4.20    4.45
  -5   7   4   -4.19    3.66
  -5   7   4   -2.73    2.68
  -5  -7  -4   -3.50    3.59
  -5   7   4   -1.65    2.89
   5   7   4    2.57    4.34
   5  -7  -4   -2.33    2.12
   5   7   4   -3.35    5.00
   5   7   4   -0.54    4.11
  -5   6   4   32.56    4.00
  -5   6   4   32.68    5.35
  -5   6   4   35.07    3.64
  -5   6   4   30.90    4.66
  -5  -6  -4   45.29    6.00
   5   6   4   26.21    3.88
   5  -6  -4   30.71    3.46
   5   6   4   30.63    4.57
   5   6   4   38.34    5.59
   5   6   4   33.87    5.65
  -5  -5  -4   48.31    4.86
  -5  -5  -4   46.65    5.28
  -5   5   4   52.64    4.20
  -5   5   4   47.89    3.94
  -5   5   4   48.67    3.53
  -5   5   4   48.82    4.43
   5   5   4   41.98    5.34
   5   5   4   50.66    5.63
   5   5   4   48.20    5.06
   5  -5  -4   47.14    3.49
  -5  -4  -4   -1.60    1.89
  -5  -4  -4    1.83    2.07
  -5   4   4    0.98    1.42
  -5   4   4    1.38    1.60
  -5   4   4   -1.03    1.34
  -5   4   4    0.18    1.60
   5  -4  -4    0.19    1.23
   5   4   4    0.04    2.19
   5   4   4   -0.03    1.97
   5   4   4   -1.61    2.12
  -5  -3  -4   -1.42    1.56
  -5   3   4    1.04    1.17
  -5   3   4   -0.35    1.23
  -5   3   4    0.87    1.24
  -5  -3  -4    1.74    1.65
  -5   3   4    0.35    1.04
   5   3   4    1.12    1.63
   5  -3  -4    0.31    1.33
   5   3   4    1.40    1.85
   5   3   4   -0.28    1.84
   5  -3  -4    0.14    1.02
   5  -3  -4    0.43    1.39
  -5  -2  -4  600.07   26.18
  -5  -2  -4  617.76   26.27
  -5  -2  -4  576.34   26.14
  -5   2   4  581.00   25.75
  -5   2   4  597.35   26.17
   5  -2  -4  657.08   25.85
   5   2   4  611.27   26.09
   5   2   4  627.03   25.86
   5   2   4  574.35   25.83
   5  -2  -4  557.78   26.15
   5  -2  -4  600.14   25.72
   5   2   4  588.52   25.36
  -5  -1  -4    3.79    1.36
  -5   1   4    2.91    1.16
  -5  -1  -4    0.99    1.31
  -5   1   4    2.27    1.05
  -5   1   4    1.39    1.44
  -5  -1  -4    3.53    1.29
   5   1   4    1.89    0.95
   5  -1  -4    2.00    0.94
   5  -1  -4    2.74    1.55
   5   1   4    3.31    1.50
   5  -1  -4    3.64    1.19
   5   1   4    1.06    0.93
  -5   0   4    1.92    0.86
  -5   0   4    0.97    1.14
  -5   0  -4    3.23    1.13
  -5   0   4    1.39    1.56
  -5   0  -4    2.55    1.12
   5   0  -4    1.36    1.09
   5   0   4    1.64    0.87
   5   0   4    2.94    1.06
   5   0  -4    1.70    0.94
   5   0  -4    1.32    1.71
  -5  -1   4    3.40    1.59
  -5   1  -4    1.82    0.89
  -5  -1   4    1.60    1.08
  -5   1  -4    2.07    0.99
  -5  -1   4    0.76    1.23
  -5  -1   4    1.75    1.33
   5  -1   4    1.06    1.21
   5   1  -4    0.93    1.88
   5   1  -4    3.55    1.00
   5   1  -4    1.17    1.09
   5   1  -4    2.14    1.35
  -5  -2   4  630.34   26.84
  -5  -2   4  609.39   26.49
  -5   2  -4  634.36   25.99
  -5   2  -4  611.64   25.96
  -5  -2   4  606.04   26.49
  -5  -2   4  609.98   26.59
  -5  -2   4  573.19   27.27
   5   2  -4  621.96   26.27
   5  -2   4  599.56   26.19
   5   2  -4  592.35   27.69
  -5   3  -4   -0.48    1.23
  -5  -3   4    0.08    1.76
  -5  -3   4   -1.08    2.04
  -5  -3   4    0.64    1.81
  -5   3  -4    1.53    1.22
  -5  -3   4    1.53    1.65
  -5  -3   4   -0.80    1.52
   5   3  -4   -4.68    2.28
   5   3  -4    0.02    1.58
   5   3  -4    1.23    1.57
  -5  -4   4    4.69    2.29
  -5  -4   4    0.36    2.43
  -5   4  -4    0.46    1.56
  -5  -4   4    0.33    1.81
  -5  -4   4   -0.18    2.03
   5   4  -4    2.39    1.74
   5   4  -4    3.34    2.13
  -5  -5   4   52.20    5.70
  -5  -5   4   49.71    4.87
  -5  -5   4   49.49    5.11
  -5   5  -4   53.53    4.73
  -5   5  -4   50.73    4.01
  -5  -5   4   46.48    5.88
  -5  -5   4   46.71    4.98
   5   5  -4   45.11    4.21
   5   5  -4   48.12    5.07
  -5   6  -4   33.31    4.86
  -5  -6   4   34.79    5.51
  -5  -6   4   34.85    4.92
  -5  -6   4   31.88    5.08
  -5  -6   4   29.00    5.09
  -5  -6   4   35.43    5.67
  -5   6  -4   41.46    4.34
   5   6  -4   39.25    4.64
   5   6  -4   36.74    5.72
  -5  -7   4   -1.58    8.17
  -5  -7   4   -3.20    4.12
  -5   7  -4    9.62    3.61
  -5  -7   4    6.97    3.74
  -5  -7   4   -7.42    4.35
   5   7  -4    1.76    3.37
   5   7  -4   -1.62    4.47
  -5   8  -4    3.50    4.79
  -5  -8   4    4.16    6.18
  -5  -8   4   20.26    5.95
  -5  -8   4    3.84    4.53
   5   8  -4    0.74    5.88
   5   8  -4    5.08    4.12
  -5  -9   4   15.20    7.45
  -5  -9   4    0.64    5.95
  -5   9  -4    1.94    6.17
  -5  -9   4    3.72    5.48
   5   9  -4   -7.41    7.68
   5   9  -4    9.05    5.69
  -5 -10   4   17.12    8.91
  -5  10  -4   -0.72    8.24
  -5 -10   4    4.94    7.62
   5  10  -4    6.67    6.85
   5  10  -4  -17.23   11.12
  -6  10   4  -13.46    7.80
   6  10   4   -2.33   10.16
   6  10   4   -9.35    7.38
  -6   9   4   23.11    6.68
  -6   9   4   -4.39    5.41
  -6  -9  -4   -1.00    9.93
  -6   9   4    6.33    7.71
   6   9   4    6.38    7.71
   6   9   4    3.37    9.78
   6   9   4  -16.21   10.18
  -6   8   4   15.04    5.69
  -6  -8  -4    2.31    6.86
  -6   8   4    1.70    4.19
  -6   8   4   -1.78    4.76
   6  -8  -4    6.50    3.88
   6   8   4   -0.84    6.26
   6   8   4    5.45    7.18
   6   8   4   -7.25    3.97
  -6   7   4    0.24    3.12
  -6  -7  -4   -0.35    5.10
  -6   7   4   -3.56    3.80
  -6   7   4   -4.77    3.35
  -6  -7  -4    5.63    4.19
  -6   7   4   -2.52    2.98
  -6  -7  -4    2.62    5.38
   6   7   4    0.80    2.96
   6   7   4    5.53    5.17
   6   7   4    2.98    5.68
   6  -7  -4   -4.51    2.33
  -6   6   4   10.27    3.02
  -6  -6  -4   15.18    4.42
  -6   6   4   12.40    4.57
  -6   6   4    5.82    3.37
  -6   6   4    6.44    2.65
   6   6   4    5.18    4.33
   6   6   4    8.45    4.16
   6   6   4    4.49    3.76
  -6   5   4    3.93    2.05
  -6  -5  -4    3.70    3.29
  -6   5   4    3.39    2.12
  -6   5   4    7.36    2.36
  -6   5   4    6.43    2.42
  -6  -5  -4    8.68    2.93
   6  -5  -4    8.40    3.26
   6   5   4    5.52    3.37
   6   5   4    6.97    3.57
   6   5   4    6.01    2.94
   6  -5  -4    7.44    1.83
  -6  -4  -4    5.16    2.59
  -6   4   4   -0.09    1.48
  -6  -4  -4   -0.68    2.10
  -6   4   4    1.81    1.79
  -6   4   4   -1.22    1.62
  -6   4   4    1.38    1.61
   6  -4  -4    0.12    1.35
   6   4   4   -0.68    2.47
   6   4   4    0.41    2.60
   6  -4  -4    3.48    2.46
   6   4   4   -1.54    2.06
  -6   3   4    4.87    1.86
  -6   3   4    7.64    1.67
  -6  -3  -4    5.64    2.16
  -6   3   4    6.75    1.82
  -6  -3  -4    5.13    2.26
   6   3   4    6.78    2.43
   6  -3  -4    6.04    1.43
   6  -3  -4    5.95    1.88
   6   3   4    2.50    1.84
   6   3   4    3.59    2.23
  -6  -2  -4    4.52    1.93
  -6   2   4    7.54    2.01
  -6  -2  -4    4.47    1.98
  -6   2   4    6.71    1.53
   6   2   4    6.85    1.55
   6  -2  -4    7.45    2.11
   6  -2  -4    6.71    1.65
   6   2   4    1.93    1.66
   6   2   4    2.21    1.91
   6   2   4    5.66    1.20
  -6  -1  -4   -0.03    1.48
  -6   1   4    2.52    1.39
  -6   1   4   -0.37    1.66
  -6  -1  -4   -0.07    1.44
  -6   1   4    0.97    0.99
  -6  -1  -4   -0.86    1.52
   6   1   4    1.22    1.14
   6   1   4   -0.31    1.02
   6  -1  -4    0.42    1.03
   6   1   4    1.94    1.46
   6  -1  -4    1.80    1.25
   6  -1  -4    0.29    1.84
  -6   0   4   68.34    4.23
  -6   0  -4   72.31    4.46
  -6   0   4   78.44    4.65
  -6   0  -4   70.15    4.30
  -6   0   4   75.35    4.31
  -6   0   4   72.95    5.28
   6   0  -4   80.25    5.74
   6   0  -4   74.64    4.04
   6   0   4   74.20    4.07
   6   0  -4   74.26    4.49
   6   0   4   81.43    3.94
  -6  -1   4   -0.22    1.54
  -6  -1   4   -1.11    1.82
  -6  -1   4    0.67    1.38
  -6   1  -4    0.24    1.09
  -6  -1   4    1.39    1.34
   6   1  -4    1.05    2.48
   6  -1   4    0.17    1.49
  -6  -2   4    4.02    1.93
  -6   2  -4    7.01    1.41
  -6   2  -4    7.32    1.52
  -6  -2   4    6.43    1.94
  -6  -2   4    7.60    2.12
  -6  -2   4    6.97    2.46
  -6  -2   4    4.01    1.59
   6   2  -4    3.77    2.95
   6  -2   4    8.80    2.10
   6   2  -4    9.36    1.94
  -6  -3   4    7.92    2.20
  -6   3  -4    5.05    1.42
  -6   3  -4    3.77    1.62
  -6  -3   4    2.24    2.36
  -6  -3   4    3.72    2.34
  -6  -3   4    7.76    2.25
  -6  -3   4    7.68    2.76
   6   3  -4    7.60    2.31
  -6  -4   4   -0.84    2.92
  -6  -4   4    4.39    2.57
  -6  -4   4    0.01    2.01
  -6   4  -4    0.92    1.83
  -6   4  -4    1.01    1.76
  -6  -4   4   -4.11    2.42
   6   4  -4    5.02    2.46
   6   4  -4    3.40    2.44
  -6  -5   4    5.37    2.77
  -6  -5   4    3.28    3.02
  -6  -5   4    5.35    3.32
  -6   5  -4    8.69    2.50
  -6  -5   4    3.45    3.39
  -6  -5   4    6.39    3.20
   6   5  -4    4.95    3.22
   6   5  -4    8.79    2.70
  -6   6  -4   11.30    3.24
  -6   6  -4    9.54    3.74
  -6  -6   4    9.68    4.46
  -6  -6   4   11.33    3.36
  -6  -6   4    9.56    4.57
  -6  -6   4   14.38    8.23
  -6  -6   4   13.30    4.42
   6   6  -4    3.51    4.21
   6   6  -4   11.73    3.33
  -6  -7   4    4.24    5.24
  -6   7  -4    7.92    4.02
  -6  -7   4   -0.99    4.38
  -6  -7   4    7.08    5.21
  -6   7  -4   -1.37    3.91
   6   7  -4    1.06    4.73
   6   7  -4    2.38    4.27
  -6   8  -4   -4.37    5.18
  -6  -8   4   -9.30    6.97
  -6  -8   4    7.76    6.33
  -6  -8   4    2.13    4.94
   6   8  -4    7.91    6.47
   6   8  -4    6.58    4.67
  -6  -9   4   16.35    9.14
  -6   9  -4   -1.03    6.83
  -6  -9   4    3.93    5.96
   6   9  -4   11.04    8.72
   6   9  -4    6.73    5.58
  -6  10  -4    8.65    9.54
   6  10  -4   17.06    7.75
  -7   9   4    9.20    6.84
  -7   9   4   19.04    8.82
  -7  -9  -4  -15.75   10.15
   7   9   4   -8.77   10.91
   7   9   4   -0.10    8.78
  -7   8   4    9.44    6.55
  -7   8   4    2.06    4.57
  -7   8   4   -5.66    4.99
  -7  -8  -4    2.82    7.63
   7   8   4    8.97    4.39
   7   8   4   -1.34    6.87
   7   8   4   -0.84    7.96
  -7  -7  -4   -0.61    6.02
  -7  -7  -4    1.83    6.51
  -7   7   4   -1.35    4.62
  -7   7   4    0.30    3.30
  -7   7   4   -5.60    3.61
   7   7   4    1.96    5.59
   7   7   4    5.41    5.22
   7   7   4    8.00    6.21
   7  -7  -4    1.28    2.67
  -7   6   4   26.57    4.55
  -7   6   4   37.72    4.93
  -7  -6  -4   28.48    5.78
  -7  -6  -4   27.39    5.14
  -7  -6  -4   26.21    6.37
  -7   6   4   25.43    4.57
  -7   6   4   27.97    4.71
   7   6   4   39.39    6.04
   7   6   4   34.33    5.51
   7  -6  -4   26.23    4.09
  -7  -5  -4   82.74   10.54
  -7   5   4   76.55    5.08
  -7   5   4   81.13    5.73
  -7   5   4   90.85    6.05
  -7  -5  -4   85.78    7.43
  -7   5   4   77.16    5.79
  -7  -5  -4   90.98    7.62
   7  -5  -4   95.52   10.12
   7   5   4   75.82    6.60
   7   5   4   89.43    7.80
   7   5   4   84.99    7.69
  -7   4   4    2.31    2.18
  -7  -4  -4    5.47    3.35
  -7  -4  -4    5.31    3.00
  -7   4   4    1.91    2.32
  -7   4   4    5.30    1.96
   7   4   4    2.01    3.14
   7   4   4    2.60    3.85
   7  -4  -4    2.97    2.74
   7  -4  -4    4.11    1.75
   7   4   4    4.40    3.11
  -7   3   4    2.29    1.81
  -7  -3  -4   -0.36    2.42
  -7  -3  -4    6.51    2.70
  -7   3   4    0.29    1.83
   7  -3  -4    0.68    2.02
   7   3   4    2.19    2.72
   7  -3  -4    2.65    1.44
   7   3   4   -1.63    1.92
   7   3   4    1.83    1.64
   7   3   4   -0.88    2.10
  -7   2   4    3.12    1.52
  -7  -2  -4    2.04    2.25
  -7  -2  -4    2.54    2.30
  -7   2   4    5.18    1.83
  -7   2   4    3.77    1.99
   7   2   4    0.56    1.60
   7   2   4    1.23    1.65
   7  -2  -4    2.50    1.73
   7  -2  -4    1.59    1.70
   7   2   4    3.54    2.29
  -7   1   4    1.69    1.30
  -7  -1  -4    1.12    1.91
  -7   1   4    2.00    2.05
  -7   1   4    0.90    1.68
  -7  -1  -4    1.40    1.89
   7   1   4    0.61    1.42
   7  -1  -4    3.36    1.53
   7  -1  -4    0.39    1.54
   7   1   4   -0.38    1.14
   7  -1  -4    4.73    2.46
  -7   0   4   15.59    2.44
  -7   0   4   14.47    2.44
  -7   0  -4   15.63    2.04
  -7   0  -4   15.73    2.31
  -7   0   4   16.53    3.38
  -7   0   4   17.33    2.65
  -7   0  -4   17.87    2.65
   7   0  -4   14.04    2.10
   7   0   4   15.59    2.35
   7   0  -4   16.58    2.56
   7   0  -4   16.55    3.42
  -7  -1   4    1.89    2.36
  -7  -1   4    2.54    1.60
  -7  -1   4    2.01    2.22
  -7  -1   4   -0.28    1.71
  -7  -1   4    0.83    2.59
   7  -1   4    3.25    1.79
   7   1  -4    7.37    3.02
   7   1  -4    2.60    1.47
  -7  -2   4    3.19    2.47
  -7  -2   4    5.74    3.03
  -7   2  -4    2.51    1.53
  -7  -2   4    3.58    2.36
  -7  -2   4    3.03    1.94
   7  -2   4    3.09    2.13
   7   2  -4    3.31    1.60
  -7  -3   4    3.27    3.12
  -7  -3   4   -4.11    2.91
  -7   3  -4    0.63    1.71
  -7  -3   4    2.68    1.94
  -7  -3   4    3.09    2.48
   7  -3   4    1.51    2.37
   7   3  -4   -3.44    2.02
  -7  -4   4    9.77    3.45
  -7  -4   4    1.65    2.62
  -7  -4   4    8.86    3.65
  -7   4  -4    3.61    2.18
  -7  -4   4   -0.58    2.84
  -7   4  -4    3.70    1.68
   7   4  -4    1.99    3.02
  -7  -5   4   88.14    7.56
  -7  -5   4   81.96    9.51
  -7   5  -4   94.30    5.87
  -7  -5   4   91.89    8.55
  -7  -5   4   88.47    7.91
  -7   5  -4  108.46    6.20
  -7  -5   4   93.68    7.43
   7   5  -4   95.92    6.66
  -7  -6   4   45.01    7.50
  -7  -6   4   36.98    6.26
  -7  -6   4   34.24    5.09
  -7  -6   4   32.70    6.00
  -7   6  -4   31.23    5.75
  -7   6  -4   37.88    4.97
  -7  -6   4   30.87    6.14
   7   6  -4   49.75    7.34
   7   6  -4   41.58    5.37
  -7  -7   4   -6.06    6.06
  -7  -7   4    5.10    5.65
  -7  -7   4    0.08    4.71
  -7   7  -4   -1.63    3.98
   7   7  -4    2.23    4.23
   7   7  -4   -7.51    5.49
  -7  -8   4    5.05    7.44
  -7  -8   4    1.13    5.61
  -7   8  -4   -6.70    5.09
   7   8  -4    2.65    5.14
   7   8  -4   -7.73    6.99
  -7  -9   4  -11.16    6.46
  -7   9  -4   -5.37    7.06
  -7  -9   4   16.36    9.29
   7   9  -4   -3.32    6.47
  -8  -8  -4   -4.48    9.36
  -8   8   4    2.53    5.09
  -8   8   4   20.36    7.82
   8   8   4   -7.83    7.60
   8   8   4   -8.16    8.61
  -8   7   4    0.55    5.68
  -8   7   4    6.79    6.16
  -8  -7  -4    5.20    7.59
  -8  -7  -4   -2.08    7.09
  -8   7   4    1.86    3.83
   8   7   4   -6.62    5.87
   8   7   4    2.58    6.11
   8   7   4    4.54    6.98
  -8   6   4    0.52    3.91
  -8  -6  -4    2.80    6.34
  -8  -6  -4   -3.95    5.79
  -8   6   4    6.61    3.38
   8   6   4   -2.41    4.83
   8  -6  -4   -1.67    2.61
   8   6   4    4.09    5.29
  -8  -5  -4    3.48    4.18
  -8   5   4    4.11    2.82
  -8  -5  -4    3.55    4.58
  -8   5   4    3.25    2.52
  -8   5   4    3.02    2.61
  -8  -5  -4    2.61    4.94
   8   5   4    1.10    3.70
   8   5   4    3.27    4.36
   8  -5  -4    7.13    3.96
   8  -5  -4    2.03    2.29
   8   5   4    3.22    4.03
  -8   4   4   -0.48    2.13
  -8   4   4   -3.60    2.29
  -8  -4  -4   -2.34    4.14
  -8  -4  -4    4.77    3.90
  -8  -4  -4   -3.13    3.45
   8   4   4    0.22    2.98
   8   4   4    3.86    2.23
   8   4   4    1.16    2.96
   8   4   4    0.40    3.36
   8  -4  -4    1.62    3.21
  -8  -3  -4    6.88    3.28
  -8   3   4   10.87    2.37
  -8  -3  -4    1.01    4.17
  -8  -3  -4    6.12    3.35
  -8   3   4    8.22    2.86
   8   3   4    8.16    2.61
   8  -3  -4    3.15    2.10
   8  -3  -4    7.50    2.61
   8   3   4    8.65    2.21
   8   3   4    7.04    2.84
  -8  -2  -4    2.44    3.52
  -8   2   4    5.41    2.03
  -8   2   4    6.40    2.74
  -8   2   4   10.08    2.26
  -8  -2  -4    4.57    2.75
  -8  -2  -4    4.46    2.72
  -8  -2  -4    8.31    2.45
   8  -2  -4    3.98    2.26
   8  -2  -4    0.85    2.05
   8   2   4    2.15    1.66
   8   2   4    6.66    2.16
  -8   1   4    3.41    1.64
  -8   1   4    1.82    1.91
  -8  -1  -4    2.07    1.77
  -8  -1  -4   -0.39    2.24
  -8  -1  -4   -1.71    2.98
  -8   1   4   -1.22    2.33
  -8  -1  -4    0.56    2.22
   8  -1  -4    2.78    1.73
   8  -1  -4   -0.86    2.87
   8  -1  -4    1.30    1.70
   8   1   4   -2.10    1.85
  -8   0  -4    3.39    1.77
  -8   0  -4    6.73    2.19
  -8   0   4    3.19    2.80
  -8   0   4    2.47    1.99
  -8   0   4    4.24    2.51
  -8   0  -4    6.10    3.37
  -8   0   4    5.21    2.56
  -8   0   4    4.22    1.71
   8   0   4    2.50    2.04
   8   0  -4    2.50    1.94
  -8  -1   4    2.90    2.88
  -8  -1   4    1.00    2.95
  -8  -1   4    2.22    2.18
  -8  -1   4    3.86    2.63
  -8  -1   4   -0.36    1.83
   8  -1   4   -0.78    1.81
   8   1  -4    0.68    1.55
  -8  -2   4    8.30    2.76
  -8  -2   4    0.72    3.03
  -8   2  -4    2.08    2.02
  -8  -2   4    9.44    4.05
  -8  -2   4    4.26    2.25
  -8  -2   4    3.95    3.34
   8  -2   4    4.34    2.73
  -8  -3   4    8.44    4.14
  -8  -3   4    5.62    2.66
  -8  -3   4    6.51    5.21
  -8  -3   4    7.67    3.70
  -8   3  -4    9.50    2.23
  -8  -3   4   15.12    3.45
   8   3  -4    2.74    2.66
   8  -3   4    8.03    3.19
  -8  -4   4   -3.21    3.53
  -8  -4   4    5.87    3.23
  -8  -4   4   -7.33    4.13
  -8   4  -4    0.87    2.40
  -8  -4   4    5.32    4.58
   8   4  -4    0.44    3.15
  -8  -5   4    7.48    4.68
  -8  -5   4    1.21    4.26
  -8   5  -4    5.34    3.06
  -8  -5   4   -1.07    3.35
  -8  -5   4    6.20    4.85
  -8  -5   4    6.57    5.06
   8   5  -4    4.86    3.74
  -8   6  -4   -1.12    2.87
  -8  -6   4   12.33    6.66
  -8  -6   4    4.98    4.61
  -8   6  -4   -0.22    4.03
  -8  -6   4   12.52    5.99
  -8  -6   4   10.80    6.08
   8   6  -4    9.55    4.89
   8   6  -4   -0.14    5.25
  -8  -7   4    1.93    5.55
  -8  -7   4   -2.73    7.68
  -8   7  -4   -2.53    3.86
  -8  -7   4    0.75    6.77
  -8   7  -4    3.95    4.74
   8   7  -4   16.78    7.01
   8   7  -4   11.83    5.43
  -8  -8   4   22.28    9.57
   8   8  -4   13.77    9.12
   8   8  -4   20.09    6.10
  -9   8   4    2.24    6.00
   9   8   4   -3.77    9.77
   9   8   4    6.65    9.54
  -9   7   4   -6.17    6.95
  -9  -7  -4   13.34    8.48
  -9   7   4    3.84    4.35
   9   7   4  -14.98   10.29
   9   7   4   -3.96    7.79
   9   7   4   -3.65    7.06
  -9   6   4   28.45    4.80
  -9  -6  -4   20.33    7.43
  -9  -6  -4   15.11    7.84
   9   6   4   -5.91   10.57
   9   6   4   15.88    5.97
   9   6   4   26.40    6.33
  -9   5   4    4.17    3.14
  -9   5   4    7.64    3.35
  -9  -5  -4    1.88    6.13
   9  -5  -4    5.90    3.05
   9   5   4    7.67    4.70
   9   5   4   -0.30    4.18
   9  -5  -4    0.41    4.62
   9   5   4    5.34    3.95
  -9  -4  -4    1.93    4.60
  -9  -4  -4    3.88    4.67
  -9  -4  -4   -1.55    4.91
  -9   4   4    0.10    2.75
  -9  -4  -4   -4.45    3.08
  -9   4   4   -0.67    2.85
   9  -4  -4   -2.69    3.59
   9  -4  -4    1.73    2.51
   9   4   4    1.62    3.48
   9   4   4    5.39    2.89
   9   4   4   -0.44    3.65
  -9  -3  -4   -4.96    3.89
  -9   3   4   -0.77    2.71
  -9  -3  -4    0.05    2.78
  -9  -3  -4    4.25    4.76
  -9   3   4   -1.15    2.10
  -9  -3  -4    0.90    4.16
  -9   3   4    3.23    2.95
   9   3   4    2.27    2.34
   9  -3  -4   -3.13    2.48
   9  -3  -4    1.49    2.95
   9   3   4    0.58    2.89
  -9  -2  -4   18.95    5.05
  -9  -2  -4   26.28    4.22
  -9   2   4   20.00    3.67
  -9  -2  -4   27.96    4.72
  -9   2   4   28.90    4.40
   9   2   4   24.15    3.96
   9  -2  -4   26.20    4.23
   9  -2  -4   28.78    3.67
  -9   1   4   94.28    6.02
  -9  -1  -4   95.63    7.12
  -9   1   4  111.74    7.10
  -9  -1  -4  105.88    6.31
  -9   1   4   97.13    7.44
  -9  -1  -4   79.90    8.57
  -9   1   4   91.69    7.16
  -9  -1  -4   91.19    7.37
   9   1   4  105.64    6.01
   9  -1  -4  102.30    6.20
  -9   0  -4   47.33    5.12
  -9   0   4   50.11    6.29
  -9   0  -4   45.86    3.92
  -9   0   4   40.62    5.70
  -9   0   4   47.06    5.81
  -9   0   4   32.06    4.18
  -9   0  -4   40.61    5.53
  -9   0  -4   43.16    6.54
   9   0   4   42.99    4.30
   9   0  -4   39.98    4.93
  -9  -1   4   92.53    7.27
  -9  -1   4   93.51    8.30
  -9  -1   4  117.04    6.94
  -9  -1   4  115.58    8.29
  -9   1  -4  110.26    7.99
   9  -1   4   96.82    6.40
   9   1  -4   97.16    6.19
  -9  -2   4   26.00    4.99
  -9  -2   4   27.18    4.23
  -9  -2   4   24.87    5.08
  -9  -2   4   29.83    4.98
   9   2  -4   23.14    3.40
   9  -2   4   26.44    4.11
  -9  -3   4    1.29    2.94
  -9  -3   4    4.72    3.88
  -9  -3   4    5.11    4.77
  -9  -3   4   -1.34    4.39
  -9   3  -4    4.65    2.60
  -9  -3   4   -9.22    4.41
   9  -3   4    3.97    3.85
  -9  -4   4    0.45    5.34
  -9  -4   4  -10.01    4.92
  -9  -4   4   -6.81    3.30
  -9  -4   4   -1.82    5.29
  -9  -4   4    8.39    4.53
  -9   4  -4    6.46    3.17
   9   4  -4   -0.19    3.76
  -9  -5   4   12.47    5.84
  -9  -5   4   11.11    6.38
  -9  -5   4   16.07    4.30
   9   5  -4   -3.63    7.51
   9   5  -4   13.92    4.97
  -9  -6   4   17.92    8.17
  -9  -6   4   23.99    5.79
  -9   6  -4   20.44    5.34
  -9  -6   4   35.21    7.92
  -9  -7   4   -5.18    6.09
  -9   7  -4   -1.32    5.27
  -9  -7   4   -1.62    8.00
   9   7  -4    2.74    6.11
   9   7  -4   19.41    8.30
  -9  -8   4   -2.32    7.58
  -9   8  -4    9.61    7.47
  -9  -8   4   -2.44   12.13
 -10  -7  -4   24.14   11.87
  10   7   4   22.04    8.32
  10   7   4   48.04    9.22
 -10  -6  -4    8.70    8.77
 -10  -6  -4    3.40    9.71
 -10  -6  -4    7.46    5.39
 -10   6   4   22.12    6.09
 -10   6   4    9.30    4.63
  10   6   4    9.24    6.11
  10   6   4    9.22    5.18
 -10  -5  -4   13.32    6.99
 -10  -5  -4   -0.28    6.71
 -10  -5  -4   -1.14    4.25
 -10   5   4   -2.84    3.80
 -10   5   4    1.36    3.81
  10   5   4    4.22    4.30
  10  -5  -4   -1.86    5.73
  10   5   4    7.72    5.30
 -10  -4  -4   -4.00    5.90
 -10   4   4    7.93    3.81
 -10   4   4    1.61    3.34
 -10   4   4    7.97    4.28
 -10  -4  -4    1.69    6.23
 -10  -4  -4   -6.37    3.56
  10  -4  -4    7.15    3.34
  10   4   4    0.37    4.19
  10  -4  -4   -5.67    4.56
  10   4   4    5.56    3.82
 -10  -3  -4    0.73    5.50
 -10   3   4   -0.35    3.05
 -10  -3  -4    4.08    3.35
 -10  -3  -4    4.73    5.39
 -10  -3  -4    1.21    5.39
 -10   3   4   -2.90    2.73
  10  -3  -4    1.17    3.35
  10   3   4    0.49    5.57
  10  -3  -4   -0.42    3.12
 -10  -2  -4    5.72    3.16
 -10  -2  -4    3.91    4.09
 -10   2   4    2.20    2.30
 -10   2   4    5.51    3.17
 -10   2   4    5.19    4.01
 -10  -2  -4    6.10    5.23
 -10   2   4   -0.07    3.73
 -10  -2  -4   -1.94    4.68
  10   2   4    1.77    4.64
  10  -2  -4    0.75    3.20
 -10  -1  -4   19.00    3.21
 -10   1   4   22.90    4.64
 -10  -1  -4   15.33    4.18
 -10  -1  -4   10.47    4.70
 -10   1   4   28.79    5.00
 -10   1   4   21.43    3.95
 -10   1   4   13.64    2.98
 -10  -1  -4   17.09    5.52
  10   1   4   19.53    4.92
  10  -1  -4   17.25    3.44
 -10   0   4    2.97    2.26
 -10   0   4    2.69    4.28
 -10   0  -4    2.71    3.85
 -10   0   4    7.03    4.27
 -10   0  -4    5.12    2.42
 -10   0   4    3.23    3.05
 -10   0  -4    2.03    4.48
  10   0  -4    1.19    2.58
 -10  -1   4   18.88    3.42
 -10  -1   4   15.87    5.26
 -10   1  -4   20.55    4.39
 -10  -1   4   12.75    3.83
 -10  -1   4   17.63    5.58
 -10  -1   4   18.18    5.36
  10  -1   4   12.13    3.77
  10   1  -4   21.44    3.49
 -10  -2   4    0.54    2.97
 -10  -2   4   14.63    5.08
 -10  -2   4   12.10    4.27
 -10  -2   4    7.36    4.92
 -10  -2   4    0.52    5.72
  10  -2   4    9.07    4.36
  10   2  -4    8.23    2.85
 -10  -3   4    4.47    4.70
 -10  -3   4    1.09    3.47
 -10  -3   4   10.92    5.91
 -10  -3   4    2.24    5.55
  10  -3   4    5.53    4.54
  10   3  -4    5.51    3.21
 -10  -4   4    4.42    6.27
 -10  -4   4   -6.81    6.47
 -10  -4   4   -3.10    5.70
 -10  -4   4    3.80    4.11
 -10  -5   4    3.37    7.18
 -10  -5   4    8.67    6.81
 -10  -5   4   -5.08    4.73
  10   5  -4    9.94    5.97
 -10  -6   4    5.74    8.12
 -10   6  -4    1.15    5.60
 -10  -6   4    5.04   10.70
 -10  -6   4   10.52    6.36
  10   6  -4    2.33    5.67
 -10   7  -4   -9.84    6.41
 -10  -7   4   -5.07    7.12
  10   7  -4  -11.48    6.39
 -11  -5  -4   18.03    6.02
 -11   5   4    7.97    4.45
 -11  -5  -4  -10.22    8.41
  11   5   4   12.06    6.58
  11  -5  -4   12.37    6.99
 -11   4   4   -3.60    3.85
 -11  -4  -4   10.85    7.93
 -11  -4  -4    5.69    8.00
 -11   4   4    7.67    4.63
 -11  -4  -4    3.15    4.75
  11  -4  -4   -1.79    5.68
  11   4   4   -7.63    5.18
 -11   3   4    1.91    3.25
 -11   3   4    0.64    4.96
 -11   3   4    5.66    4.49
 -11  -3  -4   -5.20    3.94
 -11  -3  -4    5.96    7.24
 -11  -3  -4    7.87    6.17
  11   3   4    6.63    4.60
  11  -3  -4    1.64    4.39
 -11   2   4    8.17    3.39
 -11   2   4    4.91    5.45
 -11  -2  -4    2.50    6.40
 -11  -2  -4   27.05    7.02
 -11  -2  -4   13.56    3.91
 -11  -2  -4   13.20    5.79
 -11   2   4    9.99    4.92
 -11   2   4    2.95    3.66
  11   2   4    3.80    4.50
  11  -2  -4   -1.78    4.09
 -11  -1  -4    9.54    5.00
 -11   1   4    8.77    3.74
 -11   1   4    6.33    4.69
 -11  -1  -4   10.34    3.14
 -11   1   4   11.71    3.31
  11   1   4    9.75    4.17
  11  -1  -4    8.99    3.66
 -11   0   4    2.89    4.20
 -11   0   4    4.92    5.63
 -11   0   4   12.08    5.46
 -11   0  -4    3.67    5.65
 -11   0  -4   11.07    2.96
 -11   0   4   13.50    3.57
 -11   0  -4   -4.12    5.37
  11   0  -4    6.63    3.63
  11   0   4   13.01    4.38
 -11  -1   4    9.78    3.53
 -11   1  -4   13.85    5.44
 -11  -1   4   16.02    6.50
 -11  -1   4   13.45    6.11
 -11  -1   4    5.91    4.93
  11  -1   4    7.11    4.87
  11   1  -4   10.93    3.71
 -11  -2   4    3.32    6.70
 -11  -2   4    6.33    4.10
 -11  -2   4   16.03    7.26
 -11  -2   4   -1.63    5.47
  11   2  -4   14.95    4.12
  11  -2   4   18.53    5.65
 -11  -3   4   13.29    6.31
 -11  -3   4    6.11    6.60
 -11  -3   4   -0.25    4.50
 -11  -3   4    0.34    7.68
  11   3  -4   -1.06    3.62
  11  -3   4    3.38    5.68
 -11  -4   4    2.95    7.62
 -11  -4   4    8.57    9.59
 -11  -4   4    5.09    4.82
  11   4  -4   -4.08    4.11
 -11  -5   4   -5.18    5.82
 -11  -5   4    4.21    8.54
 -11  -5   4  -11.12   10.59
  11   5  -4    0.95    4.97
 -12   4   4   10.60    5.89
 -12  -4  -4   13.62    6.29
 -12   4   4    8.17    5.29
 -12  -4  -4    2.05    9.74
  12   4   4   12.89    7.45
 -12   3   4    3.98    4.54
 -12   3   4   -3.92    5.32
 -12  -3  -4    3.20    5.33
  12  -3  -4    4.40    5.99
  12   3   4    3.49    6.28
 -12   2   4   17.25    6.37
 -12  -2  -4    2.90    8.10
 -12  -2  -4   -3.97    4.10
 -12   2   4    3.08    4.15
  12   2   4    8.46    5.72
  12  -2  -4   -5.08    4.71
 -12   1   4   -0.62    3.54
 -12  -1  -4   -8.03    6.39
 -12   1   4    0.14    5.89
 -12  -1  -4    6.73    3.75
  12  -1  -4    2.96    4.58
  12   1   4   15.47    5.93
 -12   0   4    9.19    6.56
 -12   0  -4   16.76    7.41
 -12   0   4    0.02    5.48
 -12   0  -4   -2.36    7.09
 -12   0  -4    3.75    3.13
 -12   0   4    3.61    3.72
  12   0  -4    2.61    4.20
  12   0   4   -2.64    5.16
 -12   1  -4    5.91    7.01
 -12  -1   4   17.12    7.75
 -12  -1   4   17.55    6.14
 -12  -1   4    3.96    4.41
  12   1  -4    8.01    4.53
  12  -1   4    0.74    5.72
 -12  -2   4   21.25    7.81
 -12  -2   4    1.10    4.51
 -12  -2   4    4.44    8.11
  12   2  -4   -8.35    4.80
  12  -2   4   11.75    7.15
 -12  -3   4   -8.11    8.26
 -12  -3   4   -3.80    5.19
  12  -3   4   -6.08    7.30
  12   3  -4   -2.06    4.99
 -12  -4   4    5.91    9.89
  12   4  -4    6.87    5.95
   0  11   5  -10.60    8.84
   0  11   5   -4.12   12.71
   0  11   5   -4.24   10.02
   0 -11  -5    0.87   11.39
   0 -10  -5   -8.61    4.55
   0  10   5   -5.54    6.97
   0  10   5   11.85    8.53
   0  10   5    1.33    8.14
   0 -10  -5   -9.98    8.34
   0  10   5    5.43    7.05
   0   9   5    3.81    5.08
   0   9   5   -0.35    5.16
   0   9   5   -0.38    5.64
   0  -9  -5   -1.46    3.62
   0  -8  -5    6.47    3.15
   0   8   5   17.98    5.56
   0   8   5   13.20    4.54
   0   8   5    4.21    4.13
   0   8   5    8.09    3.93
   0  -7  -5   -0.35    2.19
   0   7   5    0.85    3.05
   0   7   5    1.05    3.66
   0   7   5   -4.69    2.87
   0   7   5   -4.83    2.61
   0   6   5   23.01    3.87
   0  -6  -5   23.64    3.83
   0  -6  -5   24.57    3.25
   0   6   5   13.89    2.56
   0   6   5   16.39    3.18
   0   6   5   20.46    3.34
   0   5   5   -0.58    1.87
   0  -5  -5   -0.07    1.31
   0   5   5   -0.07    1.63
   0   5   5   -0.46    1.51
   0  -5  -5    1.12    1.70
   0   5   5    0.02    1.81
   0   4   5   -0.09    1.53
   0   4   5    1.27    1.20
   0   4   5   -0.08    1.15
   0   4   5   -0.86    1.34
   0  -4  -5   -0.67    1.03
   0  -4  -5   -0.48    1.24
   0   3   5   -0.23    1.06
   0  -3  -5   -0.36    1.26
   0   3   5   -0.50    1.06
   0  -3  -5    0.67    0.87
   0   3   5    0.49    1.06
   0  -3  -5    0.18    1.02
   0   2   5    0.32    0.73
   0  -2  -5    0.38    0.66
   0   2   5    0.19    0.84
   0  -2  -5    0.00    1.01
   0   2   5    0.93    0.80
   0  -2  -5   -0.08    0.66
   0  -1  -5    0.14    0.66
   0   1   5   -0.51    0.64
   0   1   5   -0.20    0.58
   0  -1  -5    0.60    0.60
   0   1   5    0.56    0.71
   0  -1  -5    0.18    0.55
   0   1   5    0.58    0.60
   0   0   5    0.95    0.64
   0   0   5    0.85    0.57
   0   0   5    0.77    0.59
   0   0  -5    0.89    0.59
   0   0   5    1.06    0.53
   0   0  -5    1.00    0.50
   0   0  -5    0.97    0.58
   0   0  -5    0.73    0.51
   0  -1   5    0.22    0.43
   0  -1   5   -0.74    0.45
   0  -1   5   -0.03    0.70
   0   1  -5   -0.23    0.52
   0   1  -5   -0.71    0.64
   0  -1   5    0.09    0.51
   0   1  -5   -0.18    0.40
   0   1  -5   -0.27    0.53
   0   2  -5    0.07    0.83
   0   2  -5   -0.52    0.65
   0  -2   5    0.40    0.86
   0   2  -5   -0.88    0.74
   0   2  -5    0.42    0.54
   0   3  -5    0.03    1.06
   0  -3   5    0.91    1.05
   0   3  -5   -1.76    0.99
   0  -3   5   -0.33    0.77
   0  -3   5   -0.03    0.96
   0   3  -5   -0.16    0.91
   0   4  -5   -0.02    1.33
   0   4  -5    0.33    1.36
   0  -4   5    0.44    1.29
   0  -4   5   -0.21    1.08
   0  -4   5    1.39    1.59
   0   4  -5    0.08    1.75
   0   5  -5    1.56    1.24
   0  -5   5   -0.95    1.32
   0   5  -5    1.26    1.79
   0   5  -5   -0.31    1.66
   0   5  -5   -1.25    2.22
   0  -5   5    1.22    1.56
   0   6  -5   18.59    2.99
   0  -6   5   19.32    2.90
   0  -6   5   18.80    2.68
   0   6  -5   19.63    3.48
   0   6  -5   24.83    4.34
   0   7  -5    0.21    2.89
   0  -7   5   -1.36    2.09
   0  -7   5   -1.26    2.58
   0   7  -5    2.40    3.05
   0   7  -5    2.67    2.42
   0   8  -5    5.19    3.82
   0  -8   5   13.66    3.12
   0   8  -5   11.45    4.60
   0   9  -5    1.51    3.38
   0  -9   5   -7.00    3.57
   0   9  -5   -1.32    4.43
   0  -9   5    1.74    4.52
   0 -10   5    0.82    5.16
   0  10  -5   10.19    8.60
   0  10  -5    9.78    6.32
   0  10  -5   12.55    4.90
   0  11  -5   14.95    6.04
   0  11  -5    4.82   11.37
   0  11  -5   -5.56    8.37
  -1 -11  -5   36.90   12.80
  -1  11   5   -3.20   10.59
  -1  11   5   27.46   11.48
  -1  11   5   21.46    9.33
   1  11   5    9.90   10.53
   1  11   5    1.86    9.37
   1 -11  -5    1.93   11.48
   1  11   5   -4.04   13.72
  -1  10   5   -0.54    6.90
  -1  10   5    2.31    7.07
  -1 -10  -5   -9.71    5.11
  -1 -10  -5    2.36    8.65
  -1  10   5    1.79    7.06
   1  10   5   -4.77    7.93
   1 -10  -5   -5.93    8.17
   1  10   5   -1.97    6.41
   1  10   5    7.12    9.64
   1 -10  -5    4.40    4.62
   1  10   5    8.16    7.22
  -1   9   5    6.70    5.13
  -1   9   5    0.11    7.65
  -1   9   5   -5.09    5.39
  -1  -9  -5   -1.67    3.86
  -1   9   5   15.59    5.36
   1   9   5    1.11    5.69
   1   9   5   -6.70    8.34
   1   9   5   -1.21    5.37
  -1   8   5    7.27    3.84
  -1   8   5    7.98    5.04
  -1   8   5   -1.96    3.83
  -1  -8  -5    1.18    3.69
  -1   8   5    1.90    4.18
   1   8   5    4.92    3.79
   1  -8  -5    4.75    2.66
   1   8   5    2.64    5.07
   1   8   5    1.46    4.31
   1   8   5    4.69    3.70
  -1   7   5    9.96    3.45
  -1   7   5   16.37    3.53
  -1  -7  -5   12.75    2.80
  -1  -7  -5   12.28    3.40
  -1   7   5    8.51    3.76
  -1   7   5   11.52    3.13
   1   7   5    9.68    3.72
   1   7   5   14.74    3.92
   1  -7  -5   11.16    2.54
  -1  -6  -5   -0.22    2.32
  -1   6   5   -0.53    1.95
  -1   6   5   -1.65    1.92
  -1   6   5   -0.76    2.53
  -1  -6  -5    0.57    1.99
  -1   6   5    3.65    2.54
   1   6   5    0.41    2.55
   1  -6  -5    2.38    1.97
   1  -6  -5    0.16    1.86
   1   6   5    2.68    2.40
   1   6   5    2.78    2.51
  -1  -5  -5    8.04    2.31
  -1   5   5    8.62    2.61
  -1   5   5    9.78    1.71
  -1   5   5    9.39    2.10
  -1  -5  -5    9.21    1.92
  -1   5   5    6.76    2.18
   1   5   5    5.54    2.32
   1  -5  -5    6.27    2.28
   1   5   5    9.18    4.17
   1  -5  -5   10.99    1.72
   1   5   5    7.67    2.10
  -1   4   5    5.22    1.47
  -1  -4  -5    3.68    1.28
  -1   4   5    2.34    1.29
  -1   4   5    0.55    1.44
  -1   4   5    3.94    1.06
  -1  -4  -5    1.71    1.37
   1  -4  -5    3.58    1.26
   1   4   5    2.34    1.50
   1   4   5    4.28    1.63
   1   4   5    0.69    1.53
   1  -4  -5    1.36    1.24
  -1  -3  -5   10.33    1.76
  -1   3   5    9.09    1.57
  -1  -3  -5    7.32    1.74
  -1   3   5    8.78    1.11
  -1   3   5   12.22    1.80
  -1  -3  -5   12.62    1.63
  -1   3   5    8.84    1.55
   1   3   5    7.86    1.67
   1   3   5    7.90    1.56
   1  -3  -5    8.87    1.32
   1  -3  -5   10.17    1.48
   1  -3  -5    7.94    1.91
   1   3   5    8.85    1.59
  -1   2   5    1.50    0.98
  -1  -2  -5    2.04    0.91
  -1   2   5    1.84    0.90
  -1  -2  -5    0.89    1.19
  -1  -2  -5    1.95    0.73
  -1   2   5    1.70    0.84
   1  -2  -5    1.63    1.15
   1   2   5    1.66    1.02
   1  -2  -5    2.99    0.90
   1  -2  -5   -0.18    0.65
   1   2   5    1.39    0.94
   1   2   5    0.75    1.06
  -1   1   5   64.55    3.16
  -1  -1  -5   61.06    3.17
  -1  -1  -5   63.20    3.25
  -1   1   5   59.88    3.28
  -1   1   5   63.70    3.29
  -1   1   5   59.85    3.25
  -1  -1  -5   60.34    3.44
   1   1   5   61.38    3.29
   1  -1  -5   65.43    3.34
   1   1   5   62.55    2.92
   1   1   5   60.90    3.32
   1  -1  -5   56.06    3.29
   1  -1  -5   60.99    3.17
  -1   0   5   -0.38    0.57
  -1   0   5   -0.39    0.52
  -1   0  -5    0.47    0.62
  -1   0  -5   -0.56    0.45
  -1   0   5    0.49    0.53
  -1   0   5   -0.57    0.61
  -1   0  -5   -0.04    0.62
  -1   0  -5   -0.40    0.46
   1   0   5   -0.30    0.59
   1   0  -5    0.10    0.46
   1   0  -5   -0.89    0.51
   1   0   5    0.34    0.60
   1   0  -5   -0.21    0.54
   1   0  -5    0.52    0.65
   1   0   5   -0.31    0.53
  -1   1  -5   59.98    3.32
  -1  -1   5   58.50    3.15
  -1  -1   5   62.16    3.22
  -1   1  -5   59.32    2.86
  -1   1  -5   55.29    3.03
  -1  -1   5   61.42    3.28
  -1  -1   5   59.21    3.09
  -1   1  -5   60.40    2.88
   1  -1   5   59.80    3.22
   1   1  -5   57.13    3.15
   1  -1   5   63.73    2.90
   1   1  -5   61.14    3.34
   1   1  -5   61.16    3.35
   1   1  -5   61.42    3.11
  -1  -2   5    0.92    0.70
  -1   2  -5    1.01    0.88
  -1   2  -5    0.27    1.05
  -1  -2   5    0.98    0.74
  -1  -2   5    1.10    0.99
  -1   2  -5    1.09    0.55
  -1  -2   5    0.34    0.89
   1  -2   5    0.81    0.55
   1   2  -5   -0.05    0.76
   1   2  -5    1.46    1.00
   1   2  -5    1.45    0.77
   1  -2   5    2.04    1.05
   1   2  -5    1.86    0.74
   1  -2   5    0.68    0.47
  -1  -3   5    9.92    1.59
  -1  -3   5    8.02    1.36
  -1  -3   5    8.92    1.41
  -1   3  -5   10.39    1.81
  -1  -3   5    9.13    1.43
  -1  -3   5   10.20    1.84
   1   3  -5    7.08    1.49
   1  -3   5    9.36    1.22
   1   3  -5    6.65    1.47
   1   3  -5   12.51    2.12
   1  -3   5   11.57    1.95
  -1  -4   5    1.59    1.38
  -1  -4   5    2.35    1.29
  -1  -4   5    4.67    1.39
  -1  -4   5    3.05    1.26
  -1   4  -5    5.85    1.84
  -1  -4   5    4.17    1.69
   1   4  -5   -1.40    1.82
   1   4  -5    1.14    1.54
   1   4  -5    2.19    1.43
  -1   5  -5   11.68    1.66
  -1  -5   5    9.57    2.01
  -1  -5   5   12.10    4.70
  -1  -5   5    6.57    1.67
  -1   5  -5    7.77    2.29
  -1  -5   5   10.47    2.16
  -1   5  -5    7.98    2.64
  -1  -5   5    8.75    2.01
   1   5  -5    9.01    2.36
   1   5  -5   10.94    1.96
   1   5  -5    6.38    2.13
   1   5  -5   11.15    3.10
   1  -5   5    9.24    1.86
  -1  -6   5   -0.32    1.82
  -1  -6   5    0.08    2.28
  -1  -6   5   -2.14    2.07
  -1   6  -5    0.14    2.13
  -1   6  -5    1.81    1.71
  -1   6  -5   -2.04    2.04
   1   6  -5   -2.62    1.98
   1   6  -5    0.71    2.46
   1  -6   5    2.18    1.66
   1   6  -5    3.56    1.98
  -1   7  -5   13.74    3.57
  -1   7  -5   13.47    2.72
  -1   7  -5   17.75    4.09
  -1  -7   5    8.43    3.23
  -1  -7   5   14.68    2.80
   1  -7   5    9.95    2.39
   1  -7   5   13.40    2.88
   1   7  -5    9.16    3.94
   1   7  -5   15.47    2.81
   1   7  -5    8.42    3.35
  -1  -8   5    7.35    3.58
  -1   8  -5    4.37    2.98
  -1   8  -5    6.10    4.04
  -1  -8   5    6.32    3.20
  -1   8  -5    8.26    4.01
   1   8  -5    6.54    4.97
   1   8  -5   10.14    3.35
   1  -8   5    4.91    2.81
   1   8  -5    3.70    3.71
  -1  -9   5    7.49    5.32
  -1   9  -5   10.55    5.57
  -1  -9   5   -1.35    4.14
  -1   9  -5    8.23    3.70
  -1   9  -5   15.01    5.46
   1  -9   5   -4.81    4.35
   1   9  -5    1.32    3.86
   1  -9   5    4.47    3.55
   1   9  -5   13.60    6.17
  -1  10  -5    1.44    4.64
  -1 -10   5    2.72    5.56
  -1  10  -5    6.53    7.87
   1  10  -5    7.30    4.79
   1  10  -5   11.31    8.08
   1 -10   5    5.45    5.05
  -1  11  -5   10.71    5.79
  -1  11  -5   32.00   12.33
  -1  11  -5   15.62    9.65
   1  11  -5   -5.68    8.68
   1  11  -5   34.75   11.57
  -2 -11  -5   12.52   12.92
  -2  11   5  -11.41   10.53
  -2  11   5   -3.06   10.94
   2  11   5    4.60    9.66
   2  11   5    8.42   14.28
  -2  10   5    4.99    6.78
  -2  10   5    0.13    7.87
  -2 -10  -5   13.04   10.13
  -2  10   5   -5.31    6.73
   2 -10  -5   -6.80   10.09
   2  10   5   -1.73    6.71
   2 -10  -5    1.03    6.18
   2  10   5  -11.36    9.89
   2  10   5    6.64    6.67
  -2   9   5    8.66    5.45
  -2   9   5   18.11    5.72
  -2   9   5   27.45    5.42
  -2   9   5    5.37    7.06
   2   9   5   18.38    6.18
   2  -9  -5   33.80    5.69
   2   9   5   21.69    7.83
  -2  -8  -5   -2.98    4.13
  -2   8   5    0.45    4.33
  -2   8   5   -2.79    4.86
  -2  -8  -5    3.14    3.48
  -2   8   5   -1.70    5.75
   2   8   5   -2.57    5.60
   2  -8  -5    4.30    2.71
   2  -8  -5    5.45    3.05
   2   8   5    0.52    4.12
   2   8   5    7.84    5.38
   2   8   5    2.81    4.46
  -2  -7  -5    5.21    2.65
  -2   7   5    0.64    3.67
  -2   7   5    2.32    2.88
  -2   7   5    3.11    2.93
  -2   7   5    6.53    2.68
  -2  -7  -5    7.15    3.26
   2   7   5   -0.03    3.40
   2   7   5    1.68    2.91
   2  -7  -5    5.40    2.32
   2   7   5   -3.04    3.27
  -2   6   5    2.34    2.39
  -2   6   5    2.53    2.27
  -2   6   5    1.31    2.06
  -2  -6  -5    3.01    2.61
  -2  -6  -5    0.71    1.94
  -2   6   5    2.28    2.71
   2   6   5   -0.63    2.74
   2  -6  -5    0.55    1.66
   2   6   5    0.03    2.57
   2   6   5    3.01    3.02
   2   6   5    1.30    2.56
   2  -6  -5    0.06    1.86
  -2   5   5  132.50    6.21
  -2  -5  -5  114.07    7.10
  -2   5   5  114.65    6.80
  -2  -5  -5  133.49    7.29
  -2   5   5  122.78    7.19
  -2   5   5  127.72    6.98
   2   5   5  127.19    7.42
   2  -5  -5  133.13    6.61
   2  -5  -5  118.22    6.47
   2   5   5  128.73    7.37
   2   5   5  113.10    7.42
  -2   4   5   10.43    1.97
  -2   4   5   12.98    2.07
  -2   4   5   12.29    1.87
  -2  -4  -5   11.61    1.90
  -2  -4  -5   14.26    2.24
  -2   4   5   10.50    1.62
   2   4   5   12.79    2.47
   2  -4  -5   12.31    1.86
   2   4   5    9.40    2.05
   2   4   5   11.52    2.22
   2  -4  -5    9.67    1.61
  -2   3   5    2.92    0.78
  -2   3   5    4.27    1.20
  -2  -3  -5    2.06    1.10
  -2  -3  -5    2.83    1.57
  -2  -3  -5    4.40    1.51
  -2   3   5    3.91    1.24
  -2   3   5    1.90    1.10
   2  -3  -5    2.23    1.08
   2  -3  -5    1.87    1.07
   2   3   5    2.85    1.40
   2  -3  -5    2.46    0.92
   2  -3  -5    0.81    1.37
   2   3   5    1.43    1.37
   2   3   5    2.18    1.22
  -2   2   5    1.09    0.63
  -2   2   5    2.31    0.88
  -2  -2  -5    0.33    1.14
  -2  -2  -5    1.27    0.88
  -2  -2  -5    0.53    0.93
  -2   2   5    2.35    0.84
  -2   2   5    0.71    0.86
   2   2   5    1.36    1.05
   2  -2  -5    1.89    1.27
   2  -2  -5    0.98    0.80
   2   2   5    0.60    0.93
   2  -2  -5    1.24    0.78
   2   2   5    0.26    1.16
   2  -2  -5    0.48    0.73
  -2  -1  -5    3.58    1.10
  -2  -1  -5    4.35    1.00
  -2   1   5    5.54    1.01
  -2   1   5    4.69    0.95
  -2  -1  -5    3.72    0.92
  -2   1   5    3.57    0.96
  -2   1   5    5.18    0.91
   2  -1  -5    3.60    0.76
   2  -1  -5    3.63    0.69
   2  -1  -5    4.89    1.04
   2   1   5    4.20    1.10
   2   1   5    3.10    1.00
   2   1   5    4.33    0.95
   2  -1  -5    4.58    0.97
  -2   0  -5   -0.50    0.68
  -2   0   5    0.60    0.72
  -2   0   5   -0.20    0.57
  -2   0   5    0.38    0.68
  -2   0   5   -0.25    0.69
  -2   0  -5    0.56    0.57
   2   0   5    0.25    0.60
   2   0  -5    0.12    0.57
   2   0  -5   -0.08    0.73
   2   0   5   -0.14    0.59
   2   0  -5   -0.79    0.61
  -2  -1   5    3.47    1.02
  -2   1  -5    4.33    1.00
  -2  -1   5    4.02    0.97
  -2   1  -5    3.02    0.81
  -2   1  -5    4.86    0.83
  -2  -1   5    2.76    0.95
  -2  -1   5    4.05    0.85
   2   1  -5    4.38    0.85
   2  -1   5    5.71    1.06
   2   1  -5    3.82    1.05
   2   1  -5    5.05    1.05
   2   1  -5    3.49    1.16
  -2  -2   5    0.55    0.79
  -2   2  -5    1.41    0.98
  -2  -2   5    1.72    0.98
  -2  -2   5    0.44    1.11
  -2  -2   5    1.12    0.91
  -2   2  -5    1.87    1.07
   2   2  -5    0.66    0.87
   2   2  -5    1.12    0.99
   2   2  -5    1.52    0.82
   2   2  -5    1.95    1.26
  -2  -3   5    1.43    1.17
  -2   3  -5    2.74    1.29
  -2  -3   5    2.10    1.14
  -2  -3   5    1.56    1.27
  -2  -3   5    1.73    1.25
  -2  -3   5    2.48    1.15
   2   3  -5    1.95    1.34
   2   3  -5    1.59    1.11
   2   3  -5    2.77    1.75
  -2  -4   5   10.48    1.95
  -2  -4   5   12.21    2.25
  -2  -4   5   11.31    2.05
  -2   4  -5   10.97    2.06
  -2  -4   5    8.86    1.87
  -2  -4   5   11.17    2.30
   2   4  -5   11.60    2.20
   2   4  -5    8.23    2.61
   2   4  -5    7.92    2.07
  -2  -5   5  125.98    6.85
  -2   5  -5  125.56    7.15
  -2  -5   5  122.44    7.84
  -2  -5   5  113.44    7.40
  -2  -5   5  123.02    6.70
  -2  -5   5  123.12    7.11
   2   5  -5  136.24    8.40
   2   5  -5  120.50    7.18
   2   5  -5  114.01    6.90
  -2   6  -5    1.83    2.18
  -2  -6   5   -3.00    1.89
  -2  -6   5   -1.86    2.32
  -2  -6   5    3.47    2.52
  -2   6  -5    0.28    1.65
  -2  -6   5    2.23    2.23
  -2  -6   5   -0.13    2.69
  -2   6  -5    0.94    2.28
   2   6  -5    0.92    2.05
   2   6  -5    1.70    2.52
   2   6  -5    0.99    2.16
  -2   7  -5    2.73    2.93
  -2  -7   5    5.42    3.32
  -2  -7   5    4.18    2.55
  -2   7  -5    1.26    2.96
  -2   7  -5    8.05    2.38
  -2  -7   5    3.53    2.67
   2   7  -5    1.44    3.66
   2   7  -5   -2.18    2.70
   2   7  -5    3.56    2.44
  -2   8  -5    1.47    4.13
  -2   8  -5   -2.77    3.96
  -2   8  -5    3.71    2.91
  -2  -8   5   -0.99    3.33
  -2  -8   5    9.05    4.37
  -2  -8   5   -0.61    2.88
  -2  -8   5    3.39    3.93
   2   8  -5    9.49    5.07
   2   8  -5    1.29    3.74
   2   8  -5    6.27    3.19
  -2  -9   5    9.97    4.86
  -2  -9   5   15.51    3.63
  -2  -9   5    4.77    4.97
  -2   9  -5   12.13    3.75
  -2   9  -5   14.84    5.95
  -2   9  -5   10.87    5.67
   2   9  -5   32.78    7.19
   2   9  -5   12.17    4.20
   2   9  -5    8.61    5.37
  -2  10  -5   12.71    7.17
  -2 -10   5    0.89    5.61
  -2  10  -5    4.49    4.32
  -2  10  -5   15.29    7.78
   2  10  -5    0.91    6.68
   2  10  -5   -8.18    7.97
   2  10  -5   -3.39    5.03
  -2  11  -5   22.24   11.56
   2  11  -5   -3.07   11.49
   2  11  -5   -2.73    9.40
  -3 -10  -5   -6.63   10.07
  -3  10   5    3.32    7.73
  -3  10   5   -3.54    6.69
   3  10   5    4.11    6.98
   3  10   5   -3.75    7.32
   3  10   5    9.43   11.15
  -3   9   5    6.00    6.75
  -3   9   5   -1.96    5.62
  -3   9   5    5.76    4.98
  -3   9   5    6.22    5.81
   3   9   5   -3.00    5.52
   3   9   5    6.42    7.95
   3   9   5    5.89    5.87
  -3   8   5    9.65    5.12
  -3   8   5    5.61    4.62
  -3   8   5   -0.57    5.14
  -3  -8  -5    2.65    3.50
  -3   8   5   -3.55    4.48
  -3  -8  -5   10.15    4.78
   3   8   5   10.69    5.95
   3   8   5    6.49    3.82
   3   8   5    2.07    4.62
   3  -8  -5    4.45    3.21
   3   8   5    6.73    5.28
   3  -8  -5    4.86    2.85
  -3  -7  -5    5.07    3.56
  -3   7   5    1.73    3.35
  -3   7   5   -1.82    3.48
  -3   7   5   -0.22    2.71
  -3   7   5    1.79    2.77
   3   7   5   -5.77    3.78
   3  -7  -5    0.24    2.23
   3   7   5    8.72    3.81
   3   7   5    4.79    3.22
  -3   6   5    1.59    2.66
  -3  -6  -5    4.55    3.06
  -3   6   5    4.69    2.31
  -3   6   5    5.54    2.89
  -3  -6  -5    4.99    2.19
  -3   6   5    8.07    2.29
   3   6   5    5.76    2.98
   3   6   5    1.46    3.11
   3  -6  -5    4.66    1.77
   3   6   5    5.16    2.54
   3   6   5    1.93    3.25
   3  -6  -5    5.25    2.04
  -3   5   5    6.63    2.19
  -3   5   5    5.27    1.77
  -3   5   5    5.45    1.65
  -3  -5  -5    7.14    2.50
  -3  -5  -5    2.06    1.68
  -3   5   5    5.55    2.19
   3  -5  -5    3.55    1.52
   3   5   5    1.97    2.33
   3   5   5    6.54    2.60
   3  -5  -5    6.29    1.57
   3   5   5    4.38    2.27
  -3   4   5    0.37    1.18
  -3   4   5   -2.31    1.21
  -3  -4  -5    1.55    1.72
  -3   4   5   -1.90    1.24
  -3   4   5   -1.03    1.30
  -3  -4  -5   -1.05    1.42
   3   4   5   -0.72    1.30
   3  -4  -5    1.07    1.19
   3  -4  -5    0.07    1.16
   3   4   5    0.00    1.75
   3   4   5   -0.68    1.77
   3   4   5   -0.83    1.94
  -3   3   5   14.10    1.92
  -3  -3  -5   13.03    2.38
  -3   3   5   11.49    1.46
  -3   3   5   11.71    1.95
  -3  -3  -5   16.45    2.47
  -3  -3  -5   13.67    2.06
  -3   3   5   14.41    1.89
   3   3   5   14.50    2.26
   3   3   5   11.84    2.23
   3  -3  -5   12.18    1.83
   3   3   5   11.15    2.09
   3  -3  -5   11.85    1.66
   3  -3  -5   13.86    2.36
   3  -3  -5   11.50    1.76
  -3  -2  -5   54.88    3.50
  -3   2   5   52.37    3.29
  -3  -2  -5   53.36    3.39
  -3   2   5   55.07    3.19
  -3   2   5   52.18    3.34
  -3  -2  -5   46.58    3.69
  -3   2   5   58.81    2.89
   3  -2  -5   56.68    3.05
   3   2   5   61.40    3.67
   3   2   5   55.29    3.68
   3  -2  -5   55.53    3.57
   3  -2  -5   59.67    3.50
   3   2   5   52.00    3.38
   3  -2  -5   56.28    3.13
  -3   1   5  137.23    6.41
  -3  -1  -5  129.08    6.41
  -3  -1  -5  138.82    6.47
  -3   1   5  131.21    6.63
  -3   1   5  139.07    6.26
  -3   1   5  136.13    6.41
   3   1   5  130.71    6.50
   3  -1  -5  132.55    6.13
   3  -1  -5  145.84    6.85
   3  -1  -5  138.96    6.38
   3  -1  -5  124.14    6.32
   3   1   5  135.09    6.42
  -3   0   5   -0.82    0.61
  -3   0  -5    0.51    0.71
  -3   0  -5   -1.09    0.85
  -3   0   5   -0.50    0.81
  -3   0   5   -1.42    0.74
  -3   0   5   -0.26    0.83
   3   0  -5   -0.91    0.94
   3   0  -5   -0.66    0.75
   3   0   5    0.05    0.76
   3   0  -5   -0.20    0.62
   3   0   5   -0.25    0.66
  -3  -1   5  122.75    6.56
  -3   1  -5  137.49    6.22
  -3  -1   5  130.54    6.32
  -3   1  -5  128.00    5.78
  -3  -1   5  137.94    6.34
  -3  -1   5  120.10    6.15
   3   1  -5  114.08    6.20
   3   1  -5  139.00    6.23
   3   1  -5  128.73    6.15
   3   1  -5  129.54    6.83
  -3   2  -5   52.33    3.39
  -3  -2   5   55.36    3.84
  -3  -2   5   53.05    3.33
  -3  -2   5   56.13    3.38
  -3   2  -5   56.61    3.02
  -3  -2   5   52.13    3.55
  -3  -2   5   59.14    3.59
  -3   2  -5   60.17    3.33
   3   2  -5   52.28    4.10
   3   2  -5   52.34    3.33
   3   2  -5   53.01    3.27
  -3  -3   5   14.63    2.15
  -3  -3   5   15.21    2.32
  -3  -3   5   14.24    2.24
  -3  -3   5   10.65    2.22
  -3  -3   5   14.00    2.01
  -3   3  -5   11.04    1.86
  -3   3  -5   11.47    2.00
   3   3  -5   12.54    2.03
   3   3  -5   13.70    2.75
   3   3  -5   11.21    1.77
  -3  -4   5    0.29    1.67
  -3   4  -5   -2.13    1.49
  -3   4  -5   -0.38    1.42
  -3  -4   5   -0.03    1.57
  -3  -4   5   -0.08    1.47
  -3  -4   5    0.81    1.97
  -3  -4   5   -0.02    1.58
   3   4  -5   -1.71    1.54
   3   4  -5   -0.45    2.31
   3   4  -5    1.24    1.52
  -3  -5   5    4.06    2.31
  -3  -5   5    2.25    2.12
  -3  -5   5    4.89    2.07
  -3   5  -5    3.51    2.26
  -3  -5   5    0.17    2.18
  -3   5  -5    3.46    2.21
  -3  -5   5    3.92    2.36
   3   5  -5    4.61    3.20
   3   5  -5    4.68    2.05
   3   5  -5    1.17    2.18
  -3   6  -5    4.88    2.78
  -3  -6   5    2.99    2.30
  -3   6  -5   10.18    2.93
  -3  -6   5    7.14    3.21
  -3  -6   5    7.25    2.64
  -3  -6   5    3.25    3.08
   3   6  -5    5.10    3.27
   3   6  -5    4.16    2.55
  -3  -7   5    2.15    2.86
  -3  -7   5   -4.54    2.54
  -3  -7   5    3.20    3.54
  -3   7  -5    0.58    3.02
  -3   7  -5    0.19    3.33
   3   7  -5    2.57    3.48
   3   7  -5    2.16    2.79
  -3  -8   5    9.52    3.98
  -3   8  -5   -5.06    4.65
  -3   8  -5    5.86    4.51
  -3  -8   5    0.08    3.26
  -3   8  -5    1.32    3.83
  -3  -8   5   -3.16    4.29
  -3  -8   5    9.17    4.44
   3   8  -5    9.98    4.98
   3   8  -5    3.32    3.35
   3   8  -5    2.17    3.87
  -3  -9   5    1.23    4.19
  -3  -9   5    1.27    4.69
  -3   9  -5    6.53    5.97
  -3   9  -5   -4.30    5.15
   3   9  -5    2.79    4.73
   3   9  -5    4.07    6.47
  -3 -10   5    4.48    5.99
  -3  10  -5   -2.34    6.94
  -3  10  -5    2.82    8.51
   3  10  -5   -2.72    6.69
   3  10  -5   -5.87    8.85
  -4 -10  -5   10.70   11.60
  -4  10   5    6.43    8.43
  -4  10   5    2.79    7.18
   4  10   5    4.91    7.79
   4  10   5  -13.22    8.20
   4  10   5   28.43   12.26
  -4   9   5   17.26    6.73
  -4  -9  -5   10.25    8.41
  -4   9   5    8.13    7.02
  -4   9   5   20.91    5.83
   4   9   5   37.56    9.10
   4   9   5   29.19   11.58
   4   9   5    6.79    6.64
  -4   8   5   17.20    5.24
  -4  -8  -5   18.79    5.93
  -4   8   5   11.96    5.81
  -4  -8  -5   14.93    4.57
  -4   8   5   14.04    4.25
  -4   8   5   16.63    4.37
   4   8   5   21.80    6.64
   4  -8  -5   11.73    3.24
   4   8   5   20.81    5.68
   4   8   5   15.79    4.46
  -4  -7  -5    5.63    3.32
  -4   7   5   15.76    4.14
  -4  -7  -5   11.46    4.57
  -4   7   5    2.52    6.00
  -4   7   5   15.56    3.24
   4  -7  -5    8.93    2.86
   4   7   5   20.94    3.88
   4   7   5   14.49    5.58
   4   7   5   22.29    5.00
  -4   6   5    7.66    3.06
  -4   6   5    5.15    2.25
  -4  -6  -5   16.07    3.75
  -4   6   5   14.97    3.18
  -4   6   5    6.49    2.27
   4   6   5    6.87    4.01
   4  -6  -5    8.24    2.24
   4   6   5    5.81    3.38
   4   6   5    3.02    3.36
   4  -6  -5    6.67    2.21
  -4   5   5   17.66    2.81
  -4  -5  -5   15.90    2.88
  -4   5   5   15.87    2.45
  -4   5   5   18.12    2.92
  -4   5   5   18.67    2.94
   4   5   5   16.36    3.05
   4   5   5   19.92    3.60
   4   5   5   13.20    3.37
   4  -5  -5   16.20    2.31
   4  -5  -5   18.31    2.87
  -4  -4  -5   17.41    3.06
  -4   4   5   26.49    2.20
  -4   4   5   18.92    2.83
  -4  -4  -5   28.20    3.65
  -4   4   5   21.31    2.71
  -4   4   5   23.28    2.85
   4  -4  -5   25.81    2.99
   4   4   5   32.06    3.97
   4   4   5   24.15    3.30
   4  -4  -5   21.94    2.71
   4   4   5   21.68    3.35
  -4  -3  -5   20.28    2.77
  -4  -3  -5   19.97    3.29
  -4   3   5   16.41    2.42
  -4  -3  -5   16.80    2.30
  -4   3   5   20.76    2.13
  -4   3   5   17.96    1.83
  -4   3   5   15.34    2.18
   4   3   5   16.26    2.60
   4  -3  -5   19.25    2.46
   4   3   5   19.25    3.07
   4   3   5   21.27    3.13
   4  -3  -5   14.35    1.89
   4  -3  -5   19.81    2.29
  -4   2   5   74.97    4.27
  -4  -2  -5   78.92    4.61
  -4  -2  -5   78.84    4.95
  -4  -2  -5   79.26    4.61
  -4   2   5   82.65    4.07
  -4   2   5   80.79    4.59
   4  -2  -5   81.90    4.12
   4   2   5   82.83    4.83
   4  -2  -5   71.30    4.49
   4   2   5   79.35    4.67
   4  -2  -5   71.72    4.14
   4   2   5   78.60    4.43
   4  -2  -5   83.84    4.73
  -4   1   5   58.33    3.85
  -4  -1  -5   63.21    3.65
  -4  -1  -5   52.84    3.75
  -4  -1  -5   58.50    3.66
  -4   1   5   65.51    3.53
  -4   1   5   65.85    3.28
  -4   1   5   64.65    3.60
   4   1   5   59.87    3.43
   4   1   5   66.82    3.78
   4  -1  -5   56.19    3.46
   4  -1  -5   60.12    3.30
   4  -1  -5   60.42    3.43
   4  -1  -5   62.55    4.09
  -4   0  -5    2.06    0.86
  -4   0   5   -0.83    1.08
  -4   0  -5    0.76    0.60
  -4   0   5   -0.20    0.98
  -4   0   5    0.65    0.83
  -4   0  -5   -0.88    0.87
   4   0  -5    0.08    0.87
   4   0   5   -0.31    0.82
   4   0  -5   -0.35    0.71
   4   0  -5   -0.10    1.38
   4   0   5    0.36    0.79
  -4  -1   5   60.93    3.56
  -4   1  -5   55.95    2.98
  -4  -1   5   63.78    3.72
  -4  -1   5   51.79    4.00
  -4  -1   5   54.69    3.49
  -4   1  -5   60.84    3.33
   4   1  -5   63.25    3.41
   4   1  -5   55.03    4.23
   4   1  -5   51.49    3.40
   4  -1   5   60.39    3.26
   4   1  -5   59.79    3.53
  -4  -2   5   85.88    4.89
  -4  -2   5   81.59    4.71
  -4   2  -5   80.08    4.30
  -4  -2   5   77.19    4.49
  -4   2  -5   82.49    4.04
  -4  -2   5   75.86    5.19
  -4   2  -5   80.67    4.39
  -4  -2   5   79.52    4.54
   4   2  -5   79.47    5.71
   4   2  -5   75.33    4.39
   4   2  -5   73.09    4.48
  -4  -3   5   21.23    2.90
  -4  -3   5   21.59    2.75
  -4  -3   5   16.73    2.48
  -4  -3   5   20.06    3.12
  -4  -3   5   21.44    2.70
  -4   3  -5   19.05    2.08
  -4   3  -5   15.84    2.36
  -4   3  -5   16.81    2.39
   4   3  -5   15.19    3.44
   4   3  -5   18.50    2.69
   4   3  -5   18.71    2.47
  -4  -4   5   26.66    4.88
  -4  -4   5   20.49    3.40
  -4   4  -5   26.52    3.17
  -4   4  -5   19.86    2.68
  -4  -4   5   17.22    3.35
  -4  -4   5   22.49    3.24
  -4  -4   5   27.38    4.08
   4   4  -5   21.19    4.16
   4   4  -5   26.99    3.00
   4   4  -5   21.59    3.36
  -4  -5   5   16.30    3.18
  -4   5  -5   17.17    2.71
  -4   5  -5   17.29    3.17
  -4  -5   5   18.13    2.91
  -4  -5   5   17.57    3.36
  -4  -5   5   14.23    3.18
  -4  -5   5   10.70    3.30
   4   5  -5   16.74    3.11
   4   5  -5   12.34    2.86
  -4  -6   5    9.88    2.88
  -4   6  -5    8.64    3.16
  -4  -6   5   13.74    3.70
  -4  -6   5    5.29    3.56
  -4  -6   5   10.10    3.10
  -4   6  -5   10.21    3.08
   4   6  -5    5.78    2.71
   4   6  -5   10.17    3.76
  -4  -7   5    8.34    4.43
  -4   7  -5   11.32    3.79
  -4  -7   5    5.50    3.55
  -4  -7   5    1.33    4.31
  -4   7  -5    7.35    4.03
  -4  -7   5   13.94    3.70
   4   7  -5    1.59    3.32
  -4  -8   5   20.85    5.79
  -4  -8   5   15.54    4.54
  -4   8  -5   16.87    5.05
  -4  -8   5   14.03    6.34
  -4   8  -5    9.26    5.26
   4   8  -5   12.16    6.16
   4   8  -5   11.91    4.36
  -4  -9   5   15.80    5.88
  -4  -9   5   18.42    5.37
  -4   9  -5   22.98    6.54
  -4  -9   5   20.14    6.62
   4   9  -5   10.64    5.58
   4   9  -5   28.58    8.29
  -4 -10   5   -0.52    7.53
  -4 -10   5   13.45    9.76
  -4 -10   5   -2.73    6.57
  -4  10  -5  -10.27   13.95
   4  10  -5    0.29    9.37
  -5 -10  -5  -15.73   11.16
  -5  10   5   10.99    8.79
  -5  10   5    3.23    7.68
   5  10   5  -13.72    7.30
   5  10   5   -0.82   13.20
   5  10   5    4.76    9.57
  -5  -9  -5    2.03    8.95
  -5   9   5   20.56    7.08
  -5   9   5   21.75    6.35
  -5   9   5   11.28    6.85
   5   9   5   21.56   10.16
   5   9   5   12.43    7.52
   5   9   5   -3.23   10.40
  -5  -8  -5   -4.08    6.47
  -5   8   5    2.41    3.99
  -5   8   5    2.26    4.80
  -5   8   5    1.36    4.19
  -5   8   5   10.96    5.33
   5   8   5   -4.87    4.03
   5   8   5   -6.63    8.52
   5   8   5   -1.49    5.84
   5   8   5    1.14    7.07
   5  -8  -5    5.37    4.05
  -5   7   5    0.53    3.03
  -5   7   5   -4.88    3.78
  -5  -7  -5    2.18    3.64
  -5   7   5    5.44    3.56
  -5   7   5   -3.29    3.17
   5   7   5    1.12    5.79
   5  -7  -5    2.51    2.41
   5   7   5   -6.08    3.20
   5   7   5   -2.26    4.27
  -5   6   5   20.08    3.17
  -5   6   5   18.94    3.61
  -5  -6  -5   17.63    4.23
  -5   6   5   15.55    2.76
  -5   6   5   20.40    3.73
   5   6   5   18.84    3.98
   5   6   5   17.47    4.50
   5   6   5   18.94    4.77
  -5   5   5   24.48    3.36
  -5   5   5   23.25    3.91
  -5  -5  -5   26.38    4.22
  -5  -5  -5   32.07    4.94
  -5   5   5   31.86    2.94
  -5   5   5   18.64    3.54
   5  -5  -5   23.27    2.97
   5   5   5   22.38    4.20
   5   5   5   24.36    4.47
   5   5   5   23.36    4.37
   5  -5  -5   29.06    3.33
  -5  -4  -5    1.64    2.05
  -5   4   5    1.36    1.56
  -5   4   5   -0.82    1.40
  -5  -4  -5    1.32    1.99
  -5   4   5    4.08    1.78
  -5   4   5    2.79    1.59
   5  -4  -5    2.53    2.16
   5  -4  -5    2.60    1.47
   5   4   5    4.27    2.23
   5   4   5    1.91    2.45
   5  -4  -5    2.67    1.80
   5   4   5    0.23    2.35
  -5   3   5   12.09    1.76
  -5   3   5   11.07    1.92
  -5  -3  -5    8.68    2.14
  -5   3   5    9.13    1.90
  -5  -3  -5   12.29    2.34
  -5   3   5   11.69    1.73
   5  -3  -5   10.51    1.98
   5   3   5    6.57    2.45
   5   3   5    9.46    2.48
   5   3   5   12.18    2.27
   5  -3  -5   14.30    2.36
  -5  -2  -5   49.38    4.03
  -5   2   5   55.32    4.03
  -5  -2  -5   49.74    3.95
  -5  -2  -5   51.68    3.94
  -5   2   5   56.39    3.10
  -5   2   5   53.41    3.54
   5  -2  -5   56.21    3.39
   5   2   5   51.53    3.75
   5   2   5   63.44    3.62
   5  -2  -5   59.59    4.17
   5   2   5   51.97    4.04
   5  -2  -5   54.25    3.38
   5  -2  -5   54.41    3.63
  -5   1   5   10.31    1.46
  -5   1   5   12.21    1.82
  -5  -1  -5   11.67    1.81
  -5  -1  -5   10.90    2.10
  -5   1   5   12.86    2.24
  -5  -1  -5   13.59    1.85
  -5   1   5   13.13    2.02
   5   1   5   10.35    1.67
   5  -1  -5   11.77    1.63
   5  -1  -5   13.75    1.71
   5  -1  -5   10.49    1.59
   5   1   5   14.22    1.98
   5  -1  -5   17.09    2.66
  -5   0   5    0.60    1.00
  -5   0  -5   -0.89    1.19
  -5   0   5   -0.44    1.33
  -5   0  -5    0.64    1.02
  -5   0   5   -0.87    1.13
   5   0  -5   -0.34    0.84
   5   0   5   -0.29    0.92
   5   0  -5   -0.41    0.87
   5   0  -5   -0.66    1.63
   5   0   5   -1.32    0.97
   5   0  -5    0.09    1.02
  -5  -1   5   12.60    2.14
  -5  -1   5   11.95    2.37
  -5  -1   5   13.00    2.00
  -5   1  -5   10.12    1.76
  -5  -1   5   11.16    1.76
  -5   1  -5   10.94    1.45
   5   1  -5   13.53    1.72
   5   1  -5   13.71    2.75
   5   1  -5    9.82    1.79
   5  -1   5   11.90    1.78
   5   1  -5   15.09    2.14
  -5  -2   5   54.61    3.82
  -5  -2   5   63.61    4.34
  -5  -2   5   55.29    4.71
  -5   2  -5   58.30    3.40
  -5  -2   5   57.17    3.97
  -5   2  -5   55.15    3.55
  -5  -2   5   57.41    4.16
  -5   2  -5   53.85    3.16
   5   2  -5   56.82    3.79
   5   2  -5   46.97    5.15
   5   2  -5   52.78    3.91
  -5   3  -5   13.16    2.40
  -5   3  -5   11.81    1.94
  -5   3  -5   10.65    1.81
  -5  -3   5   10.37    2.33
  -5  -3   5   11.01    2.41
  -5  -3   5   11.72    2.39
  -5  -3   5   10.25    2.64
  -5  -3   5   11.84    2.77
   5   3  -5   13.73    2.38
   5   3  -5    9.71    3.98
  -5  -4   5    2.84    2.47
  -5  -4   5    3.20    2.47
  -5  -4   5    2.26    2.64
  -5   4  -5    1.02    1.87
  -5   4  -5    5.43    2.06
  -5  -4   5    0.08    1.94
  -5  -4   5    3.36    2.73
  -5   4  -5    0.54    1.97
   5   4  -5    2.94    2.14
   5   4  -5    4.33    2.02
   5   4  -5   -0.37    3.40
  -5   5  -5   22.39    3.42
  -5   5  -5   24.69    3.68
  -5  -5   5   25.43    4.18
  -5  -5   5   26.03    4.23
  -5  -5   5   25.39    4.49
  -5  -5   5   16.75    3.53
  -5  -5   5   21.30    3.46
   5   5  -5   19.30    3.54
   5   5  -5   25.40    4.10
  -5   6  -5   28.81    4.11
  -5  -6   5   22.01    4.36
  -5  -6   5   23.27    3.89
  -5  -6   5   14.24    4.36
  -5  -6   5   20.54    4.49
  -5  -6   5   22.53    4.16
  -5   6  -5   18.52    3.97
   5   6  -5   18.66    4.49
   5   6  -5   15.80    3.51
  -5   7  -5    5.93    4.63
  -5   7  -5    7.18    4.12
  -5  -7   5    7.50    4.88
  -5  -7   5   -0.64    3.85
  -5  -7   5    3.42    4.63
  -5  -7   5   -3.80    4.43
   5   7  -5    3.34    4.05
   5   7  -5   -7.73    4.21
  -5   8  -5    1.65    4.59
  -5  -8   5   -7.72    4.80
  -5  -8   5    1.82    5.59
   5   8  -5    8.18    6.11
   5   8  -5   -1.74    4.19
  -5   9  -5   11.93    6.24
  -5  -9   5   23.25    6.87
  -5  -9   5    4.40    5.81
  -5  -9   5   19.54    7.18
   5   9  -5   10.99    5.99
   5   9  -5   27.67    9.70
  -5 -10   5    0.30    7.30
  -5  10  -5   16.79    7.78
  -5 -10   5    2.96    8.53
   5  10  -5    3.88   11.09
   5  10  -5    3.91    7.70
  -6  -9  -5    0.29    9.78
  -6   9   5    6.45    7.97
  -6   9   5    5.09    5.95
   6   9   5  -18.56    9.92
   6   9   5    0.91    8.11
   6   9   5   -1.72    5.61
  -6   8   5   -4.76    4.64
  -6  -8  -5   -7.90    6.80
  -6   8   5    7.96    5.67
  -6   8   5   -7.76    4.13
   6   8   5   -6.17    4.20
   6   8   5   -7.59    6.53
   6   8   5  -10.62    7.21
  -6   7   5    8.37    3.72
  -6  -7  -5   14.81    5.40
  -6   7   5   10.82    3.97
  -6  -7  -5   12.87    5.04
  -6   7   5    1.92    4.35
  -6   7   5   12.58    3.66
   6   7   5   13.22    5.26
   6   7   5    4.53    5.67
   6   7   5   -2.07    6.86
  -6   6   5    2.31    2.74
  -6   6   5   -4.84    2.80
  -6   6   5   -3.99    2.52
  -6  -6  -5   11.40    4.33
   6  -6  -5   -0.87    2.04
   6   6   5    5.82    4.93
   6   6   5   -3.44    4.16
  -6   5   5   14.99    2.72
  -6   5   5   19.82    3.52
  -6  -5  -5   14.19    3.75
  -6   5   5   17.58    2.84
  -6   5   5   21.64    3.28
  -6  -5  -5   19.07    3.62
   6   5   5   13.83    4.18
   6   5   5   15.75    4.33
   6  -5  -5   18.16    3.72
   6  -5  -5   17.48    2.44
   6   5   5   13.80    3.33
  -6   4   5   10.86    2.00
  -6   4   5   11.18    2.45
  -6   4   5    8.32    2.33
  -6  -4  -5    7.21    2.90
  -6   4   5    8.27    1.93
  -6  -4  -5    5.81    2.63
   6   4   5    7.65    3.50
   6  -4  -5    7.92    1.89
   6  -4  -5    4.26    2.70
   6   4   5    7.42    3.12
   6   4   5   12.04    3.03
  -6  -3  -5    1.50    2.17
  -6   3   5    0.67    1.73
  -6   3   5    0.62    1.54
  -6  -3  -5    0.82    2.17
  -6   3   5    0.05    1.11
   6  -3  -5   -0.88    1.55
   6   3   5    0.14    1.68
   6   3   5    2.10    2.56
   6   3   5    2.57    2.14
   6   3   5    2.01    1.22
   6  -3  -5    3.24    2.00
   6  -3  -5   -0.42    1.34
  -6  -2  -5  111.08    6.74
  -6   2   5  117.89    6.23
  -6   2   5  124.60    6.37
  -6  -2  -5  115.83    6.85
  -6   2   5  121.87    6.82
  -6  -2  -5  126.43    6.80
   6  -2  -5  119.63    6.98
   6   2   5  122.54    5.81
   6   2   5  126.79    6.19
   6   2   5  108.53    6.69
   6  -2  -5  118.29    6.13
   6  -2  -5  112.08    6.14
  -6  -1  -5   12.52    2.27
  -6  -1  -5   14.16    2.31
  -6   1   5   12.50    2.52
  -6   1   5   13.07    2.04
  -6   1   5   12.86    1.87
  -6  -1  -5   15.59    2.52
   6  -1  -5   11.06    1.97
   6   1   5    8.97    1.65
   6   1   5   12.73    1.93
   6  -1  -5   11.21    1.79
   6  -1  -5    9.77    2.56
   6   1   5   11.55    2.00
  -6   0   5   -0.20    1.13
  -6   0   5    0.98    1.76
  -6   0  -5   -1.91    1.42
  -6   0  -5    1.28    1.20
  -6   0   5    1.32    1.26
   6   0  -5    1.06    1.35
   6   0   5   -0.61    1.23
   6   0   5    1.41    1.19
   6   0  -5    4.04    2.29
   6   0  -5    0.11    1.06
  -6  -1   5   12.95    2.40
  -6  -1   5   13.10    2.16
  -6  -1   5   14.06    2.85
  -6  -1   5   12.46    2.11
  -6   1  -5   10.98    1.63
  -6   1  -5   12.60    1.74
   6  -1   5   12.06    2.04
   6   1  -5    9.87    1.88
   6   1  -5   13.71    1.82
   6   1  -5   13.95    3.16
  -6   2  -5  121.84    5.98
  -6  -2   5  121.61    6.90
  -6  -2   5  109.57    7.60
  -6  -2   5  124.66    7.04
  -6  -2   5  123.97    6.69
  -6  -2   5  128.84    7.23
  -6   2  -5  118.37    5.97
   6   2  -5  134.17    6.32
   6  -2   5  120.06    6.36
   6   2  -5  110.87    6.37
   6   2  -5  115.38    9.96
  -6   3  -5   -0.86    1.38
  -6  -3   5    1.81    2.63
  -6   3  -5    1.40    1.82
  -6  -3   5    4.82    2.28
  -6  -3   5   -1.71    2.43
  -6  -3   5   -0.95    1.71
  -6   3  -5    1.65    1.39
  -6  -3   5    1.66    2.31
   6   3  -5   -0.14    3.45
   6   3  -5    0.72    2.11
  -6  -4   5    8.82    2.97
  -6  -4   5   13.53    3.25
  -6  -4   5    9.60    3.12
  -6  -4   5    5.09    2.50
  -6   4  -5   11.27    2.32
  -6  -4   5    8.49    3.20
  -6   4  -5   13.15    2.32
  -6   4  -5   12.62    2.82
   6   4  -5   12.06    2.90
  -6   5  -5   21.93    3.74
  -6  -5   5   19.65    4.25
  -6   5  -5   21.29    3.68
  -6  -5   5   21.97    4.66
  -6   5  -5   17.01    3.33
  -6  -5   5   14.75    4.26
  -6  -5   5   14.60    3.47
   6   5  -5   23.82    3.89
   6   5  -5   24.66    4.05
  -6  -6   5   -4.10    3.82
  -6  -6   5    0.34    3.45
  -6  -6   5    0.59    4.04
  -6   6  -5   -2.89    2.82
  -6  -6   5   -0.80    4.22
  -6  -6   5    1.82    4.47
  -6   6  -5   -3.43    3.06
   6   6  -5    4.21    3.11
   6   6  -5    0.96    3.72
  -6  -7   5    7.96    5.98
  -6   7  -5    0.19    4.08
  -6  -7   5    2.64    5.09
  -6   7  -5    3.15    4.29
  -6  -7   5    2.45    5.24
  -6  -7   5    3.15    4.77
  -6  -7   5    9.04    5.56
   6   7  -5    8.05    4.17
   6   7  -5   -4.51    4.81
  -6  -8   5    1.80    4.90
  -6  -8   5   -5.66    6.26
  -6   8  -5   -3.27    4.85
   6   8  -5   -0.89    4.64
   6   8  -5  -10.70    6.72
  -6   9  -5   -0.98    6.60
  -6  -9   5    0.83    6.13
  -6  -9   5    3.60    7.92
   6   9  -5   -4.41    5.96
   6   9  -5    2.50    9.28
  -7   9   5    9.65    7.23
  -7  -9  -5    4.17   11.17
  -7   9   5    7.70    9.45
   7   9   5   15.04    9.63
   7   9   5    3.38   11.62
  -7  -8  -5   14.75    8.82
  -7   8   5   -6.35    5.29
  -7   8   5    9.76    7.06
  -7   8   5    2.99    5.07
   7   8   5    5.02    7.34
   7   8   5  -11.08    7.85
  -7  -7  -5   -7.09    6.71
  -7   7   5   10.45    4.01
  -7  -7  -5   16.26    6.65
  -7   7   5    4.20    3.70
  -7   7   5   -2.98    4.93
   7   7   5   -3.45    5.57
   7   7   5    5.43    5.57
   7   7   5    0.09    6.49
   7  -7  -5    2.61    3.13
  -7  -6  -5    0.60    4.26
  -7   6   5    4.71    2.72
  -7   6   5    4.54    3.07
  -7   6   5    3.47    3.63
  -7  -6  -5    5.63    5.16
   7   6   5    4.98    4.58
   7   6   5    7.63    4.86
   7  -6  -5    0.66    2.38
  -7  -5  -5   40.67    6.34
  -7   5   5   55.07    4.48
  -7  -5  -5   46.20    7.33
  -7   5   5   57.05    4.35
  -7   5   5   51.35    5.08
   7   5   5   58.02    6.85
   7   5   5   57.09    7.28
   7   5   5   64.10    5.92
  -7   4   5   37.11    4.58
  -7  -4  -5   45.17    6.01
  -7  -4  -5   37.02    5.39
  -7   4   5   41.67    4.40
   7  -4  -5   54.52    4.97
   7   4   5   39.68    4.63
   7   4   5   54.86    5.53
   7   4   5   48.40    5.67
  -7   3   5    9.15    2.48
  -7   3   5   12.88    2.39
  -7  -3  -5   13.07    2.85
  -7  -3  -5   14.48    3.08
   7  -3  -5   10.90    2.51
   7   3   5   13.06    2.49
   7   3   5    8.56    2.74
   7   3   5    7.68    1.90
   7   3   5   11.01    2.89
   7  -3  -5   11.92    2.14
  -7  -2  -5    1.23    2.08
  -7  -2  -5   -1.17    1.90
  -7   2   5    0.92    1.86
  -7   2   5    4.33    1.94
  -7   2   5    0.44    1.49
   7   2   5   -0.08    1.58
   7   2   5   -1.58    1.90
   7  -2  -5    0.64    2.39
   7   2   5    1.80    1.56
   7  -2  -5   -0.24    1.70
   7  -2  -5    2.04    1.60
  -7   1   5   20.69    2.69
  -7   1   5   21.35    3.49
  -7  -1  -5   21.95    3.34
  -7  -1  -5   23.51    3.61
  -7  -1  -5   25.23    3.28
  -7   1   5   27.57    2.96
   7   1   5   24.15    2.64
   7  -1  -5   24.24    2.68
   7  -1  -5   22.96    2.96
   7  -1  -5   28.45    4.04
   7   1   5   26.33    2.89
   7   1   5   20.47    2.40
  -7   0  -5   -0.37    1.25
  -7   0   5    0.37    1.33
  -7   0  -5   -0.28    1.53
  -7   0   5    0.06    2.02
  -7   0   5   -2.17    1.48
  -7   0   5   -0.46    2.40
   7   0  -5   -0.51    1.35
   7   0  -5    0.04    1.62
   7   0  -5   -3.38    2.49
   7   0   5    0.25    1.60
   7   0   5   -0.37    1.28
  -7  -1   5   24.10    3.97
  -7  -1   5   27.08    4.00
  -7  -1   5   22.79    3.12
  -7  -1   5   25.96    3.36
  -7  -1   5   26.17    3.07
   7  -1   5   24.19    2.95
   7   1  -5   28.42    5.42
   7   1  -5   26.37    3.44
   7   1  -5   23.95    2.40
  -7  -2   5    2.41    2.60
  -7  -2   5    0.98    1.62
  -7   2  -5   -0.23    1.54
  -7  -2   5    1.21    2.80
  -7  -2   5    0.70    2.16
   7   2  -5   -2.83    3.28
   7  -2   5   -0.27    2.23
   7   2  -5    1.23    1.65
   7   2  -5   -0.10    2.05
  -7   3  -5   12.82    2.27
  -7  -3   5    8.33    3.16
  -7  -3   5   16.25    3.40
  -7  -3   5   12.89    2.98
  -7  -3   5   10.74    3.63
   7   3  -5   13.19    2.86
  -7  -4   5   48.29    5.09
  -7   4  -5   40.76    3.76
  -7  -4   5   42.60    5.33
  -7   4  -5   46.52    3.72
  -7   4  -5   41.63    4.59
  -7  -4   5   51.43    6.55
  -7  -4   5   47.70    6.52
   7   4  -5   43.25    4.83
  -7  -5   5   50.61    8.15
  -7  -5   5   67.47    7.25
  -7   5  -5   52.16    5.56
  -7  -5   5   51.05    7.69
  -7  -5   5   63.17    6.55
  -7   5  -5   64.27    4.86
  -7   5  -5   64.78    5.06
  -7  -5   5   59.24    7.13
   7   5  -5   59.69    5.84
  -7  -6   5    1.64    5.13
  -7  -6   5   -3.24    4.83
  -7  -6   5    7.82    5.40
  -7   6  -5    3.86    3.06
  -7  -6   5    3.39    5.20
  -7  -6   5    8.86    3.79
  -7   6  -5    3.13    3.66
  -7   6  -5    0.37    3.34
   7   6  -5   10.99    4.78
   7   6  -5   17.34    6.86
  -7  -7   5   -3.59    6.09
  -7  -7   5   10.30    7.06
  -7   7  -5    3.94    4.51
  -7  -7   5    3.64    4.97
   7   7  -5    6.60    5.91
   7   7  -5    7.33    4.43
  -7  -8   5   -3.05    7.08
  -7   8  -5    5.55    6.09
  -7  -8   5    8.08    5.65
   7   8  -5   -6.80    5.24
   7   8  -5    5.40    7.56
  -7   9  -5    4.48    7.92
  -7  -9   5   16.33   10.07
  -7  -9   5   13.14    7.59
   7   9  -5   16.80    7.30
   7   9  -5   -4.82   10.27
  -8   8   5   -7.28    8.10
  -8   8   5    1.66    5.77
  -8  -8  -5  -15.67    8.86
   8   8   5   19.65    9.39
   8   8   5    3.42    8.62
  -8   7   5    6.20    6.01
  -8  -7  -5   11.45    8.00
  -8   7   5    3.53    4.26
  -8  -7  -5   27.74    8.78
  -8   7   5    7.78    3.92
   8   7   5    4.52    7.35
   8   7   5   11.59    6.36
   8   7   5    8.21    6.89
  -8   6   5    8.12    4.59
  -8  -6  -5   10.51    6.39
  -8  -6  -5   -6.80    5.35
  -8   6   5   -0.72    5.29
   8  -6  -5   -0.66    2.75
   8   6   5    2.36    5.61
   8   6   5    4.80    5.49
   8   6   5    0.89    5.23
  -8  -5  -5    9.81    5.00
  -8   5   5   20.23    3.50
  -8  -5  -5    8.62    5.78
  -8   5   5    9.94    3.28
  -8  -5  -5   16.68    4.79
  -8   5   5   17.71    3.57
   8   5   5   12.93    4.09
   8   5   5   17.10    4.70
   8  -5  -5    7.08    2.89
   8  -5  -5   24.98    4.89
   8   5   5   13.94    4.80
  -8   4   5   -0.48    2.45
  -8   4   5    1.36    2.64
  -8  -4  -5    0.21    4.42
  -8  -4  -5    4.78    3.81
   8  -4  -5    4.29    2.23
   8   4   5    2.79    2.34
   8  -4  -5    6.61    3.38
   8   4   5   -4.11    3.14
   8   4   5    4.53    3.20
   8   4   5    4.79    3.56
  -8  -3  -5   -2.50    3.22
  -8   3   5    0.90    2.10
  -8  -3  -5    4.05    3.30
  -8   3   5   -0.23    2.55
   8  -3  -5   -2.86    2.50
   8   3   5    2.49    3.04
   8   3   5    2.67    2.34
   8   3   5   -0.65    2.38
  -8   2   5   10.52    2.93
  -8   2   5    6.10    2.44
  -8   2   5    7.38    2.04
  -8  -2  -5    6.59    3.23
  -8  -2  -5    8.86    3.05
   8  -2  -5    9.56    2.45
   8   2   5    5.65    2.37
   8   2   5    7.60    2.08
   8   2   5    9.07    2.26
  -8  -1  -5   41.13    4.33
  -8  -1  -5   25.92    3.45
  -8   1   5   28.76    3.33
  -8  -1  -5   29.72    4.48
  -8   1   5   29.51    3.51
  -8   1   5   29.23    4.49
   8   1   5   29.14    3.16
   8  -1  -5   39.91    5.59
   8  -1  -5   33.51    3.28
  -8   0   5   -1.18    2.71
  -8   0   5   -0.50    2.61
  -8   0   5    0.54    1.76
  -8   0  -5    2.05    1.93
  -8   0   5    0.22    1.96
  -8   0  -5   -0.64    2.34
  -8   0  -5    0.04    1.51
  -8   0   5    1.44    2.48
   8   0   5    0.89    2.14
   8   0  -5    0.77    1.67
  -8  -1   5   25.15    3.90
  -8  -1   5   33.77    3.70
  -8  -1   5   33.81    5.00
  -8  -1   5   34.54    4.42
   8  -1   5   32.47    3.83
   8   1  -5   32.24    5.39
   8   1  -5   30.44    3.05
  -8  -2   5    6.58    3.39
  -8   2  -5   11.42    2.15
  -8  -2   5   10.08    3.02
  -8  -2   5   10.25    3.61
  -8  -2   5    8.80    2.50
  -8  -2   5   10.03    3.55
   8  -2   5   12.00    3.09
  -8   3  -5    0.53    2.30
  -8  -3   5   -1.60    6.34
  -8  -3   5    0.42    3.11
  -8  -3   5    2.23    3.70
  -8  -3   5    4.15    3.36
   8   3  -5   -1.73    2.33
  -8  -4   5   -3.90    3.05
  -8   4  -5   -0.73    2.69
  -8  -4   5    7.08    4.37
  -8  -4   5    3.66    4.50
  -8  -4   5   -5.33    3.67
  -8   4  -5   -0.42    2.84
   8   4  -5    1.77    3.19
  -8  -5   5   15.54    5.08
  -8  -5   5   22.05    4.56
  -8  -5   5   15.34    5.88
  -8   5  -5   19.35    3.49
  -8   5  -5   16.82    4.03
  -8  -5   5   23.17    5.54
  -8  -5   5    6.48    5.50
   8   5  -5   18.64    4.79
  -8  -6   5    5.08    6.24
  -8  -6   5    0.87    6.94
  -8   6  -5    1.67    3.94
  -8  -6   5   -6.41    4.07
  -8   6  -5    2.97    3.02
  -8  -6   5   10.34    6.00
   8   6  -5   12.31    4.81
  -8  -7   5    9.87    5.56
  -8   7  -5    5.48    4.16
  -8   7  -5    3.80    5.17
  -8  -7   5   15.49    7.30
   8   7  -5   12.30    7.15
   8   7  -5    7.64    5.44
  -8   8  -5    0.90    5.45
  -8  -8   5   -1.02    8.59
  -8  -8   5    7.60    6.47
  -8   8  -5    7.68    6.60
   8   8  -5   17.82    9.31
   8   8  -5   15.68    6.81
  -9   7   5    2.78    4.91
  -9   7   5    3.51    7.22
  -9  -7  -5   12.05   10.54
   9   7   5    9.72    7.32
   9   7   5    7.58    8.68
  -9  -6  -5  -11.82    7.37
  -9   6   5    4.65    4.88
  -9  -6  -5   -8.90    6.91
  -9   6   5    7.86    4.17
   9   6   5   -8.60   12.66
   9   6   5    0.41    5.73
  -9  -5  -5   14.01    6.13
  -9   5   5    5.55    3.33
  -9  -5  -5    7.75    6.40
  -9   5   5    7.72    3.61
   9   5   5    8.13    5.58
   9   5   5    6.91    4.70
   9  -5  -5    7.30    3.44
   9  -5  -5   13.41    5.52
   9   5   5   21.59    7.63
   9   5   5   11.09    3.58
  -9   4   5   12.66    3.43
  -9  -4  -5   11.94    4.84
  -9  -4  -5    3.50    5.03
  -9   4   5   11.50    3.47
  -9   4   5    9.42    3.48
  -9  -4  -5    8.95    5.66
   9   4   5   15.66    3.41
   9   4   5   16.88    3.90
   9   4   5    7.02    4.21
   9  -4  -5   10.87    3.37
   9  -4  -5   12.21    4.21
  -9  -3  -5    2.87    4.30
  -9  -3  -5    5.17    3.96
  -9   3   5    4.75    2.92
  -9  -3  -5    2.35    3.19
  -9  -3  -5    1.64    5.18
  -9   3   5    8.41    2.67
  -9   3   5    8.61    3.16
   9   3   5    4.31    2.94
   9  -3  -5    2.50    3.17
   9  -3  -5    4.37    2.61
   9   3   5    2.91    2.48
  -9  -2  -5    7.32    3.88
  -9  -2  -5    7.59    4.73
  -9  -2  -5    7.93    3.40
  -9   2   5    4.39    2.50
  -9   2   5   10.73    3.59
  -9   2   5   10.21    3.02
   9  -2  -5    5.71    2.84
   9   2   5    4.57    2.85
   9  -2  -5    7.61    2.89
  -9   1   5    1.47    2.94
  -9   1   5   -0.50    2.42
  -9   1   5    3.05    3.19
  -9  -1  -5    6.49    2.99
  -9  -1  -5    4.61    4.14
  -9  -1  -5    8.99    2.56
  -9   1   5    0.13    2.01
  -9  -1  -5    6.40    3.64
   9  -1  -5    4.11    2.52
   9  -1  -5    3.58    2.70
   9   1   5    5.22    2.67
  -9   0   5   -1.81    2.01
  -9   0  -5   -0.69    3.47
  -9   0  -5    4.31    2.54
  -9   0  -5   -0.24    1.89
  -9   0   5   -2.44    2.95
  -9   0   5   -3.65    3.17
  -9   0   5   -1.40    2.65
  -9   0  -5   -4.19    2.89
   9   0  -5   -1.02    2.07
   9   0   5    1.29    2.70
  -9  -1   5    2.20    3.02
  -9  -1   5   12.22    7.25
  -9  -1   5    9.66    3.66
  -9  -1   5    9.77    3.99
  -9  -1   5    2.55    2.07
   9   1  -5    6.04    2.22
   9  -1   5    7.25    3.21
  -9  -2   5    6.28    4.92
  -9  -2   5   10.44    3.56
  -9  -2   5    5.74    2.98
  -9  -2   5   -2.49    4.23
  -9  -2   5    3.54    4.32
   9  -2   5   10.83    3.79
   9   2  -5    6.87    2.40
  -9   3  -5    4.96    2.84
  -9  -3   5    4.48    3.17
  -9  -3   5    4.96    4.93
  -9  -3   5   12.08    4.99
  -9  -3   5   10.01    4.88
  -9  -3   5   13.39    4.59
   9  -3   5    4.68    4.17
  -9  -4   5   10.67    3.66
  -9   4  -5    9.93    3.47
  -9  -4   5   12.11    6.33
  -9  -4   5   20.73    5.24
  -9   4  -5   13.49    3.82
  -9  -4   5   13.43    5.65
   9   4  -5    6.19    4.59
  -9  -5   5   14.25    7.05
  -9  -5   5   16.82    6.52
  -9  -5   5    8.82    6.20
  -9   5  -5    7.22    4.08
  -9  -5   5    9.79    4.65
   9   5  -5    2.84    4.13
  -9  -6   5    4.91    5.19
  -9   6  -5    4.08    4.68
  -9  -6   5    3.68    7.09
  -9  -6   5    6.07    7.96
   9   6  -5    3.21    5.03
  -9   7  -5    6.90    5.89
  -9  -7   5   18.63    6.60
  -9   7  -5    5.33    4.12
  -9  -7   5   20.29    8.56
   9   7  -5    8.34    6.41
 -10  -6  -5   13.26    9.42
 -10  -6  -5    4.80    8.74
 -10  -6  -5    6.13    5.37
 -10   6   5    7.84    6.11
 -10   6   5    9.82    4.75
  10   6   5    5.65    6.69
  10   6   5   14.17    7.38
  10   6   5    6.89    5.50
 -10  -5  -5   16.00    8.08
 -10   5   5   -2.40    3.55
 -10  -5  -5   -4.94    7.57
 -10   5   5    0.24    3.90
  10   5   5    6.00    4.94
  10  -5  -5   15.41    6.37
 -10  -4  -5   -9.30    5.61
 -10  -4  -5   -4.39    6.20
 -10  -4  -5    2.09    4.24
 -10   4   5    3.44    3.67
 -10   4   5    1.96    3.66
  10   4   5   -1.43    4.49
  10   4   5   -2.27    3.83
  10  -4  -5    7.06    4.94
 -10   3   5    3.46    2.91
 -10  -3  -5   -0.87    6.34
 -10  -3  -5    1.75    3.44
 -10  -3  -5    8.26    4.78
 -10   3   5    6.60    4.01
 -10   3   5   11.77    3.74
 -10  -3  -5   17.70    5.93
  10  -3  -5    6.43    3.47
  10   3   5   10.08    5.07
  10  -3  -5    3.46    4.00
 -10   2   5   -4.17    2.95
 -10  -2  -5    4.15    5.90
 -10  -2  -5    0.74    3.18
 -10  -2  -5   -1.20    4.40
 -10   2   5    6.28    3.93
 -10  -2  -5    2.71    5.35
  10   2   5   -2.93    3.20
  10  -2  -5   10.18    3.44
  10  -2  -5    3.28    3.14
 -10   1   5   16.65    3.60
 -10   1   5   13.91    4.19
 -10  -1  -5    7.87    4.63
 -10  -1  -5   14.69    4.16
 -10   1   5   18.49    3.42
 -10  -1  -5   14.54    3.28
 -10  -1  -5   12.85    5.42
 -10   1   5   20.57    5.03
  10   1   5   19.15    3.88
  10  -1  -5   16.22    3.39
 -10   0   5   -0.36    2.42
 -10   0  -5    4.03    4.66
 -10   0   5   -7.44    3.79
 -10   0  -5   -2.43    3.72
 -10   0   5    0.56    3.24
 -10   0   5   -2.91    3.85
 -10   0   5   -0.88    4.59
  10   0   5   -4.04    5.42
  10   0  -5    1.68    2.65
 -10  -1   5   26.72    5.75
 -10  -1   5   16.20    3.48
 -10  -1   5   18.91    5.37
 -10  -1   5   20.53    4.47
 -10  -1   5   15.70    5.26
  10   1  -5   26.09    3.74
  10  -1   5   14.65    4.28
 -10  -2   5   -4.24    4.93
 -10  -2   5    0.93    3.00
 -10  -2   5   -1.10    4.50
 -10  -2   5   -1.23    5.21
  10   2  -5    1.82    2.66
  10   2  -5    0.48    0.28
  10  -2   5    4.26    4.33
 -10  -3   5    3.80    5.80
 -10  -3   5    6.04    3.95
 -10  -3   5    4.79    5.18
 -10  -3   5  -10.60    5.90
  10  -3   5    2.81    4.72
  10   3  -5    4.75    3.01
 -10   4  -5   -5.69    3.70
 -10  -4   5    6.69    6.58
 -10  -4   5    1.05    6.37
 -10  -4   5   -0.52    7.17
 -10  -4   5    1.46    4.35
 -10  -5   5   -5.46    4.90
 -10  -5   5   13.01    7.27
 -10  -5   5   -1.87    7.85
 -10   5  -5   -1.12    5.10
  10   5  -5  -10.47    9.06
  10   5  -5   -0.68    4.70
 -10  -6   5   20.54    6.86
 -10   6  -5   -0.57    5.32
 -10  -6   5    4.65    8.35
  10   6  -5   -2.77    5.87
 -11   5   5    1.03    4.86
 -11  -5  -5   -2.25    6.56
 -11   5   5    1.48    4.71
 -11  -5  -5   13.10    9.50
  11  -5  -5   12.33    7.52
  11   5   5   -8.67    6.23
 -11  -4  -5   -1.73    5.04
 -11   4   5    6.00    4.77
 -11  -4  -5   12.45    8.32
  11  -4  -5    8.53    6.26
  11   4   5    6.86    5.88
 -11   3   5   10.60    7.36
 -11  -3  -5    8.32    6.37
 -11   3   5    6.81    3.86
 -11  -3  -5    3.79    4.62
 -11  -3  -5    9.89    7.39
 -11   3   5   14.98    4.98
  11   3   5    6.43    5.16
  11  -3  -5    9.79    4.73
 -11   2   5    4.54    4.77
 -11  -2  -5    6.54    6.99
 -11  -2  -5    2.37    7.65
 -11   2   5   -0.66    3.04
 -11  -2  -5   -2.58    3.72
 -11  -2  -5    1.86    5.47
 -11   2   5  -10.30    5.84
  11   2   5    7.16    4.45
  11  -2  -5    5.80    3.91
 -11  -1  -5    3.10    3.12
 -11   1   5   -1.30    3.11
 -11   1   5    2.64    4.69
 -11  -1  -5    4.87    5.93
 -11   1   5    2.83    3.83
 -11  -1  -5    1.92    4.64
 -11   1   5   -5.13    5.05
  11   1   5   -3.37    4.49
  11  -1  -5   -1.43    3.40
 -11   0   5    4.01    3.27
 -11   0   5   -3.53    5.03
 -11   0   5    9.38    5.88
 -11   0  -5   -2.74    5.10
  11   0  -5    5.11    3.44
  11   0   5   -6.79    4.32
 -11  -1   5    1.08    3.31
 -11  -1   5   -5.90    5.11
 -11  -1   5   -3.89    5.79
 -11  -1   5    6.08    6.50
  11  -1   5    4.07    4.99
  11   1  -5    2.48    3.55
 -11  -2   5    4.19    3.72
 -11  -2   5   -0.91    5.90
 -11  -2   5    5.00    7.15
 -11  -2   5   -6.06    5.89
  11   2  -5    3.77    3.48
  11  -2   5   11.94    5.61
 -11  -3   5   19.92    7.21
 -11  -3   5    6.56    7.55
 -11  -3   5   30.69    8.98
 -11  -3   5    7.08    4.74
  11  -3   5   12.90    6.46
  11   3  -5    6.78    4.01
 -11  -4   5   17.46    5.69
 -11  -4   5   -4.79    8.73
 -11   4  -5    0.47    4.56
  11   4  -5    4.29    4.73
 -11   5  -5    0.56    5.36
 -11  -5   5   18.21    9.63
 -11  -5   5   -1.66    6.24
 -12  -3  -5   14.59    5.61
 -12   3   5   14.01    5.23
 -12  -3  -5  -10.49    9.04
 -12   3   5   11.79    6.26
  12  -3  -5    4.43    6.05
  12   3   5    7.69    6.51
 -12  -2  -5   -1.80    4.15
 -12   2   5   -1.00    6.14
 -12   2   5   -2.86    4.16
 -12  -2  -5  -14.78    8.04
  12   2   5   -3.13    6.11
  12  -2  -5    6.50    5.15
 -12   1   5    9.74    6.51
 -12   1   5   -2.66    3.55
 -12  -1  -5   -1.34    7.64
  12  -1  -5    1.19    4.58
  12   1   5    2.31    5.62
 -12   0  -5   -2.35    6.86
 -12   0   5   -4.37    3.68
 -12   0   5    3.38    6.03
  12   0   5   -5.76    5.76
  12   0  -5   -5.53    4.03
 -12   1  -5   -5.50    6.68
 -12  -1   5    6.21    7.40
 -12  -1   5   -5.11    4.21
  12  -1   5    2.36    6.20
  12   1  -5    5.44    4.80
 -12  -2   5    5.39    4.65
 -12  -2   5    6.75    8.57
  12  -2   5   13.52    6.85
 -12  -3   5   -5.81    8.82
 -12  -3   5    9.55    5.32
  12   3  -5    4.04    5.43
   0  11   6   -3.60   12.41
   0  11   6    0.32    9.93
   0 -11  -6    8.39   12.54
   0  10   6  -12.46    8.00
   0  10   6    2.66    7.71
   0  10   6    4.10    7.62
   0 -10  -6   16.85    5.43
   0  10   6   20.92    9.13
   0   9   6   -4.20    5.70
   0   9   6   -1.48    8.11
   0   9   6   -1.20    5.27
   0  -9  -6    1.59    3.68
   0   9   6    2.20    5.44
   0   8   6    4.40    3.95
   0  -8  -6   10.83    3.87
   0   8   6   19.96    4.70
   0   8   6   15.68    4.58
   0   8   6   14.30    5.17
   0  -7  -6    1.71    2.93
   0  -7  -6   -1.19    2.34
   0   7   6   -4.40    3.40
   0   7   6    2.03    3.09
   0   7   6    1.50    3.17
   0   7   6   -4.67    3.97
   0  -6  -6   46.86    4.04
   0   6   6   41.38    4.73
   0   6   6   49.91    5.08
   0   6   6   39.21    4.89
   0  -6  -6   42.41    4.41
   0   6   6   38.48    3.72
   0  -5  -6   -2.01    2.46
   0  -5  -6   -0.10    1.60
   0   5   6    2.14    2.05
   0   5   6   -2.36    1.75
   0   5   6   -1.55    1.97
   0   4   6    1.86    1.50
   0  -4  -6    2.66    1.28
   0   4   6    0.50    1.49
   0   4   6    4.06    1.76
   0  -4  -6    1.76    1.84
   0  -4  -6    0.09    1.39
   0   3   6    1.00    1.17
   0   3   6   -0.08    1.13
   0  -3  -6   -1.20    1.47
   0  -3  -6    0.33    0.89
   0  -3  -6    0.94    1.04
   0   3   6    1.04    1.27
   0  -2  -6   47.53    3.05
   0  -2  -6   49.62    3.42
   0   2   6   51.85    3.18
   0   2   6   51.56    3.19
   0  -2  -6   57.29    3.05
   0  -1  -6    0.19    0.65
   0   1   6   -0.85    0.70
   0   1   6   -0.46    0.85
   0   1   6    0.15    0.67
   0  -1  -6   -0.18    0.62
   0   1   6   -1.04    0.67
   0  -1  -6    0.89    0.91
   0   0   6  639.92   27.17
   0   0  -6  642.05   27.11
   0   0   6  631.35   27.16
   0   0  -6  648.09   27.25
   0   0  -6  638.76   27.38
   0   0  -6  634.76   27.09
   0   0   6  651.36   27.42
   0  -1   6   -0.55    0.54
   0   1  -6   -0.42    0.69
   0  -1   6    0.15    0.89
   0  -1   6    0.52    0.65
   0  -1   6   -0.30    0.63
   0   1  -6   -0.92    0.77
   0   1  -6   -1.09    0.54
   0   1  -6    0.09    0.58
   0  -2   6   53.26    3.33
   0   2  -6   49.67    2.87
   0   2  -6   53.71    3.09
   0  -2   6   51.04    2.80
   0   2  -6   52.04    3.36
   0   2  -6   52.23    2.97
   0   2  -6   52.83    3.15
   0  -3   6    2.67    1.29
   0   3  -6   -0.09    1.25
   0  -3   6    1.12    0.84
   0  -3   6   -0.35    0.92
   0   3  -6    0.83    0.84
   0   3  -6   -0.74    1.07
   0   3  -6   -0.56    0.99
   0  -4   6    1.17    1.15
   0   4  -6    3.07    1.74
   0   4  -6   -0.91    1.37
   0   4  -6    1.28    1.36
   0  -4   6    2.37    1.49
   0  -4   6    3.33    1.72
   0  -5   6    0.88    1.83
   0   5  -6   -0.30    1.87
   0   5  -6    3.18    2.37
   0  -5   6    2.71    2.03
   0  -5   6    1.52    1.55
   0   5  -6   -0.46    1.78
   0   6  -6   45.95    6.17
   0  -6   6   50.47    4.07
   0  -6   6   47.07    4.83
   0   6  -6   47.30    4.92
   0   6  -6   45.16    5.01
   0   7  -6    1.81    2.67
   0  -7   6    0.82    2.72
   0   7  -6   -2.65    3.38
   0  -7   6   -0.87    2.30
   0   8  -6   15.30    5.42
   0   8  -6   17.43    4.28
   0  -8   6    8.53    4.19
   0  -8   6   13.84    3.52
   0  -9   6   12.03    4.93
   0  -9   6   -3.89    3.80
   0   9  -6   -4.36    7.68
   0   9  -6    2.54    4.82
   0  10  -6    0.34    6.76
   0  10  -6   14.64    8.38
   0 -10   6   16.29    5.73
   0  11  -6    8.81   12.00
   1  11   6    2.26   10.15
  -1  10   6    3.11    6.86
  -1  10   6   -0.02    7.63
   1  10   6    6.28    9.52
   1 -10  -6   11.98    5.46
   1  10   6   11.50    7.76
   1  10   6    0.50    7.01
   1  10   6   -3.18    8.42
  -1  -9  -6    6.52    4.30
  -1   9   6    6.20    5.51
  -1   9   6    2.41    5.57
  -1   9   6   -0.92    5.45
   1   9   6    1.42    5.66
   1   9   6   -9.53    6.19
   1   9   6   -6.35    5.17
  -1   8   6    3.45    3.76
  -1   8   6   11.67    4.45
  -1   8   6    5.31    4.57
  -1  -8  -6    2.34    4.12
  -1   8   6    4.36    4.86
  -1  -8  -6    9.46    4.02
   1   8   6   -1.69    4.40
   1  -8  -6    9.42    3.69
   1   8   6   -1.27    4.68
   1   8   6    0.34    4.13
   1   8   6    4.40    4.36
   1   8   6    9.18    4.64
   1  -8  -6    6.95    3.01
  -1   7   6    7.04    3.52
  -1  -7  -6   11.71    3.18
  -1   7   6    7.85    3.56
  -1   7   6    6.59    3.29
  -1  -7  -6    6.62    2.56
  -1   7   6   11.27    2.90
   1  -7  -6    6.40    2.36
   1   7   6    9.01    3.76
   1   7   6    6.53    3.55
  -1   6   6   25.34    2.87
  -1   6   6   19.82    3.42
  -1   6   6   24.59    4.31
  -1   6   6   22.76    3.69
  -1  -6  -6   22.65    3.33
  -1  -6  -6   19.82    3.39
   1   6   6   17.99    3.53
   1  -6  -6   24.32    3.07
   1   6   6   18.14    3.41
   1  -6  -6   21.36    3.06
   1   6   6   19.38    3.69
  -1   5   6   19.68    2.89
  -1  -5  -6   23.74    2.78
  -1   5   6   21.30    2.20
  -1   5   6   19.28    3.20
  -1   5   6   19.68    4.84
   1  -5  -6   17.67    2.56
   1   5   6   19.46    3.41
   1   5   6   20.72    3.42
   1   5   6   22.50    3.30
   1  -5  -6   16.49    2.74
  -1  -4  -6    8.26    2.25
  -1   4   6    9.18    1.43
  -1  -4  -6   10.91    1.91
  -1   4   6    7.04    1.82
  -1  -4  -6    7.90    1.63
  -1   4   6    8.15    1.84
  -1   4   6    8.57    1.96
   1  -4  -6    9.93    1.68
   1   4   6    6.89    1.91
   1  -4  -6   10.66    2.54
   1   4   6    6.43    2.15
   1  -4  -6    8.45    1.64
   1   4   6    5.53    1.80
  -1  -3  -6    5.10    1.29
  -1  -3  -6    6.75    1.93
  -1   3   6    6.28    1.52
  -1   3   6    5.17    1.54
  -1   3   6    4.30    1.30
  -1  -3  -6    5.60    1.40
   1   3   6    5.22    1.74
   1  -3  -6    6.54    1.25
   1   3   6    7.05    1.55
   1   3   6    4.95    1.48
   1  -3  -6    7.03    1.34
   1  -3  -6    6.24    1.94
  -1   2   6  126.35    6.03
  -1   2   6  122.16    6.05
  -1   2   6  127.08    6.07
  -1  -2  -6  112.91    5.91
  -1  -2  -6  121.98    5.96
   1  -2  -6  110.10    6.15
   1   2   6  126.68    6.14
   1   2   6  115.48    6.11
   1  -2  -6  128.21    6.02
   1  -2  -6  124.98    5.87
  -1  -1  -6   82.40    4.18
  -1  -1  -6   83.15    4.44
  -1   1   6   87.91    4.28
  -1   1   6   88.51    4.14
  -1   1   6   84.91    4.25
  -1  -1  -6   80.41    4.14
  -1   1   6   77.77    4.22
   1   1   6   79.27    4.27
   1   1   6   83.56    3.88
   1   1   6   83.47    4.26
   1  -1  -6   84.13    4.12
   1  -1  -6   81.47    4.39
   1  -1  -6   75.26    4.26
   1   1   6   81.54    4.30
  -1   0   6   35.41    2.10
  -1   0   6   31.07    2.26
  -1   0  -6   30.97    1.89
  -1   0  -6   30.34    2.25
  -1   0   6   31.96    2.18
  -1   0  -6   32.99    1.96
   1   0   6   33.53    2.00
   1   0  -6   31.44    2.08
   1   0  -6   31.59    2.22
   1   0  -6   30.97    2.03
   1   0   6   33.86    2.07
   1   0   6   33.49    2.27
   1   0  -6   33.72    2.24
  -1   1  -6   81.47    4.35
  -1   1  -6   83.47    3.88
  -1  -1   6   83.58    4.06
  -1   1  -6   71.83    4.00
  -1   1  -6   84.62    3.94
  -1  -1   6   85.26    4.33
  -1  -1   6   78.66    4.14
  -1  -1   6   78.24    4.12
   1   1  -6   86.29    4.13
   1   1  -6   84.34    4.16
   1  -1   6   78.95    4.47
   1   1  -6   88.90    4.42
   1   1  -6   84.88    4.35
   1  -1   6   78.66    4.19
  -1   2  -6  117.22    5.48
  -1  -2   6  117.34    5.85
  -1  -2   6  111.25    5.73
  -1   2  -6  114.25    6.14
  -1  -2   6  130.41    6.16
  -1   2  -6  118.44    5.88
  -1  -2   6  118.65    5.70
   1   2  -6  121.69    6.22
   1   2  -6  131.72    6.23
   1  -2   6  121.88    6.06
   1   2  -6  128.18    5.84
   1   2  -6  111.09    5.88
   1  -2   6  117.68    5.37
  -1  -3   6    4.99    1.21
  -1   3  -6    5.97    1.56
  -1  -3   6    5.05    1.20
  -1  -3   6    6.72    1.29
  -1  -3   6    6.85    1.81
  -1  -3   6    4.99    1.37
   1   3  -6    4.36    1.37
   1  -3   6    6.00    0.97
   1  -3   6    6.71    1.19
   1   3  -6    6.03    1.23
   1   3  -6    6.19    1.58
   1   3  -6    6.28    1.53
   1  -3   6    7.95    1.73
  -1  -4   6    8.99    1.68
  -1   4  -6    9.86    1.82
  -1  -4   6    8.40    1.64
  -1  -4   6    9.89    1.91
  -1  -4   6    8.41    1.62
  -1  -4   6    7.89    2.07
  -1   4  -6    9.15    2.04
   1  -4   6   10.64    2.38
   1   4  -6    9.73    2.02
   1  -4   6    9.25    1.56
   1  -4   6    7.92    1.10
   1   4  -6    8.97    1.87
  -1  -5   6   25.56    3.53
  -1  -5   6   22.46    2.97
  -1  -5   6   17.37    2.76
  -1   5  -6   20.75    3.35
  -1  -5   6   22.52    2.88
  -1   5  -6   24.26    3.50
   1   5  -6   19.46    3.41
   1   5  -6   18.64    2.99
   1   5  -6   22.82    3.81
   1  -5   6   15.91    2.68
   1  -5   6   20.76    2.92
  -1   6  -6   29.80    4.24
  -1  -6   6   20.35    3.51
  -1   6  -6   21.01    4.02
  -1   6  -6   18.35    3.93
  -1  -6   6   20.40    3.56
  -1  -6   6   23.04    3.22
  -1  -6   6   23.03    4.72
   1   6  -6   25.83    3.70
   1  -6   6   19.07    2.88
   1   6  -6   15.52    3.17
   1   6  -6   16.51    4.53
   1  -6   6   18.11    2.76
  -1  -7   6    3.38    2.64
  -1   7  -6    8.54    3.45
  -1   7  -6    2.64    3.03
  -1  -7   6    1.07    3.27
   1  -7   6    5.16    2.25
   1  -7   6    2.33    2.69
   1   7  -6   12.67    3.76
   1   7  -6    3.55    3.32
  -1   8  -6    3.40    4.16
  -1  -8   6    8.90    3.99
  -1  -8   6    2.64    3.36
  -1   8  -6   10.43    4.62
   1   8  -6    1.99    3.88
   1   8  -6    7.68    5.09
   1  -8   6    5.89    3.08
  -1   9  -6    1.29    5.21
  -1   9  -6    4.50    6.00
  -1  -9   6    0.40    4.00
   1   9  -6   -7.95    4.62
   1   9  -6   10.56    6.78
   1  -9   6   -6.52    4.38
   1  -9   6   -1.98    3.37
  -1 -10   6    4.22    5.51
  -1  10  -6    3.21    6.78
  -1  10  -6   -1.56    8.66
   1  10  -6  -12.66    7.90
   1  10  -6   -7.85    6.14
  -1  11  -6   13.75   11.69
   1  11  -6   -3.97   11.30
  -2 -10  -6   21.92   10.83
  -2  10   6    2.18    7.53
  -2  10   6   16.40    7.58
   2 -10  -6    2.13    6.12
   2  10   6   -2.42    7.47
   2  10   6   -1.61   10.32
   2  10   6  -14.85    8.15
   2  10   6   16.93    7.49
  -2   9   6   12.76    5.60
  -2   9   6    7.81    4.89
  -2  -9  -6   -1.09    4.61
  -2   9   6    4.78    5.72
   2   9   6   -5.26    5.22
   2   9   6    6.22    7.83
   2   9   6   12.12    5.91
  -2   8   6    9.27    5.20
  -2   8   6    6.04    4.35
  -2   8   6    5.76    4.47
  -2   8   6    5.52    4.16
  -2  -8  -6   -0.13    3.50
  -2  -8  -6    6.95    4.74
   2   8   6   -3.39    3.92
   2   8   6   -2.24    4.35
   2   8   6   -1.21    5.30
   2  -8  -6    6.35    3.01
   2   8   6    1.58    5.05
   2  -8  -6    5.76    3.20
  -2   7   6   14.43    3.64
  -2  -7  -6   14.63    3.84
  -2   7   6   19.48    3.92
  -2   7   6    7.63    3.92
  -2   7   6   17.13    3.13
   2   7   6   16.65    4.42
   2   7   6   12.40    3.66
   2  -7  -6   16.74    3.03
   2   7   6   14.66    4.17
  -2   6   6   22.43    3.60
  -2  -6  -6   22.30    3.61
  -2   6   6   18.56    3.06
  -2  -6  -6   22.82    3.42
  -2   6   6   25.02    3.70
  -2   6   6   22.55    3.51
   2   6   6   20.73    4.10
   2   6   6   19.21    3.71
   2  -6  -6   19.72    3.14
  -2  -5  -6   42.35    3.84
  -2   5   6   47.15    4.03
  -2   5   6   51.63    3.14
  -2   5   6   38.19    4.17
  -2   5   6   42.33    4.26
   2   5   6   40.59    4.32
   2  -5  -6   42.28    3.52
   2  -5  -6   46.56    3.65
   2   5   6   50.01    4.62
   2   5   6   43.62    4.62
  -2   4   6    3.88    1.07
  -2  -4  -6    3.65    2.32
  -2   4   6    5.08    1.77
  -2   4   6    4.66    1.67
  -2  -4  -6    3.80    1.47
  -2  -4  -6    2.99    1.89
  -2   4   6    2.40    1.46
   2  -4  -6    2.31    2.03
   2   4   6    4.49    2.12
   2  -4  -6    3.31    1.43
   2   4   6    5.05    1.73
   2   4   6    3.81    1.73
   2  -4  -6    5.31    1.38
  -2   3   6   30.28    1.93
  -2  -3  -6   27.91    2.86
  -2   3   6   30.51    2.62
  -2  -3  -6   27.00    3.19
  -2   3   6   29.49    2.72
  -2   3   6   26.81    2.55
  -2  -3  -6   30.17    2.59
   2  -3  -6   28.14    2.50
   2  -3  -6   30.74    2.29
   2   3   6   32.42    2.97
   2   3   6   34.27    2.90
   2  -3  -6   29.07    2.39
   2  -3  -6   31.51    3.12
   2   3   6   22.15    2.97
  -2   2   6   33.98    2.50
  -2  -2  -6   35.97    3.15
  -2   2   6   38.82    2.57
  -2   2   6   33.00    2.53
  -2  -2  -6   36.41    2.70
  -2  -2  -6   35.03    2.55
   2  -2  -6   30.48    2.00
   2  -2  -6   33.77    2.35
   2  -2  -6   33.35    2.56
   2   2   6   35.26    2.90
   2   2   6   33.85    2.70
   2   2   6   38.09    2.69
   2  -2  -6   32.28    2.82
  -2   1   6    5.91    1.15
  -2  -1  -6    6.33    1.10
  -2   1   6    5.04    1.08
  -2   1   6    6.03    1.09
  -2  -1  -6    4.85    1.24
  -2   1   6    6.86    1.33
  -2  -1  -6    5.55    1.08
   2  -1  -6    5.02    1.21
   2   1   6    4.44    1.15
   2  -1  -6    4.62    0.98
   2   1   6    6.12    1.28
   2  -1  -6    6.24    1.24
   2  -1  -6    4.48    0.81
   2   1   6    4.86    1.07
  -2   0   6   66.65    3.77
  -2   0  -6   68.17    3.37
  -2   0   6   74.05    3.82
  -2   0  -6   60.72    3.75
  -2   0  -6   69.63    3.47
  -2   0   6   66.35    3.59
  -2   0   6   67.72    3.60
   2   0  -6   64.51    3.61
   2   0  -6   71.35    3.63
   2   0  -6   70.21    3.68
   2   0  -6   66.82    3.91
   2   0   6   68.64    3.72
   2   0   6   68.74    3.58
  -2   1  -6    5.80    1.09
  -2  -1   6    5.77    1.32
  -2  -1   6    5.46    1.14
  -2   1  -6    5.26    1.21
  -2  -1   6    5.59    1.27
  -2  -1   6    5.31    1.02
  -2   1  -6    5.83    0.81
   2   1  -6    5.03    1.01
   2  -1   6    7.67    1.28
   2   1  -6    6.78    1.26
   2   1  -6    5.64    1.34
   2   1  -6    5.34    1.16
   2  -1   6    5.61    1.33
  -2  -2   6   31.82    2.44
  -2  -2   6   35.82    2.69
  -2   2  -6   26.55    2.39
  -2  -2   6   32.30    2.64
  -2  -2   6   33.01    2.74
  -2   2  -6   33.89    2.70
   2   2  -6   32.41    2.49
   2   2  -6   33.56    2.95
   2   2  -6   38.48    2.89
   2   2  -6   32.78    2.44
   2  -2   6   34.32    2.54
  -2  -3   6   31.24    2.91
  -2  -3   6   30.78    2.60
  -2  -3   6   29.74    2.80
  -2  -3   6   24.87    2.67
  -2  -3   6   29.52    2.56
  -2   3  -6   29.84    2.78
   2   3  -6   30.05    2.68
   2   3  -6   32.51    3.40
   2   3  -6   32.10    2.63
   2   3  -6   28.65    2.52
  -2  -4   6    2.46    1.56
  -2  -4   6    2.62    1.48
  -2  -4   6    4.59    2.03
  -2  -4   6    2.50    1.65
  -2  -4   6    5.44    1.94
  -2   4  -6    5.77    2.11
   2   4  -6   -1.31    2.36
   2   4  -6    0.05    1.47
   2   4  -6    3.81    1.95
  -2  -5   6   46.10    4.51
  -2  -5   6   43.35    4.04
  -2   5  -6   42.23    4.38
  -2  -5   6   47.10    4.41
  -2  -5   6   42.52    4.18
  -2  -5   6   48.45    4.11
   2   5  -6   51.14    4.60
   2   5  -6   44.40    3.93
  -2  -6   6   23.71    4.62
  -2  -6   6   20.86    3.41
  -2  -6   6   17.91    2.83
  -2  -6   6   26.20    3.98
  -2  -6   6   22.55    3.59
  -2   6  -6   25.83    3.27
  -2   6  -6   18.96    3.65
   2   6  -6   12.18    4.37
   2   6  -6   18.31    3.38
   2   6  -6   27.46    4.70
  -2  -7   6   13.25    3.62
  -2   7  -6   12.04    3.83
  -2  -7   6   16.26    2.90
  -2  -7   6   11.74    3.03
  -2   7  -6   16.45    3.75
   2   7  -6   13.24    3.83
   2   7  -6    8.38    3.28
  -2   8  -6    9.61    4.25
  -2  -8   6    0.07    3.41
  -2  -8   6    0.99    4.56
  -2   8  -6    6.64    4.17
  -2  -8   6    3.22    3.94
   2   8  -6    1.80    3.65
  -2   9  -6   10.44    5.95
  -2   9  -6    7.68    5.38
  -2  -9   6   -1.47    4.58
   2   9  -6    1.46    4.80
   2   9  -6    1.72    6.25
  -2 -10   6    7.09    6.16
  -2  10  -6    5.36    8.07
  -2  10  -6    3.29    7.07
   2  10  -6    2.33    6.91
   2  10  -6    3.53    8.55
  -3 -10  -6    1.92   10.54
  -3  10   6    1.68    7.02
  -3  10   6   -1.64    8.03
   3  10   6   13.02   11.08
   3  10   6    0.54    7.50
   3  10   6    5.37    8.81
  -3   9   6    6.93    5.73
  -3   9   6    6.69    6.38
  -3   9   6    8.21    5.60
   3  -9  -6    2.52    4.03
   3   9   6    8.16    5.72
   3   9   6   15.47    8.59
   3   9   6    3.85    6.40
  -3   8   6   -1.63    5.98
  -3   8   6    0.76    3.87
  -3  -8  -6   -4.78    4.59
  -3  -8  -6   -1.35    3.92
  -3   8   6   -0.75    4.69
   3   8   6   -1.50    4.02
   3   8   6   14.36    5.16
   3  -8  -6    3.01    3.07
   3  -8  -6    2.38    2.97
   3   8   6   -9.83    5.57
   3   8   6   -6.80    5.14
  -3   7   6    0.01    2.92
  -3   7   6    7.00    3.80
  -3  -7  -6    8.89    3.96
  -3  -7  -6    1.24    3.10
  -3   7   6    1.20    2.72
   3   7   6   -4.42    3.69
   3   7   6   -2.31    3.12
   3   7   6    0.28    3.90
   3  -7  -6    0.13    2.34
   3  -7  -6   -1.95    2.32
  -3   6   6   -0.92    2.25
  -3   6   6   -0.75    2.75
  -3   6   6    1.50    2.17
  -3  -6  -6   -0.57    2.83
  -3  -6  -6    2.46    2.91
   3   6   6    5.34    3.26
   3   6   6    3.91    3.27
   3   6   6    0.52    2.93
   3   6   6    1.13    2.55
  -3   5   6    1.78    1.51
  -3   5   6    1.13    2.13
  -3   5   6    1.27    1.81
  -3   5   6   -0.95    1.88
  -3  -5  -6    0.59    1.87
   3   5   6    1.45    2.55
   3   5   6    3.79    2.60
   3  -5  -6    3.18    1.73
   3   5   6   -1.88    1.76
   3  -5  -6    1.26    1.61
   3   5   6   -1.61    2.39
  -3   4   6    0.39    1.51
  -3  -4  -6   -0.25    1.89
  -3   4   6   -2.30    1.47
  -3   4   6    0.60    1.39
  -3   4   6   -0.54    1.15
   3   4   6    0.12    2.20
   3   4   6    0.26    1.85
   3  -4  -6    1.61    1.47
   3   4   6   -1.15    1.84
  -3   3   6    1.85    0.99
  -3  -3  -6   -0.10    1.34
  -3  -3  -6    1.28    1.66
  -3   3   6    2.48    1.27
  -3   3   6    2.79    1.26
  -3  -3  -6    1.68    1.84
  -3   3   6    2.30    1.37
   3  -3  -6    2.25    1.19
   3   3   6    2.03    1.58
   3   3   6    3.09    1.76
   3  -3  -6    0.57    1.20
   3  -3  -6    2.84    1.04
   3   3   6    1.95    1.56
   3  -3  -6    1.87    1.65
  -3   2   6   12.30    1.71
  -3   2   6   11.30    1.83
  -3   2   6   11.90    1.75
  -3  -2  -6   10.61    2.13
  -3  -2  -6   12.91    2.03
  -3  -2  -6   11.68    1.75
   3   2   6   13.41    2.15
   3  -2  -6   13.54    1.64
   3   2   6   10.91    1.96
   3  -2  -6   10.81    1.91
   3  -2  -6   14.41    2.10
   3  -2  -6    9.86    1.38
   3   2   6   12.48    1.98
  -3   1   6  156.23    6.71
  -3   1   6  141.01    6.65
  -3  -1  -6  135.21    6.89
  -3  -1  -6  141.22    6.64
  -3  -1  -6  137.71    6.60
  -3   1   6  140.19    6.54
  -3   1   6  137.96    6.84
   3   1   6  144.40    6.68
   3  -1  -6  129.68    6.55
   3   1   6  132.62    6.55
   3  -1  -6  134.11    6.29
   3  -1  -6  133.02    6.99
   3  -1  -6  135.19    6.61
   3   1   6  129.22    6.70
  -3   0  -6   73.10    3.70
  -3   0  -6   68.65    3.60
  -3   0   6   72.75    3.97
  -3   0   6   68.03    4.13
  -3   0   6   69.45    3.84
  -3   0  -6   70.44    4.00
  -3   0   6   72.76    3.89
   3   0   6   68.12    3.86
   3   0   6   70.87    3.70
   3   0  -6   68.07    4.30
   3   0  -6   74.09    3.84
   3   0  -6   71.48    3.85
  -3  -1   6  131.48    6.50
  -3   1  -6  130.12    6.42
  -3   1  -6  132.13    5.91
  -3  -1   6  129.00    6.35
  -3  -1   6  125.68    6.71
  -3  -1   6  136.60    6.53
   3   1  -6  134.73    6.40
   3  -1   6  128.98    6.55
   3   1  -6  133.17    6.39
   3   1  -6  131.36    6.43
   3   1  -6  129.41    7.00
  -3   2  -6   12.18    1.89
  -3  -2   6   12.49    2.04
  -3  -2   6   12.21    1.80
  -3  -2   6   12.10    2.07
  -3   2  -6   10.33    1.67
  -3  -2   6   13.67    1.98
  -3   2  -6   11.30    1.91
   3   2  -6   11.48    2.10
   3   2  -6   10.13    1.77
   3   2  -6   11.13    1.88
   3   2  -6   11.59    1.93
  -3   3  -6    3.08    1.42
  -3  -3   6    3.92    1.85
  -3  -3   6    3.03    1.42
  -3   3  -6    3.30    1.43
  -3  -3   6    2.85    1.54
  -3  -3   6    3.92    1.50
  -3  -3   6    3.15    1.64
  -3   3  -6    4.38    1.60
   3   3  -6    1.92    1.52
   3   3  -6    4.10    2.40
   3   3  -6    3.11    1.43
  -3  -4   6    0.90    1.52
  -3   4  -6    0.37    1.65
  -3  -4   6   -1.92    2.46
  -3  -4   6    1.00    1.80
  -3  -4   6   -0.01    1.86
  -3   4  -6    0.21    1.44
   3   4  -6    1.05    1.55
   3   4  -6   -2.65    2.55
   3   4  -6   -2.53    1.57
  -3  -5   6   -0.36    2.32
  -3  -5   6    0.67    2.25
  -3   5  -6    2.24    2.20
  -3  -5   6    0.41    1.96
  -3  -5   6   -0.55    2.07
  -3   5  -6    3.23    2.30
  -3  -5   6    1.00    2.34
   3   5  -6    0.49    3.45
   3   5  -6    2.06    2.44
   3   5  -6    1.18    1.98
  -3  -6   6    1.41    2.55
  -3  -6   6    3.75    3.12
  -3   6  -6    5.11    2.91
  -3   6  -6    1.83    2.63
  -3  -6   6    5.21    2.84
  -3  -6   6    1.37    3.11
   3   6  -6   -1.78    2.92
   3   6  -6   -1.78    2.17
  -3   7  -6    2.02    3.60
  -3  -7   6   -3.52    3.38
  -3  -7   6   -3.15    3.89
  -3  -7   6   -3.19    2.79
  -3  -7   6    0.59    2.80
  -3   7  -6   -2.75    3.48
   3   7  -6   -2.76    3.75
   3   7  -6   -1.13    3.74
  -3  -8   6   -0.87    4.52
  -3  -8   6    1.48    3.64
  -3  -8   6    5.74    3.65
  -3  -8   6   -2.54    4.20
  -3   8  -6   -3.72    4.21
   3   8  -6    6.30    5.07
   3   8  -6   -2.13    3.90
  -3  -9   6   -0.19    4.85
  -3  -9   6   -0.67    4.45
  -3   9  -6    3.03    6.02
  -3  -9   6    1.68    5.97
  -3   9  -6    6.75    5.94
   3   9  -6    1.87    5.47
   3   9  -6    4.08    7.40
  -3  10  -6   13.13    8.75
  -3 -10   6   -3.50    6.36
   3  10  -6   -4.77    6.82
   3  10  -6    0.49    9.66
  -4  10   6    9.33    7.73
  -4  10   6   22.56    8.61
  -4 -10  -6  -11.85   11.00
   4  10   6   24.85   12.69
   4  10   6    2.51    8.10
   4  10   6    1.63    9.25
  -4   9   6    9.29   10.61
  -4   9   6   20.41    7.54
  -4   9   6    6.28    5.46
   4   9   6   15.15    7.36
   4   9   6   15.12    8.78
  -4   8   6   18.40    4.40
  -4   8   6   24.31    5.74
  -4  -8  -6   18.37    5.13
  -4  -8  -6   21.08    6.53
  -4   8   6   20.23    4.92
  -4   8   6   26.68    5.95
   4   8   6   23.59    4.71
   4   8   6   23.14    7.37
   4   8   6   22.56    5.81
   4   8   6   22.52    6.75
  -4   7   6    4.10    3.30
  -4   7   6    1.85    3.91
  -4  -7  -6    3.44    4.74
  -4  -7  -6    3.68    3.41
  -4   7   6    3.03    4.00
   4   7   6    4.08    5.26
   4  -7  -6   10.71    5.09
   4   7   6   12.59    4.27
   4  -7  -6    2.25    2.56
   4   7   6    2.10    3.43
   4   7   6    2.81    4.28
  -4   6   6   32.46    5.22
  -4   6   6   34.11    3.49
  -4   6   6   30.60    4.90
  -4  -6  -6   43.27    5.24
  -4   6   6   30.07    4.31
   4   6   6   37.12    5.34
   4   6   6   35.27    5.91
   4   6   6   29.71    5.16
   4  -6  -6   33.20    4.05
  -4  -5  -6    3.38    2.38
  -4   5   6    4.35    1.79
  -4   5   6    1.87    2.23
  -4  -5  -6    7.57    3.02
  -4   5   6    6.39    2.02
  -4   5   6    6.21    2.43
   4   5   6    4.87    3.11
   4   5   6    2.82    2.65
   4  -5  -6    7.12    1.81
   4  -5  -6    5.08    1.98
   4   5   6    3.43    2.90
  -4   4   6    0.43    1.68
  -4   4   6   -1.25    1.31
  -4   4   6    0.83    1.67
  -4   4   6    0.01    1.60
  -4  -4  -6    1.55    1.70
  -4  -4  -6    1.91    2.17
   4   4   6   -0.15    2.23
   4  -4  -6    2.94    1.37
   4  -4  -6   -1.23    1.36
   4   4   6    2.50    2.37
   4  -4  -6    1.52    1.98
  -4  -3  -6   25.73    3.65
  -4   3   6   27.45    2.73
  -4  -3  -6   27.30    3.02
  -4  -3  -6   34.75    3.53
  -4   3   6   25.09    2.78
  -4   3   6   27.86    2.60
  -4   3   6   29.57    2.22
   4  -3  -6   30.91    3.07
   4   3   6   30.19    3.01
   4   3   6   32.43    3.53
   4  -3  -6   26.98    2.42
   4   3   6   28.68    3.46
   4  -3  -6   22.19    3.05
   4  -3  -6   24.90    2.39
  -4   2   6   15.73    2.16
  -4  -2  -6   13.96    2.31
  -4  -2  -6   18.42    2.71
  -4  -2  -6   16.40    2.60
  -4   2   6   14.40    2.19
  -4   2   6   16.44    1.82
   4  -2  -6   16.78    2.48
   4  -2  -6   15.29    1.83
   4   2   6   16.61    2.72
   4   2   6   17.83    2.35
   4   2   6   17.38    2.66
   4  -2  -6   15.63    1.83
   4  -2  -6   14.94    2.56
  -4  -1  -6    2.77    1.31
  -4   1   6    4.27    1.01
  -4  -1  -6    4.05    1.27
  -4   1   6    3.44    1.34
  -4   1   6    4.66    1.30
  -4   1   6    2.69    1.20
  -4  -1  -6    4.00    1.52
   4  -1  -6    4.63    1.64
   4  -1  -6    4.68    1.11
   4  -1  -6    2.36    1.30
   4  -1  -6    2.56    1.12
   4   1   6    1.98    1.00
   4   1   6    2.49    1.41
  -4   0   6   14.21    1.86
  -4   0  -6   18.34    2.07
  -4   0   6   12.65    1.86
  -4   0   6   13.36    2.20
   4   0  -6   14.63    1.77
   4   0  -6   18.02    1.84
   4   0   6   16.07    1.91
   4   0  -6   14.88    2.43
  -4   1  -6    2.70    0.80
  -4  -1   6    3.41    1.44
  -4  -1   6    2.41    1.34
  -4   1  -6    4.68    1.19
  -4  -1   6    2.12    1.08
  -4  -1   6    2.80    1.36
   4   1  -6    2.69    1.14
   4   1  -6    3.87    1.39
   4   1  -6    4.10    1.67
   4   1  -6    3.74    1.35
  -4  -2   6   16.37    2.60
  -4  -2   6   15.89    2.29
  -4   2  -6   13.89    1.95
  -4  -2   6   15.86    2.59
  -4  -2   6   14.31    2.21
  -4   2  -6   16.72    2.08
  -4   2  -6   15.15    1.69
  -4  -2   6   17.58    2.56
   4   2  -6   16.93    2.97
   4   2  -6   16.70    2.14
   4   2  -6   14.10    2.21
   4   2  -6   11.49    2.24
  -4  -3   6   32.10    3.21
  -4  -3   6   31.52    3.13
  -4  -3   6   34.02    3.39
  -4  -3   6   30.22    3.66
  -4  -3   6   29.55    3.59
  -4   3  -6   24.65    2.91
  -4   3  -6   34.44    2.60
  -4   3  -6   24.98    2.71
   4   3  -6   26.04    4.08
   4   3  -6   30.38    2.84
  -4  -4   6   -3.40    2.20
  -4  -4   6    2.29    2.00
  -4   4  -6    1.81    1.90
  -4  -4   6   -2.14    2.10
  -4   4  -6   -0.95    2.22
  -4   4  -6    0.96    1.75
  -4  -4   6    0.34    1.79
   4   4  -6   -0.50    1.77
   4   4  -6    1.69    1.68
   4   4  -6   -2.96    2.85
  -4  -5   6    5.57    2.42
  -4   5  -6    1.73    2.37
  -4  -5   6    0.14    2.62
  -4   5  -6    3.82    2.43
  -4  -5   6    7.04    2.81
  -4  -5   6    7.21    2.62
  -4  -5   6    4.86    2.97
   4   5  -6    6.02    2.91
   4   5  -6    7.64    4.05
   4   5  -6    6.40    2.37
  -4  -6   6   38.86    5.32
  -4  -6   6   31.22    5.54
  -4   6  -6   24.31    4.46
  -4  -6   6   39.04    5.06
  -4  -6   6   30.62    4.91
  -4   6  -6   26.29    4.59
   4   6  -6   37.51    5.69
   4   6  -6   28.57    4.57
  -4  -7   6    9.45    4.13
  -4   7  -6    0.41    3.85
  -4  -7   6    5.61    3.51
  -4  -7   6    8.05    4.72
  -4  -7   6    8.04    3.41
   4   7  -6    3.88    4.64
   4   7  -6    4.34    3.51
  -4  -8   6   13.42    4.53
  -4  -8   6   11.94    5.78
  -4   8  -6   22.71    5.57
   4   8  -6   15.33    4.71
   4   8  -6   25.68    6.46
  -4  -9   6    9.75    5.58
  -4  -9   6   10.07    6.38
  -4  -9   6   -3.72    5.76
  -4   9  -6    9.18    6.43
   4   9  -6    9.11    7.60
   4   9  -6    8.90    5.99
  -4 -10   6    3.96    6.80
  -4 -10   6    3.43    7.80
  -4  10  -6    4.20    8.44
   4  10  -6   -1.67   10.15
   4  10  -6    4.36    6.86
  -5  10   6   10.13    7.61
  -5 -10  -6   -8.49   12.35
  -5  10   6   25.83    9.96
   5  10   6   -9.21    8.12
   5  10   6   14.94   15.97
   5  10   6   -6.84   10.17
  -5   9   6    0.14    8.15
  -5   9   6    9.29    6.14
  -5  -9  -6    7.30    9.73
  -5   9   6    3.65    7.41
   5   9   6    6.92    5.94
   5   9   6   12.13   10.58
  -5   8   6    2.99    4.78
  -5   8   6    0.74    5.53
  -5   8   6    2.53    4.12
  -5   8   6    1.27    4.45
  -5  -8  -6    2.65    9.40
   5   8   6   -2.09    4.48
   5   8   6    0.69    7.12
   5   8   6    8.57    6.09
  -5   7   6   -0.53    3.18
  -5  -7  -6   -0.91    5.28
  -5   7   6    3.59    3.68
  -5  -7  -6    3.29    3.73
  -5   7   6    0.49    4.06
   5   7   6    4.29    7.01
   5  -7  -6    6.78    2.99
   5   7   6    4.65    5.79
   5   7   6    0.74    4.48
  -5   6   6   13.35    2.84
  -5   6   6   21.72    3.54
  -5  -6  -6   13.09    4.66
  -5   6   6   18.65    4.80
  -5   6   6    9.54    3.54
   5   6   6   13.33    4.35
   5  -6  -6   20.40    3.46
   5   6   6   24.50    5.19
  -5   5   6   45.80    4.37
  -5   5   6   47.55    4.71
  -5   5   6   45.10    3.76
  -5  -5  -6   60.87    6.15
  -5  -5  -6   46.27    4.92
  -5   5   6   52.23    4.42
   5  -5  -6   46.47    4.60
   5   5   6   46.54    5.97
   5  -5  -6   42.15    3.87
   5   5   6   58.33    6.48
   5   5   6   54.29    5.20
  -5   4   6    8.78    2.09
  -5  -4  -6    5.76    2.67
  -5   4   6    5.55    1.90
  -5   4   6    7.44    1.69
  -5  -4  -6    4.94    2.21
  -5   4   6    5.47    1.82
   5  -4  -6    5.63    1.57
   5   4   6    2.73    2.20
   5  -4  -6    3.57    1.91
   5   4   6   10.05    3.30
   5   4   6    8.06    2.88
   5  -4  -6    4.59    2.23
  -5  -3  -6   43.00    4.23
  -5   3   6   43.10    3.14
  -5  -3  -6   40.60    4.52
  -5   3   6   41.73    3.70
  -5   3   6   45.14    3.55
   5   3   6   40.48    4.17
   5  -3  -6   41.17    3.25
   5   3   6   39.83    3.74
   5   3   6   48.42    4.48
   5  -3  -6   45.25    3.97
   5  -3  -6   41.91    3.14
  -5  -2  -6   17.70    2.52
  -5   2   6   12.95    1.84
  -5  -2  -6   18.00    2.60
  -5   2   6   15.39    2.40
  -5   2   6   14.71    2.24
  -5  -2  -6   16.70    2.45
   5   2   6   12.69    2.39
   5  -2  -6   18.75    3.05
   5  -2  -6   14.68    2.40
   5  -2  -6   12.14    2.03
   5   2   6   12.42    2.41
  -5  -1  -6    1.96    1.43
  -5   1   6    4.48    1.35
  -5   1   6    3.76    1.41
  -5   1   6    3.07    1.57
  -5  -1  -6    7.19    1.59
  -5   1   6    4.34    1.24
  -5  -1  -6    4.19    1.70
   5   1   6    4.03    1.56
   5  -1  -6    6.18    1.59
   5  -1  -6    3.05    1.72
   5   1   6    6.32    1.38
   5  -1  -6    4.58    1.33
   5  -1  -6    2.77    1.23
  -5   0   6   37.39    2.88
  -5   0  -6   39.25    3.00
  -5   0   6   36.31    2.85
  -5   0  -6   40.22    2.86
  -5   0   6   35.71    3.45
   5   0  -6   35.84    2.52
   5   0  -6   37.01    3.81
   5   0   6   36.99    2.70
   5   0  -6   39.35    2.98
   5   0  -6   37.57    2.67
   5   0   6   35.52    2.50
  -5   1  -6    2.74    1.03
  -5  -1   6    5.09    1.82
  -5   1  -6    3.55    1.33
  -5  -1   6    2.66    1.56
  -5  -1   6    3.18    1.87
  -5  -1   6    4.53    1.33
   5   1  -6    1.87    2.27
   5   1  -6    5.10    1.36
   5   1  -6    4.74    1.74
   5   1  -6    2.25    1.42
   5  -1   6    3.95    1.56
  -5   2  -6   14.64    2.17
  -5  -2   6   16.74    2.57
  -5  -2   6   15.74    2.92
  -5   2  -6   16.56    2.16
  -5  -2   6   14.17    2.47
  -5   2  -6   13.27    1.74
  -5  -2   6   13.40    2.19
   5   2  -6   16.94    2.61
   5   2  -6   14.02    2.42
   5   2  -6   13.58    3.29
   5   2  -6   16.60    2.56
  -5   3  -6   44.89    3.55
  -5  -3   6   42.90    4.70
  -5   3  -6   44.44    3.44
  -5  -3   6   46.62    4.27
  -5   3  -6   46.38    3.23
  -5  -3   6   34.40    4.22
  -5  -3   6   50.43    4.36
  -5  -3   6   43.73    3.92
   5   3  -6   55.39    6.00
   5   3  -6   47.12    3.82
  -5   4  -6    7.94    2.22
  -5   4  -6    4.60    2.16
  -5  -4   6    8.48    2.85
  -5  -4   6    3.79    3.00
  -5   4  -6    4.14    2.00
  -5  -4   6    3.31    2.03
  -5  -4   6    7.16    2.74
  -5  -4   6    5.50    2.62
   5   4  -6    2.17    3.63
   5   4  -6    5.19    2.25
   5   4  -6    4.89    2.16
  -5  -5   6   62.84    6.16
  -5  -5   6   47.29    5.77
  -5   5  -6   56.44    4.34
  -5   5  -6   45.08    4.69
  -5  -5   6   43.18    6.25
  -5  -5   6   50.66    5.58
  -5  -5   6   43.24    5.20
   5   5  -6   53.64    5.53
   5   5  -6   42.19    4.67
  -5   6  -6   19.01    4.11
  -5  -6   6   10.51    4.46
  -5  -6   6    7.37    3.77
  -5   6  -6   22.85    3.84
  -5  -6   6   23.24    4.69
  -5  -6   6   11.36    3.58
  -5  -6   6   18.48    4.38
   5   6  -6   16.54    3.53
  -5   7  -6    2.21    4.32
  -5  -7   6    0.50    3.71
  -5  -7   6    5.17    4.67
  -5  -7   6    1.55    4.29
  -5   7  -6    3.79    3.70
  -5  -7   6    0.91    4.87
  -5  -7   6    5.44    5.34
   5   7  -6    4.98    3.98
   5   7  -6    2.39    4.59
  -5   8  -6    6.81    4.88
  -5  -8   6    5.26    5.20
  -5  -8   6    8.18    6.20
   5   8  -6    9.82    6.86
   5   8  -6   10.54    4.94
  -5   9  -6    0.92    6.37
  -5  -9   6    0.27    6.90
  -5  -9   6    8.76    7.11
  -5  -9   6   -8.30    5.82
   5   9  -6   17.06    8.69
   5   9  -6    3.10    5.99
  -5  10  -6   -0.25    8.26
  -5 -10   6   -1.62    7.65
  -5 -10   6   18.12    9.23
   5  10  -6    9.70   11.96
   5  10  -6   12.41    8.28
  -6   9   6  -15.69    8.07
  -6   9   6    5.65    6.01
  -6   9   6    9.34    7.94
  -6  -9  -6   -9.85    9.91
   6   9   6   -8.52   11.90
   6   9   6   -1.09    5.83
   6   9   6    2.04    8.32
  -6   8   6    6.04    5.39
  -6  -8  -6    5.70    7.67
  -6   8   6   -4.13    4.70
  -6   8   6   -1.81    6.33
   6   8   6   -3.65    8.45
   6   8   6  -11.05    6.60
  -6   7   6    6.19    4.06
  -6   7   6   -0.16    4.54
  -6  -7  -6   22.82    6.66
  -6   7   6    6.52    3.73
  -6   7   6    8.90    3.71
   6   7   6   -7.54    5.62
   6   7   6   -6.04    6.31
  -6   6   6   24.75    4.41
  -6   6   6   22.89    4.19
  -6   6   6   34.35    4.37
  -6   6   6   32.07    4.96
  -6  -6  -6   26.29    5.53
  -6  -6  -6   29.91    4.68
   6   6   6   25.51    5.49
   6  -6  -6   28.97    4.17
  -6  -5  -6    2.08    2.96
  -6   5   6    6.27    2.94
  -6   5   6    7.09    2.50
  -6   5   6    5.73    2.35
  -6   5   6    7.48    2.29
  -6  -5  -6   10.96    3.76
   6   5   6    2.68    3.61
   6   5   6   12.07    4.07
   6  -5  -6    6.46    3.41
   6   5   6    9.73    3.38
  -6   4   6   18.07    2.95
  -6   4   6   19.26    2.97
  -6   4   6   18.84    2.89
  -6  -4  -6   18.72    3.52
  -6   4   6   18.12    2.62
  -6  -4  -6    9.60    3.03
   6   4   6   16.71    3.01
   6  -4  -6   18.79    3.17
   6  -4  -6   18.17    2.48
   6  -4  -6   19.55    3.13
   6   4   6   16.15    3.57
   6   4   6   16.23    3.91
  -6   3   6    6.12    2.06
  -6  -3  -6    3.25    2.30
  -6  -3  -6    1.39    2.33
  -6   3   6    2.18    1.35
  -6   3   6    3.37    1.60
   6  -3  -6    0.71    2.07
   6   3   6    4.80    2.03
   6   3   6    2.98    2.50
   6  -3  -6    3.01    2.07
   6   3   6    1.64    2.59
   6  -3  -6    2.28    1.54
  -6  -2  -6  132.92    7.77
  -6   2   6  147.34    7.94
  -6   2   6  142.15    7.43
  -6   2   6  125.75    7.23
  -6  -2  -6  143.18    7.78
  -6  -2  -6  141.03    7.74
  -6   2   6  152.37    6.86
   6   2   6  135.83    7.75
   6   2   6  151.37    7.28
   6  -2  -6  153.19    8.15
   6  -2  -6  142.88    7.13
   6  -2  -6  138.05    7.22
  -6  -1  -6    4.54    2.18
  -6   1   6    5.36    1.61
  -6  -1  -6    7.66    1.85
  -6  -1  -6    6.54    1.92
  -6   1   6    6.72    1.86
  -6   1   6    6.45    2.18
   6   1   6    5.42    1.52
   6   1   6    6.26    1.92
   6  -1  -6    8.08    2.31
   6   1   6    7.98    1.56
   6  -1  -6    5.59    1.62
   6  -1  -6    5.99    1.65
  -6   0   6    0.60    1.54
  -6   0   6    0.48    1.15
  -6   0  -6    3.62    1.57
  -6   0   6    0.78    1.82
   6   0  -6   -1.73    2.30
   6   0  -6   -0.26    1.18
   6   0   6    1.77    1.28
   6   0   6    0.52    1.53
   6   0  -6    1.40    1.40
   6   0  -6    1.97    1.29
  -6   1  -6    7.89    1.76
  -6   1  -6    5.00    1.42
  -6  -1   6    7.95    1.77
  -6  -1   6    6.91    2.54
  -6  -1   6    6.13    2.19
  -6  -1   6    6.41    2.10
   6   1  -6    6.97    1.63
   6  -1   6    6.37    2.04
   6   1  -6    6.05    1.81
  -6  -2   6  140.52    8.58
  -6  -2   6  143.42    8.13
  -6   2  -6  140.76    6.81
  -6  -2   6  144.91    7.85
  -6  -2   6  141.67    7.61
  -6   2  -6  141.08    6.98
   6   2  -6  140.37    7.80
   6   2  -6  140.81    9.43
   6   2  -6  139.56    7.38
   6   2  -6  137.95    7.17
  -6   3  -6    5.42    2.13
  -6  -3   6    1.88    2.85
  -6   3  -6    4.16    1.65
  -6   3  -6    0.83    1.71
  -6  -3   6    2.57    2.55
  -6  -3   6    7.03    2.60
  -6  -3   6    2.20    1.89
  -6  -3   6    0.58    2.50
   6   3  -6    1.98    2.12
   6   3  -6    6.14    3.79
  -6  -4   6   16.98    3.81
  -6  -4   6   14.94    3.33
  -6   4  -6   17.45    2.58
  -6   4  -6   18.67    2.77
  -6  -4   6   17.60    3.83
  -6  -4   6   14.45    3.19
  -6  -4   6   14.60    3.99
  -6   4  -6   14.07    3.01
   6   4  -6   16.54    4.95
   6   4  -6   22.53    3.59
  -6  -5   6   11.87    3.98
  -6  -5   6   10.34    4.09
  -6  -5   6   19.82    4.25
  -6   5  -6    8.25    2.86
  -6   5  -6    8.13    2.79
  -6   5  -6    9.27    3.25
  -6  -5   6    8.69    3.07
   6   5  -6    7.79    3.68
   6   5  -6    9.48    3.20
  -6  -6   6   28.55    4.79
  -6  -6   6   19.32    5.06
  -6   6  -6   28.29    4.37
  -6   6  -6   22.82    4.17
  -6  -6   6   21.72    5.65
  -6  -6   6   30.36    5.70
  -6   6  -6   28.16    5.19
  -6  -6   6   24.15    6.23
   6   6  -6   33.73    5.02
  -6  -7   6   10.05    5.74
  -6   7  -6    8.12    5.27
  -6  -7   6    6.60    5.37
  -6  -7   6    3.89    4.25
  -6  -7   6   20.65    6.48
   6   7  -6    2.34    5.09
   6   7  -6    7.07    4.20
  -6  -8   6    6.51    6.58
  -6  -8   6    1.49    5.69
  -6   8  -6    0.98    5.09
   6   8  -6    7.72    5.29
   6   8  -6    0.45    7.15
  -6  -9   6    8.35    7.10
  -6   9  -6   11.28    6.86
  -6  -9   6    2.25    7.63
   6   9  -6    8.08    6.70
  -7   9   6   11.56    9.45
  -7  -9  -6   31.46   14.09
  -7   9   6   10.41    7.70
   7   9   6    4.23   11.84
   7   9   6   24.45   10.03
  -7  -8  -6   14.66    8.71
  -7   8   6    1.26    5.24
  -7   8   6    5.84    5.10
  -7   8   6   -9.43    6.99
   7   8   6  -14.04    7.58
   7   8   6   -7.44    8.45
  -7   7   6    1.76    5.20
  -7   7   6    3.81    3.96
  -7   7   6   -5.56    3.74
   7   7   6    7.44    5.87
   7   7   6   -9.19    6.21
   7   7   6   -9.56    6.30
  -7  -6  -6    6.05    5.35
  -7   6   6    4.15    3.82
  -7   6   6    4.15    3.35
  -7  -6  -6    0.65    4.74
  -7   6   6    8.20    3.27
   7   6   6   -7.83    4.86
   7   6   6   -0.82    4.46
   7   6   6    5.22    5.26
   7  -6  -6    7.10    2.87
  -7   5   6   42.13    5.32
  -7   5   6   42.17    4.16
  -7   5   6   42.48    4.16
  -7   5   6   45.31    4.92
  -7  -5  -6   58.08    7.43
  -7  -5  -6   38.04    5.27
   7   5   6   43.01    5.88
   7   5   6   35.35    5.60
   7   5   6   42.12    5.71
   7  -5  -6   43.59    4.41
   7  -5  -6   34.74    5.91
  -7  -4  -6   17.67    4.03
  -7   4   6   19.31    3.09
  -7   4   6   13.11    2.90
  -7  -4  -6   10.75    3.31
   7  -4  -6   12.39    3.48
   7   4   6   19.73    3.42
   7   4   6   12.66    3.86
   7   4   6    9.90    3.73
  -7   3   6   41.40    4.11
  -7   3   6   42.34    4.10
  -7  -3  -6   40.38    5.09
  -7  -3  -6   38.23    5.23
  -7   3   6   44.58    4.40
   7   3   6   45.23    4.07
   7  -3  -6   33.40    3.66
   7  -3  -6   51.62    5.12
   7  -3  -6   42.00    4.14
   7   3   6   42.98    4.65
   7   3   6   46.10    5.02
  -7  -2  -6   58.13    5.13
  -7   2   6   64.20    5.18
  -7   2   6   60.77    4.50
  -7   2   6   62.38    4.56
  -7  -2  -6   59.27    5.25
   7   2   6   60.42    3.94
   7  -2  -6   68.91    5.75
   7  -2  -6   65.74    4.38
   7  -2  -6   69.28    4.33
   7   2   6   57.43    4.16
   7   2   6   59.00    4.96
  -7  -1  -6   11.14    2.65
  -7  -1  -6   14.67    2.63
  -7  -1  -6   17.25    2.85
  -7   1   6   16.06    2.58
  -7   1   6   16.22    2.35
  -7   1   6   11.02    2.99
   7  -1  -6   13.52    2.62
   7  -1  -6   14.03    2.30
   7   1   6    9.75    2.32
   7   1   6   13.80    2.44
   7  -1  -6   19.36    3.69
   7   1   6   10.03    2.01
  -7   0   6   15.87    2.85
  -7   0   6   13.49    3.14
  -7   0  -6   14.01    2.50
  -7   0   6   15.20    2.35
  -7   0   6   13.37    2.62
   7   0   6   15.37    2.47
   7   0  -6   10.84    4.71
   7   0  -6   15.32    2.28
   7   0   6   14.85    2.56
  -7  -1   6   10.14    3.22
  -7  -1   6   14.53    2.78
  -7  -1   6   12.48    3.01
  -7  -1   6   12.44    4.63
  -7  -1   6   16.76    2.77
  -7   1  -6   11.74    2.29
   7  -1   6   18.70    3.10
   7   1  -6   13.97    2.55
   7   1  -6   13.40    2.09
   7   1  -6   13.80    2.27
   7   1  -6    9.26    3.65
  -7  -2   6   61.67    5.15
  -7   2  -6   56.98    3.98
  -7  -2   6   62.81    4.82
  -7  -2   6   61.68    5.76
  -7  -2   6   60.93    6.17
  -7   2  -6   59.78    3.89
   7   2  -6   64.77    7.33
   7  -2   6   62.35    4.58
   7   2  -6   59.46    4.61
   7   2  -6   66.61    4.16
  -7   3  -6   43.25    3.59
  -7   3  -6   42.89    4.05
  -7   3  -6   45.21    3.52
  -7  -3   6   47.17    5.61
  -7  -3   6   41.30    5.39
  -7  -3   6   36.30    5.85
  -7  -3   6   44.32    4.79
   7   3  -6   35.57    4.50
   7   3  -6   49.30    4.43
   7   3  -6   51.34    7.62
  -7  -4   6   19.18    3.52
  -7  -4   6   15.65    4.11
  -7  -4   6   15.72    4.99
  -7   4  -6   16.17    2.56
  -7  -4   6   16.01    3.93
  -7   4  -6   12.10    2.59
  -7   4  -6   12.00    3.06
   7   4  -6   14.79    3.49
  -7  -5   6   45.13    6.26
  -7  -5   6   38.91    6.22
  -7   5  -6   37.69    4.60
  -7   5  -6   37.35    4.41
  -7   5  -6   30.83    5.41
  -7  -5   6   45.91    6.53
  -7  -5   6   43.26    7.25
   7   5  -6   52.40    5.79
  -7   6  -6    0.73    3.05
  -7  -6   6    8.16    5.60
  -7   6  -6   -7.99    3.80
  -7  -6   6   -0.06    4.06
  -7  -6   6    1.70    5.61
  -7   6  -6   -6.45    3.66
  -7  -6   6    0.88    5.53
  -7  -6   6    2.60    5.48
   7   6  -6    7.79    4.47
  -7  -7   6   -0.16    9.35
  -7  -7   6    4.33    6.07
  -7   7  -6   -4.89    3.81
  -7  -7   6   -3.98    4.71
   7   7  -6   10.75    6.32
  -7   8  -6   -8.51    5.16
  -7   8  -6   -1.82    5.69
  -7  -8   6   11.09    7.99
  -7  -8   6    4.48    5.76
   7   8  -6    9.97    8.01
   7   8  -6    9.37    6.05
  -7  -9   6   -9.01    9.29
  -7   9  -6    4.59    7.27
  -7  -9   6    6.85    7.71
   7   9  -6   -0.11    7.53
  -8   8   6    3.01    6.07
  -8   8   6    6.04    8.28
  -8  -8  -6   17.48   10.50
   8   8   6   -4.17    9.18
   8   8   6    7.85    9.27
  -8   7   6    4.97    4.43
  -8  -7  -6  -16.08    8.97
  -8   7   6    4.99    6.19
  -8   7   6   -0.25    4.37
  -8  -7  -6    5.13    8.02
   8   7   6    0.26    7.48
   8   7   6    4.72    7.06
  -8   6   6   -2.22    3.45
  -8  -6  -6   -3.99    6.43
  -8   6   6    2.57    3.08
  -8   6   6    6.28    4.31
  -8  -6  -6    0.70    6.37
   8   6   6   -5.31    5.49
   8   6   6  -11.49    5.69
   8   6   6   -5.14    4.74
  -8  -5  -6    9.64    4.66
  -8   5   6    7.02    3.35
  -8  -5  -6   13.02    5.14
   8   5   6    1.57    4.64
   8  -5  -6    4.60    2.85
   8   5   6    0.32    4.03
   8   5   6   -3.69    4.42
   8  -5  -6    9.08    4.41
  -8  -4  -6   10.90    5.51
  -8   4   6   23.21    3.73
  -8  -4  -6   14.79    4.46
  -8   4   6   21.04    3.67
   8   4   6   26.24    4.02
   8  -4  -6   32.62    4.03
   8  -4  -6   25.19    4.19
   8   4   6   18.74    4.74
   8   4   6   27.21    3.62
  -8  -3  -6   37.30    6.17
  -8  -3  -6   35.13    5.87
  -8   3   6   43.15    4.88
  -8   3   6   41.96    4.36
   8  -3  -6   41.11    4.28
   8   3   6   45.59    6.59
   8   3   6   50.77    5.63
  -8   2   6   28.42    3.72
  -8   2   6   34.58    4.60
  -8  -2  -6   37.11    4.77
  -8   2   6   29.25    3.86
  -8  -2  -6   31.33    3.95
   8  -2  -6   35.22    4.75
   8   2   6   36.36    3.59
   8   2   6   24.40    3.36
   8  -2  -6   29.74    3.71
   8   2   6   30.78    4.54
  -8  -1  -6   26.56    3.94
  -8  -1  -6   18.22    3.27
  -8   1   6   21.01    2.86
  -8   1   6   22.52    4.05
  -8   1   6   20.33    3.16
   8   1   6   22.55    3.01
   8   1   6   23.28    3.21
   8  -1  -6   13.64    5.03
   8  -1  -6   17.43    3.06
  -8   0   6    3.20    2.41
  -8   0   6    4.05    3.00
  -8   0   6    3.17    2.01
  -8   0   6    1.88    2.81
  -8   0  -6   -0.07    2.20
  -8   0  -6    3.03    1.80
  -8   0  -6    7.02    2.59
   8   0  -6    6.40    2.10
   8   0   6    1.69    2.23
   8   0  -6    2.76    3.67
  -8  -1   6   23.29    3.48
  -8  -1   6   25.65    4.21
  -8  -1   6   18.30    3.51
  -8  -1   6   19.08    4.11
  -8  -1   6   19.88    3.92
   8   1  -6   23.71    3.00
   8  -1   6   17.25    3.26
   8   1  -6   14.86    4.80
  -8  -2   6   35.18    4.65
  -8   2  -6   33.13    3.43
  -8  -2   6   36.35    5.48
  -8  -2   6   26.51    4.10
  -8  -2   6   35.09    5.02
   8  -2   6   36.36    4.40
   8   2  -6   30.58    5.55
  -8  -3   6   44.34    7.39
  -8  -3   6   43.70    7.23
  -8   3  -6   45.53    4.21
  -8  -3   6   47.76    5.93
  -8  -3   6   39.69    6.33
   8   3  -6   35.58    4.86
   8   3  -6   44.86    4.44
  -8  -4   6   28.48    5.89
  -8  -4   6   23.72    4.34
  -8  -4   6   17.35    4.74
  -8   4  -6   23.79    3.69
  -8  -4   6   22.91    5.42
  -8   4  -6   25.20    3.28
  -8   4  -6   24.15    4.07
  -8  -4   6   21.20    5.32
   8   4  -6   29.33    5.36
  -8  -5   6    5.03    3.96
  -8   5  -6    7.22    3.30
  -8   5  -6    4.46    3.76
  -8   5  -6    6.09    2.63
  -8  -5   6   10.11    5.39
  -8  -5   6   -2.04    5.31
  -8  -5   6    3.20    5.88
  -8  -5   6   13.36    6.47
   8   5  -6   12.13    4.36
  -8  -6   6   -3.00    6.59
  -8   6  -6    0.48    2.99
  -8   6  -6    4.16    4.28
  -8  -6   6    8.08    6.40
  -8  -6   6    0.95    4.60
   8   6  -6    2.36    4.85
  -8  -7   6    2.54    7.36
  -8   7  -6   -5.70    4.95
  -8   7  -6    9.62    4.32
  -8  -7   6   -3.57    5.72
   8   7  -6    9.49    5.54
  -8  -8   6    6.54    9.50
  -8  -8   6   14.63    7.09
  -8   8  -6    7.72    5.74
  -8   8  -6   -0.16    6.54
   8   8  -6   23.93    7.35
   8   8  -6   -8.53    9.09
  -9   7   6   13.78    5.80
  -9   7   6    5.75    7.67
  -9  -7  -6    2.37    9.69
   9   7   6   28.86    8.39
   9   7   6    9.85    8.38
  -9   6   6    2.03    4.03
  -9   6   6   14.52    5.46
  -9  -6  -6   -0.88    7.48
  -9  -6  -6   -7.54    7.80
   9   6   6    1.21   12.73
   9   6   6    9.27    6.34
   9   6   6   23.37    6.73
   9   6   6    6.22    7.48
  -9   5   6   -1.60    3.47
  -9  -5  -6    4.26    6.28
  -9   5   6    3.66    3.61
  -9  -5  -6   -6.25    6.50
   9  -5  -6    8.56    5.34
   9   5   6    1.59    5.43
   9   5   6   -4.19    4.93
   9   5   6    3.00    3.66
  -9  -4  -6   21.21    6.32
  -9   4   6    9.48    3.69
  -9  -4  -6    9.22    5.25
  -9   4   6   17.38    3.93
  -9   4   6   11.08    4.10
  -9  -4  -6   10.01    5.12
   9   4   6   17.41    3.69
   9  -4  -6   16.83    4.59
   9   4   6   18.24    3.91
   9   4   6    7.92    4.70
   9  -4  -6   21.45    3.70
  -9  -3  -6   -0.58    4.28
  -9   3   6    4.48    3.00
  -9  -3  -6   -0.54    4.04
  -9   3   6   10.26    3.41
  -9  -3  -6    3.50    5.52
   9   3   6    6.11    3.04
   9   3   6   -8.21    5.28
   9  -3  -6   -0.84    2.97
   9   3   6    5.63    3.53
   9  -3  -6    2.74    3.00
  -9   2   6   13.95    3.24
  -9  -2  -6   10.02    2.70
  -9  -2  -6    9.41    3.82
  -9  -2  -6   13.01    4.28
  -9   2   6   13.25    4.94
  -9   2   6    8.64    2.69
   9   2   6    4.18    2.35
   9   2   6    8.39    2.91
   9  -2  -6   14.74    3.29
   9  -2  -6    5.91    3.10
  -9  -1  -6    0.94    2.16
  -9   1   6    2.26    3.41
  -9   1   6   -0.59    5.72
  -9  -1  -6   -5.47    2.80
  -9  -1  -6    1.30    3.42
  -9   1   6   -3.40    2.27
  -9   1   6   -2.51    2.49
   9  -1  -6   -3.24    2.42
   9  -1  -6    3.12    4.48
   9   1   6    2.11    2.69
   9  -1  -6    2.73    2.78
  -9   0   6    3.39    2.35
  -9   0   6    1.63    3.23
  -9   0   6   -2.35    3.64
  -9   0  -6    0.33    3.09
  -9   0  -6    3.32    3.84
   9   0  -6   -0.71    4.43
   9   0  -6    8.17    2.90
   9   0  -6   -1.05    2.34
   9   0   6    1.05    2.78
  -9  -1   6    4.57    2.44
  -9  -1   6    0.15    3.23
  -9  -1   6    0.37    3.34
  -9  -1   6   -2.52    3.94
  -9  -1   6    2.43    4.06
   9  -1   6    1.10    3.52
   9   1  -6    1.18    2.00
  -9  -2   6   13.81    3.27
  -9  -2   6    5.09    4.51
  -9  -2   6   12.40    4.04
  -9  -2   6   19.84    5.11
  -9  -2   6    8.86    4.80
   9   2  -6    9.94    2.81
   9  -2   6   11.70    3.89
  -9  -3   6    1.83    4.96
  -9   3  -6    4.41    2.97
  -9  -3   6   -1.55    4.97
  -9  -3   6    6.50    4.63
  -9  -3   6    5.88    3.71
  -9  -3   6    4.21    5.01
   9   3  -6    4.11    2.79
  -9   4  -6   19.36    4.17
  -9   4  -6   18.42    4.05
  -9  -4   6    9.45    6.56
  -9  -4   6   16.98    5.71
  -9  -4   6   10.03    3.97
  -9  -4   6    2.97    5.66
   9   4  -6   10.38    4.14
   9   4  -6   15.65    4.17
  -9   5  -6    1.56    3.88
  -9  -5   6  -11.13    6.85
  -9  -5   6  -26.35   13.71
  -9  -5   6   -0.72    6.05
  -9  -5   6   -0.37    4.32
   9   5  -6   -4.31    4.29
  -9   6  -6    3.64    5.00
  -9  -6   6    4.71    5.32
  -9  -6   6   -4.75    7.13
  -9   6  -6   -2.14    3.32
   9   6  -6    2.56    5.32
  -9   7  -6    1.94    4.36
  -9  -7   6    2.99    9.02
  -9  -7   6   -5.22    6.61
   9   7  -6   17.46    6.83
 -10  -6  -6    7.67    9.26
 -10   6   6   12.95    5.88
 -10   6   6   12.85    6.85
  10   6   6   13.28    7.91
  10   6   6   19.36    5.89
  10   6   6   11.25    6.99
 -10   5   6   -3.93    4.28
 -10  -5  -6   -6.50    4.60
 -10  -5  -6    5.53    7.97
 -10   5   6   -4.11    4.02
 -10  -5  -6    0.32    7.79
  10  -5  -6    7.52    6.38
  10   5   6    4.66    5.20
  10   5   6   -2.88    5.69
  10   5   6    0.80    8.59
 -10  -4  -6   -6.96    5.96
 -10   4   6    0.84    3.63
 -10   4   6   -5.23    3.49
 -10  -4  -6    7.41    7.31
 -10  -4  -6    0.08    4.01
  10  -4  -6    1.35    5.30
 -10  -3  -6   -2.28    6.08
 -10   3   6    1.76    3.24
 -10   3   6    4.41    3.88
 -10  -3  -6    9.47    5.79
 -10  -3  -6   -2.87    4.94
 -10  -3  -6   -3.44    3.34
  10  -3  -6    3.38    3.91
  10   3   6   -2.48    3.90
 -10   2   6    9.13    3.33
 -10  -2  -6    6.85    6.61
 -10  -2  -6    6.19    3.23
 -10  -2  -6    3.03    4.20
 -10   2   6    2.81    3.61
 -10  -2  -6    6.47    5.09
 -10   2   6   10.07    4.13
  10   2   6   11.66    3.55
  10  -2  -6    2.68    3.45
 -10  -1  -6    2.13    2.68
 -10  -1  -6   -5.81    4.42
 -10   1   6   -0.33    2.62
 -10   1   6    0.22    4.23
 -10  -1  -6   -3.67    3.43
 -10   1   6   -4.14    3.48
 -10   1   6   -3.80    4.31
 -10   1   6   -1.18    4.51
 -10  -1  -6   -2.89    5.13
  10  -1  -6    1.36    2.79
  10   1   6   -4.08    3.41
 -10   0   6   30.02    5.57
 -10   0  -6   11.46    5.43
 -10   0  -6   20.54    4.80
 -10   0   6   18.99    5.10
 -10   0   6   12.89    4.31
 -10   0   6   19.16    3.32
 -10   0   6   12.24    5.32
  10   0  -6   19.72    3.74
  10   0   6   14.37    4.20
 -10  -1   6   -3.09    2.62
 -10  -1   6   -0.23    4.39
 -10  -1   6   -1.47    4.94
 -10  -1   6    2.96    5.00
  10   1  -6    2.88    2.95
  10  -1   6    1.43    4.20
 -10  -2   6    8.39    6.05
 -10  -2   6    6.47    3.45
 -10  -2   6    8.68    5.92
 -10  -2   6    4.19    4.93
  10  -2   6    9.09    4.64
  10   2  -6    6.36    3.06
 -10  -3   6   -4.21    3.69
 -10  -3   6   11.56    6.33
 -10  -3   6    2.82    5.85
 -10  -3   6   -3.66    5.52
  10   3  -6   -2.63    2.96
 -10  -4   6  -11.23    6.59
 -10  -4   6   -9.65    6.23
 -10  -4   6    6.50    7.96
 -10   4  -6    2.79    3.99
 -10  -4   6    1.39    4.60
  10   4  -6    1.30    4.29
 -10  -5   6    2.58    7.41
 -10  -5   6    5.33    5.34
  10   5  -6   -7.54    4.86
 -10  -6   6    6.12    6.50
 -10   6  -6   12.26    6.56
  10   6  -6   -5.25    6.07
 -11  -5  -6   -2.22    8.99
 -11  -5  -6   -7.24    6.29
 -11   5   6    3.14    5.39
 -11   5   6   -5.19    5.24
  11   5   6   -3.23    6.68
 -11   4   6    4.06    4.78
 -11  -4  -6    4.59    5.22
 -11   4   6    2.00    4.60
 -11  -4  -6    1.51    8.34
  11   4   6   13.74    5.72
  11  -4  -6    3.07    6.58
 -11  -3  -6   11.73    4.59
 -11  -3  -6   13.87    7.67
 -11   3   6    6.55    4.92
 -11   3   6    0.19    4.13
  11  -3  -6    4.32    4.57
  11   3   6    4.52    4.90
 -11  -2  -6   13.20    6.81
 -11   2   6   12.30    3.90
 -11  -2  -6   10.30    3.96
 -11  -2  -6    8.34    7.27
 -11   2   6   22.71    5.62
 -11   2   6   13.04    5.74
  11   2   6    5.42    4.84
  11  -2  -6   14.84    4.64
 -11  -1  -6    2.84   11.95
 -11  -1  -6    0.32    6.24
 -11  -1  -6    5.70    4.95
 -11   1   6    0.50    6.39
 -11  -1  -6    3.98    3.29
 -11   1   6    1.25    5.09
 -11   1   6    2.94    3.40
  11  -1  -6   10.42    4.01
  11   1   6   -0.85    4.37
 -11   0   6    7.00    5.92
 -11   0   6   -2.26    5.32
 -11   0   6    1.35    5.15
 -11   0  -6   15.27    5.82
 -11   0  -6    6.60    6.81
 -11   0   6    3.43    3.67
  11   0   6    6.25    4.83
  11   0  -6    8.01    3.49
 -11  -1   6    5.64    6.17
 -11  -1   6    3.52    3.76
 -11  -1   6   -4.88    6.58
  11   1  -6    5.79    3.77
  11  -1   6   11.19    5.26
 -11  -2   6    8.15    7.06
 -11  -2   6    9.85    6.51
 -11  -2   6   12.07    8.08
 -11  -2   6   10.50    3.97
  11  -2   6    7.13    5.68
  11   2  -6   13.02    3.91
 -11  -3   6    7.37    7.68
 -11  -3   6    4.55    9.49
 -11  -3   6   12.91    4.78
  11   3  -6   -1.68    3.89
 -11  -4   6    0.40    5.58
 -11  -4   6  -11.68    7.83
  11   4  -6    6.59    4.49
 -11   5  -6   -5.17    5.90
 -11  -5   6   17.33   10.25
 -11  -5   6    8.71    6.92
 -12  -3  -6    2.85    5.55
 -12  -3  -6   18.01   10.12
 -12   3   6   19.08    7.09
 -12   3   6   -6.72    5.64
 -12  -2  -6   -9.92    8.43
 -12  -2  -6    2.67    4.74
 -12   2   6    6.39    6.47
 -12   2   6    6.08    4.48
  12  -2  -6   -0.11    5.67
  12   2   6   10.21    6.46
 -12  -1  -6  -16.23    8.06
 -12   1   6    3.33    6.27
 -12   1   6   -1.69    4.35
  12   1   6   -4.09    6.02
  12  -1  -6   -0.67    4.79
 -12   0  -6   10.97    8.22
 -12   0   6    4.57    4.53
 -12   0  -6   21.27    8.55
 -12   0   6   16.25    7.11
  12   0  -6   15.85    4.61
  12   0   6    9.84    6.56
 -12  -1   6    0.70    6.71
 -12  -1   6   -4.12    4.17
  12   1  -6   -2.55    4.27
  12  -1   6   13.08    6.96
 -12  -2   6    2.20    4.89
 -12  -2   6  -12.94    7.93
  12   2  -6   -1.57    4.71
  12  -2   6  -14.91    7.07
 -12  -3   6    3.76    8.84
 -12  -3   6   11.89    9.78
  12   3  -6    7.02    6.41
   0  10   7   -4.58    7.19
   0  10   7    6.84    7.83
   0  10   7   -7.97    9.07
   0  10   7   21.35    7.70
   0   9   7   -1.45    5.62
   0  -9  -7   -6.50    4.14
   0   9   7    0.95    6.00
   0   8   7    2.08    3.95
   0   8   7    6.19    4.66
   0  -8  -7   -1.51    3.25
   0   8   7    9.99    4.75
   0   8   7    2.89    4.75
   0  -8  -7   -2.97    3.56
   0   7   7   -0.59    3.23
   0   7   7   -0.21    2.99
   0   7   7    1.14    3.39
   0  -7  -7   -1.82    2.49
   0   7   7    1.16    3.69
   0   6   7   30.53    4.98
   0  -6  -7   28.86    3.78
   0  -6  -7   30.77    3.62
   0   6   7   30.57    4.62
   0   6   7   27.84    4.18
   0   5   7   -2.52    2.16
   0  -5  -7   -2.24    1.62
   0   5   7   -0.69    1.99
   0  -5  -7    1.72    1.59
   0   5   7   -1.87    1.64
   0   4   7    4.59    2.00
   0  -4  -7    4.70    1.54
   0   4   7    5.53    1.90
   0   4   7    4.57    1.73
   0  -4  -7    4.85    1.69
   0  -4  -7    5.26    2.15
   0  -3  -7    0.54    1.08
   0  -3  -7   -0.47    1.63
   0   3   7    1.42    1.35
   0   3   7    0.72    1.26
   0   3   7   -0.59    1.39
   0   2   7   36.90    2.69
   0  -2  -7   37.13    2.60
   0   2   7   35.05    2.84
   0   2   7   30.80    2.62
   0  -2  -7   36.96    2.53
   0  -2  -7   35.71    3.05
   0   1   7    0.12    0.82
   0  -1  -7   -0.62    0.70
   0   1   7    0.21    1.02
   0  -1  -7    1.07    0.95
   0   1   7   -0.30    0.86
   0  -1  -7    0.94    0.81
   0   1   7    1.29    0.96
   0   0  -7    0.46    0.66
   0   0   7    0.86    0.75
   0   0  -7    1.95    0.95
   0   0  -7    0.04    0.86
   0   0   7    1.47    0.86
   0   0   7    0.76    0.81
   0   0  -7    1.51    0.76
   0   0   7    0.07    0.80
   0  -1   7    0.72    1.03
   0   1  -7   -0.50    0.62
   0   1  -7    0.96    0.83
   0  -1   7    0.82    0.79
   0  -1   7    0.44    0.73
   0  -1   7   -0.57    0.64
   0   1  -7   -0.41    0.71
   0   1  -7    0.20    0.89
   0   2  -7   34.25    2.45
   0   2  -7   30.32    2.22
   0   2  -7   31.83    2.46
   0   2  -7   32.45    2.81
   0  -2   7   34.42    2.18
   0  -2   7   33.40    2.07
   0  -2   7   36.25    2.79
   0  -3   7   -1.03    1.29
   0  -3   7    0.35    0.85
   0   3  -7   -0.14    1.09
   0   3  -7    1.17    1.27
   0  -3   7   -1.68    1.02
   0   3  -7    0.03    0.94
   0   3  -7    0.94    1.23
   0  -4   7    6.95    1.38
   0   4  -7    7.34    2.02
   0  -4   7    6.19    1.70
   0   4  -7    3.61    1.66
   0   4  -7    6.79    1.88
   0  -4   7    4.40    2.30
   0  -5   7    1.74    1.48
   0  -5   7   -1.35    1.98
   0   5  -7    2.39    1.90
   0   5  -7    1.83    2.54
   0  -5   7   -0.61    2.24
   0   5  -7   -0.91    1.70
   0  -6   7   27.29    3.46
   0  -6   7   29.37    3.36
   0   6  -7   20.67    4.11
   0   6  -7   28.85    4.75
   0  -7   7   -0.20    2.21
   0   7  -7   -0.19    3.42
   0  -7   7   -1.98    2.89
   0   7  -7   -2.77    3.18
   0  -8   7   16.35    4.22
   0  -8   7    1.44    3.02
   0   8  -7    6.39    4.81
   0   8  -7   -0.98    3.84
   0  -9   7    4.32    5.41
   0   9  -7   -7.65    5.12
   0   9  -7   -8.94    6.15
   0  -9   7    0.88    3.75
   0  10  -7  -11.02    6.32
   0  10  -7    1.27    7.88
  -1  10   7   -1.49    8.18
  -1  10   7    4.83    8.13
  -1  10   7    7.88    9.39
  -1  10   7   -3.34    8.52
   1  10   7  -14.31    9.84
   1  10   7  -16.12    8.02
   1  10   7   -1.72    7.56
   1 -10  -7    3.33    5.44
   1  10   7    7.44    7.67
  -1   9   7   -2.54    6.24
  -1  -9  -7    6.03    4.45
  -1   9   7    5.60    4.92
  -1   9   7    4.67    5.76
   1   9   7    6.93    7.00
   1  -9  -7   -0.09    3.89
   1   9   7    2.47    5.45
   1   9   7   -5.61    6.23
  -1   8   7   10.59    4.99
  -1   8   7   -3.15    4.43
  -1  -8  -7   -2.25    3.71
  -1   8   7    4.80    3.35
  -1   8   7    9.26    4.78
  -1  -8  -7   -7.46    4.16
   1   8   7   -3.08    4.88
   1   8   7   11.30    5.16
   1   8   7    0.12    4.91
   1   8   7   -6.48    4.21
   1  -8  -7   -1.17    3.55
  -1   7   7   37.70    5.80
  -1   7   7   38.75    4.99
  -1  -7  -7   27.70    4.24
  -1   7   7   29.65    3.77
  -1   7   7   35.60    5.21
   1   7   7   36.70    6.52
   1   7   7   28.93    4.36
   1   7   7   47.61    6.39
   1  -7  -7   27.50    4.13
  -1  -6  -7    0.16    2.18
  -1   6   7   -0.34    2.54
  -1  -6  -7    0.64    2.59
  -1   6   7   -4.81    2.72
  -1   6   7    4.55    2.96
   1   6   7    0.20    2.68
   1   6   7   -1.85    2.70
   1  -6  -7    3.69    1.96
   1  -6  -7    3.17    2.19
  -1  -5  -7    1.93    1.66
  -1   5   7    0.04    1.76
  -1   5   7   -0.92    2.03
  -1   5   7   -2.29    2.10
   1   5   7    1.86    2.35
   1  -5  -7    1.48    1.55
   1  -5  -7   -0.73    1.59
   1   5   7    0.02    1.90
   1   5   7    1.37    2.10
  -1   4   7   20.85    2.81
  -1   4   7   21.90    2.98
  -1  -4  -7   18.63    3.44
  -1   4   7   20.63    3.09
  -1  -4  -7   23.25    2.66
  -1  -4  -7   21.99    3.04
   1   4   7   27.64    3.41
   1   4   7   23.28    3.10
   1   4   7   23.18    3.20
   1  -4  -7   19.56    2.58
   1  -4  -7   22.11    3.47
   1  -4  -7   23.35    2.64
  -1  -3  -7   18.61    2.94
  -1   3   7   24.07    2.74
  -1   3   7   22.47    2.51
  -1   3   7   23.13    2.45
  -1  -3  -7   21.46    2.45
  -1  -3  -7   24.18    2.37
   1   3   7   16.77    2.79
   1   3   7   22.95    2.55
   1  -3  -7   18.87    3.15
   1   3   7   19.67    2.55
   1  -3  -7   19.86    2.14
   1  -3  -7   20.66    2.22
  -1  -2  -7    0.79    1.41
  -1   2   7    0.62    1.16
  -1   2   7    1.87    1.11
  -1   2   7    0.72    0.94
  -1  -2  -7    1.05    0.89
  -1  -2  -7    1.04    1.06
   1   2   7    2.25    1.04
   1   2   7    1.16    1.12
   1   2   7   -0.17    1.18
   1  -2  -7    0.48    0.99
   1  -2  -7    1.39    0.92
   1   2   7    0.52    1.15
   1  -2  -7    1.73    1.27
  -1  -1  -7   16.59    2.01
  -1  -1  -7   18.16    1.73
  -1  -1  -7   15.00    1.69
  -1   1   7   14.76    1.70
  -1   1   7   17.26    1.83
  -1   1   7   17.32    1.89
  -1   1   7   14.51    1.67
   1   1   7   13.42    1.36
   1  -1  -7   17.56    1.61
   1  -1  -7   14.70    1.95
   1   1   7   14.84    1.80
   1   1   7   14.68    1.89
   1   1   7   15.50    1.94
   1  -1  -7   17.75    1.82
  -1   0  -7    0.16    0.65
  -1   0  -7   -0.20    0.75
  -1   0  -7   -0.21    0.63
  -1   0   7   -0.05    0.85
  -1   0   7   -0.29    0.79
  -1   0   7   -0.13    0.71
  -1   0   7   -0.09    0.82
  -1   0  -7   -0.35    0.79
   1   0   7    1.33    0.91
   1   0  -7    0.16    0.81
   1   0  -7   -0.67    0.60
   1   0   7    0.25    0.81
   1   0   7    0.13    0.81
   1   0  -7   -0.97    0.80
   1   0  -7   -0.62    0.85
   1   0   7    0.61    0.79
  -1  -1   7   14.17    1.69
  -1   1  -7   17.20    1.46
  -1  -1   7   18.97    1.90
  -1   1  -7   13.06    1.34
  -1  -1   7   14.61    1.63
  -1  -1   7   16.03    1.66
  -1   1  -7   15.14    1.90
   1   1  -7   14.67    1.55
   1  -1   7   17.05    1.80
   1   1  -7   18.25    1.89
   1   1  -7   13.66    1.78
   1  -1   7   15.99    2.18
   1   1  -7   15.66    1.76
  -1   2  -7   -0.20    1.03
  -1   2  -7    0.26    1.29
  -1   2  -7    1.63    0.69
  -1  -2   7    1.09    0.98
  -1   2  -7    0.67    0.76
  -1  -2   7    2.46    1.27
  -1  -2   7   -0.29    1.00
  -1  -2   7   -0.29    0.88
   1  -2   7    1.80    1.27
   1   2  -7    1.15    0.99
   1   2  -7    1.74    1.08
   1   2  -7    1.29    0.86
   1  -2   7    1.61    0.63
   1   2  -7    2.33    1.20
  -1   3  -7   21.62    2.18
  -1   3  -7   23.04    2.85
  -1  -3   7   21.89    2.30
  -1  -3   7   21.45    2.71
  -1  -3   7   20.07    2.15
  -1  -3   7   19.64    2.42
  -1  -3   7   24.25    2.10
  -1   3  -7   22.31    2.63
  -1   3  -7   21.56    1.87
   1   3  -7   23.65    2.50
   1   3  -7   24.13    2.22
   1  -3   7   24.69    2.00
   1   3  -7   22.25    2.40
   1  -3   7   20.98    2.59
   1  -3   7   20.03    1.63
   1   3  -7   20.57    2.82
  -1  -4   7   21.90    3.13
  -1   4  -7   21.82    2.98
  -1   4  -7   24.65    2.70
  -1  -4   7   23.76    2.63
  -1  -4   7   25.14    2.64
  -1  -4   7   24.23    2.44
  -1  -4   7   28.65    3.15
   1  -4   7   21.59    1.89
   1   4  -7   16.73    2.92
   1  -4   7   17.33    2.57
   1   4  -7   21.95    2.84
   1  -4   7   23.06    3.21
   1   4  -7   27.74    3.77
  -1   5  -7   -0.31    1.82
  -1  -5   7   -0.64    1.69
  -1   5  -7   -1.07    2.14
  -1  -5   7   -1.74    2.26
  -1  -5   7   -1.92    2.28
  -1   5  -7    0.11    2.34
   1  -5   7   -2.68    1.71
   1   5  -7   -1.69    1.96
   1  -5   7   -0.48    1.22
   1   5  -7   -2.34    2.76
   1   5  -7   -1.00    1.70
  -1   6  -7    4.54    2.65
  -1   6  -7    1.16    2.46
  -1  -6   7    2.19    2.58
  -1   6  -7    6.59    3.52
  -1  -6   7    0.80    2.06
   1   6  -7    3.23    2.83
   1   6  -7   -0.60    2.14
   1   6  -7   -1.12    3.91
  -1  -7   7   34.90    4.77
  -1   7  -7   35.24    6.03
  -1   7  -7   35.48    5.38
   1   7  -7   35.78    5.06
   1  -7   7   43.11    5.18
   1  -7   7   29.92    4.09
   1   7  -7   24.08    5.34
  -1  -8   7    2.21    3.46
  -1  -8   7    4.39    4.29
  -1   8  -7    8.94    4.40
  -1   8  -7   13.34    4.90
   1   8  -7    2.85    4.55
   1  -8   7    6.46    2.92
   1   8  -7    1.02    3.99
  -1   9  -7    6.57    6.33
  -1   9  -7   -7.34    5.01
  -1  -9   7    1.16    4.54
   1  -9   7    4.49    5.10
   1   9  -7   -7.55    4.57
   1   9  -7    2.02    6.32
  -1  10  -7    7.01    8.31
  -1 -10   7    0.14    5.82
  -1  10  -7  -10.33    7.08
   1  10  -7   -5.19    8.75
  -2  10   7   18.28    9.02
  -2  10   7   -1.66    8.21
   2  10   7   -7.88    7.70
   2  10   7    0.28   11.89
   2  10   7    3.51    8.27
  -2   9   7    4.82    5.88
  -2   9   7    6.28    5.80
  -2   9   7   -0.45    5.49
   2   9   7   -8.19    6.41
   2   9   7    5.60    7.60
   2   9   7   -3.80    5.69
   2  -9  -7    4.02    4.23
  -2  -8  -7   -3.00    3.64
  -2   8   7    8.70    5.11
  -2   8   7    1.80    4.25
  -2   8   7    1.01    4.63
  -2   8   7    0.44    4.23
   2   8   7   -7.04    5.38
   2   8   7    2.15    5.00
   2   8   7   -0.01    4.29
   2  -8  -7   -0.06    4.22
   2   8   7    0.07    4.82
   2  -8  -7    4.86    3.54
  -2   7   7   55.14    6.40
  -2   7   7   50.79    4.56
  -2   7   7   45.67    6.58
  -2  -7  -7   55.51    6.52
  -2   7   7   34.28    7.14
   2  -7  -7   58.79    5.03
   2   7   7   44.03    5.82
   2   7   7   51.09    7.20
   2   7   7   43.10    8.07
  -2   6   7    1.02    2.46
  -2   6   7   -1.37    2.54
  -2   6   7    3.86    2.76
  -2  -6  -7   -0.87    2.75
  -2   6   7    1.81    1.88
  -2  -6  -7    3.42    2.25
   2  -6  -7    2.37    2.02
   2   6   7    3.81    3.34
   2   6   7   -0.41    3.01
  -2   5   7    1.67    1.47
  -2  -5  -7    0.48    1.78
  -2   5   7   -0.23    2.19
  -2   5   7    0.08    1.91
  -2  -5  -7    1.42    2.33
  -2   5   7    1.78    2.33
   2  -5  -7   -2.58    1.56
   2   5   7    4.65    2.49
   2   5   7    0.15    2.18
   2  -5  -7    1.29    1.83
   2   5   7    4.16    2.58
  -2   4   7    1.64    1.56
  -2  -4  -7    2.17    2.12
  -2   4   7    1.40    1.76
  -2  -4  -7    0.90    1.83
  -2   4   7    0.42    1.44
  -2   4   7    3.40    1.11
   2   4   7    3.76    2.17
   2   4   7    5.27    2.14
   2  -4  -7    0.18    2.11
   2   4   7    3.08    2.69
   2  -4  -7    1.42    1.42
  -2  -3  -7    0.93    1.56
  -2   3   7    2.58    1.34
  -2   3   7    0.78    1.23
  -2  -3  -7   -1.09    1.72
  -2   3   7    0.07    1.24
  -2  -3  -7    2.12    1.29
   2  -3  -7    0.23    1.21
   2   3   7   -0.01    1.70
   2  -3  -7   -0.13    1.11
   2   3   7    0.56    1.49
   2  -3  -7   -1.61    1.17
   2  -3  -7   -2.48    1.51
  -2   2   7    3.83    1.15
  -2   2   7    2.29    1.09
  -2  -2  -7    2.44    1.16
  -2  -2  -7    1.73    1.41
  -2   2   7    4.55    1.36
  -2  -2  -7    3.94    1.21
   2  -2  -7    3.47    1.19
   2   2   7    3.70    1.27
   2  -2  -7    3.60    0.97
   2   2   7    3.29    1.53
   2  -2  -7    2.41    1.47
   2   2   7    2.98    1.32
  -2  -1  -7   26.47    2.00
  -2  -1  -7   20.72    2.42
  -2  -1  -7   21.56    1.99
  -2   1   7   26.72    2.23
  -2   1   7   25.03    2.18
  -2   1   7   26.88    2.15
  -2   1   7   22.34    2.05
   2   1   7   25.57    2.21
   2  -1  -7   22.36    1.91
   2  -1  -7   22.82    2.23
   2  -1  -7   23.36    1.55
   2   1   7   24.87    2.20
   2  -1  -7   23.93    2.36
   2   1   7   21.33    2.36
  -2   0   7   -0.23    0.83
  -2   0  -7    0.29    0.74
  -2   0  -7    0.75    0.69
  -2   0   7    0.53    0.92
  -2   0   7   -0.95    0.91
  -2   0   7    0.25    0.93
  -2   0  -7   -0.19    1.04
   2   0  -7   -0.28    0.86
   2   0   7    0.26    1.06
   2   0  -7    0.81    1.09
   2   0  -7    0.46    0.79
   2   0  -7    1.19    0.98
   2   0   7   -0.27    0.79
  -2   1  -7   21.63    1.78
  -2   1  -7   19.71    2.17
  -2   1  -7   24.23    1.60
  -2  -1   7   22.56    2.22
  -2  -1   7   26.04    2.08
  -2  -1   7   25.99    2.29
  -2  -1   7   21.77    2.19
   2   1  -7   25.07    2.21
   2  -1   7   21.62    2.43
   2  -1   7   23.58    2.07
   2   1  -7   22.42    1.99
   2   1  -7   24.86    2.24
   2   1  -7   25.57    2.54
  -2  -2   7    2.76    1.30
  -2   2  -7    2.30    1.28
  -2  -2   7    2.79    1.45
  -2  -2   7    2.98    1.03
  -2   2  -7    3.90    1.29
  -2  -2   7    5.32    1.40
   2   2  -7    4.59    1.16
   2  -2   7    5.15    1.52
   2   2  -7    3.41    1.39
   2   2  -7    4.79    1.34
   2   2  -7    2.81    1.45
  -2  -3   7    0.83    1.26
  -2  -3   7   -0.35    1.32
  -2   3  -7   -1.52    1.36
  -2   3  -7   -0.24    1.34
  -2  -3   7   -0.99    1.19
  -2  -3   7    0.52    1.53
  -2  -3   7    0.60    1.32
   2  -3   7    0.62    1.57
   2   3  -7    0.46    1.66
   2   3  -7    1.51    1.20
   2   3  -7   -0.10    1.26
   2   3  -7    0.21    1.39
  -2  -4   7    3.57    1.65
  -2  -4   7    1.43    1.45
  -2  -4   7    1.86    1.68
  -2   4  -7    1.33    1.80
   2   4  -7    6.62    2.47
   2   4  -7    1.70    1.55
   2   4  -7   -1.83    1.65
  -2  -5   7   -1.32    2.45
  -2  -5   7    7.29    2.29
  -2  -5   7    1.43    1.90
  -2  -5   7    2.94    2.15
  -2   5  -7    2.26    2.21
  -2  -5   7   -0.06    1.86
   2   5  -7    0.30    1.86
   2   5  -7   -0.06    2.16
   2   5  -7    0.03    3.24
  -2  -6   7    1.87    2.35
  -2  -6   7    1.80    2.37
  -2   6  -7    2.00    2.76
  -2  -6   7    3.48    2.55
  -2  -6   7    0.83    2.84
   2   6  -7   -5.08    4.02
   2   6  -7    1.16    2.23
   2   6  -7    0.03    2.74
  -2  -7   7   50.54    5.29
  -2  -7   7   55.95    7.39
  -2  -7   7   47.05    5.69
  -2   7  -7   60.01    6.58
  -2   7  -7   52.52    6.63
   2   7  -7   45.04    8.61
   2   7  -7   42.96    7.10
  -2   8  -7    4.84    4.83
  -2  -8   7   -1.60    4.50
  -2   8  -7   -5.00    4.11
  -2  -8   7    3.90    3.75
   2   8  -7    3.07    3.64
   2   8  -7    0.89    5.38
  -2   9  -7    0.98    6.70
  -2   9  -7   -2.53    5.25
   2   9  -7    4.40    6.81
   2   9  -7   -1.13    4.87
  -2  10  -7   19.91    7.34
  -2  10  -7    3.20    9.26
  -2 -10   7   -4.63    6.30
   2  10  -7   -6.48    6.28
   2  10  -7   -4.58    8.99
  -3  10   7    8.54    8.21
  -3  10   7    4.65    7.68
   3  10   7   -1.67    8.56
   3  10   7   -1.13   11.85
   3  10   7   -0.56    8.23
  -3   9   7    0.93    5.98
  -3   9   7    8.37    5.34
  -3   9   7    5.38    6.87
   3   9   7    9.70    5.95
   3   9   7   11.97    6.62
   3   9   7    6.09    8.54
  -3  -8  -7    0.50    4.39
  -3   8   7    6.90    5.13
  -3  -8  -7    4.51    5.30
  -3   8   7    0.25    4.07
   3   8   7   -0.24    6.46
   3  -8  -7   -1.67    3.29
   3   8   7    2.79    4.31
   3   8   7    2.98    6.55
   3   8   7    5.15    5.38
  -3   7   7   -0.46    2.62
  -3   7   7   -0.56    4.00
  -3  -7  -7    2.86    3.20
  -3   7   7    3.64    5.04
  -3  -7  -7   -2.07    4.00
  -3   7   7   -3.45    3.57
   3   7   7   -2.54    4.32
   3   7   7    1.52    3.22
   3  -7  -7   -1.36    2.64
   3   7   7    4.48    4.50
   3   7   7    0.76    3.99
  -3   6   7   -0.86    2.65
  -3   6   7    1.73    2.15
  -3   6   7    1.15    2.93
  -3  -6  -7   -3.08    3.06
  -3   6   7    2.66    2.60
   3   6   7    0.00    2.62
   3  -6  -7    1.12    2.37
   3   6   7    3.97    3.84
   3   6   7   -0.14    3.37
   3   6   7   -3.36    3.32
  -3  -5  -7   16.46    3.34
  -3  -5  -7   15.19    2.62
  -3   5   7   14.59    2.72
  -3   5   7   13.25    2.30
  -3   5   7   14.06    3.02
  -3   5   7   21.83    4.18
   3   5   7   12.98    3.17
   3   5   7   15.78    2.75
   3  -5  -7   17.90    4.47
   3   5   7   13.83    3.49
   3   5   7   17.21    3.33
   3  -5  -7   17.67    2.94
  -3   4   7    1.76    1.19
  -3   4   7    0.82    1.74
  -3  -4  -7    1.23    2.15
  -3  -4  -7    2.23    1.54
  -3  -4  -7    0.23    2.42
  -3   4   7    0.09    1.73
  -3   4   7    2.94    1.68
   3  -4  -7    2.96    1.77
   3   4   7    4.96    2.28
   3  -4  -7    3.12    2.32
   3   4   7   -0.04    2.22
   3  -4  -7    4.16    1.46
   3   4   7    3.12    2.04
  -3   3   7   41.43    3.26
  -3   3   7   37.89    3.03
  -3   3   7   38.63    2.41
  -3   3   7   38.88    3.14
  -3  -3  -7   38.85    4.05
  -3  -3  -7   37.04    3.55
  -3  -3  -7   38.38    3.29
   3   3   7   38.57    3.50
   3   3   7   37.63    3.69
   3  -3  -7   38.55    3.67
   3   3   7   39.08    3.80
   3  -3  -7   41.31    3.33
   3  -3  -7   37.53    2.85
   3  -3  -7   36.20    2.67
  -3  -2  -7   12.69    2.21
  -3  -2  -7   10.98    1.86
  -3   2   7   11.70    1.84
  -3   2   7   12.13    1.89
  -3  -2  -7   11.88    1.80
  -3   2   7   10.74    1.78
  -3   2   7   13.26    2.08
   3  -2  -7   11.77    2.04
   3   2   7   11.36    1.94
   3   2   7   14.41    2.47
   3  -2  -7   13.08    2.12
   3  -2  -7    9.97    1.50
   3   2   7   11.51    2.10
   3  -2  -7   10.55    1.55
  -3  -1  -7  229.12   10.77
  -3   1   7  232.68   10.46
  -3  -1  -7  230.67   10.44
  -3   1   7  231.58   10.47
  -3   1   7  213.88   10.58
  -3  -1  -7  230.81   10.36
  -3   1   7  255.21   10.50
   3   1   7  207.80   10.46
   3  -1  -7  247.44   10.96
   3  -1  -7  224.04   10.02
   3  -1  -7  223.44   10.39
   3  -1  -7  227.98   10.50
   3   1   7  204.19   10.43
  -3   0  -7   -1.30    1.21
  -3   0   7    0.24    0.89
  -3   0  -7    0.35    0.81
  -3   0   7   -1.55    0.92
  -3   0   7   -1.03    1.09
  -3   0   7    0.19    1.05
   3   0   7   -0.91    1.01
   3   0   7    0.25    0.98
   3   0  -7    1.47    1.26
   3   0  -7    0.27    0.95
   3   0  -7    0.25    1.04
  -3  -1   7  213.93   10.38
  -3  -1   7  241.75   10.65
  -3  -1   7  213.05   10.71
  -3   1  -7  223.87   10.50
  -3  -1   7  240.57   10.60
   3   1  -7  231.10   10.43
   3   1  -7  214.42   10.42
   3   1  -7  241.42   11.23
   3   1  -7  225.55   10.50
   3  -1   7  229.46   10.69
  -3   2  -7   10.88    1.66
  -3  -2   7   12.66    2.14
  -3  -2   7   13.19    1.82
  -3  -2   7   14.25    2.08
  -3   2  -7   10.44    1.68
  -3   2  -7   11.51    1.89
  -3  -2   7   11.30    2.10
   3   2  -7   11.09    2.40
   3   2  -7   10.72    1.83
   3   2  -7   11.60    1.88
   3   2  -7   12.93    2.10
  -3  -3   7   40.44    3.24
  -3   3  -7   37.75    2.99
  -3  -3   7   33.84    3.34
  -3  -3   7   40.24    3.64
  -3  -3   7   38.27    3.69
  -3   3  -7   38.32    3.20
  -3   3  -7   37.30    3.49
  -3  -3   7   39.06    3.66
   3   3  -7   40.38    3.29
   3   3  -7   36.58    4.17
   3   3  -7   43.91    3.31
  -3  -4   7    5.86    2.12
  -3   4  -7    2.85    1.85
  -3   4  -7    5.00    2.21
  -3  -4   7    2.40    2.11
  -3   4  -7   -1.82    2.17
  -3  -4   7    1.84    1.74
  -3  -4   7   -2.13    1.87
  -3  -4   7   -2.79    1.94
   3   4  -7    1.13    1.64
   3   4  -7    1.64    2.91
   3   4  -7    3.67    1.77
  -3  -5   7   14.13    3.36
  -3  -5   7   19.36    2.97
  -3  -5   7   14.23    3.04
  -3   5  -7   20.03    3.17
  -3  -5   7   25.35    4.31
  -3   5  -7   15.68    3.11
  -3  -5   7   16.91    3.23
   3   5  -7   14.67    3.20
   3   5  -7   13.41    2.75
  -3  -6   7   -0.35    3.33
  -3   6  -7    0.51    2.62
  -3  -6   7    0.53    2.62
  -3  -6   7    2.12    2.69
  -3   6  -7    7.07    3.23
  -3  -6   7    2.31    3.07
   3   6  -7   -8.54    4.52
   3   6  -7    2.36    3.24
   3   6  -7   -3.22    2.34
  -3   7  -7    6.74    4.14
  -3  -7   7   -5.08    3.59
  -3  -7   7    4.08    4.43
  -3  -7   7    3.82    3.89
  -3  -7   7   -2.44    3.13
  -3  -7   7    2.43    3.08
   3   7  -7   -3.49    3.05
   3   7  -7    0.74    3.87
  -3  -8   7    6.84    4.52
  -3  -8   7    8.81    3.61
  -3  -8   7   -0.21    4.05
  -3   8  -7   -2.44    5.40
  -3   8  -7    6.11    4.43
  -3  -8   7   -2.28    5.86
   3   8  -7   -3.02    5.23
   3   8  -7   -1.44    3.61
  -3   9  -7    5.97    5.74
  -3  -9   7   -7.39    4.80
  -3  -9   7    1.01    5.82
  -3  -9   7   -0.20    4.58
   3   9  -7   -3.50    7.14
   3   9  -7   -4.60    5.24
  -3  10  -7   13.74    9.78
  -3 -10   7   -1.92    6.61
  -3  10  -7   -0.56    7.78
   3  10  -7   -6.20    9.54
   3  10  -7   -8.50    6.69
  -4  10   7    5.67   10.00
  -4 -10  -7   12.89   12.44
  -4  10   7   16.66    9.05
   4  10   7   11.38    8.23
   4  10   7   26.34   14.19
   4  10   7   18.55    9.96
  -4   9   7  -10.12    5.75
  -4   9   7   20.05    7.11
   4   9   7   19.11   12.52
   4   9   7   -2.60    9.93
   4   9   7    4.13    7.61
  -4  -8  -7  -12.07    6.18
  -4   8   7    3.83    5.18
  -4   8   7    5.29    4.99
  -4   8   7    7.04    4.03
  -4   8   7   -2.86    4.33
   4   8   7    7.19    7.81
   4   8   7    5.40    5.90
   4  -8  -7   -1.06    3.75
   4   8   7    2.24    4.51
  -4   7   7    2.43    3.52
  -4   7   7   -0.34    3.83
  -4  -7  -7   -1.07    4.91
  -4   7   7    2.85    3.73
   4  -7  -7    3.88    3.08
   4   7   7    2.75    3.57
   4  -7  -7    5.94    3.14
   4   7   7   -2.03    4.27
   4   7   7    2.93    5.88
   4   7   7    3.97    5.11
  -4   6   7    7.84    3.36
  -4   6   7   -0.22    2.81
  -4   6   7    2.62    2.66
  -4   6   7   11.21    2.64
  -4  -6  -7   13.01    4.11
   4   6   7    7.62    3.96
   4   6   7   -1.03    3.99
   4  -6  -7    5.50    2.59
  -4   5   7   21.89    2.83
  -4  -5  -7   23.51    4.15
  -4   5   7   25.67    4.53
  -4   5   7   21.98    3.28
  -4   5   7   25.98    3.53
  -4  -5  -7   27.96    4.17
   4   5   7   19.43    4.10
   4   5   7   30.77    5.35
   4   5   7   22.49    3.50
  -4  -4  -7    4.36    2.18
  -4  -4  -7    4.49    2.93
  -4   4   7    4.47    1.99
  -4  -4  -7    9.35    2.56
  -4   4   7    3.32    2.20
  -4   4   7    5.73    1.61
  -4   4   7    6.16    1.88
   4  -4  -7    9.10    1.86
   4   4   7    8.32    2.39
   4   4   7    4.99    2.62
   4  -4  -7    8.57    2.24
   4  -4  -7    7.33    2.03
   4   4   7    4.57    2.74
  -4  -3  -7   35.84    3.81
  -4   3   7   27.00    2.75
  -4   3   7   26.48    2.94
  -4  -3  -7   29.66    3.25
  -4  -3  -7   23.77    4.10
  -4   3   7   33.37    3.12
   4  -3  -7   26.43    2.52
   4  -3  -7   26.78    3.44
   4  -3  -7   30.79    3.26
   4   3   7   28.32    3.84
   4   3   7   25.32    3.73
   4   3   7   24.85    3.11
   4  -3  -7   20.69    2.52
  -4   2   7   -0.22    1.31
  -4   2   7    0.88    1.51
  -4  -2  -7   -2.00    1.43
  -4  -2  -7    0.12    1.87
  -4   2   7    0.76    1.28
  -4  -2  -7    1.98    1.38
  -4   2   7    2.13    1.16
   4  -2  -7   -1.16    0.96
   4   2   7    2.99    1.61
   4  -2  -7    0.00    1.17
   4   2   7    1.06    1.88
   4   2   7    1.73    1.37
   4  -2  -7   -0.11    1.58
   4  -2  -7    0.21    1.51
  -4   1   7   22.27    2.69
  -4   1   7   17.92    2.22
  -4  -1  -7   21.47    2.30
  -4   1   7   17.72    2.28
  -4  -1  -7   19.42    2.41
  -4  -1  -7   18.80    2.68
  -4   1   7   19.39    2.10
   4  -1  -7   18.94    2.18
   4  -1  -7   19.00    2.85
   4   1   7   23.21    2.37
   4  -1  -7   20.72    1.86
   4  -1  -7   20.65    2.27
   4   1   7   23.22    2.80
  -4   0   7    0.59    1.07
  -4   0   7   -0.39    1.10
  -4   0   7    1.29    1.36
  -4   0  -7    0.32    1.30
  -4   0  -7   -0.64    0.96
   4   0  -7   -1.67    1.00
   4   0   7   -0.10    1.09
   4   0   7    0.06    1.13
   4   0  -7   -1.21    1.44
   4   0  -7    0.47    1.12
  -4  -1   7   16.36    2.49
  -4  -1   7   19.09    2.46
  -4  -1   7   22.08    2.78
  -4  -1   7   18.34    2.28
  -4   1  -7   21.39    2.38
   4   1  -7   22.09    2.30
   4   1  -7   18.49    2.25
   4   1  -7   18.36    3.05
   4   1  -7   18.79    2.38
  -4  -2   7   -0.15    1.56
  -4  -2   7    3.19    1.92
  -4  -2   7    0.44    1.54
  -4   2  -7   -1.11    1.08
  -4   2  -7    0.35    1.23
  -4  -2   7    0.82    1.22
  -4   2  -7   -0.99    1.30
   4   2  -7   -0.94    1.44
   4   2  -7    4.55    2.04
   4   2  -7    0.48    1.66
   4   2  -7   -1.72    1.30
  -4  -3   7   24.77    3.60
  -4   3  -7   24.61    2.72
  -4  -3   7   28.78    3.66
  -4  -3   7   33.44    3.99
  -4   3  -7   34.54    3.18
  -4  -3   7   32.11    3.17
  -4   3  -7   27.96    3.04
  -4  -3   7   34.92    3.71
   4   3  -7   30.24    3.43
   4   3  -7   39.59    5.06
   4   3  -7   29.60    3.13
  -4  -4   7    6.69    2.12
  -4   4  -7    4.90    2.27
  -4  -4   7    6.71    2.47
  -4   4  -7    5.72    2.29
  -4  -4   7    5.93    2.56
  -4  -4   7    1.46    2.42
  -4  -4   7    6.81    2.66
   4   4  -7    5.42    2.40
   4   4  -7    5.54    3.69
   4   4  -7    6.92    2.35
  -4  -5   7   17.19    3.43
  -4   5  -7   24.44    3.58
  -4  -5   7   23.43    4.02
  -4  -5   7   26.08    4.13
  -4   5  -7   21.32    3.55
  -4  -5   7   18.67    3.27
   4   5  -7   27.99    4.46
   4   5  -7   23.09    3.75
   4   5  -7   24.35    5.42
  -4   6  -7   -2.85    3.15
  -4  -6   7    5.91    2.98
  -4   6  -7    4.41    2.92
  -4  -6   7    6.85    3.75
  -4  -6   7    8.97    3.55
  -4  -6   7    9.85    3.99
   4   6  -7    5.97    3.80
   4   6  -7    6.19    3.03
   4   6  -7    7.56    5.41
  -4  -7   7    1.94    4.63
  -4  -7   7   -1.69    3.15
  -4  -7   7    3.85    5.26
  -4   7  -7    7.35    4.27
  -4  -7   7   -0.23    3.47
  -4   7  -7    0.78    4.23
  -4  -7   7    4.54    4.22
   4   7  -7   -5.16    4.31
   4   7  -7   -1.52    3.71
  -4   8  -7   -0.38    4.42
  -4  -8   7    2.56    5.13
  -4  -8   7   -1.08    4.32
   4   8  -7    0.57    6.20
   4   8  -7    4.99    4.39
  -4  -9   7    0.28    6.35
  -4   9  -7    7.80    5.86
  -4  -9   7    5.82    5.36
  -4  -9   7    6.71    6.22
   4   9  -7   -0.20    7.47
   4   9  -7    4.89    5.65
  -4  10  -7   21.43    8.14
  -4 -10   7    2.24    7.54
  -4 -10   7    0.91    7.72
   4  10  -7   -2.91   10.65
   4  10  -7   12.18    7.30
  -5   9   7    8.03    6.40
  -5   9   7   -0.23    7.49
   5   9   7    2.97    6.13
   5   9   7    0.68   10.96
   5   9   7   11.09    8.49
  -5   8   7    3.80    5.64
  -5   8   7   14.40    6.42
  -5   8   7   10.18    5.08
   5   8   7    9.84    5.05
   5   8   7   19.01    8.55
   5   8   7   11.36    7.19
  -5   7   7   -3.04    4.36
  -5  -7  -7   14.92    6.02
  -5  -7  -7    2.97    3.89
  -5   7   7   -0.65    3.56
  -5   7   7   -2.24    3.74
  -5   7   7    6.87    3.21
   5   7   7    8.18    4.84
   5  -7  -7    4.78    3.05
   5  -7  -7    7.34    3.81
   5   7   7   -1.54    9.44
   5   7   7   10.51    6.48
  -5   6   7    1.07    3.17
  -5  -6  -7    1.27    4.70
  -5   6   7    1.71    2.59
  -5   6   7    1.07    2.84
  -5   6   7    1.46    2.92
   5  -6  -7    2.27    2.81
   5  -6  -7    1.14    2.38
   5   6   7    3.75    4.73
   5   6   7   -0.18    4.40
  -5   5   7   14.70    2.49
  -5  -5  -7   12.88    3.97
  -5  -5  -7    8.97    3.22
  -5   5   7    9.90    3.01
  -5   5   7   13.18    3.03
  -5   5   7   14.28    2.82
   5   5   7   16.49    4.11
   5   5   7   14.82    3.84
   5   5   7   13.05    3.24
  -5   4   7   70.69    5.06
  -5   4   7   60.84    4.57
  -5   4   7   71.10    5.03
  -5  -4  -7   68.90    5.41
  -5   4   7   69.69    4.12
  -5  -4  -7   69.85    6.42
   5  -4  -7   61.51    5.27
   5   4   7   66.18    6.08
   5  -4  -7   73.04    5.28
   5  -4  -7   70.02    4.85
   5   4   7   66.75    6.22
  -5   3   7   14.71    2.09
  -5  -3  -7   17.78    3.06
  -5  -3  -7   13.63    2.75
  -5  -3  -7   14.72    3.20
  -5   3   7   17.07    2.53
  -5   3   7   16.87    2.62
   5  -3  -7   19.23    2.95
   5  -3  -7   15.53    2.38
   5   3   7   20.08    3.31
   5   3   7   16.77    2.78
   5  -3  -7   19.62    3.36
   5   3   7   22.23    3.14
   5  -3  -7   13.23    2.13
  -5   2   7   -0.30    1.65
  -5  -2  -7    1.13    2.04
  -5   2   7    1.63    1.31
  -5  -2  -7   -0.05    1.61
  -5   2   7   -1.95    1.34
  -5   2   7    2.33    1.73
   5  -2  -7   -0.29    1.80
   5  -2  -7    2.55    1.51
   5   2   7    0.58    1.52
   5  -2  -7    2.30    1.88
   5   2   7    0.97    1.91
   5   2   7   -0.47    1.68
   5  -2  -7    2.62    1.39
  -5   1   7   -0.66    1.54
  -5   1   7    0.31    1.22
  -5  -1  -7    1.17    1.71
  -5  -1  -7    2.05    1.63
  -5  -1  -7    0.61    1.44
  -5   1   7   -1.25    1.31
  -5   1   7    0.33    1.78
   5  -1  -7    0.87    1.54
   5   1   7    0.61    1.27
   5  -1  -7   -1.47    1.68
   5  -1  -7   -0.76    1.27
   5   1   7    0.55    1.73
   5  -1  -7    0.14    1.23
  -5   0   7   -1.59    2.18
  -5   0   7    0.41    1.08
  -5   0  -7    0.84    1.46
  -5   0   7    2.51    1.53
  -5   0  -7    0.29    1.29
   5   0  -7   -1.17    1.22
   5   0   7   -0.13    1.11
   5   0  -7   -0.02    1.04
   5   0  -7   -0.17    1.49
   5   0  -7    0.02    1.87
  -5  -1   7   -0.46    1.80
  -5  -1   7   -0.50    1.53
  -5  -1   7   -0.39    1.24
  -5   1  -7    2.52    1.38
   5   1  -7    2.35    3.27
   5   1  -7   -0.93    1.64
   5   1  -7   -2.67    1.39
   5   1  -7    1.17    1.37
  -5  -2   7    1.15    1.57
  -5  -2   7    1.20    1.86
  -5   2  -7    0.50    1.19
  -5   2  -7   -0.30    1.36
  -5  -2   7   -1.15    1.94
  -5  -2   7    1.14    1.98
   5   2  -7   -1.99    1.46
   5   2  -7    1.31    1.75
   5   2  -7    4.11    2.62
  -5  -3   7   16.67    3.34
  -5  -3   7   15.22    2.77
  -5  -3   7   16.40    2.54
  -5   3  -7   13.51    2.64
  -5   3  -7   14.22    2.74
  -5  -3   7   22.33    3.84
  -5  -3   7   11.76    2.94
  -5   3  -7   18.40    2.48
   5   3  -7   18.35    3.03
   5   3  -7    9.53    3.86
   5   3  -7   18.58    3.40
  -5   4  -7   63.86    4.95
  -5  -4   7   53.25    5.52
  -5  -4   7   66.85    5.37
  -5  -4   7   72.68    5.85
  -5   4  -7   69.55    4.61
  -5  -4   7   56.81    5.87
  -5   4  -7   65.75    4.93
  -5  -4   7   65.97    6.19
   5   4  -7   69.48    5.06
  -5   5  -7   16.76    3.11
  -5  -5   7   17.75    4.07
  -5  -5   7   12.82    4.12
  -5  -5   7   12.21    3.64
  -5   5  -7   13.80    3.29
  -5   5  -7   13.32    3.19
  -5  -5   7   14.66    3.29
  -5  -5   7   16.96    3.94
   5   5  -7   13.19    3.51
   5   5  -7   17.72    3.45
  -5  -6   7   -3.79    4.31
  -5  -6   7    1.34    3.31
  -5   6  -7   -0.27    2.90
  -5  -6   7   -3.42    3.86
  -5   6  -7   -3.27    3.46
  -5  -6   7   -0.76    4.34
   5   6  -7    5.81    3.85
  -5   7  -7   -3.74    3.79
  -5  -7   7   -0.72    3.93
  -5  -7   7    3.47    5.06
  -5  -7   7    8.11    5.88
  -5   7  -7    0.87    4.65
  -5  -7   7   -8.04    4.95
  -5  -7   7    5.02    4.31
   5   7  -7    4.79    4.15
   5   7  -7   -0.35    4.78
  -5   8  -7   10.33    5.17
  -5  -8   7   16.16    6.26
  -5  -8   7   19.32    6.08
   5   8  -7    6.34    5.30
   5   8  -7    6.45    7.26
  -5   9  -7    1.24    6.51
  -5  -9   7    3.33    6.85
  -5  -9   7    9.97    6.55
   5   9  -7    2.81    6.40
   5   9  -7    6.63    8.92
  -6   9   7    4.13    6.75
  -6   9   7    5.49    8.41
  -6  -9  -7   -6.56    9.96
   6   9   7    6.84    9.26
   6   9   7   -7.21   11.26
  -6   8   7    3.00    5.16
  -6   8   7   -6.84    6.03
  -6   8   7   -5.03    4.98
   6   8   7   -1.28    8.37
  -6  -7  -7   11.30    7.02
  -6   7   7    2.24    3.85
  -6   7   7   -5.50    3.83
  -6   7   7    2.02    5.07
  -6   7   7   -2.35    3.81
   6   7   7   -4.25    5.47
   6   7   7   -1.81    5.26
   6   7   7    3.34    6.48
  -6   6   7    0.69    3.59
  -6   6   7   -1.43    2.93
  -6   6   7   -3.89    2.81
  -6  -6  -7   -2.46    5.52
  -6  -6  -7   -2.38    3.85
   6  -6  -7    3.68    2.59
   6   6   7    3.34    4.15
   6   6   7    2.38    5.65
   6   6   7    6.45    4.82
  -6   5   7   25.71    4.24
  -6   5   7   28.07    3.95
  -6  -5  -7   32.24    5.36
   6  -5  -7   27.28    3.71
   6   5   7   34.18    5.16
   6   5   7   34.52    5.19
   6  -5  -7   27.21    4.23
   6  -5  -7   30.92    5.19
   6   5   7   28.65    5.04
  -6   4   7   23.80    3.42
  -6   4   7   23.43    3.14
  -6  -4  -7   21.36    3.84
  -6   4   7   22.95    3.94
   6   4   7   24.33    4.29
   6   4   7   23.07    4.27
   6   4   7   20.00    4.02
   6  -4  -7   28.66    4.00
   6  -4  -7   21.83    3.60
  -6   3   7    3.04    2.03
  -6  -3  -7    1.74    2.28
  -6   3   7    2.95    2.07
  -6   3   7    4.62    2.37
  -6   3   7    1.49    1.41
  -6  -3  -7    1.77    2.86
  -6  -3  -7    3.87    2.56
   6  -3  -7    4.64    3.02
   6  -3  -7    0.86    2.48
   6   3   7    0.58    2.33
   6  -3  -7    0.75    2.08
   6   3   7    5.18    2.74
  -6  -2  -7   32.29    4.00
  -6   2   7   24.83    3.72
  -6   2   7   21.55    2.59
  -6   2   7   24.69    3.08
  -6  -2  -7   23.92    3.36
  -6   2   7   18.68    3.03
   6  -2  -7   22.01    2.71
   6  -2  -7   22.74    3.52
   6   2   7   23.64    3.10
   6   2   7   19.48    2.85
   6  -2  -7   24.52    2.81
   6  -2  -7   18.94    3.24
  -6  -1  -7   22.44    3.30
  -6   1   7   18.34    2.91
  -6   1   7   20.79    3.40
  -6  -1  -7   21.66    3.06
  -6  -1  -7   22.07    2.84
  -6   1   7   20.70    2.63
   6  -1  -7   15.63    2.38
   6   1   7   16.80    2.37
   6  -1  -7   16.35    3.30
   6  -1  -7   18.18    2.64
   6  -1  -7   16.53    2.64
   6   1   7   17.75    2.57
  -6   0  -7   -0.83    1.61
  -6   0   7    1.73    1.35
  -6   0   7   -1.14    1.76
   6   0   7   -1.61    1.67
   6   0  -7    0.76    1.41
   6   0  -7    0.41    1.20
   6   0  -7    0.33    2.43
   6   0   7    1.91    1.50
   6   0  -7    0.65    1.66
  -6   1  -7   20.85    2.73
  -6  -1   7   18.47    3.18
  -6  -1   7   18.97    2.74
  -6  -1   7   23.60    3.70
  -6   1  -7   15.38    2.12
  -6  -1   7   24.12    3.89
   6   1  -7   16.30    2.61
   6   1  -7   22.41    4.16
   6   1  -7   13.98    2.46
  -6  -2   7   24.91    3.82
  -6  -2   7   24.51    4.23
  -6  -2   7   29.92    3.99
  -6   2  -7   25.39    2.98
  -6  -2   7   28.91    4.03
  -6   2  -7   25.65    2.40
  -6  -2   7   23.89    3.44
   6   2  -7   23.87    3.50
   6   2  -7   25.29    5.02
   6   2  -7   23.21    3.41
   6   2  -7   21.96    3.13
  -6  -3   7    3.05    2.83
  -6   3  -7    2.56    1.89
  -6  -3   7    3.62    2.77
  -6  -3   7    3.86    2.18
  -6  -3   7    3.87    2.57
  -6  -3   7    2.83    2.63
  -6   3  -7    2.24    1.65
  -6   3  -7    3.59    1.85
   6   3  -7    5.15    3.98
   6   3  -7    4.20    2.47
   6   3  -7    6.45    2.48
  -6  -4   7   25.10    4.18
  -6  -4   7   24.44    3.96
  -6  -4   7   22.19    4.27
  -6  -4   7   27.17    4.61
  -6   4  -7   29.28    3.52
  -6   4  -7   26.89    3.76
  -6   4  -7   26.33    3.54
   6   4  -7   23.25    4.36
  -6  -5   7   38.04    8.73
  -6  -5   7   36.15    6.44
  -6  -5   7   47.05    7.36
  -6   5  -7   29.08    4.58
  -6   5  -7   32.20    4.72
  -6  -5   7   38.82    5.69
  -6   5  -7   28.13    4.58
   6   5  -7   37.28    5.06
  -6  -6   7   -7.66    5.04
  -6   6  -7    1.99    3.15
  -6  -6   7   -6.00    4.42
  -6   6  -7    2.42    3.16
  -6  -6   7   -4.67    5.03
  -6  -6   7   -5.20    4.54
  -6  -6   7    0.22    3.76
   6   6  -7   -0.79    4.39
   6   6  -7    5.12    3.75
  -6   7  -7    0.97    4.33
  -6   7  -7   -1.44    3.88
  -6  -7   7    2.88    7.11
  -6  -7   7   -7.79    5.22
  -6  -7   7    2.47    4.10
  -6  -7   7    2.35    5.62
   6   7  -7    2.89    5.53
   6   7  -7    1.50    4.21
  -6   8  -7   -2.22    5.53
  -6  -8   7   -3.61    6.73
  -6  -8   7    8.07    5.39
   6   8  -7   16.94    7.67
   6   8  -7    3.12    5.44
  -6  -9   7   -6.20    7.36
  -6   9  -7    9.17    7.23
  -6  -9   7   12.08    7.22
   6   9  -7    6.01    7.48
   6   9  -7   14.22    9.97
  -7   8   7    8.12    6.25
  -7   8   7   -0.91    5.65
  -7  -8  -7    5.10    9.47
  -7   8   7   -4.23    6.75
   7   8   7   15.80    9.39
   7   8   7  -17.17    8.29
  -7   7   7    1.98    4.16
  -7   7   7    4.96    5.61
  -7   7   7   11.00    4.22
   7   7   7   -1.71    6.71
   7   7   7   -4.53    6.53
  -7  -6  -7   19.03    6.80
  -7   6   7   -2.28    3.34
  -7   6   7   11.84    4.57
  -7   6   7    5.94    3.56
  -7   6   7    6.15    3.34
   7   6   7    0.12    4.50
   7   6   7    0.06    5.65
   7   6   7    4.72    5.30
  -7   5   7   10.79    3.31
  -7  -5  -7   26.32    5.34
  -7   5   7   11.19    3.97
  -7   5   7   13.15    2.77
  -7  -5  -7    9.42    4.16
   7   5   7   19.07    5.11
   7   5   7   15.33    4.91
   7  -5  -7   18.51    4.18
   7  -5  -7   13.75    3.11
  -7   4   7   -0.16    2.95
  -7   4   7   -2.93    2.30
  -7  -4  -7   -0.56    3.20
  -7   4   7    0.90    1.79
  -7  -4  -7    9.32    3.57
   7  -4  -7    2.54    2.85
   7   4   7   -0.55    2.89
   7   4   7   -4.63    3.62
   7   4   7   -2.62    3.19
   7  -4  -7    3.43    2.95
   7  -4  -7   -1.65    2.31
  -7  -3  -7   95.14    7.00
  -7  -3  -7  104.18    7.07
  -7   3   7   93.79    6.24
  -7   3   7   97.83    6.07
  -7   3   7   90.86    6.25
   7   3   7   89.59    5.82
   7  -3  -7   87.08    9.32
   7  -3  -7   85.12    5.81
   7   3   7   72.36    7.01
  -7   2   7   27.64    3.50
  -7  -2  -7   36.37    4.58
  -7   2   7   25.68    4.18
  -7  -2  -7   26.14    4.48
  -7   2   7   30.95    3.63
  -7  -2  -7   38.93    4.52
   7   2   7   37.30    4.39
   7  -2  -7   24.02    5.24
   7   2   7   37.46    3.58
   7  -2  -7   30.83    3.43
  -7   1   7   23.91    3.37
  -7   1   7   23.15    3.17
  -7   1   7   26.36    4.25
  -7  -1  -7   27.63    4.05
  -7  -1  -7   31.09    3.70
  -7  -1  -7   22.28    4.01
   7   1   7   22.46    2.88
   7  -1  -7   26.22    2.98
   7  -1  -7   29.21    4.49
   7   1   7   20.99    3.64
   7   1   7   24.34    2.96
  -7   0   7   -3.23    2.35
  -7   0   7    1.35    2.59
  -7   0  -7    0.71    1.99
  -7   0  -7   -1.37    1.73
  -7   0   7    0.68    2.08
  -7   0   7    3.17    1.54
  -7   0  -7   -0.15    2.14
   7   0  -7   -1.56    3.13
   7   0  -7    1.41    1.44
   7   0   7    2.00    2.13
   7   0   7    0.03    1.76
   7   0  -7    1.67    1.59
  -7  -1   7   26.46    3.93
  -7   1  -7   21.81    3.43
  -7  -1   7   21.42    3.95
  -7  -1   7   24.97    3.31
   7   1  -7   26.74    4.70
   7   1  -7   31.83    2.75
   7   1  -7   31.60    3.61
   7   1  -7   26.58    2.82
   7  -1   7   24.52    3.36
  -7  -2   7   32.08    4.61
  -7  -2   7   36.70    5.61
  -7  -2   7   32.50    4.11
  -7  -2   7   32.22    5.33
  -7   2  -7   26.87    3.39
  -7   2  -7   34.40    3.13
   7   2  -7   27.90    3.80
   7   2  -7   36.60    3.37
   7   2  -7   44.19    6.98
  -7   3  -7   86.88    5.92
  -7   3  -7   95.67    5.54
  -7  -3   7  103.73    7.54
  -7   3  -7   91.26    5.63
  -7  -3   7   90.23    7.36
  -7  -3   7   93.88    7.95
  -7  -3   7   97.18    6.65
   7   3  -7   95.28    6.46
   7   3  -7  105.02    6.18
  -7  -4   7   -3.76    3.79
  -7  -4   7    4.79    2.95
  -7   4  -7    4.36    2.69
  -7  -4   7   -2.53    3.84
  -7  -4   7   -4.72    3.84
  -7   4  -7    0.24    1.96
  -7  -4   7    3.62    4.08
  -7   4  -7   -2.25    2.41
   7   4  -7    0.77    3.30
  -7  -5   7   14.18    4.86
  -7  -5   7   16.94    4.47
  -7  -5   7   16.91    5.30
  -7   5  -7   12.50    3.66
  -7   5  -7   15.13    3.07
  -7  -5   7   15.14    5.27
  -7   5  -7   20.31    3.68
  -7  -5   7    4.67    5.09
   7   5  -7   23.10    4.42
  -7  -6   7   -0.01    6.14
  -7   6  -7   -2.86    4.15
  -7  -6   7   -0.74    5.58
  -7  -6   7   -2.04    3.97
  -7  -6   7   -1.49    5.46
  -7   6  -7    0.82    4.00
  -7  -6   7   -2.04    7.81
  -7   6  -7    1.97    3.17
   7   6  -7    6.74    4.59
  -7   7  -7   -2.72    4.75
  -7   7  -7   -4.04    4.49
  -7  -7   7    4.97    5.02
   7   7  -7   16.28    5.48
  -7  -8   7    1.73    6.09
  -7  -8   7   -4.01    7.61
  -7   8  -7    1.92    5.34
  -7   8  -7    6.62    5.96
   7   8  -7   -5.18    8.36
   7   8  -7    6.50    6.62
  -8  -8  -7   11.42   11.29
  -8   8   7   -1.90    6.37
   8   8   7    7.64    9.62
   8   8   7   24.79   10.23
  -8   7   7   -5.92    4.83
  -8   7   7   -6.23    6.96
  -8  -7  -7    1.17    9.04
  -8   7   7   -1.35    6.77
   8   7   7   14.08    7.83
   8   7   7    5.75    7.41
  -8   6   7    1.48    3.32
  -8   6   7   -3.42    4.87
  -8  -6  -7   10.37    7.42
  -8   6   7   -1.00    3.85
   8   6   7   -8.36    5.45
   8   6   7   -0.71    5.77
   8   6   7    8.95    6.33
  -8  -5  -7   -3.12    5.51
  -8   5   7   -1.40    3.00
  -8   5   7   -0.74    3.49
  -8  -5  -7   -1.58    6.16
   8   5   7    3.25    4.98
   8  -5  -7   -2.17    3.06
   8  -5  -7    5.88    4.79
  -8   4   7   12.84    3.92
  -8  -4  -7    7.51    5.94
  -8  -4  -7   10.27    4.63
  -8   4   7   12.48    3.43
   8  -4  -7   10.08    3.08
   8  -4  -7   16.28    3.84
   8   4   7    9.61    4.42
   8   4   7    6.25    3.64
  -8   3   7   60.22    5.52
  -8  -3  -7   53.39    7.00
  -8   3   7   62.93    5.53
  -8  -3  -7   63.96    7.14
  -8   3   7   67.01    5.91
   8  -3  -7   60.52    5.39
   8   3   7   46.03    6.61
   8   3   7   55.21    5.11
   8  -3  -7   62.60    5.13
  -8  -2  -7   35.73    5.48
  -8   2   7   27.84    3.96
  -8   2   7   36.27    4.95
  -8  -2  -7   38.91    5.61
  -8   2   7   25.02    4.12
   8  -2  -7   39.77    5.89
   8  -2  -7   43.68    6.48
   8   2   7   37.70    3.88
   8   2   7   33.21    4.92
  -8   1   7    3.81    2.38
  -8  -1  -7    5.87    2.95
  -8   1   7    3.00    2.77
  -8  -1  -7   -0.37    2.61
  -8  -1  -7    2.32    2.55
   8  -1  -7   -3.78    3.39
   8   1   7    3.16    2.12
   8   1   7    3.68    2.31
   8  -1  -7    5.48    2.12
  -8   0   7    2.50    2.19
  -8   0   7   -3.18    2.36
  -8   0   7   -4.05    2.82
  -8   0   7   -2.19    2.81
   8   0  -7   -2.31    3.91
   8   0  -7   -1.05    2.00
   8   0   7   -2.10    2.57
  -8  -1   7    2.11    3.43
  -8  -1   7    1.33    2.62
  -8  -1   7    2.56    2.88
  -8  -1   7    1.76    3.40
  -8  -1   7   -1.56    3.13
   8   1  -7    5.91    2.36
   8   1  -7    8.04    4.41
   8  -1   7    3.25    2.76
  -8   2  -7   30.90    3.61
  -8  -2   7   30.85    5.74
  -8  -2   7   38.48    5.55
  -8  -2   7   28.22    5.31
  -8  -2   7   34.14    5.83
  -8   2  -7   32.87    3.49
   8   2  -7   29.07    3.51
  -8   3  -7   56.56    4.70
  -8  -3   7   71.15    7.76
  -8   3  -7   74.78    4.97
  -8  -3   7   60.33    6.21
  -8  -3   7   55.80    7.34
  -8  -3   7   54.11    7.85
   8   3  -7   54.04    5.73
   8   3  -7   66.98    5.11
   8   3  -7   66.93    9.81
  -8   4  -7   14.84    2.80
  -8   4  -7   15.78    3.79
  -8   4  -7    6.82    3.25
  -8  -4   7   14.73    5.38
  -8  -4   7   15.55    5.21
  -8  -4   7   12.60    5.11
  -8  -4   7   15.04    3.98
   8   4  -7   11.82    3.83
   8   4  -7   12.85    4.32
  -8   5  -7   -1.94    3.23
  -8  -5   7   -1.73    5.37
  -8  -5   7    7.26    6.38
  -8  -5   7   -9.37    5.98
  -8   5  -7    2.77    2.58
  -8   5  -7    2.50    3.86
  -8  -5   7   -5.98    3.88
   8   5  -7    4.27    4.22
  -8  -6   7   14.12    5.12
  -8   6  -7    0.60    4.18
  -8  -6   7    3.73    6.45
  -8   6  -7   -3.35    3.12
   8   6  -7   10.20    5.73
  -8   7  -7    6.07    5.18
  -8  -7   7    0.20    8.18
  -8   7  -7   -0.18    4.20
  -8  -7   7    7.30    5.92
   8   7  -7   10.85    6.37
  -8  -8   7    2.01    9.59
  -8   8  -7   -3.87    6.52
  -8  -8   7    0.20    6.96
  -8   8  -7    7.06    5.69
  -9   7   7   -7.53    7.68
  -9   7   7   10.38    5.67
  -9  -7  -7   13.07   10.90
   9   7   7    7.01    9.50
   9   7   7   -1.30    8.24
  -9   6   7   -4.99    4.52
  -9  -6  -7   14.33    9.46
  -9   6   7    0.22    5.94
  -9  -6  -7   11.11    8.40
   9   6   7  -16.48   11.98
   9   6   7   -7.43    6.27
  -9   5   7    9.07    4.17
  -9  -5  -7   20.27    7.00
  -9  -5  -7   15.51    7.01
  -9   5   7   12.22    4.54
   9   5   7   23.23    6.05
   9   5   7    7.21    5.29
   9   5   7   13.79    5.41
   9  -5  -7   18.33    5.71
  -9  -4  -7    7.61    6.04
  -9  -4  -7    0.62    5.63
  -9   4   7   -1.22    3.53
  -9   4   7    6.40    3.51
   9   4   7    2.62    3.81
   9  -4  -7    5.33    4.37
   9   4   7    1.87    4.61
  -9  -3  -7   13.99    4.99
  -9  -3  -7    8.44    4.60
  -9   3   7   12.62    3.84
  -9   3   7   16.38    3.57
  -9   3   7   12.14    3.77
   9   3   7    6.62    3.34
   9  -3  -7   10.92    3.76
   9   3   7    7.34    4.16
   9  -3  -7    9.77    3.75
  -9  -2  -7   15.49    4.56
  -9   2   7    6.33    3.62
  -9   2   7    4.03    3.40
  -9  -2  -7   10.50    3.83
  -9   2   7   12.30    3.24
   9  -2  -7    8.52    3.32
   9   2   7    5.56    2.97
   9  -2  -7   18.27    4.65
   9  -2  -7   11.59    3.27
  -9   1   7   17.13    4.15
  -9  -1  -7   19.23    4.14
  -9  -1  -7   17.20    3.06
  -9  -1  -7   16.33    3.57
  -9   1   7   11.58    3.29
  -9   1   7   21.45    4.46
  -9   1   7   15.98    3.13
   9   1   7   16.24    3.09
   9   1   7   12.75    2.99
   9  -1  -7   16.32    5.52
   9  -1  -7   15.04    3.24
   9  -1  -7   12.44    3.47
  -9   0   7   -0.12    2.18
  -9   0   7    2.46    3.53
  -9   0   7    0.78    3.63
  -9   0   7    4.64    4.20
   9   0   7   -0.29    2.98
   9   0  -7    2.66    3.16
   9   0  -7   -1.21    2.51
   9   0  -7    1.17    5.06
  -9  -1   7   16.21    3.13
  -9  -1   7   13.12    4.22
  -9  -1   7   13.25    4.59
  -9  -1   7   13.25    4.73
  -9  -1   7   15.96    4.54
   9   1  -7   13.15    2.97
   9  -1   7   10.77    3.82
  -9  -2   7   10.17    5.03
  -9  -2   7   10.79    3.15
  -9  -2   7    3.05    4.54
  -9  -2   7   17.47    4.63
  -9  -2   7   13.50    4.97
   9   2  -7    5.64    6.17
   9   2  -7    8.04    2.93
  -9  -3   7   15.16    5.47
  -9  -3   7   17.49    3.93
  -9  -3   7   24.18    5.77
  -9  -3   7   -0.27    5.60
   9   3  -7   15.33    3.33
  -9  -4   7    5.29    5.66
  -9  -4   7   11.61    6.43
  -9  -4   7   11.06    4.35
  -9   4  -7    2.01    3.38
  -9   4  -7   -0.64    3.83
  -9  -4   7   -0.45    5.59
   9   4  -7    5.47    4.28
   9   4  -7    2.55    4.38
  -9   5  -7    7.85    4.37
  -9  -5   7   20.98    6.86
  -9  -5   7   20.18    5.37
   9   5  -7   18.58    5.77
   9   5  -7   18.36    5.21
  -9  -6   7   -0.72    5.82
  -9  -6   7   -0.81    7.14
  -9   6  -7   -1.95    3.51
  -9   6  -7   -7.43    4.78
   9   6  -7   -5.04    5.92
  -9   7  -7    6.18    4.59
  -9  -7   7    2.15    7.67
  -9   7  -7   -9.83    6.06
  -9  -7   7   -9.77    9.11
   9   7  -7   17.86    7.10
 -10  -6  -7   10.36   10.39
 -10   6   7    4.86    5.88
 -10   6   7   -4.09    6.68
  10   6   7   -7.53    9.00
  10   6   7   17.13    6.96
 -10  -5  -7   -0.33   10.52
 -10  -5  -7    6.60    8.46
 -10   5   7    3.26    4.79
 -10   5   7    4.31    4.57
  10   5   7    5.09    7.01
  10   5   7    1.55    6.45
  10  -5  -7   11.92    6.75
 -10   4   7   -2.08    4.27
 -10  -4  -7    0.69    6.67
 -10   4   7   -3.72    3.94
 -10  -4  -7   -0.66    6.96
  10   4   7   -2.81    4.52
  10  -4  -7    1.65    5.32
  10   4   7    5.97    5.22
 -10  -3  -7    8.47    4.00
 -10   3   7   17.08    4.87
 -10  -3  -7   15.00    5.77
 -10  -3  -7    0.92    6.28
 -10   3   7    9.17    4.06
  10  -3  -7   13.91    4.74
  10   3   7   10.54    3.71
  10   3   7    8.93    3.82
 -10   2   7    6.58    3.27
 -10   2   7   -2.37    3.85
 -10  -2  -7    5.46    5.14
 -10  -2  -7    4.22    3.38
 -10  -2  -7   14.04    4.72
  10   2   7    5.00    3.68
  10  -2  -7    8.47    4.06
 -10   1   7   -6.29    3.61
 -10  -1  -7   -1.58    4.75
 -10   1   7   -2.13    2.67
 -10   1   7    5.06    4.25
 -10   1   7   -7.86    4.56
 -10  -1  -7    1.46    3.06
 -10  -1  -7    0.71    4.62
  10  -1  -7   -8.01    5.71
  10   1   7   -5.47    3.41
  10  -1  -7    1.34    2.92
 -10   0  -7    1.71    4.27
 -10   0   7    0.55    4.45
 -10   0   7   -5.10    2.75
 -10   0   7    2.44    5.05
 -10   0   7    0.75    4.31
 -10   0  -7   -1.02    4.93
  10   0   7   -0.25    3.89
  10   0  -7    4.50    3.09
 -10  -1   7   -1.89    5.03
 -10  -1   7    1.33    4.76
 -10  -1   7   -2.37    2.84
 -10  -1   7    0.50    4.87
  10  -1   7    4.93    5.28
  10   1  -7    3.08    3.12
 -10  -2   7   11.94    6.17
 -10  -2   7   -4.69    5.82
 -10  -2   7   12.46    5.48
 -10  -2   7   12.15    3.70
  10   2  -7    5.92    3.08
 -10  -3   7   13.88    7.08
 -10  -3   7   14.40    4.43
 -10  -3   7   12.35    6.49
  10   3  -7   11.34    3.63
 -10  -4   7    2.29    4.95
 -10  -4   7   12.53    7.22
  10   4  -7    0.10    4.18
 -10  -5   7    5.60    8.14
 -10   5  -7   -5.50    5.97
 -10  -5   7    9.01    6.38
  10   5  -7   -1.21    5.16
  10   5  -7   -0.47    6.04
 -10  -6   7    5.09    7.16
 -10  -6   7    8.79    9.19
  10   6  -7    7.89    8.25
 -11  -4  -7   10.02    8.68
 -11  -4  -7    7.01    5.49
 -11   4   7    0.32    5.44
 -11   4   7    0.07    5.10
  11   4   7   -4.08    5.28
  11  -4  -7   11.60    6.76
 -11   3   7    2.79    5.16
 -11  -3  -7   -4.53    7.42
 -11  -3  -7    1.80    4.74
 -11   3   7    2.46    4.75
  11   3   7   -0.57    5.06
  11  -3  -7   -1.46    5.33
 -11  -2  -7   -3.17    7.19
 -11   2   7   -0.01    3.60
 -11   2   7    1.67    5.26
 -11   2   7   -3.68    6.20
 -11  -2  -7    4.40    4.18
  11  -2  -7   -2.33    4.42
  11   2   7    6.40    5.18
 -11  -1  -7    3.93    7.22
 -11   1   7    6.48    5.73
 -11  -1  -7   12.25    6.56
 -11   1   7    6.82    3.72
 -11   1   7    9.10    6.69
  11  -1  -7    6.33    4.21
  11   1   7   -3.05    4.88
 -11   0   7   -2.89    5.81
 -11   0   7    1.67    5.53
 -11   0   7   -2.02    3.74
 -11   0  -7   13.44    6.25
  11   0   7   -1.65    4.99
  11   0  -7   -1.58    3.79
 -11  -1   7    9.14    7.18
 -11  -1   7    4.73    3.75
 -11  -1   7    8.98    6.24
  11  -1   7   -3.08    5.17
  11   1  -7    0.11    3.74
 -11  -2   7    1.35    6.76
 -11  -2   7   12.76    8.38
 -11  -2   7   -0.18    3.99
  11   2  -7    7.23    3.95
 -11  -3   7   -6.22    8.17
 -11  -3   7    6.42    4.93
  11   3  -7   -1.03    4.11
 -11  -4   7   -2.10    8.37
 -11  -4   7    8.83    6.48
  11   4  -7   -1.61    4.48
 -12   2   7   10.64    6.82
 -12  -2  -7    0.78    9.17
 -12  -2  -7    5.54    4.46
 -12   2   7   -5.65    4.54
  12   2   7   -0.31    6.18
 -12  -1  -7    5.82    9.32
 -12   1   7    3.45    4.67
 -12   1   7    5.67    6.82
  12  -1  -7   -4.19    5.07
  12   1   7    1.93    6.55
 -12   0   7   -1.65    7.49
 -12   0   7    1.83    4.56
 -12   0  -7   -0.15    8.25
  12   0  -7   -3.97    4.67
  12   0   7   17.59    7.30
 -12  -1   7    4.68    4.82
 -12  -1   7   -4.56    7.88
  12  -1   7    4.14    7.03
  12   1  -7    8.06    4.87
 -12  -2   7   15.06    7.94
 -12  -2   7    1.07    5.73
  12   2  -7   -5.60    5.77
   0  10   8    6.56    8.39
   0  10   8   -8.25    9.11
   0  10   8   12.63    7.81
   0  -9  -8   -4.01    4.64
   0   9   8    4.70    6.69
   0   9   8    1.30    6.73
   0  -8  -8   10.52    4.03
   0   8   8    5.88    5.16
   0   8   8   10.87    5.19
   0  -8  -8    2.20    3.50
   0   8   8   -4.28    5.06
   0   7   8   -2.84    3.60
   0   7   8   -3.49    3.69
   0  -7  -8   -4.70    2.94
   0  -6  -8    5.44    2.49
   0   6   8    4.03    3.26
   0  -6  -8    6.23    2.59
   0   6   8    7.74    3.69
   0   6   8    6.73    3.05
   0  -5  -8   -3.17    2.72
   0   5   8   -0.87    2.12
   0  -5  -8   -2.37    1.82
   0   5   8   -1.27    2.61
   0  -5  -8   -2.77    1.71
   0   5   8    0.62    2.24
   0  -4  -8   49.05    4.76
   0  -4  -8   51.42    3.86
   0  -4  -8   56.07    3.85
   0   4   8   42.77    4.75
   0   4   8   47.75    4.39
   0   4   8   53.66    4.30
   0  -3  -8    0.29    1.88
   0   3   8    0.83    1.35
   0   3   8   -1.01    1.39
   0  -3  -8   -0.77    1.14
   0   3   8    1.92    1.57
   0  -3  -8   -1.72    1.13
   0  -2  -8    2.47    1.10
   0   2   8    3.58    1.32
   0   2   8    0.21    1.42
   0  -2  -8    2.91    1.14
   0   2   8    5.34    1.31
   0  -2  -8    2.13    1.42
   0   2   8    4.73    1.35
   0   1   8    0.27    1.09
   0   1   8   -0.18    1.17
   0  -1  -8   -0.20    1.13
   0   1   8   -0.07    0.91
   0  -1  -8   -0.37    0.92
   0   1   8   -0.51    0.97
   0  -1  -8   -0.05    0.84
   0   0   8  448.96   20.76
   0   0  -8  505.70   20.96
   0   0  -8  499.07   20.76
   0   0   8  479.64   20.82
   0   0   8  465.15   21.13
   0   0  -8  463.06   21.09
   0   0   8  497.81   20.84
   0   0  -8  498.66   20.73
   0  -1   8    0.98    1.21
   0  -1   8    0.57    0.91
   0  -1   8    0.00    0.95
   0   1  -8   -0.42    0.70
   0   1  -8   -0.06    0.86
   0   1  -8    0.84    1.13
   0  -1   8    0.84    0.90
   0  -1   8    0.07    1.27
   0   1  -8    0.04    1.11
   0   2  -8    2.97    1.33
   0  -2   8    1.35    0.93
   0   2  -8    3.18    0.98
   0   2  -8    2.35    1.32
   0  -2   8    1.54    1.53
   0   2  -8    1.92    1.29
   0   3  -8   -0.47    1.28
   0  -3   8   -0.70    1.18
   0  -3   8    1.11    1.68
   0   3  -8    1.67    1.32
   0   3  -8    0.81    1.02
   0   3  -8    1.08    1.49
   0  -3   8   -0.39    1.10
   0  -4   8   55.75    3.51
   0  -4   8   52.60    5.12
   0   4  -8   58.31    4.36
   0  -4   8   53.89    3.95
   0   4  -8   50.21    3.95
   0   4  -8   52.58    4.15
   0   5  -8   -1.25    1.99
   0  -5   8   -1.94    2.31
   0  -5   8    0.61    1.47
   0  -5   8    0.90    2.75
   0   5  -8    3.29    2.92
   0   5  -8   -0.33    2.02
   0   6  -8    5.91    2.76
   0  -6   8    7.39    2.14
   0   6  -8    8.33    3.08
   0   6  -8    1.83    3.99
   0  -6   8    6.58    2.66
   0   7  -8   -9.76    5.14
   0   7  -8    1.39    3.74
   0   7  -8    2.56    3.51
   0  -7   8   -0.52    2.44
   0   8  -8   11.10    4.93
   0  -8   8    7.81    3.24
   0   8  -8    0.63    4.20
   0  -8   8    7.31    4.09
   0   9  -8   -4.90    6.23
   0  -9   8   -2.47    3.99
   0  10  -8   -0.60    6.75
   0  10  -8   -1.44    9.14
  -1  10   8  -10.48    8.86
  -1  10   8    2.85   12.76
  -1  10   8  -12.94    7.89
   1  10   8   -9.76    8.57
   1  10   8   -0.48    7.71
   1  10   8   -8.98   10.17
  -1   9   8  -11.63    6.81
  -1   9   8   -3.00    6.06
  -1   9   8    8.21    6.06
   1   9   8    3.39    7.55
   1   9   8    1.19    5.97
   1   9   8    4.44    6.95
  -1   8   8   -8.64    4.98
  -1   8   8    1.06    4.64
  -1   8   8   -4.20    3.69
  -1   8   8   -0.89    5.02
  -1  -8  -8    7.88    3.99
   1   8   8    2.84    5.45
   1   8   8    1.23    5.14
   1  -8  -8   -1.27    3.22
   1  -8  -8   -3.33    4.13
  -1  -7  -8    3.40    3.31
  -1  -7  -8   -3.18    3.37
  -1   7   8   -3.75    3.03
  -1   7   8    9.04    4.23
  -1   7   8    7.53    3.98
  -1   7   8    2.11    3.58
   1   7   8    6.81    4.05
   1  -7  -8    3.12    2.95
   1   7   8   -1.26    3.81
  -1   6   8   -0.91    3.25
  -1  -6  -8    3.45    2.83
  -1   6   8    4.17    3.00
  -1  -6  -8    3.27    2.43
  -1   6   8    3.69    3.11
   1  -6  -8    2.79    2.19
   1   6   8    5.22    3.05
   1  -6  -8    3.83    2.41
   1   6   8    4.21    3.49
  -1   5   8    5.00    2.73
  -1  -5  -8    1.01    2.77
  -1   5   8    2.44    2.35
  -1   5   8    3.43    2.21
  -1  -5  -8    1.62    1.94
  -1  -5  -8   -0.01    2.39
   1   5   8    3.32    2.74
   1   5   8    5.13    2.58
   1  -5  -8    2.47    1.80
   1  -5  -8   -1.58    1.95
   1  -5  -8    2.32    2.79
   1   5   8    4.73    2.37
  -1   4   8    4.65    2.06
  -1  -4  -8    7.19    2.66
  -1   4   8    4.72    2.57
  -1   4   8    8.49    1.93
  -1  -4  -8    3.68    1.76
  -1  -4  -8    6.99    1.99
   1   4   8    2.81    2.26
   1  -4  -8    3.18    2.48
   1  -4  -8    7.08    2.59
   1   4   8    6.86    2.18
   1   4   8    7.30    2.34
  -1   3   8   -1.34    1.21
  -1   3   8   -0.33    1.68
  -1   3   8   -2.06    1.26
  -1  -3  -8    0.36    1.77
  -1  -3  -8    0.13    1.25
  -1  -3  -8   -0.08    1.33
   1  -3  -8    1.85    1.23
   1   3   8    1.71    1.47
   1   3   8   -1.73    1.73
   1   3   8   -1.39    1.54
   1  -3  -8    0.63    1.20
   1  -3  -8    0.21    1.98
  -1  -2  -8   37.33    2.77
  -1   2   8   37.09    2.94
  -1  -2  -8   38.40    2.84
  -1  -2  -8   35.79    3.23
  -1   2   8   35.93    2.92
  -1   2   8   42.84    2.77
  -1   2   8   38.53    3.16
   1   2   8   34.37    3.10
   1  -2  -8   32.16    3.13
   1  -2  -8   38.07    2.72
   1   2   8   35.74    2.97
   1  -2  -8   36.02    2.84
   1   2   8   37.37    3.14
   1   2   8   39.13    2.41
  -1   1   8   29.53    2.63
  -1  -1  -8   33.74    2.82
  -1   1   8   30.42    2.66
  -1   1   8   31.07    2.61
  -1   1   8   36.37    2.49
  -1  -1  -8   36.46    2.46
  -1  -1  -8   34.96    2.47
   1  -1  -8   34.16    2.96
   1  -1  -8   35.17    2.42
   1  -1  -8   34.77    2.66
   1   1   8   26.29    2.49
   1   1   8   29.54    2.10
   1   1   8   29.29    2.83
   1   1   8   35.11    2.73
  -1   0   8  279.13   13.11
  -1   0   8  321.15   13.50
  -1   0   8  293.45   13.11
  -1   0   8  317.12   13.22
  -1   0  -8  279.02   12.99
  -1   0  -8  278.66   13.33
  -1   0  -8  301.03   12.92
  -1   0  -8  298.60   12.84
   1   0  -8  314.95   13.13
   1   0  -8  285.05   13.32
   1   0  -8  279.86   13.29
   1   0  -8  284.49   12.99
   1   0   8  294.78   12.99
   1   0   8  295.61   13.39
   1   0   8  294.18   12.99
  -1   1  -8   32.95    2.36
  -1  -1   8   33.23    2.49
  -1   1  -8   34.26    2.21
  -1  -1   8   33.99    2.81
  -1   1  -8   32.56    2.69
  -1   1  -8   33.48    2.37
  -1  -1   8   34.42    2.48
  -1  -1   8   32.36    2.49
   1   1  -8   33.45    2.71
   1  -1   8   33.82    2.35
   1  -1   8   30.97    2.96
   1   1  -8   33.65    2.59
   1   1  -8   29.91    2.62
   1   1  -8   33.16    2.40
   1  -1   8   39.18    2.69
  -1   2  -8   35.19    2.37
  -1  -2   8   38.57    2.66
  -1   2  -8   36.39    2.76
  -1  -2   8   37.02    2.70
  -1   2  -8   35.81    2.53
  -1  -2   8   40.07    3.25
  -1  -2   8   38.70    2.86
  -1   2  -8   34.43    3.00
   1  -2   8   42.13    3.10
   1   2  -8   33.60    3.05
   1   2  -8   36.67    2.86
   1  -2   8   36.97    3.14
   1   2  -8   38.04    3.16
   1   2  -8   36.96    2.67
  -1  -3   8   -0.64    1.09
  -1  -3   8    0.49    1.26
  -1   3  -8   -0.30    0.90
  -1  -3   8   -0.91    1.07
  -1  -3   8    0.10    1.64
  -1  -3   8   -1.37    1.45
  -1   3  -8    0.45    1.58
  -1   3  -8    0.80    1.43
  -1   3  -8    0.20    1.20
  -1   3  -8    2.78    1.31
   1   3  -8    1.16    1.20
   1  -3   8    0.16    1.69
   1   3  -8    1.07    1.44
   1   3  -8    0.56    1.41
   1  -3   8   -0.31    0.76
   1  -3   8   -1.30    1.04
   1   3  -8   -1.35    1.50
  -1  -4   8    4.29    2.38
  -1   4  -8    5.33    1.82
  -1   4  -8    5.99    2.17
  -1   4  -8    4.86    1.93
  -1  -4   8    7.04    1.88
  -1  -4   8    7.68    1.71
  -1  -4   8    4.79    1.61
   1   4  -8    5.37    1.87
   1  -4   8    7.41    1.19
   1   4  -8    9.87    2.64
   1   4  -8    5.24    1.91
   1  -4   8    6.46    2.43
  -1  -5   8    5.63    3.07
  -1  -5   8    1.27    2.17
  -1   5  -8   -1.49    2.16
  -1   5  -8    9.60    2.84
  -1   5  -8    2.04    2.17
  -1  -5   8    4.05    1.90
   1  -5   8    3.13    2.01
   1   5  -8    3.22    2.17
   1  -5   8    3.38    1.38
   1   5  -8    3.62    2.06
  -1   6  -8    2.75    2.77
  -1   6  -8    3.08    2.66
  -1  -6   8    4.02    2.36
  -1   6  -8    8.10    3.82
  -1  -6   8    2.11    2.86
   1  -6   8    4.69    2.94
   1  -6   8    2.24    2.46
   1   6  -8    4.77    2.74
   1   6  -8   -1.44    4.22
   1   6  -8    6.48    3.04
  -1   7  -8    3.60    4.24
  -1  -7   8    4.55    2.75
   1   7  -8    6.31    4.14
   1   7  -8   -1.82    5.99
   1  -7   8    4.30    2.45
   1   7  -8    7.06    3.28
   1  -7   8    4.51    2.90
  -1   8  -8   -2.50    4.18
  -1   8  -8    1.48    4.68
  -1  -8   8   -7.27    4.44
  -1  -8   8   -3.88    3.45
   1   8  -8   -1.87    5.26
   1   8  -8    4.80    3.97
  -1   9  -8   -4.90    5.52
  -1  -9   8   -2.78    4.20
   1   9  -8   -6.66    6.79
   1   9  -8    7.01    5.18
  -1  10  -8    4.89    8.70
  -1  10  -8   -9.31    7.34
   1  10  -8   -7.41    6.35
   1  10  -8  -10.87    9.01
  -2  10   8   -9.86    7.83
  -2  10   8    4.87    8.55
   2  10   8    8.98    9.56
   2  10   8    5.84   12.13
   2  10   8    8.95    8.79
  -2   9   8    6.35    6.61
  -2   9   8    0.21    6.40
  -2   9   8    7.13    5.39
   2   9   8   10.38    5.98
   2  -9  -8    0.60    4.61
   2   9   8   -6.47    8.33
   2   9   8   -5.07    7.14
  -2   8   8    2.83    3.66
  -2   8   8   -0.33    4.81
  -2   8   8   14.00    5.68
  -2   8   8   -6.95    4.60
  -2  -8  -8    3.19    5.04
   2   8   8   -5.09    5.52
   2   8   8   -1.14    5.27
   2  -8  -8    5.10    3.75
   2   8   8    1.31    4.39
  -2   7   8   15.59    3.10
  -2   7   8   20.60    4.47
  -2   7   8   20.04    4.34
  -2   7   8   22.67    4.74
  -2  -7  -8   18.57    3.89
  -2  -7  -8   16.85    4.44
   2   7   8   15.62    6.07
   2   7   8   16.90    4.78
   2  -7  -8   13.59    3.45
  -2  -6  -8   26.09    4.15
  -2   6   8   21.68    3.73
  -2   6   8   31.04    4.99
  -2   6   8   17.01    3.73
  -2   6   8   29.14    2.99
   2   6   8   26.05    4.37
   2   6   8   27.88    4.77
   2  -6  -8   23.35    3.79
  -2  -5  -8    2.40    2.31
  -2  -5  -8    0.44    2.42
  -2   5   8   -1.55    2.40
  -2  -5  -8   -0.56    3.09
  -2   5   8    0.65    2.44
  -2   5   8   -1.20    2.06
  -2   5   8    0.74    1.47
   2  -5  -8   -0.95    1.87
   2   5   8   -4.55    2.84
   2   5   8   -3.49    2.27
   2  -5  -8   -1.98    1.57
   2   5   8    3.51    2.77
  -2  -4  -8   22.41    3.09
  -2   4   8   24.77    3.32
  -2   4   8   27.69    3.27
  -2  -4  -8   29.31    3.61
  -2   4   8   25.54    2.08
  -2   4   8   28.47    3.60
  -2  -4  -8   22.84    4.25
   2  -4  -8   24.56    3.40
   2  -4  -8   28.90    2.83
   2  -4  -8   27.62    4.07
   2   4   8   29.67    3.83
   2   4   8   24.45    4.00
  -2   3   8   57.19    3.90
  -2  -3  -8   57.05    3.98
  -2   3   8   52.11    4.01
  -2  -3  -8   53.52    4.77
  -2  -3  -8   53.53    3.77
  -2   3   8   53.48    3.80
   2   3   8   51.83    4.44
   2   3   8   57.50    3.93
   2  -3  -8   53.23    3.59
   2  -3  -8   55.05    3.87
   2  -3  -8   48.50    4.28
   2   3   8   49.76    4.26
  -2  -2  -8   17.29    2.12
  -2   2   8   13.38    2.25
  -2   2   8   12.30    1.83
  -2   2   8   15.65    2.18
  -2  -2  -8   12.06    2.12
  -2  -2  -8   11.41    2.19
  -2   2   8   13.73    2.13
   2   2   8   12.12    2.21
   2  -2  -8   13.55    2.12
   2   2   8   15.89    2.30
   2  -2  -8   12.44    1.89
   2  -2  -8   13.93    2.43
   2   2   8   13.21    2.13
  -2  -1  -8   42.11    3.34
  -2   1   8   44.50    3.08
  -2  -1  -8   46.22    2.94
  -2   1   8   43.25    3.05
  -2   1   8   44.59    3.20
  -2   1   8   44.36    2.98
  -2  -1  -8   42.25    2.85
   2   1   8   42.31    3.07
   2  -1  -8   36.34    3.26
   2   1   8   40.98    3.24
   2  -1  -8   46.17    3.27
   2  -1  -8   45.13    2.90
  -2   0  -8    0.94    1.26
  -2   0  -8    1.27    0.88
  -2   0   8   -0.19    1.08
  -2   0   8    0.02    1.02
  -2   0   8    1.15    1.11
  -2   0  -8    0.97    0.88
  -2   0   8   -0.24    0.98
  -2   0  -8   -0.93    0.84
   2   0  -8   -0.45    1.17
   2   0   8   -0.28    1.06
   2   0  -8    0.02    0.88
   2   0  -8    2.18    1.20
   2   0  -8    0.73    1.09
   2   0   8    0.31    0.97
   2   0   8    2.21    1.01
  -2   1  -8   37.73    2.51
  -2  -1   8   40.76    2.86
  -2  -1   8   44.77    3.00
  -2   1  -8   42.14    3.16
  -2  -1   8   47.25    3.20
  -2   1  -8   43.34    2.45
  -2  -1   8   41.28    3.03
   2   1  -8   37.57    2.99
   2  -1   8   37.11    3.26
   2   1  -8   43.67    2.95
   2  -1   8   41.05    2.88
   2   1  -8   48.24    2.96
   2   1  -8   37.90    3.28
  -2   2  -8   11.25    1.82
  -2  -2   8   16.95    2.38
  -2  -2   8   12.89    2.06
  -2   2  -8   12.09    2.16
  -2  -2   8   12.56    1.84
  -2  -2   8   14.37    2.60
   2   2  -8   12.16    2.35
   2  -2   8   12.78    2.24
   2   2  -8   12.42    2.04
   2   2  -8   13.05    2.16
  -2  -3   8   53.40    3.72
  -2  -3   8   54.64    4.02
  -2  -3   8   55.64    3.79
  -2   3  -8   49.18    4.10
  -2  -3   8   58.37    3.69
  -2  -3   8   52.18    3.98
  -2   3  -8   52.70    3.78
   2   3  -8   55.76    4.60
   2  -3   8   53.39    4.06
   2   3  -8   54.71    3.83
   2   3  -8   48.93    4.17
   2   3  -8   54.69    3.78
  -2  -4   8   30.39    3.24
  -2  -4   8   25.26    3.36
  -2  -4   8   26.79    3.13
  -2  -4   8   28.68    3.82
  -2   4  -8   21.02    3.15
  -2  -4   8   26.77    3.34
  -2   4  -8   24.12    3.72
   2   4  -8   31.42    3.23
   2   4  -8   29.00    3.49
  -2  -5   8    1.87    2.56
  -2  -5   8   -0.65    3.31
  -2   5  -8   -1.69    2.22
  -2  -5   8    3.18    2.23
  -2  -5   8   -1.12    1.92
  -2  -5   8   -0.61    1.89
   2   5  -8    2.26    2.09
   2   5  -8    0.28    3.53
   2   5  -8    0.43    2.30
  -2   6  -8   25.37    4.93
  -2  -6   8   28.86    3.68
  -2  -6   8   27.19    4.33
  -2  -6   8   19.41    3.16
   2   6  -8   30.59    4.24
   2   6  -8   17.71    3.46
   2   6  -8   22.23    5.36
  -2  -7   8   19.69    3.54
  -2  -7   8   17.02    3.63
  -2  -7   8   21.08    4.67
  -2   7  -8   17.01    5.52
   2   7  -8   18.76    4.59
   2   7  -8   17.91    4.23
  -2  -8   8    4.13    3.93
  -2   8  -8    5.29    5.06
  -2   8  -8    0.08    4.57
  -2  -8   8   -6.20    5.48
   2   8  -8   -0.43    5.02
   2   8  -8   -0.86    3.90
  -2   9  -8    5.98    6.13
  -2  -9   8   -1.40    4.49
  -2   9  -8   10.90    6.84
   2   9  -8   -4.77    5.08
   2   9  -8    5.42    7.21
  -2  10  -8   -2.76    8.36
  -2  10  -8   23.85    9.23
   2  10  -8    8.41    7.24
   2  10  -8   -7.58    9.08
  -3  10   8    9.51    9.46
  -3  10   8   30.97    9.45
   3  10   8   13.03    9.77
   3  10   8   21.66   13.23
   3  10   8   -8.71    8.40
  -3   9   8   12.67    5.72
  -3   9   8    9.27    6.66
  -3   9   8   -2.64    6.09
   3  -9  -8    0.76    5.08
   3   9   8    2.25    7.19
   3   9   8    2.45    6.27
   3   9   8   -8.72    9.12
  -3  -8  -8    4.92    6.24
  -3   8   8   -0.40    5.00
  -3   8   8   -4.52    5.18
  -3   8   8   10.03    5.43
   3   8   8    0.41    4.84
   3   8   8    3.08    5.81
   3   8   8   -1.51    6.91
  -3   7   8   11.69    4.26
  -3   7   8   12.26    3.98
  -3   7   8    5.24    2.95
  -3  -7  -8    9.40    3.69
  -3  -7  -8   11.82    4.70
  -3   7   8   10.09    4.45
   3  -7  -8    8.84    3.42
   3   7   8    7.16    5.65
   3   7   8   12.46    3.62
   3   7   8    9.46    4.36
   3  -7  -8    6.83    3.22
  -3   6   8   -4.65    2.74
  -3  -6  -8   -1.54    3.48
  -3   6   8   -0.41    2.91
  -3   6   8    2.58    2.14
  -3   6   8   -1.38    3.04
   3   6   8    0.13    3.60
   3   6   8    0.60    2.74
   3   6   8   -4.03    3.57
   3  -6  -8   -2.01    2.41
  -3   5   8    2.47    2.37
  -3   5   8    2.94    2.17
  -3  -5  -8    1.25    2.89
  -3   5   8    2.48    1.67
  -3   5   8    3.69    2.34
   3   5   8   -1.21    2.75
   3   5   8    4.97    2.77
   3  -5  -8    8.01    2.26
   3   5   8    0.26    2.78
  -3   4   8   27.18    3.23
  -3   4   8   29.71    2.36
  -3   4   8   22.77    3.63
  -3   4   8   31.77    3.31
  -3  -4  -8   34.99    4.20
  -3  -4  -8   24.41    4.47
  -3  -4  -8   24.35    3.32
   3  -4  -8   28.02    3.46
   3   4   8   23.99    3.67
   3   4   8   29.59    4.32
   3   4   8   24.58    4.01
   3  -4  -8   25.52    4.14
   3  -4  -8   29.88    3.07
  -3   3   8    1.72    1.74
  -3  -3  -8    0.85    1.65
  -3  -3  -8   -1.21    1.35
  -3   3   8    0.88    1.36
  -3   3   8    0.05    1.38
   3  -3  -8   -2.45    2.07
   3  -3  -8   -0.95    1.45
   3   3   8   -2.97    1.80
   3  -3  -8   -0.29    1.34
   3   3   8   -0.30    2.03
   3   3   8    1.60    1.78
  -3   2   8   -0.80    1.09
  -3   2   8    3.78    1.66
  -3  -2  -8   -1.19    1.79
  -3  -2  -8    1.04    1.25
  -3   2   8   -0.27    1.20
  -3   2   8    1.28    1.32
  -3  -2  -8   -0.97    1.51
   3  -2  -8    0.01    1.40
   3   2   8    0.54    1.65
   3  -2  -8   -0.54    1.06
   3   2   8   -1.82    1.71
   3  -2  -8    2.22    1.50
   3   2   8   -1.92    1.36
   3  -2  -8   -0.68    0.92
  -3  -1  -8   11.97    1.98
  -3   1   8   14.78    2.07
  -3   1   8   12.20    1.90
  -3   1   8   13.71    2.02
  -3  -1  -8   13.98    1.98
  -3   1   8   16.86    2.13
  -3  -1  -8   13.15    2.52
   3  -1  -8   15.06    2.20
   3   1   8   20.20    2.77
   3  -1  -8   15.48    2.35
   3  -1  -8   11.10    1.84
   3  -1  -8   16.03    1.51
   3   1   8   12.77    2.19
  -3   0  -8   88.13    5.13
  -3   0   8   80.39    5.04
  -3   0  -8   92.42    4.65
  -3   0   8   90.18    5.07
  -3   0   8   93.18    4.91
  -3   0   8   87.66    4.84
  -3   0  -8   91.01    4.50
   3   0  -8   86.35    5.44
   3   0   8   86.82    5.05
   3   0  -8   82.63    4.82
   3   0  -8   99.74    5.03
  -3  -1   8   13.48    2.10
  -3   1  -8   14.93    2.30
  -3  -1   8   14.56    2.05
  -3  -1   8   12.00    2.12
  -3  -1   8   15.89    2.32
   3   1  -8   12.69    1.91
   3  -1   8   13.49    1.92
   3   1  -8   14.32    2.12
   3   1  -8   16.98    2.21
   3  -1   8   16.02    2.31
   3   1  -8   13.34    2.34
  -3  -2   8    0.84    1.14
  -3   2  -8   -1.24    1.13
  -3  -2   8    0.34    1.38
  -3  -2   8    0.83    1.63
  -3   2  -8   -0.97    1.21
  -3  -2   8   -2.09    1.55
  -3   2  -8    0.15    1.45
   3   2  -8   -1.94    1.74
   3   2  -8   -2.26    1.22
   3   2  -8    0.48    1.47
   3   2  -8   -0.66    1.56
  -3  -3   8    0.19    1.70
  -3  -3   8    1.67    1.59
  -3  -3   8    0.46    1.91
  -3   3  -8   -1.63    1.72
  -3  -3   8    0.63    2.02
  -3   3  -8    0.37    1.36
  -3  -3   8    0.16    1.40
  -3   3  -8   -1.46    1.49
   3   3  -8   -0.45    1.44
   3   3  -8    1.59    1.79
   3   3  -8   -0.60    1.49
  -3  -4   8   32.32    3.55
  -3  -4   8   28.44    3.86
  -3   4  -8   28.17    3.16
  -3   4  -8   28.60    3.47
  -3  -4   8   22.81    4.12
  -3  -4   8   32.26    3.76
  -3   4  -8   26.06    3.85
  -3  -4   8   25.67    3.58
   3   4  -8   27.81    3.39
  -3  -5   8    1.50    2.25
  -3   5  -8    3.20    2.64
  -3  -5   8    4.10    2.46
  -3   5  -8    3.36    2.66
  -3  -5   8    7.80    2.74
  -3   5  -8    2.04    2.62
   3   5  -8    7.21    2.78
   3   5  -8    3.03    2.25
   3   5  -8    8.45    4.15
  -3  -6   8    0.71    2.86
  -3  -6   8   -2.29    2.74
  -3   6  -8    4.88    3.14
  -3  -6   8    1.71    2.51
  -3   6  -8    3.06    3.35
   3   6  -8   -0.44    2.62
   3   6  -8    2.31    3.17
   3   6  -8    3.83    5.36
  -3  -7   8   15.22    5.59
  -3  -7   8    4.32    3.15
  -3  -7   8    5.52    3.63
  -3  -7   8   10.08    4.76
  -3   7  -8   10.54    4.04
  -3  -7   8    8.10    3.71
  -3   7  -8    7.13    4.36
   3   7  -8    7.46    8.10
   3   7  -8   11.94    3.56
  -3  -8   8    4.42    4.24
  -3   8  -8    2.82    5.07
  -3  -8   8    3.83    4.17
  -3  -8   8   11.42    4.08
   3   8  -8    0.11    3.92
   3   8  -8   -5.70    5.36
  -3  -9   8   -0.31    5.18
  -3   9  -8   -2.10    6.28
   3   9  -8   -5.54    5.10
   3   9  -8   -6.08    7.19
  -3  10  -8   12.65    8.33
  -3  10  -8    6.79    9.61
  -3 -10   8    4.26    7.29
   3  10  -8  -10.87    6.63
   3  10  -8    6.83   10.41
  -4  10   8    8.62    8.92
   4  10   8    5.10    9.14
   4  10   8   17.15   11.40
  -4   9   8   -7.73    7.37
   4   9   8  -10.97   10.79
   4   9   8   24.05   11.96
   4   9   8   -1.35    7.88
  -4   8   8    0.78    5.22
  -4   8   8   -2.89    4.69
  -4   8   8   -1.61    5.72
   4   8   8   13.46    6.59
   4   8   8    2.84    4.85
   4   8   8   -1.75    7.46
   4  -8  -8   -2.36    4.80
  -4   7   8    5.70    3.83
  -4   7   8   -1.46    4.29
  -4  -7  -8   -3.08    5.03
  -4  -7  -8   14.82    3.94
  -4   7   8    7.67    4.11
   4  -7  -8    7.96    3.32
   4   7   8   19.04    6.14
   4  -7  -8    7.17    3.04
   4   7   8    6.11    4.61
   4   7   8    9.61    3.57
  -4   6   8   30.46    5.05
  -4   6   8   27.79    5.00
  -4   6   8   37.42    4.55
  -4  -6  -8   41.64    5.55
  -4   6   8   35.72    3.72
   4   6   8   34.25    5.79
   4  -6  -8   30.77    4.67
   4   6   8   23.59    5.04
   4   6   8   30.26    5.29
  -4   5   8    3.43    2.70
  -4  -5  -8    5.08    3.25
  -4   5   8    7.27    2.59
  -4  -5  -8    3.86    2.57
  -4   5   8    4.18    2.53
  -4   5   8    1.99    2.01
   4   5   8    3.21    3.30
   4   5   8    5.24    3.66
   4  -5  -8    5.54    2.43
   4   5   8    5.01    2.90
  -4   4   8   87.34    5.91
  -4  -4  -8   91.29    7.13
  -4   4   8   79.81    5.75
  -4   4   8   95.16    4.86
  -4  -4  -8   91.80    6.64
  -4   4   8   89.70    5.54
  -4  -4  -8   87.22    5.93
   4  -4  -8   85.54    6.46
   4  -4  -8   92.80    5.97
   4   4   8   92.26    6.71
   4  -4  -8  103.45    5.64
   4   4   8   88.84    6.12
   4   4   8   75.25    6.59
   4  -4  -8   93.55    5.53
  -4  -3  -8   85.36    5.62
  -4  -3  -8   77.64    6.28
  -4   3   8   79.07    5.28
  -4   3   8   87.92    4.91
  -4  -3  -8   84.02    5.42
  -4   3   8   86.35    5.24
   4  -3  -8   76.30    4.56
   4  -3  -8   86.46    4.92
   4   3   8   79.07    5.86
   4   3   8   84.41    5.82
   4   3   8   75.94    5.72
   4  -3  -8   84.04    5.70
   4  -3  -8   79.25    7.87
  -4   2   8   -0.29    1.34
  -4   2   8    0.30    1.36
  -4  -2  -8    1.86    1.51
  -4   2   8   -0.77    1.45
  -4   2   8    4.20    1.82
  -4  -2  -8    2.05    2.23
  -4  -2  -8    1.85    1.81
   4  -2  -8   -0.50    1.27
   4   2   8   -0.35    1.84
   4  -2  -8    0.37    1.20
   4   2   8    1.18    1.73
   4  -2  -8    3.43    1.76
   4  -2  -8    0.42    1.64
  -4  -1  -8   46.16    3.45
  -4   1   8   43.91    3.33
  -4   1   8   53.25    3.81
  -4  -1  -8   49.33    4.05
  -4  -1  -8   44.51    3.50
  -4   1   8   49.39    3.60
  -4   1   8   46.21    3.62
   4  -1  -8   54.68    3.51
   4   1   8   46.91    3.77
   4  -1  -8   47.70    3.50
   4  -1  -8   47.24    2.97
   4  -1  -8   50.56    4.30
   4   1   8   50.57    3.49
  -4   0   8   39.35    3.12
  -4   0   8   42.43    3.63
  -4   0  -8   40.21    3.07
  -4   0   8   37.85    3.23
  -4   0  -8   42.67    2.85
  -4   0  -8   46.30    3.61
   4   0  -8   48.92    4.11
   4   0  -8   47.76    3.35
   4   0   8   43.26    3.39
   4   0  -8   48.95    3.29
   4   0   8   43.32    3.13
  -4  -1   8   52.52    4.07
  -4  -1   8   44.50    3.83
  -4  -1   8   47.00    3.71
  -4   1  -8   47.81    3.58
  -4  -1   8   47.58    3.47
   4  -1   8   38.45    3.76
   4   1  -8   42.71    4.32
   4   1  -8   50.34    3.45
   4   1  -8   48.02    3.46
   4   1  -8   51.18    3.62
  -4  -2   8    1.48    1.34
  -4   2  -8    3.48    1.37
  -4  -2   8    1.41    1.68
  -4   2  -8    0.29    1.42
  -4  -2   8    0.23    1.93
  -4  -2   8    0.62    1.91
  -4   2  -8    1.06    1.46
   4   2  -8    0.82    1.59
   4   2  -8    1.25    1.71
   4   2  -8    0.70    1.58
   4   2  -8    1.09    2.32
  -4   3  -8   80.55    5.25
  -4  -3   8   80.60    5.46
  -4   3  -8   85.34    4.88
  -4   3  -8   79.37    5.29
  -4  -3   8   78.25    6.28
  -4  -3   8   89.97    6.09
  -4  -3   8   93.04    5.65
  -4  -3   8   84.89    5.91
   4   3  -8  100.14    5.85
   4   3  -8   88.78    5.49
   4   3  -8   87.34    5.42
   4   3  -8   96.11    7.19
  -4   4  -8   90.98    6.01
  -4  -4   8   87.96    6.60
  -4   4  -8   93.66    5.96
  -4   4  -8   87.36    5.43
  -4  -4   8   89.16    6.47
  -4  -4   8   87.57    6.46
  -4  -4   8   99.93    6.07
  -4  -4   8   98.67    6.38
   4   4  -8   76.49    8.07
   4   4  -8   92.54    5.84
  -4  -5   8    4.71    3.21
  -4   5  -8    1.79    2.53
  -4   5  -8    2.27    2.86
  -4  -5   8    1.86    3.19
  -4  -5   8    7.37    3.11
  -4   5  -8    8.72    2.88
  -4  -5   8    4.41    2.61
   4   5  -8   11.54    4.75
   4   5  -8    4.73    2.72
   4   5  -8    8.76    3.14
  -4  -6   8   34.62    5.75
  -4  -6   8   34.85    5.03
  -4   6  -8   30.58    4.60
  -4  -6   8   33.74    4.91
  -4  -6   8   42.31    6.66
  -4   6  -8   36.29    5.28
   4   6  -8   45.24    7.40
   4   6  -8   46.88    6.74
  -4  -7   8    7.73    3.86
  -4  -7   8   -1.33    4.78
  -4   7  -8    0.95    4.62
  -4  -7   8    5.64    4.51
  -4  -7   8   11.55    4.23
  -4  -7   8   13.66    5.61
  -4   7  -8   14.50    4.38
   4   7  -8    5.28    4.91
   4   7  -8   12.23    4.23
  -4   8  -8    7.06    5.14
  -4  -8   8   -2.79    4.09
  -4  -8   8   -2.64    5.10
   4   8  -8   -5.93    5.78
   4   8  -8    1.34    4.75
  -4  -9   8   17.10   10.49
  -4   9  -8    1.85    6.41
  -4  -9   8    3.06    6.11
  -4  -9   8    2.96    5.71
   4   9  -8    2.33    6.11
   4   9  -8   -3.06    8.12
  -4 -10   8  -12.93    7.50
  -4 -10   8   -8.97    7.51
  -4  10  -8    2.22    8.42
   4  10  -8   -9.78   10.98
   4  10  -8   -5.71    8.27
  -5   9   8    1.53    7.04
  -5   9   8   12.45    8.99
   5   9   8   16.00    8.63
   5   9   8   27.67   16.91
  -5   8   8    1.40    6.40
  -5   8   8   -6.57    4.92
  -5   8   8    6.23    5.46
  -5   8   8   -5.52    4.66
   5  -8  -8   15.89    4.95
   5   8   8   23.20    9.45
   5   8   8   20.99    7.67
  -5   7   8    1.16    4.09
  -5  -7  -8   -4.14    6.35
  -5   7   8    0.34    3.71
  -5   7   8   -2.33    3.64
  -5   7   8   -6.13    4.48
   5  -7  -8   -1.54    3.73
   5   7   8    4.82    6.52
   5   7   8    7.89    5.33
   5   7   8   -1.75    5.59
  -5  -6  -8   32.42    5.93
  -5  -6  -8   15.09    3.89
  -5   6   8   27.57    5.26
  -5   6   8   26.10    4.87
  -5   6   8   20.85    3.76
   5  -6  -8   28.92    4.21
   5  -6  -8   30.86    5.35
   5   6   8   27.02    5.45
   5   6   8   17.16   11.03
   5   6   8   15.38    4.34
  -5   5   8   -1.91    2.24
  -5   5   8   -2.88    2.62
  -5  -5  -8    1.94    3.77
  -5   5   8   -1.11    2.04
  -5   5   8   -1.23    2.32
  -5  -5  -8    3.60    2.84
   5  -5  -8    4.54    2.70
   5   5   8    1.63    3.04
   5   5   8    1.09    3.71
   5   5   8    6.68    4.05
  -5  -4  -8   55.34    5.57
  -5  -4  -8   59.87    6.60
  -5   4   8   64.67    5.19
  -5   4   8   68.66    5.30
  -5   4   8   62.35    4.64
  -5  -4  -8   75.07    6.53
   5  -4  -8   69.97    4.98
   5   4   8   66.13    5.36
   5  -4  -8   62.93    5.59
   5   4   8   70.42    6.63
   5   4   8   52.29    6.53
  -5   3   8   46.17    5.79
  -5  -3  -8   41.55    5.01
  -5   3   8   48.11    3.48
  -5  -3  -8   40.42    4.38
  -5  -3  -8   49.95    5.03
  -5   3   8   40.88    4.02
  -5   3   8   36.83    3.90
   5  -3  -8   45.04    3.56
   5  -3  -8   43.75    4.10
   5  -3  -8   41.27    4.46
   5   3   8   47.96    4.19
   5   3   8   54.63    4.96
   5  -3  -8   46.49    4.38
   5   3   8   34.32    4.88
  -5   2   8   61.14    3.91
  -5  -2  -8   51.54    4.67
  -5  -2  -8   52.47    4.97
  -5   2   8   60.28    4.38
  -5   2   8   67.88    4.36
  -5  -2  -8   57.98    4.35
  -5   2   8   54.53    4.47
   5  -2  -8   57.67    3.74
   5  -2  -8   66.84    4.12
   5   2   8   57.56    4.17
   5  -2  -8   59.75    4.50
   5   2   8   49.52    4.78
   5  -2  -8   57.69    6.16
  -5  -1  -8    0.12    1.51
  -5   1   8    1.19    1.56
  -5  -1  -8   -2.47    1.84
  -5   1   8   -0.79    1.57
  -5   1   8    1.16    1.55
  -5   1   8   -2.51    1.48
  -5  -1  -8    1.87    1.59
   5  -1  -8    3.38    2.89
   5   1   8    1.19    1.82
   5   1   8   -0.76    1.37
   5  -1  -8   -0.03    1.28
   5  -1  -8   -0.97    1.64
   5  -1  -8   -0.64    1.28
  -5   0  -8  120.18    6.30
  -5   0   8   97.32    5.97
  -5   0   8  108.79    6.62
  -5   0   8  116.05    6.20
   5   0  -8  109.71    5.59
   5   0  -8  109.70    6.16
   5   0  -8  112.59    5.97
   5   0  -8  115.32    7.22
   5   0   8  110.78    6.08
  -5  -1   8   -0.83    1.79
  -5   1  -8    0.68    1.65
  -5  -1   8   -2.05    1.32
  -5  -1   8   -2.26    1.73
  -5  -1   8    0.58    1.89
   5   1  -8    2.24    1.62
   5   1  -8   -0.23    2.06
   5   1  -8   -0.17    1.43
   5   1  -8   -0.58    1.76
  -5   2  -8   61.12    4.27
  -5  -2   8   60.80    5.09
  -5   2  -8   63.05    3.59
  -5  -2   8   57.12    4.40
  -5  -2   8   65.68    4.97
  -5  -2   8   51.99    4.93
   5   2  -8   59.73    4.41
   5   2  -8   61.07    4.25
   5   2  -8   56.72    4.60
   5   2  -8   63.21    6.04
  -5  -3   8   46.77    4.43
  -5   3  -8   41.40    3.78
  -5  -3   8   44.82    4.84
  -5  -3   8   49.60    5.09
  -5   3  -8   42.01    3.87
  -5   3  -8   45.51    3.52
  -5  -3   8   47.79    5.02
  -5  -3   8   50.42    5.01
   5   3  -8   47.25    4.46
   5   3  -8   48.35    4.61
   5   3  -8   42.25    4.39
   5   3  -8   59.28    7.15
  -5  -4   8   69.16    5.44
  -5  -4   8   59.02    6.26
  -5  -4   8   56.81    5.61
  -5  -4   8   60.88    6.35
  -5  -4   8   70.77    5.98
  -5   4  -8   63.55    5.00
  -5   4  -8   73.87    4.81
  -5   4  -8   65.99    5.07
   5   4  -8   62.72    5.36
  -5  -5   8    4.69    3.51
  -5  -5   8   -0.70    3.60
  -5   5  -8   -0.21    2.74
  -5  -5   8    0.16    3.22
  -5   5  -8   -1.17    2.46
  -5  -5   8    0.10    3.55
  -5  -5   8    1.07    2.88
  -5   5  -8   -0.16    2.78
   5   5  -8    4.18    2.98
  -5   6  -8   23.44    4.57
  -5  -6   8   19.33    5.37
  -5  -6   8   28.77    4.50
  -5   6  -8   23.77    4.55
  -5   6  -8   22.60    4.25
  -5  -6   8   24.70    7.45
  -5  -6   8   21.80    5.65
   5   6  -8   21.34    4.28
   5   6  -8   16.53    7.37
   5   6  -8   29.17    5.21
  -5   7  -8    1.64    4.55
  -5  -7   8    4.49    6.98
  -5  -7   8   -0.13    3.93
  -5   7  -8   -5.98    5.12
  -5  -7   8    6.21    5.13
  -5   7  -8    0.39    3.93
  -5  -7   8   -2.55    4.93
   5   7  -8    8.07    5.71
   5   7  -8   -1.33    4.12
  -5  -8   8    7.43    5.58
  -5  -8   8   -4.66    5.28
  -5   8  -8    4.91    5.31
   5   8  -8    1.54    5.19
   5   8  -8    6.07    6.98
  -5  -9   8    0.49   10.58
  -5  -9   8    8.42    7.01
  -5   9  -8   25.91    7.22
  -5  -9   8   -0.10    6.23
   5   9  -8    6.89    6.62
   5   9  -8   -3.57    9.15
  -6   9   8   14.75    9.71
  -6   9   8    8.52    8.03
   6   9   8   16.73   12.65
  -6   8   8   -2.49    7.00
  -6   8   8   -5.16    5.48
  -6   8   8  -10.18    5.46
   6   8   8    0.54    7.67
   6   8   8   14.26    8.99
  -6   7   8    3.58    5.45
  -6   7   8    0.97    4.26
  -6   7   8    5.43    4.34
  -6  -7  -8   22.41    7.69
  -6   7   8    0.48    3.97
   6   7   8   12.53    7.18
   6   7   8   -2.01    6.09
  -6   6   8    6.43    3.49
  -6   6   8    0.99    3.94
  -6  -6  -8   10.72    5.67
  -6  -6  -8    2.26    4.18
  -6   6   8    6.45    3.06
  -6   6   8   -1.52    3.12
   6   6   8    2.74    4.67
   6  -6  -8   10.07    3.64
   6   6   8   12.23    5.58
   6   6   8    0.52    5.04
   6  -6  -8    2.48    2.80
  -6   5   8   -0.07    3.13
  -6   5   8    1.34    2.62
  -6  -5  -8   -6.72    3.15
  -6  -5  -8   -0.52    4.44
   6  -5  -8   -0.54    3.42
   6   5   8   -0.30    4.12
   6   5   8    5.85    4.27
   6  -5  -8    8.18    3.48
   6  -5  -8   -1.32    2.38
  -6   4   8   -0.93    1.88
  -6   4   8    3.14    2.37
  -6  -4  -8    2.52    2.78
  -6   4   8    3.15    2.29
  -6  -4  -8    2.31    3.73
   6  -4  -8    0.84    2.79
   6   4   8    1.81    3.56
   6  -4  -8    1.39    2.65
   6   4   8    6.14    2.85
   6   4   8    8.87    3.59
  -6  -3  -8   21.21    3.39
  -6  -3  -8   22.79    3.88
  -6  -3  -8   26.26    3.93
  -6   3   8   22.36    3.18
  -6   3   8   21.41    3.37
  -6   3   8   19.41    2.97
   6   3   8   17.12    2.88
   6  -3  -8   16.94    3.57
   6  -3  -8   14.22    2.74
   6   3   8   23.01    3.50
   6  -3  -8   21.08    3.83
   6   3   8   24.46    3.88
  -6   2   8    9.65    2.42
  -6   2   8   11.10    2.02
  -6   2   8    8.64    2.59
  -6  -2  -8    8.19    3.03
  -6  -2  -8    8.66    2.43
  -6  -2  -8   11.25    2.81
  -6   2   8   10.29    2.33
   6   2   8   11.36    2.83
   6  -2  -8   12.81    2.33
   6  -2  -8    9.35    3.01
   6   2   8    7.99    2.39
   6  -2  -8    7.96    2.73
  -6   1   8   28.27    4.01
  -6  -1  -8   25.23    3.47
  -6  -1  -8   32.63    4.20
  -6  -1  -8   24.80    3.69
  -6   1   8   26.83    3.20
  -6   1   8   34.73    3.38
   6  -1  -8   29.27    4.11
   6  -1  -8   33.06    3.20
   6  -1  -8   27.60    2.84
   6   1   8   26.62    3.22
   6   1   8   22.94    3.51
   6  -1  -8   31.63    3.37
  -6   0   8   42.72    3.71
  -6   0   8   36.67    3.80
  -6   0  -8   39.74    4.13
  -6   0   8   47.55    4.54
   6   0  -8   41.54    3.96
   6   0   8   45.66    3.75
   6   0  -8   45.51    3.59
   6   0  -8   46.41    5.15
   6   0  -8   44.76    3.30
  -6  -1   8   29.18    4.25
  -6   1  -8   31.72    3.41
  -6   1  -8   28.08    2.55
  -6  -1   8   31.95    3.30
  -6  -1   8   30.19    3.78
   6   1  -8   33.28    3.65
   6   1  -8   27.32    4.47
   6   1  -8   35.04    3.15
  -6  -2   8    8.26    3.06
  -6   2  -8    9.89    1.99
  -6  -2   8   12.31    3.30
  -6   2  -8    7.45    2.16
  -6  -2   8    8.01    2.35
  -6  -2   8   11.97    3.25
  -6  -2   8   11.72    2.99
   6   2  -8   12.15    2.68
   6   2  -8   15.36    4.28
   6   2  -8   10.99    2.90
   6   2  -8   12.33    2.48
  -6  -3   8   21.48    3.95
  -6   3  -8   23.11    3.55
  -6  -3   8   26.04    4.34
  -6  -3   8   19.27    3.81
  -6  -3   8   22.54    3.45
  -6   3  -8   20.00    3.12
  -6   3  -8   20.83    2.94
  -6  -3   8   20.24    3.58
   6   3  -8   14.31    5.14
   6   3  -8   22.54    4.07
   6   3  -8   16.63    3.22
  -6   4  -8   -0.06    2.23
  -6   4  -8    0.53    2.57
  -6  -4   8   -1.29    3.34
  -6  -4   8   -2.54    2.40
  -6   4  -8    1.69    2.54
  -6  -4   8    3.94    3.55
  -6  -4   8   -1.12    3.33
   6   4  -8    0.99    3.43
   6   4  -8    1.25    2.97
  -6  -5   8    1.26    3.14
  -6  -5   8    4.81    4.38
  -6   5  -8   -0.83    3.25
  -6  -5   8   -6.48    4.20
  -6   5  -8    2.28    3.13
  -6  -5   8   -6.54    3.59
  -6  -5   8   -5.29    4.28
  -6   5  -8   -0.97    2.73
   6   5  -8    0.00    3.70
  -6  -6   8   -0.17    5.57
  -6  -6   8    0.37    4.36
  -6  -6   8   11.76    5.28
  -6   6  -8    4.99    4.20
  -6   6  -8    3.14    3.67
  -6   6  -8    4.28    3.50
  -6  -6   8   -7.94    5.77
  -6  -6   8    4.36    4.74
   6   6  -8    6.30    4.01
  -6  -7   8   -0.63    4.58
  -6   7  -8    7.11    4.38
  -6  -7   8    8.01    5.69
  -6   7  -8    5.80    4.70
  -6  -7   8    5.17    6.00
   6   7  -8    9.76    5.15
   6   7  -8    1.61    5.83
  -6   8  -8    8.73    5.57
  -6  -8   8    7.27    5.69
  -6   8  -8    8.29    5.80
  -6  -8   8    6.82    6.45
   6   8  -8    0.63    5.68
   6   8  -8   -1.18    7.69
  -6   9  -8    2.20    7.41
  -6   9  -8   14.66    7.68
  -6  -9   8  -12.12    6.95
  -6  -9   8    8.48    8.16
   6   9  -8    6.37    7.64
   6   9  -8   29.34   11.51
  -7   8   8    3.52    7.89
  -7   8   8    9.41    6.45
   7   8   8    1.04    9.75
   7   8   8   25.79    9.81
  -7   7   8   15.14    6.49
  -7   7   8    3.97    4.52
  -7   7   8    6.94    5.08
  -7  -7  -8   25.90    9.71
   7   7   8    0.82    7.00
   7   7   8    2.39    7.65
  -7   6   8    6.14    4.34
  -7   6   8   -2.83    3.61
  -7   6   8    3.09    3.40
  -7   6   8    0.68    3.99
  -7  -6  -8   -1.04    7.06
   7   6   8    4.14    5.08
   7   6   8    0.60    5.80
   7   6   8    1.95    5.51
  -7  -5  -8    7.72    5.44
  -7   5   8    5.63    2.56
  -7  -5  -8    2.73    4.10
  -7   5   8   -1.28    3.49
  -7   5   8    0.20    3.00
   7   5   8    5.94    4.46
   7  -5  -8    4.05    2.95
   7   5   8   -2.73    4.57
   7  -5  -8    3.47    4.22
  -7   4   8   23.10    3.93
  -7   4   8   21.57    3.45
  -7   4   8   25.27    4.79
  -7   4   8   24.62    4.74
  -7  -4  -8   20.59    4.34
  -7  -4  -8   36.53    5.69
   7  -4  -8   21.43    3.65
   7  -4  -8   24.15    4.22
   7   4   8   28.04    4.43
   7   4   8   18.46    4.59
   7   4   8   22.02    3.72
   7  -4  -8   27.92    4.54
  -7   3   8   17.29    2.96
  -7  -3  -8   27.80    4.50
  -7   3   8   13.81    3.28
  -7  -3  -8   19.32    3.59
  -7   3   8   28.96    4.43
   7  -3  -8   22.76    3.57
   7   3   8   14.80    3.01
   7   3   8   23.38    3.90
   7  -3  -8   21.90    3.81
  -7  -2  -8    0.90    2.71
  -7   2   8   -1.87    2.23
  -7   2   8   -0.90    2.55
  -7   2   8    0.70    1.98
  -7  -2  -8   -1.02    2.85
  -7  -2  -8    3.23    2.94
   7  -2  -8    4.05    2.11
   7   2   8    5.04    2.56
   7  -2  -8    5.77    3.13
   7   2   8   -4.85    2.77
  -7   1   8   13.13    2.47
  -7   1   8   12.29    3.05
  -7  -1  -8   14.63    3.19
  -7   1   8   14.14    2.78
  -7  -1  -8   17.28    2.94
   7   1   8   15.91    2.85
   7  -1  -8   20.23    3.91
   7   1   8   13.83    2.38
   7  -1  -8   15.67    2.68
  -7   0   8    4.22    2.68
  -7   0   8    3.75    2.11
  -7   0  -8    4.39    2.59
  -7   0   8    2.08    2.41
   7   0  -8   13.79    3.77
   7   0   8    3.11    2.09
   7   0  -8    8.07    1.99
   7   0  -8    6.48    2.01
  -7  -1   8   12.44    3.10
  -7  -1   8   13.35    3.31
  -7   1  -8   13.82    2.64
  -7  -1   8   16.66    2.88
   7   1  -8   13.98    2.80
   7   1  -8   14.56    2.31
   7   1  -8   20.85    2.85
   7   1  -8   17.40    4.77
  -7  -2   8    2.71    2.27
  -7   2  -8   -0.79    2.21
  -7  -2   8    1.38    3.08
  -7  -2   8    2.72    3.13
  -7  -2   8   -0.23    3.27
  -7   2  -8    4.65    2.09
   7   2  -8   -3.99    4.31
   7   2  -8    2.26    2.52
   7   2  -8    4.18    2.14
  -7   3  -8   19.85    2.90
  -7  -3   8   18.31    4.22
  -7  -3   8   24.14    4.58
  -7  -3   8   18.52    4.38
  -7   3  -8   18.55    3.60
  -7  -3   8   20.16    3.56
   7   3  -8   26.03    3.87
   7   3  -8   23.13    3.33
  -7  -4   8   18.45    5.14
  -7  -4   8   25.67    5.19
  -7  -4   8   26.02    5.26
  -7   4  -8   21.56    3.86
  -7   4  -8   16.26    3.15
  -7  -4   8   22.40    4.86
  -7   4  -8   19.89    3.13
   7   4  -8   20.75    3.95
   7   4  -8   18.93    7.26
   7   4  -8   31.12    5.93
  -7   5  -8    8.15    3.63
  -7  -5   8    0.46    3.72
  -7  -5   8    1.49    4.94
  -7   5  -8    0.18    2.69
  -7  -5   8   -0.46    4.94
  -7  -5   8   -2.09    5.29
  -7   5  -8   -1.48    3.34
   7   5  -8   -0.20    4.27
   7   5  -8   -1.42    7.92
  -7   6  -8   -0.74    7.50
  -7  -6   8   -4.29    4.40
  -7   6  -8   -0.97    4.67
  -7  -6   8   -5.20    9.02
  -7   6  -8   -4.12    3.18
  -7  -6   8    5.20    5.33
   7   6  -8    3.71    4.86
  -7  -7   8    4.04    6.53
  -7   7  -8    5.25    4.63
  -7  -7   8    8.29    5.60
   7   7  -8   14.87    6.50
  -7   8  -8    5.72    6.22
  -7  -8   8   15.88    8.13
  -7   8  -8   -2.16    5.87
  -7  -8   8    3.94    6.36
   7   8  -8   22.26    7.38
  -8   7   8    4.97    7.23
  -8   7   8    2.98    5.65
   8   7   8   10.51    9.10
   8   7   8   17.00    8.38
  -8   6   8    7.58    5.60
  -8  -6  -8    0.14    8.72
  -8   6   8    1.02    4.52
  -8   6   8    7.05    3.51
   8   6   8   -6.64    7.10
   8   6   8   13.40    5.84
  -8   5   8    4.06    4.01
  -8  -5  -8   21.43    6.89
  -8   5   8    3.18    3.61
   8  -5  -8   -0.94    4.84
   8   5   8    7.68    5.70
   8   5   8    0.36    4.82
   8   5   8    2.83    4.62
  -8   4   8   16.41    3.81
  -8   4   8   18.46    4.06
  -8  -4  -8    7.72    4.50
  -8   4   8   10.30    3.43
  -8  -4  -8   28.88    6.04
   8  -4  -8    6.71    4.03
   8  -4  -8   16.69    4.61
   8   4   8   13.88    4.86
  -8   3   8   18.67    3.82
  -8   3   8   15.39    3.65
  -8   3   8   13.46    3.39
  -8  -3  -8    7.83    3.84
  -8  -3  -8   21.00    4.71
   8  -3  -8   20.20    3.33
   8  -3  -8   11.90    3.65
   8   3   8    9.12    3.39
   8   3   8   18.80    4.43
   8  -3  -8   13.17    4.54
  -8   2   8    3.53    3.12
  -8  -2  -8   13.41    3.86
  -8  -2  -8   10.41    3.64
  -8  -2  -8    4.62    3.61
   8   2   8    6.07    2.73
   8   2   8    8.11    3.46
   8  -2  -8   10.82    2.83
   8  -2  -8   13.39    4.27
   8  -2  -8   10.69    3.25
  -8  -1  -8   -1.52    2.87
  -8  -1  -8    0.89    2.79
  -8   1   8   -2.77    2.65
  -8   1   8    2.10    2.22
   8  -1  -8    3.14    3.81
   8   1   8   -3.94    2.35
  -8   0   8   -0.87    3.32
  -8   0  -8    4.44    2.93
  -8   0   8    1.93    2.34
  -8   0   8    1.56    3.20
   8   0  -8   -5.37    4.34
   8   0   8    4.19    2.83
  -8  -1   8    2.18    3.36
  -8  -1   8    1.00    3.22
  -8  -1   8    0.70    2.17
  -8   1  -8    1.84    2.44
  -8  -1   8   -1.99    3.10
   8   1  -8    0.91    2.35
   8   1  -8    7.12    3.07
  -8  -2   8   10.91    4.22
  -8  -2   8   10.45    4.00
  -8  -2   8    6.35    3.90
  -8   2  -8   10.42    2.73
  -8   2  -8    6.16    2.54
  -8  -2   8    9.02    3.07
   8   2  -8    6.40    2.54
   8   2  -8    7.45    7.11
  -8   3  -8   14.70    3.05
  -8  -3   8   13.49    4.58
  -8  -3   8    8.50    4.91
  -8  -3   8   17.19    5.48
  -8  -3   8   16.00    3.78
  -8   3  -8   15.84    3.32
  -8  -3   8   20.24    5.08
   8   3  -8   20.26    6.71
   8   3  -8   15.26    3.22
   8   3  -8   16.32    4.01
  -8  -4   8    7.16    5.78
  -8  -4   8   15.31    5.82
  -8   4  -8   17.72    3.62
  -8   4  -8   16.59    3.56
  -8   4  -8   10.28    3.64
  -8  -4   8   12.56    4.43
  -8  -4   8   13.64    5.19
  -8  -4   8   21.39    5.92
   8   4  -8   15.67    7.93
   8   4  -8   14.64    3.93
   8   4  -8   13.06    4.30
  -8  -5   8    6.90    5.66
  -8   5  -8   -0.89    2.82
  -8  -5   8    3.62    4.37
  -8   5  -8   -1.68    4.05
  -8  -5   8  -11.54    6.48
  -8   5  -8   -0.89    3.93
   8   5  -8    0.93    4.78
   8   5  -8   -2.80    4.82
  -8   6  -8   -2.41    4.51
  -8  -6   8   13.86    7.00
  -8   6  -8    4.83    3.79
  -8  -6   8    1.69    5.41
   8   6  -8    1.98    5.55
  -8  -7   8   14.14    8.00
  -8   7  -8   11.85    4.76
  -8  -7   8    5.73    5.96
  -8   7  -8    4.12    5.99
   8   7  -8    9.07    6.98
  -8   8  -8   -8.53    7.03
  -8   8  -8   -4.60    5.59
   8   8  -8   21.42    8.13
  -9  -7  -8    9.11   10.93
  -9   7   8   -5.86    8.38
  -9   7   8   -7.46    6.17
   9   7   8    4.99    8.41
   9   7   8   14.17   10.63
  -9   6   8    7.48    5.33
  -9   6   8   11.19    6.15
  -9  -6  -8    5.55   10.67
   9   6   8    3.53    7.04
   9   6   8    0.13    9.83
  -9   5   8   15.06    4.76
  -9  -5  -8   16.57    8.47
  -9   5   8   12.58    4.60
   9   5   8    5.89    6.65
   9   5   8   11.51    5.68
   9  -5  -8   15.67    6.25
  -9   4   8   39.14    5.35
  -9  -4  -8   35.00    7.29
  -9   4   8   36.97    5.67
   9   4   8   37.90    6.17
  -9  -3  -8    5.72    4.87
  -9   3   8    3.63    3.43
  -9  -3  -8   12.85    5.51
  -9   3   8    4.65    3.43
   9   3   8    5.89    3.46
   9   3   8    1.69    4.23
   9  -3  -8   -0.52    3.83
   9  -3  -8   -1.56    5.14
  -9  -2  -8   14.97    4.56
  -9   2   8    8.33    3.77
  -9   2   8    7.54    3.05
  -9  -2  -8    4.25    4.27
  -9   2   8    9.52    3.89
   9   2   8    9.26    3.31
   9  -2  -8   -2.81    4.75
   9  -2  -8    6.96    3.38
   9   2   8    5.78    2.91
   9  -2  -8    8.79    4.13
  -9   1   8    1.52    3.41
  -9  -1  -8   -3.30    3.53
  -9   1   8    0.14    4.39
  -9   1   8    5.06    2.69
  -9  -1  -8    0.95    3.40
  -9  -1  -8    2.11    3.60
  -9   1   8    4.96    3.98
   9   1   8   -1.82    2.80
   9  -1  -8   -0.84    4.86
   9  -1  -8   -1.58    3.30
   9  -1  -8    1.60    2.98
  -9   0   8   13.08    4.68
  -9   0   8   -0.20    3.71
  -9   0   8    3.74    4.12
  -9   0   8   -3.73    2.63
  -9   0  -8   -2.78    3.21
   9   0  -8   -0.14    3.45
   9   0  -8    2.31    2.67
   9   0   8    7.45    3.49
  -9  -1   8   16.46    5.15
  -9  -1   8    1.30    3.89
  -9  -1   8    4.49    2.78
  -9  -1   8    4.69    4.21
  -9  -1   8    5.32    4.50
   9  -1   8    2.66    3.64
   9   1  -8    8.01    5.90
   9   1  -8    5.75    2.79
  -9  -2   8    2.34    4.89
  -9  -2   8   13.72    5.06
  -9  -2   8    9.23    3.51
  -9  -2   8    4.06    4.48
   9   2  -8    6.35    2.91
   9   2  -8    5.73    6.48
  -9  -3   8   -2.11    6.00
  -9  -3   8    8.90    3.58
  -9  -3   8    9.17    5.20
  -9  -3   8    6.17    5.98
  -9   3  -8   10.32    3.57
   9   3  -8   14.66    7.96
   9   3  -8    4.20    3.43
  -9  -4   8   32.16    5.45
  -9  -4   8   37.53    7.02
  -9  -4   8   53.82   13.84
  -9   4  -8   39.12    5.04
   9   4  -8   40.40    5.83
   9   4  -8   37.07    5.33
  -9  -5   8   12.18    5.63
  -9  -5   8   10.22    6.92
  -9   5  -8   10.63    4.27
  -9   5  -8   14.80    4.99
   9   5  -8    6.09    5.60
   9   5  -8    6.21    5.53
  -9  -6   8   18.97    8.17
  -9   6  -8    2.49    4.09
  -9   6  -8    0.49    5.29
  -9  -6   8    7.11    6.27
   9   6  -8   17.47    7.43
   9   6  -8   -5.35    6.04
  -9  -7   8    4.90    9.59
  -9   7  -8    1.16    5.05
  -9  -7   8    1.50    7.14
  -9   7  -8  -11.32    6.54
   9   7  -8   15.82    7.79
 -10   6   8   -9.00    5.80
 -10  -6  -8   12.39   11.47
 -10   5   8   13.55    5.32
 -10   5   8   10.59    5.47
 -10  -5  -8   13.82    8.78
  10   5   8    6.86    7.62
  10  -5  -8   13.46    7.56
 -10   4   8   15.77    4.84
 -10  -4  -8   32.81   15.28
 -10  -4  -8   22.23    8.04
 -10   4   8   11.75    5.04
  10   4   8   18.71    6.21
  10  -4  -8    7.27    5.47
 -10   3   8    2.05    4.15
 -10  -3  -8   13.30    6.66
 -10   3   8    5.56    4.58
  10  -3  -8    8.83    4.71
  10   3   8    4.49    4.23
 -10  -2  -8    8.87    3.36
 -10   2   8   14.92    4.94
 -10  -2  -8    5.58    5.28
 -10   2   8    9.21    3.52
 -10  -2  -8   10.60    5.59
  10   2   8    6.19    3.88
  10  -2  -8   -6.84    6.34
  10  -2  -8   11.33    4.47
 -10   1   8    0.52    3.35
 -10   1   8    0.61    4.40
 -10  -1  -8    1.12    4.84
  10  -1  -8    1.55    3.87
  10   1   8   -2.14    3.85
 -10   0   8   17.10    5.55
 -10   0   8   24.11    4.13
 -10   0  -8   30.70    5.15
 -10   0   8   23.89    5.88
  10   0  -8   27.78    7.66
  10   0  -8   27.62    4.29
  10   0   8   22.49    4.77
 -10  -1   8   -6.92    5.58
 -10  -1   8   -3.36    5.29
 -10  -1   8    2.57    3.37
  10  -1   8   -5.95    5.42
  10   1  -8    1.09    3.22
  10   1  -8    0.86    7.20
 -10  -2   8    7.96    5.60
 -10  -2   8   19.18    7.03
 -10  -2   8   -0.92    3.47
  10   2  -8    6.26    3.32
 -10  -3   8    0.53    6.13
 -10  -3   8   15.66   13.07
 -10  -3   8   15.14    4.93
 -10  -4   8   15.34    5.55
 -10  -4   8   17.51    7.67
  10   4  -8   24.39    5.07
 -10  -5   8   -5.20    6.19
 -10  -5   8   15.68    8.40
 -10   5  -8    4.61    5.44
  10   5  -8    6.22    6.51
 -10   6  -8    3.86    6.59
  10   6  -8   -3.76    7.26
  10   6  -8   -2.21    9.52
 -11   4   8   -3.50    5.40
 -11  -4  -8   -0.11    5.43
 -11  -4  -8    5.27   10.62
 -11   4   8    1.63    5.38
  11  -4  -8   -1.03    6.90
 -11   3   8    8.73    5.33
 -11   3   8   -5.88    5.40
 -11  -3  -8    7.68    4.99
 -11  -3  -8  -14.44    8.67
  11  -3  -8    3.19    5.13
 -11   2   8   -4.70    4.47
 -11  -2  -8    6.85    7.22
 -11   2   8    1.31    5.47
 -11  -2  -8    7.90    4.31
  11  -2  -8   -0.27    5.35
  11   2   8    0.75    5.09
 -11  -1  -8   12.51    3.79
 -11   1   8    2.04    6.97
 -11  -1  -8    7.36    6.21
 -11  -1  -8    1.39    7.46
 -11   1   8    9.15    5.83
 -11   1   8   -1.90    3.87
  11  -1  -8    3.76    4.29
  11   1   8    9.40    5.49
 -11   0   8    8.47    7.22
 -11   0  -8    6.34    6.11
 -11   0   8   -4.48    3.85
 -11   0   8   -1.95    6.21
  11   0   8    5.10    5.68
 -11  -1   8    6.75    3.95
 -11  -1   8    4.36    6.65
 -11  -1   8   10.66    7.49
  11  -1   8    6.80    6.06
 -11  -2   8    8.53    7.87
 -11  -2   8   12.15    4.39
  11   2  -8   10.83    4.40
 -11  -3   8    9.46    5.38
 -11  -3   8   -7.69    7.57
  11   3  -8   -2.97    4.20
 -11  -4   8    4.64    6.24
 -11  -4   8   15.04    9.31
  11   4  -8    2.82    5.12
 -12   1   8   -6.86    7.55
 -12   1   8  -10.05    6.15
 -12  -1  -8   15.39    9.16
  12   1   8    1.55    6.87
 -12   0   8   10.48    8.01
 -12   0  -8   27.42    9.56
 -12   0   8    9.97    6.32
  12   0   8   22.90    7.27
 -12  -1   8    4.27    8.94
   0  10   9   -7.05   10.55
   0  10   9    2.11    9.58
   0  10   9    9.71    8.82
   0   9   9    5.07    6.78
   0   8   9   17.21    6.12
   0   8   9   18.21    6.06
   0  -8  -9   11.96    4.13
   0   7   9    2.75    4.05
   0  -7  -9    2.20    3.40
   0  -7  -9   -2.03    2.80
   0   7   9   -3.43    4.23
   0   7   9   -3.40    4.12
   0   6   9    9.16    4.04
   0   6   9    1.17    3.19
   0   6   9    8.03    3.33
   0  -6  -9    8.66    2.96
   0  -5  -9   -1.36    1.77
   0  -5  -9   -2.49    1.99
   0   5   9   -3.52    2.24
   0   5   9   -0.57    2.79
   0   5   9   -0.90    2.26
   0  -5  -9   -1.49    2.91
   0   4   9    0.28    2.04
   0  -4  -9    2.05    2.53
   0   4   9   -1.36    1.99
   0  -4  -9   -1.02    1.42
   0   4   9    1.03    1.83
   0   3   9   -1.62    1.48
   0   3   9   -0.23    1.79
   0  -3  -9    2.10    1.51
   0   3   9   -0.42    1.60
   0  -3  -9   -3.30    1.95
   0  -2  -9   13.49    2.34
   0  -2  -9   14.63    2.16
   0  -2  -9   14.14    2.22
   0   2   9   13.28    1.98
   0   2   9   13.80    1.82
   0   2   9   10.51    1.81
   0   2   9   12.81    2.17
   0   1   9   -1.26    1.23
   0   1   9   -0.28    1.36
   0  -1  -9   -0.35    1.03
   0  -1  -9   -0.62    1.36
   0   1   9   -1.89    1.00
   0   1   9   -0.19    1.16
   0  -1  -9    0.29    1.00
   0   0   9   -0.59    1.14
   0   0  -9    1.51    1.28
   0   0   9   -1.05    1.14
   0   0  -9   -0.95    0.83
   0   0  -9    0.14    1.03
   0   0  -9    1.89    1.21
   0   0   9   -0.35    1.21
   0   0   9   -0.25    1.02
   0  -1   9    0.60    1.09
   0  -1   9    0.71    1.57
   0   1  -9   -0.97    0.89
   0   1  -9   -0.27    1.09
   0  -1   9   -0.24    1.04
   0   1  -9   -0.37    1.26
   0  -1   9   -0.20    0.97
   0   1  -9   -0.88    1.15
   0  -1   9    2.19    1.46
   0  -2   9   13.44    2.15
   0  -2   9   14.67    2.52
   0   2  -9   14.35    2.43
   0   2  -9   14.18    2.22
   0   2  -9   14.72    2.25
   0   2  -9   12.13    1.87
   0   3  -9   -2.81    1.55
   0  -3   9   -0.02    1.30
   0  -3   9   -1.54    1.14
   0  -3   9    0.02    1.79
   0   3  -9    0.91    1.55
   0   3  -9   -0.76    1.31
   0   3  -9    0.30    1.47
   0  -4   9   -0.90    2.20
   0   4  -9   -1.07    1.61
   0  -4   9    0.26    1.32
   0   4  -9    2.21    1.64
   0   4  -9    2.08    2.03
   0   4  -9   -3.53    2.04
   0   5  -9   -0.09    2.98
   0  -5   9    5.52    3.52
   0   5  -9    0.13    2.11
   0  -5   9    1.69    2.30
   0   5  -9   -2.08    2.12
   0  -5   9   -0.29    1.62
   0  -6   9    7.74    2.36
   0   6  -9    7.86    2.92
   0  -6   9    9.11    3.24
   0   6  -9   13.16    4.75
   0   6  -9    6.39    3.07
   0   7  -9   -0.76    3.81
   0   7  -9    4.14    3.30
   0  -7   9    1.74    2.69
   0   7  -9    3.81    5.78
   0  -8   9   -2.88    4.64
   0   8  -9   13.80    4.70
   0  -8   9   14.39    3.49
   0   8  -9    7.84    5.23
   0   9  -9   -4.56    6.82
   0  -9   9    0.52    4.29
   0   9  -9   -4.10    5.17
   0  10  -9    9.38    7.81
   0  10  -9    2.57    9.63
  -1  10   9    8.55    8.88
  -1  10   9    9.41   10.91
   1  10   9    3.16    9.11
   1  10   9   12.65    9.40
  -1   9   9    9.03    7.83
  -1   9   9   -1.72    7.01
   1   9   9    8.79    7.70
   1   9   9    5.15    6.46
   1   9   9    3.77    7.98
  -1   8   9   -0.07    7.45
  -1  -8  -9   -4.50    4.09
  -1   8   9    8.51    5.42
  -1   8   9    2.81    5.88
   1   8   9   11.19    5.68
   1  -8  -9    2.36    3.88
   1   8   9   -6.03    5.54
  -1  -7  -9    6.03    3.37
  -1   7   9    5.66    4.28
  -1   7   9    9.85    4.54
  -1   7   9    9.00    4.20
  -1  -7  -9    2.67    3.74
   1  -7  -9    5.73    3.29
   1   7   9    2.02    4.38
   1   7   9   13.47    4.45
   1  -7  -9   -0.87    3.12
   1   7   9    9.00    4.36
  -1  -6  -9   -1.98    2.77
  -1   6   9    1.22    3.13
  -1   6   9    2.02    2.81
  -1   6   9   -0.15    3.51
   1  -6  -9    4.67    2.59
   1   6   9   -2.15    2.92
   1   6   9    2.03    3.25
   1  -6  -9    0.44    2.30
  -1   5   9    0.95    2.81
  -1   5   9    7.11    2.69
  -1  -5  -9    7.59    3.29
  -1   5   9    9.52    2.72
  -1  -5  -9    6.76    2.46
   1  -5  -9    7.89    2.29
   1   5   9    8.79    2.83
   1  -5  -9    9.20    3.41
   1   5   9    8.95    3.38
   1  -5  -9    7.92    2.46
  -1  -4  -9   -1.78    2.39
  -1  -4  -9    3.16    1.78
  -1  -4  -9    4.90    1.96
  -1   4   9   -0.81    2.00
  -1   4   9    5.41    2.04
  -1   4   9    1.55    1.80
   1  -4  -9   -1.02    2.54
   1   4   9   -0.59    2.58
   1  -4  -9    2.67    1.60
   1  -4  -9    0.60    1.56
   1   4   9    2.76    2.10
   1   4   9    3.61    2.27
  -1   3   9    0.93    1.89
  -1   3   9   -1.46    1.53
  -1  -3  -9    0.52    1.41
  -1  -3  -9    2.45    2.22
  -1   3   9    0.27    1.48
   1   3   9    0.87    1.87
   1   3   9   -2.89    2.41
   1  -3  -9    2.12    2.26
   1  -3  -9    0.64    1.30
   1   3   9    0.27    1.97
  -1   2   9    9.23    1.85
  -1   2   9   10.61    2.00
  -1  -2  -9   11.52    1.71
  -1   2   9    8.18    1.74
  -1  -2  -9    8.17    1.86
  -1  -2  -9    9.76    1.70
  -1   2   9   10.33    1.93
   1   2   9    9.66    1.63
   1  -2  -9    8.23    1.64
   1   2   9    6.50    1.72
   1  -2  -9    7.40    2.09
   1   2   9    9.88    1.98
   1  -2  -9   10.00    1.78
   1   2   9    8.21    1.95
  -1  -1  -9   45.61    3.08
  -1  -1  -9   46.08    3.56
  -1   1   9   44.59    3.38
  -1   1   9   50.58    3.47
  -1   1   9   47.24    3.05
  -1  -1  -9   41.08    3.03
  -1   1   9   45.76    3.31
   1   1   9   42.50    3.42
   1   1   9   45.92    3.39
   1   1   9   44.22    2.84
   1  -1  -9   44.63    3.57
   1  -1  -9   52.09    3.13
   1  -1  -9   49.17    3.41
   1   1   9   43.03    3.35
  -1   0  -9   -0.02    1.36
  -1   0  -9   -1.15    0.81
  -1   0  -9    0.28    0.88
  -1   0   9    1.00    1.08
  -1   0   9   -1.25    1.09
  -1   0   9    0.87    1.30
  -1   0  -9   -1.39    1.03
  -1   0   9   -0.01    1.23
   1   0  -9    1.55    1.24
   1   0   9   -0.84    1.21
   1   0  -9   -1.50    1.09
   1   0   9    1.35    1.21
   1   0  -9   -0.07    0.88
   1   0   9    0.92    1.19
   1   0  -9   -0.79    1.30
   1   0   9    1.35    1.31
  -1   1  -9   47.44    2.99
  -1  -1   9   42.19    2.99
  -1  -1   9   50.56    3.62
  -1   1  -9   43.74    2.95
  -1   1  -9   47.54    2.87
  -1   1  -9   43.82    3.40
  -1  -1   9   46.29    3.17
  -1  -1   9   41.88    3.13
   1   1  -9   49.47    3.18
   1  -1   9   51.47    3.39
   1   1  -9   46.84    3.41
   1   1  -9   45.36    3.11
   1   1  -9   43.70    3.38
   1  -1   9   44.08    3.72
   1  -1   9   45.00    3.07
  -1   2  -9    6.73    1.50
  -1   2  -9    9.45    1.36
  -1  -2   9    9.71    1.63
  -1   2  -9    8.57    1.53
  -1   2  -9    8.06    1.93
  -1  -2   9   10.20    2.12
  -1  -2   9    9.10    1.57
  -1  -2   9    9.82    1.82
   1  -2   9    8.83    2.18
   1   2  -9   11.56    2.15
   1   2  -9    8.75    1.58
   1   2  -9    6.54    2.02
   1  -2   9   10.20    1.51
   1   2  -9    7.57    1.79
  -1  -3   9   -0.99    1.81
  -1   3  -9   -0.51    1.60
  -1   3  -9   -0.30    1.18
  -1  -3   9   -0.05    1.22
  -1  -3   9   -0.96    1.48
  -1  -3   9    0.65    1.57
  -1   3  -9    1.12    1.49
  -1  -3   9   -0.07    1.23
  -1   3  -9   -2.30    1.32
   1   3  -9    0.08    1.71
   1  -3   9    1.65    1.94
   1   3  -9   -2.03    1.75
   1   3  -9    0.62    1.60
   1   3  -9   -0.40    1.36
   1  -3   9   -0.80    1.18
  -1   4  -9    2.02    2.05
  -1   4  -9   -0.34    1.84
  -1   4  -9    3.91    1.58
  -1  -4   9    3.57    1.87
  -1  -4   9    2.16    1.49
  -1   4  -9    1.63    1.96
  -1  -4   9    3.84    1.83
  -1  -4   9   -0.42    2.32
   1   4  -9    2.45    2.52
   1  -4   9    2.62    1.69
   1  -4   9    0.84    1.21
   1   4  -9    0.43    1.86
   1  -4   9   -0.46    2.74
   1   4  -9    1.57    2.14
   1   4  -9    2.29    2.02
  -1   5  -9    8.72    2.88
  -1   5  -9    6.32    2.42
  -1  -5   9    9.82    3.12
  -1  -5   9    6.46    2.62
  -1  -5   9    4.07    2.01
  -1   5  -9    8.49    2.67
   1   5  -9    6.06    2.35
   1  -5   9    9.19    3.28
   1   5  -9   14.45    3.73
   1   5  -9    6.16    2.43
  -1  -6   9    1.11    3.23
  -1   6  -9   -4.18    2.75
  -1  -6   9    3.74    2.36
  -1   6  -9   -2.06    2.86
   1   6  -9   -1.30    2.93
   1   6  -9   -2.75    2.50
   1   6  -9    5.11    4.47
  -1  -7   9    3.53    3.97
  -1  -7   9    9.29    3.12
  -1   7  -9    0.10    3.77
  -1   7  -9   -0.06    5.22
  -1   7  -9    2.20    3.88
   1   7  -9    1.72    3.60
   1   7  -9    2.62    3.96
   1  -7   9    1.51    2.63
   1   7  -9    4.51    6.39
  -1  -8   9   -2.19    5.08
  -1  -8   9    5.54    3.69
  -1   8  -9   -4.68    4.38
  -1   8  -9    8.97    5.20
   1   8  -9    0.90    6.65
   1   8  -9   -0.45    4.15
  -1  -9   9   10.64    4.96
  -1   9  -9   -0.32    5.83
  -1   9  -9    8.20    7.35
   1   9  -9    0.96    5.58
   1   9  -9   11.17    7.52
  -1  10  -9   -2.66    7.45
  -1  10  -9    7.16    9.18
   1  10  -9   30.48    9.84
   1  10  -9    0.72    8.01
  -2  10   9   19.37    9.11
  -2  10   9    6.41   10.09
   2  10   9   -4.04    8.57
   2  10   9   -7.30   13.21
   2  10   9   -2.58    9.94
  -2   9   9   14.92    7.89
  -2   9   9    7.51    5.63
  -2   9   9   10.61    7.21
   2   9   9   12.83    7.73
   2   9   9   11.74    9.22
   2  -9  -9   14.65    6.12
   2   9   9    7.26    6.34
  -2   8   9   -5.17    5.61
  -2   8   9    4.08    5.41
  -2   8   9   -3.36    3.51
  -2   8   9    6.65    5.40
   2  -8  -9    4.82    4.11
   2   8   9    2.03    4.45
   2   8   9   -5.82    5.65
   2   8   9    6.62    6.45
  -2  -7  -9    2.45    3.42
  -2   7   9   14.82    4.32
  -2  -7  -9   11.09    4.30
  -2   7   9    7.16    4.22
  -2   7   9    7.36    4.45
   2   7   9   13.01    5.27
   2   7   9    5.06    4.83
   2  -7  -9    2.45    3.12
   2   7   9    2.90    4.70
  -2   6   9   11.41    3.37
  -2  -6  -9   12.43    3.53
  -2   6   9    8.05    3.70
  -2   6   9   14.02    3.56
   2  -6  -9   16.22    3.15
   2   6   9   14.37    4.15
   2   6   9    9.25    4.09
   2  -6  -9    9.76    2.74
  -2  -5  -9   -0.09    3.19
  -2   5   9   -0.64    2.30
  -2   5   9   -1.16    2.44
  -2  -5  -9   -0.42    2.59
  -2   5   9    1.06    2.77
   2   5   9    6.63    3.09
   2  -5  -9    0.82    2.14
   2   5   9    0.40    2.99
   2  -5  -9   -1.18    3.01
   2  -5  -9    1.74    2.02
  -2   4   9    0.43    1.81
  -2   4   9    1.56    2.16
  -2   4   9   -2.04    1.90
  -2  -4  -9   -2.15    2.01
  -2  -4  -9    3.16    1.91
  -2  -4  -9   -3.93    2.55
   2   4   9    2.09    2.59
   2   4   9    0.42    2.30
   2   4   9    1.68    2.09
   2  -4  -9    1.99    1.71
   2  -4  -9   -1.47    2.59
   2  -4  -9   -1.17    1.67
  -2   3   9   36.26    3.11
  -2  -3  -9   26.21    4.07
  -2   3   9   30.09    3.61
  -2  -3  -9   27.51    3.15
  -2  -3  -9   22.08    3.14
  -2   3   9   28.37    3.12
   2   3   9   33.11    3.95
   2   3   9   26.84    3.30
   2  -3  -9   33.51    4.01
   2  -3  -9   27.40    3.09
   2   3   9   26.01    3.66
  -2  -2  -9    1.52    1.90
  -2  -2  -9    1.14    1.40
  -2   2   9    0.07    1.41
  -2   2   9   -0.11    1.31
  -2   2   9   -0.18    1.30
  -2   2   9    0.15    1.59
  -2  -2  -9   -0.06    1.16
   2   2   9    0.75    1.71
   2   2   9   -0.83    1.33
   2  -2  -9    0.18    1.15
   2  -2  -9   -0.67    1.64
   2  -2  -9    1.60    1.34
   2   2   9    0.62    1.47
  -2  -1  -9   31.58    2.67
  -2   1   9   30.73    2.57
  -2   1   9   34.22    2.82
  -2   1   9   32.41    2.83
  -2  -1  -9   27.39    2.64
  -2  -1  -9   31.65    3.33
  -2   1   9   29.20    2.93
   2   1   9   28.29    3.11
   2  -1  -9   34.25    2.62
   2  -1  -9   30.10    2.92
   2  -1  -9   26.62    3.11
   2   1   9   29.04    2.84
   2   1   9   31.71    2.82
  -2   0  -9    0.69    1.43
  -2   0   9   -0.27    1.28
  -2   0   9   -0.14    1.19
  -2   0  -9    2.09    0.94
  -2   0  -9   -0.12    1.12
  -2   0  -9   -0.88    0.96
  -2   0   9    0.39    1.43
  -2   0   9   -0.07    1.22
   2   0  -9   -0.12    1.29
   2   0  -9   -1.25    1.04
   2   0   9   -1.30    1.38
   2   0  -9    0.38    1.19
   2   0   9   -0.64    1.22
  -2  -1   9   28.36    2.59
  -2   1  -9   30.84    2.14
  -2   1  -9   30.23    2.21
  -2   1  -9   27.77    2.82
  -2  -1   9   27.93    2.99
  -2  -1   9   30.85    2.84
  -2  -1   9   29.30    2.74
   2   1  -9   30.36    2.83
   2  -1   9   23.80    3.16
   2   1  -9   30.65    2.73
   2   1  -9   29.54    2.50
   2   1  -9   21.14    2.96
   2  -1   9   24.60    2.63
  -2  -2   9   -0.86    1.57
  -2   2  -9    1.02    0.92
  -2  -2   9    1.65    1.81
  -2  -2   9    0.51    1.13
  -2   2  -9   -0.37    1.34
  -2  -2   9   -0.30    1.32
  -2   2  -9   -0.24    1.10
  -2   2  -9    0.68    1.00
   2  -2   9    1.12    1.63
   2   2  -9    0.66    1.35
   2   2  -9    1.15    1.61
   2   2  -9    1.62    1.55
   2  -2   9   -0.08    1.10
   2   2  -9    0.31    1.46
  -2  -3   9   27.35    3.35
  -2  -3   9   30.87    3.06
  -2   3  -9   25.33    2.85
  -2  -3   9   32.52    2.97
  -2  -3   9   26.49    3.40
  -2   3  -9   22.70    3.21
  -2  -3   9   29.41    3.16
   2   3  -9   27.74    3.05
   2   3  -9   29.58    3.02
   2   3  -9   23.55    3.51
   2  -3   9   31.32    3.45
   2   3  -9   26.20    3.51
  -2   4  -9    0.71    2.16
  -2  -4   9   -0.09    1.88
  -2  -4   9    3.35    1.91
  -2  -4   9    0.74    1.56
  -2   4  -9    3.53    1.97
  -2  -4   9   -1.57    2.42
  -2  -4   9    0.05    2.07
   2   4  -9    3.55    2.42
   2   4  -9    2.66    2.17
   2   4  -9   -0.04    2.82
  -2  -5   9   -0.12    2.08
  -2   5  -9   -1.35    2.25
  -2  -5   9    1.80    2.16
  -2  -5   9   -2.30    2.14
  -2   5  -9    1.16    2.80
  -2  -5   9    4.45    2.73
   2   5  -9    0.80    2.17
   2   5  -9    0.03    2.30
   2   5  -9    1.60    3.54
  -2  -6   9   13.41    3.06
  -2   6  -9    4.90    3.18
  -2  -6   9    8.39    2.91
   2   6  -9    8.33    3.79
   2   6  -9   10.95    4.98
   2   6  -9   10.31    3.25
  -2  -7   9    8.68    4.71
  -2  -7   9   -3.80    5.12
  -2  -7   9   15.60    3.68
   2   7  -9    8.29    3.75
   2   7  -9   -2.21    7.01
   2   7  -9    7.54    4.53
  -2  -8   9    5.54    4.04
  -2   8  -9    2.56    5.21
   2   8  -9   -3.88    4.28
   2   8  -9   -5.86    5.30
  -2   9  -9   -4.08    6.29
  -2   9  -9   -0.47    7.14
  -2  -9   9   11.44    5.16
   2   9  -9   -4.44    7.39
   2   9  -9   -5.45    5.35
  -2  10  -9   -7.68    8.00
  -2  10  -9   15.57    9.72
   2  10  -9  -10.92    7.15
   2  10  -9    4.28    9.98
  -3  10   9    7.82   10.31
   3  10   9    4.30    8.68
   3  10   9    8.26   10.28
  -3   9   9   -4.28    7.14
  -3   9   9   -3.46    6.81
   3   9   9    9.46    8.38
   3   9   9   -3.35    6.89
   3  -9  -9   -6.26    5.67
   3   9   9   -7.62    9.95
  -3   8   9    6.15    5.59
  -3   8   9   -0.48    5.57
  -3   8   9   -1.09    5.01
   3   8   9    3.22    4.90
   3   8   9   -4.90    7.28
   3   8   9    8.74    6.50
   3  -8  -9    1.09    4.25
  -3   7   9   17.55    4.67
  -3   7   9   23.64    5.23
  -3  -7  -9   21.96    5.62
  -3   7   9   30.04    5.37
  -3  -7  -9   21.25    4.46
   3   7   9   20.54    5.10
   3   7   9   29.97    6.93
   3   7   9   23.80    5.89
   3   7   9   27.08    4.67
   3  -7  -9   16.85    3.72
  -3   6   9   -4.01    2.12
  -3  -6  -9   -1.87    3.68
  -3   6   9   -1.65    3.03
  -3   6   9   -0.45    4.10
   3  -6  -9   -0.72    2.71
   3   6   9    0.07    4.10
   3   6   9   -0.08    3.06
   3   6   9    4.71    3.57
  -3  -5  -9   -3.74    3.26
  -3   5   9   -2.00    2.15
  -3   5   9    1.86    1.69
  -3   5   9   -1.75    2.62
  -3   5   9    2.74    2.50
  -3  -5  -9   -4.03    3.08
   3   5   9    3.22    3.28
   3  -5  -9    2.31    2.33
   3   5   9   -3.16    3.29
   3  -5  -9    1.65    2.07
   3  -5  -9    4.11    3.24
   3   5   9   -1.40    2.84
  -3   4   9    1.90    2.01
  -3  -4  -9    1.94    3.13
  -3   4   9   -0.63    1.90
  -3  -4  -9    2.75    1.89
  -3  -4  -9   -0.99    2.17
  -3   4   9   -2.56    2.25
   3  -4  -9    1.44    2.86
   3   4   9    1.97    2.47
   3   4   9    1.56    2.52
   3  -4  -9    1.59    1.68
   3  -4  -9   -0.48    1.86
   3   4   9   -1.33    2.73
  -3   3   9  160.11    7.98
  -3   3   9  149.08    8.18
  -3  -3  -9  158.84    8.97
  -3   3   9  162.78    8.23
  -3   3   9  161.49    7.92
  -3  -3  -9  151.10    8.14
  -3  -3  -9  158.29    8.03
   3  -3  -9  136.00    7.67
   3   3   9  155.58    8.48
   3   3   9  157.18    8.66
   3  -3  -9  152.13    8.61
   3  -3  -9  155.64    8.35
   3   3   9  137.40    8.06
  -3   2   9   17.84    2.54
  -3  -2  -9   15.26    2.30
  -3  -2  -9   12.99    2.61
  -3  -2  -9   18.68    2.51
  -3   2   9   17.51    2.40
  -3   2   9   19.64    2.84
   3   2   9   15.50    2.49
   3   2   9   17.84    2.95
   3   2   9   13.13    2.17
   3  -2  -9   15.27    2.37
   3  -2  -9   20.09    2.93
   3  -2  -9   14.35    1.96
  -3  -1  -9   -0.83    1.24
  -3   1   9   -0.14    1.30
  -3   1   9    0.96    1.47
  -3  -1  -9    0.82    1.65
  -3   1   9    0.63    1.29
  -3   1   9    2.59    1.48
  -3  -1  -9    1.57    1.17
   3  -1  -9    1.10    1.60
   3   1   9    1.51    1.40
   3  -1  -9    0.77    1.20
   3   1   9    1.63    1.73
   3  -1  -9    1.19    0.93
   3  -1  -9    0.51    1.56
  -3   0  -9    2.34    1.15
  -3   0   9    0.98    1.37
  -3   0   9   -0.62    1.57
  -3   0   9   -1.49    1.35
  -3   0   9   -0.42    1.29
  -3   0  -9   -0.02    0.98
  -3   0  -9   -1.22    1.43
   3   0  -9   -0.86    1.16
   3   0   9    0.87    1.39
   3   0   9   -0.81    1.58
   3   0  -9   -0.16    1.36
   3   0  -9   -0.17    1.58
  -3  -1   9    0.01    1.21
  -3  -1   9    0.49    1.43
  -3  -1   9    0.86    1.52
  -3   1  -9    1.11    1.11
  -3   1  -9   -0.17    0.82
  -3  -1   9   -0.06    1.66
  -3   1  -9    1.15    1.43
   3   1  -9   -0.28    1.26
   3  -1   9    0.91    1.62
   3   1  -9   -0.12    1.46
   3   1  -9   -0.67    1.54
   3   1  -9    1.96    1.86
  -3  -2   9   16.86    2.77
  -3   2  -9   14.91    2.49
  -3  -2   9   16.16    2.52
  -3  -2   9   18.76    3.27
  -3  -2   9   16.24    2.65
  -3   2  -9   17.09    2.19
   3  -2   9   16.53    2.59
   3   2  -9   17.19    2.71
   3   2  -9   15.47    2.34
   3   2  -9   14.06    2.76
   3   2  -9   15.19    3.55
  -3  -3   9  152.49    8.65
  -3   3  -9  152.85    8.45
  -3  -3   9  152.70    8.25
  -3   3  -9  156.02    8.04
  -3   3  -9  165.31    7.79
  -3  -3   9  162.33    8.12
  -3  -3   9  158.25    8.54
  -3  -3   9  150.01    8.29
   3   3  -9  170.07    9.42
   3   3  -9  153.82    8.26
   3   3  -9  161.54    8.22
   3   3  -9  166.28    8.62
  -3   4  -9    1.95    2.14
  -3  -4   9    2.55    2.11
  -3   4  -9    2.44    2.40
  -3  -4   9    2.12    2.51
  -3  -4   9   -1.09    3.23
  -3  -4   9    0.47    1.94
   3   4  -9    0.31    2.18
   3   4  -9    5.36    3.54
   3   4  -9    0.65    2.72
  -3   5  -9   -2.38    2.50
  -3   5  -9    6.59    3.01
  -3   5  -9   -2.16    2.46
  -3  -5   9    0.16    2.51
  -3  -5   9    1.33    2.42
   3   5  -9   -1.22    2.46
   3   5  -9    3.51    4.55
   3   5  -9   -0.96    2.64
  -3  -6   9    3.93    3.98
  -3  -6   9   -1.30    3.07
  -3  -6   9    1.11    2.72
  -3  -6   9    4.22    2.94
  -3   6  -9    0.25    3.29
  -3   6  -9   -0.82    3.15
  -3   6  -9    6.15    3.85
   3   6  -9    1.23    3.45
   3   6  -9   -2.36    3.24
   3   6  -9    3.69    5.65
  -3   7  -9   21.82    4.85
  -3  -7   9   26.54    6.45
  -3  -7   9   37.16    6.13
  -3   7  -9   38.92    6.65
  -3  -7   9   28.29    4.38
  -3  -7   9   29.26    5.73
  -3  -7   9   33.42    4.59
   3   7  -9   19.32    7.55
   3   7  -9   27.74    5.79
   3   7  -9   19.76    4.54
  -3  -8   9    4.03    4.56
  -3   8  -9    1.15    4.45
   3   8  -9   -4.98    5.88
   3   8  -9    5.54    4.36
  -3  -9   9   10.32    5.45
  -3   9  -9   -5.41    5.99
   3   9  -9  -15.11    7.69
   3   9  -9    9.56    6.52
  -3  10  -9    7.87    9.77
   3  10  -9   25.17   12.21
  -4   9   9   -5.28    7.21
  -4   9   9  -15.16    7.57
   4   9   9  -16.08   11.34
   4   9   9    6.46   12.60
   4   9   9   -1.75    8.59
  -4   8   9    0.30    5.27
  -4   8   9    3.09    5.44
  -4   8   9   11.07    4.31
  -4   8   9    7.33    6.21
   4   8   9   -3.21    4.94
   4   8   9    5.84    8.77
   4   8   9   11.55    7.59
   4  -8  -9   12.27    4.96
  -4   7   9    5.18    4.33
  -4   7   9   -6.24    4.15
  -4  -7  -9   16.04    5.58
  -4   7   9   -4.36    4.27
   4   7   9    4.04    6.03
   4   7   9   -1.12    4.66
   4   7   9    7.66    6.30
  -4   6   9    0.80    3.18
  -4   6   9   -3.88    3.29
  -4  -6  -9    6.68    4.72
  -4   6   9   -1.50    3.70
  -4  -6  -9   13.32    4.32
  -4   6   9   -1.36    2.38
   4   6   9    3.23    4.72
   4  -6  -9   -0.59    2.97
   4   6   9    2.42    3.52
  -4  -5  -9    4.12    2.66
  -4   5   9    1.69    2.84
  -4   5   9    2.46    2.47
  -4  -5  -9    5.82    3.63
  -4   5   9    3.34    2.31
  -4   5   9    1.77    1.86
   4  -5  -9    6.37    2.81
   4   5   9    0.93    3.79
   4   5   9    1.77    3.88
  -4   4   9    3.84    3.08
  -4   4   9    2.96    2.30
  -4   4   9    2.76    2.38
  -4  -4  -9    0.83    2.06
  -4  -4  -9   -1.71    3.10
  -4  -4  -9    3.73    2.83
   4   4   9    2.67    3.34
   4  -4  -9    4.22    2.37
   4  -4  -9    6.17    2.36
   4   4   9    1.61    3.01
   4   4   9    7.16    2.44
   4  -4  -9    2.76    2.93
  -4  -3  -9   59.41    5.86
  -4   3   9   67.33    4.38
  -4  -3  -9   71.68    5.26
  -4   3   9   62.36    4.84
  -4   3   9   64.58    4.77
  -4   3   9   60.76    4.73
  -4  -3  -9   62.96    4.75
   4  -3  -9   59.88    3.98
   4   3   9   66.18    5.56
   4   3   9   67.27    4.86
   4  -3  -9   71.07    5.13
   4  -3  -9   63.35    5.45
   4  -3  -9   63.93    4.35
   4   3   9   61.59    5.42
  -4   2   9    5.51    1.83
  -4  -2  -9    5.00    2.53
  -4  -2  -9    0.88    1.88
  -4   2   9    5.72    1.73
  -4  -2  -9    4.36    1.75
  -4   2   9    3.87    2.05
  -4   2   9    3.90    1.91
   4  -2  -9    5.10    1.60
   4  -2  -9    4.83    1.64
   4   2   9    1.90    2.27
   4   2   9    5.35    2.25
   4  -2  -9    4.37    2.21
   4   2   9    6.78    2.52
   4  -2  -9    6.48    2.22
  -4   1   9    8.37    2.02
  -4  -1  -9    7.04    2.54
  -4   1   9    7.77    1.87
  -4  -1  -9    5.06    1.58
  -4   1   9    6.51    1.85
  -4  -1  -9    9.15    1.74
  -4   1   9    7.69    1.78
   4  -1  -9    5.95    2.21
   4  -1  -9    4.56    1.88
   4  -1  -9    7.90    1.43
   4   1   9    6.93    2.15
   4   1   9    5.01    1.78
   4  -1  -9    7.20    1.85
  -4   0  -9    1.19    1.16
  -4   0   9    0.17    1.47
  -4   0   9   -0.34    1.52
  -4   0  -9   -0.57    1.68
  -4   0  -9    1.37    1.18
  -4   0   9    0.74    1.41
   4   0  -9    0.99    1.41
   4   0  -9    0.33    1.67
   4   0   9   -0.70    1.47
   4   0  -9    3.29    1.91
   4   0   9   -0.62    1.48
  -4  -1   9    6.91    2.08
  -4  -1   9    8.14    1.83
  -4   1  -9    5.20    1.80
  -4  -1   9    7.58    2.30
  -4  -1   9    5.47    2.03
   4  -1   9    2.64    2.08
   4   1  -9    6.62    1.88
   4   1  -9    6.91    2.41
   4   1  -9    7.25    1.82
   4   1  -9    4.82    1.92
  -4  -2   9    5.36    2.04
  -4   2  -9    5.91    1.59
  -4  -2   9    8.06    2.48
  -4  -2   9    0.28    2.16
  -4   2  -9    1.19    1.72
  -4  -2   9    4.50    1.86
   4   2  -9    4.20    1.93
   4   2  -9    6.76    2.58
   4   2  -9    3.93    1.81
   4   2  -9    5.59    2.06
  -4  -3   9   74.51    5.68
  -4   3  -9   63.40    4.49
  -4   3  -9   65.90    4.78
  -4  -3   9   64.44    5.27
  -4  -3   9   65.80    4.75
  -4  -3   9   67.52    5.57
  -4   3  -9   62.93    4.28
  -4  -3   9   70.59    5.22
   4   3  -9   59.09    5.07
   4   3  -9   66.19    5.23
   4   3  -9   68.22    4.90
   4   3  -9   69.91    6.56
  -4  -4   9    1.67    2.81
  -4   4  -9    4.93    2.53
  -4  -4   9    0.21    2.41
  -4   4  -9    5.05    2.21
  -4   4  -9    4.40    2.46
  -4  -4   9    3.59    2.48
   4   4  -9    8.70    2.36
   4   4  -9   11.11    4.44
   4   4  -9    3.62    3.16
  -4  -5   9    6.00    4.17
  -4   5  -9   -2.88    2.92
  -4   5  -9    3.40    2.89
  -4  -5   9    3.74    2.77
  -4  -5   9   -4.79    3.03
  -4  -5   9    1.91    3.00
  -4   5  -9    1.57    2.74
   4   5  -9    5.99    2.77
   4   5  -9    2.37    4.70
  -4  -6   9   -4.88    3.55
  -4  -6   9   -5.17    4.37
  -4   6  -9   -0.19    3.18
  -4  -6   9    0.17    3.12
  -4  -6   9    1.67    3.47
  -4   6  -9   -3.23    3.15
   4   6  -9    3.43    4.35
   4   6  -9    4.86    3.28
  -4  -7   9   15.79    8.10
  -4   7  -9   -0.80    4.43
  -4  -7   9    5.04    4.32
  -4  -7   9    0.33    4.48
  -4   7  -9    6.04    4.26
  -4  -7   9   10.35    3.94
   4   7  -9   11.48    5.22
   4   7  -9    8.35    4.33
  -4   8  -9    5.01    5.14
  -4  -8   9    6.34    5.33
  -4  -8   9   10.25    4.91
   4   8  -9   10.00    6.77
   4   8  -9   12.93    5.16
  -4  -9   9    3.85    6.07
  -4   9  -9   13.59    7.15
   4   9  -9    4.08    6.50
   4   9  -9   -8.45    9.03
  -5   9   9   -4.77    7.86
  -5   9   9    6.77    9.06
   5   9   9   -2.72    9.65
   5   9   9   22.84   12.75
  -5   8   9   -4.36    6.75
  -5   8   9   -6.59    4.90
  -5   8   9   -0.68    5.77
  -5   8   9   -0.28    5.45
   5   8   9   19.85    7.68
   5   8   9   25.61    9.32
  -5  -7  -9   -8.74    6.14
  -5   7   9    4.47    3.83
  -5   7   9    2.77    4.36
  -5   7   9    7.73    5.27
  -5   7   9    1.71    4.36
   5  -7  -9    3.73    4.76
   5   7   9    0.57    5.70
   5   7   9   16.22    7.17
  -5   6   9   -1.22    3.85
  -5   6   9   -1.71    3.23
  -5  -6  -9   -3.82    4.88
  -5   6   9    3.68    3.39
  -5  -6  -9    6.89    3.48
   5   6   9    2.72    5.29
   5  -6  -9    2.46    3.54
   5   6   9   -7.01    4.11
   5  -6  -9   -0.75    2.82
   5   6   9    1.64    4.94
  -5  -5  -9    4.04    2.91
  -5   5   9    2.35    3.13
  -5  -5  -9    2.93    4.02
  -5   5   9   10.22    4.78
  -5   5   9    7.72    2.92
   5   5   9    6.89    4.46
   5  -5  -9    8.89    3.10
   5   5   9   17.65    4.46
  -5   4   9    2.54    2.52
  -5  -4  -9    7.23    3.76
  -5   4   9    6.22    2.63
  -5  -4  -9    2.03    2.50
  -5  -4  -9    4.26    3.10
  -5   4   9    4.07    2.47
   5   4   9    4.38    3.62
   5   4   9    6.13    2.88
   5  -4  -9    3.62    2.81
   5   4   9    4.53    3.34
   5  -4  -9    5.87    2.99
   5  -4  -9    7.10    3.07
  -5  -3  -9   38.47    4.34
  -5  -3  -9   35.88    5.30
  -5   3   9   44.67    4.29
  -5  -3  -9   41.12    4.91
  -5   3   9   42.43    3.74
  -5   3   9   46.35    4.26
   5   3   9   42.65    4.37
   5  -3  -9   45.56    3.68
   5  -3  -9   37.52    4.81
   5   3   9   45.47    5.21
   5   3   9   40.09    5.16
   5  -3  -9   35.43    4.80
  -5  -2  -9    0.14    1.92
  -5   2   9    1.76    1.93
  -5  -2  -9    1.64    1.98
  -5  -2  -9    0.50    2.52
  -5   2   9    1.55    1.72
  -5   2   9   -1.23    1.81
   5  -2  -9   -1.64    1.48
   5  -2  -9   -0.32    1.54
   5   2   9   -1.01    1.88
   5  -2  -9   -2.18    2.33
   5  -2  -9    2.87    2.27
   5   2   9    4.33    2.46
  -5   1   9    5.03    1.86
  -5   1   9    3.15    1.97
  -5   1   9    5.07    1.97
  -5  -1  -9    3.26    2.23
  -5  -1  -9    2.20    1.75
  -5  -1  -9    2.00    1.74
  -5   1   9    3.89    1.93
   5  -1  -9    2.49    2.48
   5   1   9    1.93    2.08
   5  -1  -9    3.27    2.04
   5  -1  -9    2.68    1.79
   5  -1  -9    3.15    1.55
   5   1   9    0.76    1.78
  -5   0  -9    1.84    1.99
  -5   0   9    0.54    1.70
  -5   0   9   -0.30    1.90
  -5   0   9    0.22    1.81
  -5   0  -9   -0.36    1.28
   5   0   9    0.22    1.75
   5   0  -9    1.50    1.82
   5   0  -9   -0.45    1.49
   5   0  -9   -1.64    2.26
   5   0  -9    1.31    1.33
  -5   1  -9    4.23    1.81
  -5  -1   9    5.38    2.17
  -5  -1   9    0.00    2.01
  -5  -1   9    4.94    2.24
  -5  -1   9    5.85    1.94
   5   1  -9    2.38    1.85
   5   1  -9    2.00    1.84
   5   1  -9    3.69    2.75
  -5  -2   9    2.04    2.64
  -5  -2   9    2.59    2.28
  -5   2  -9    2.23    1.80
  -5  -2   9    0.92    2.69
  -5  -2   9    2.72    1.80
   5   2  -9    0.52    1.91
   5   2  -9    1.80    2.27
   5   2  -9    3.15    2.07
   5   2  -9    4.85    3.11
  -5   3  -9   38.43    3.69
  -5   3  -9   48.40    4.13
  -5  -3   9   46.69    4.94
  -5  -3   9   50.61    5.37
  -5  -3   9   45.83    5.13
  -5   3  -9   35.24    3.81
  -5  -3   9   44.25    4.39
  -5  -3   9   47.84    5.13
   5   3  -9   45.16    4.63
   5   3  -9   40.27    4.37
   5   3  -9   54.61    4.84
  -5  -4   9    2.90    2.70
  -5  -4   9    8.87    3.18
  -5  -4   9    1.12    3.21
  -5  -4   9    4.26    3.33
  -5   4  -9    7.51    2.69
  -5   4  -9    5.79    2.59
  -5   4  -9    4.78    2.50
  -5  -4   9    6.10    3.14
   5   4  -9    5.96    2.78
   5   4  -9    5.52    3.25
  -5  -5   9    3.95    3.28
  -5  -5   9   -0.15    4.46
  -5   5  -9    8.35    3.08
  -5  -5   9   -1.61    4.37
  -5   5  -9   13.15    3.46
  -5  -5   9   12.24    4.49
  -5   5  -9    7.17    3.26
  -5  -5   9    4.98    3.61
   5   5  -9   12.61    4.26
   5   5  -9    3.08    6.23
  -5  -6   9    4.85    3.46
  -5   6  -9    2.22    3.54
  -5   6  -9    6.15    4.31
  -5   6  -9    0.93    3.64
  -5  -6   9   -2.79    5.09
  -5  -6   9    2.27    4.19
  -5  -6   9   -8.13    5.31
   5   6  -9   -4.29    7.38
  -5   7  -9    5.70    7.95
  -5  -7   9    3.38    4.89
  -5   7  -9    2.16    4.52
  -5   7  -9   -2.30    4.37
  -5  -7   9   -1.79    5.49
  -5  -7   9    8.29    4.43
   5   7  -9    7.76    5.85
   5   7  -9   -1.31    4.23
  -5  -8   9    1.63    5.67
  -5   8  -9    7.79    6.11
  -5  -8   9   -8.18    6.35
  -5   8  -9   -2.75    5.74
  -5  -8   9    6.65    5.63
   5   8  -9   -1.19    5.50
   5   8  -9    5.46    7.39
  -5   9  -9   -7.16    7.36
  -5   9  -9   -6.30    7.28
  -5  -9   9   16.52    6.93
  -5  -9   9   -7.41    7.11
   5   9  -9    5.66    9.15
   5   9  -9    8.61    7.91
  -6   8   9   14.06    6.02
  -6   8   9   -2.67    6.70
  -6   8   9    1.54    6.05
   6   8   9   17.41   10.06
   6   8   9   22.80    8.85
  -6   7   9    4.42    4.47
  -6   7   9    6.68    4.60
  -6   7   9    9.71    5.95
  -6   7   9    2.16    5.03
  -6  -7  -9   14.30    7.36
   6   7   9   17.69    7.31
   6   7   9   20.18    7.78
   6  -7  -9   12.29    4.68
  -6  -6  -9   25.76    6.94
  -6   6   9   23.02    4.39
  -6   6   9   31.00    5.68
  -6   6   9   28.33    5.28
  -6   6   9   23.69    4.37
   6  -6  -9   24.74    4.66
   6   6   9   26.10    6.56
   6   6   9   28.41    6.26
   6   6   9   26.84    5.56
  -6   5   9    2.27    3.40
  -6  -5  -9   -0.12    4.78
  -6  -5  -9    1.65    3.52
  -6   5   9   -1.07    2.51
  -6   5   9   -4.08    3.17
   6  -5  -9    0.95    3.96
   6   5   9    1.25    4.59
   6  -5  -9    5.22    3.75
   6   5   9    6.79    3.97
   6   5   9   -1.95    4.56
  -6  -4  -9    4.88    3.28
  -6   4   9   10.58    3.18
  -6  -4  -9    8.46    3.86
  -6   4   9   10.99    3.14
  -6  -4  -9   13.10    4.13
  -6   4   9    7.60    2.37
   6   4   9    9.84    4.18
   6   4   9    7.81    3.38
   6  -4  -9   11.21    3.29
   6  -4  -9   11.24    3.48
   6   4   9   15.21    4.03
  -6  -3  -9   14.75    3.27
  -6   3   9   16.78    2.65
  -6   3   9   17.70    3.20
  -6  -3  -9   11.64    3.30
  -6  -3  -9   14.32    3.56
  -6   3   9   14.32    2.99
   6   3   9   13.20    3.52
   6  -3  -9   15.98    3.59
   6   3   9   15.54    2.90
   6  -3  -9   16.23    3.36
   6  -3  -9    9.10    2.79
  -6   2   9   -0.81    2.00
  -6  -2  -9   -2.64    2.95
  -6   2   9    2.45    2.01
  -6  -2  -9   -1.50    2.26
  -6   2   9    0.09    2.38
  -6  -2  -9    1.71    2.30
   6   2   9    3.15    2.72
   6  -2  -9    6.17    2.56
   6   2   9    3.90    2.25
   6  -2  -9    1.53    1.90
   6  -2  -9    5.28    2.76
  -6  -1  -9    5.61    2.24
  -6  -1  -9    5.06    2.75
  -6   1   9    4.83    2.45
  -6   1   9    4.95    1.97
  -6   1   9    5.12    2.07
  -6  -1  -9    7.13    2.10
   6  -1  -9    0.95    2.80
   6   1   9    5.11    2.38
   6  -1  -9    5.95    2.34
   6  -1  -9    4.16    1.87
   6  -1  -9    4.80    1.91
  -6   0   9   -0.28    1.76
  -6   0  -9   -2.20    2.31
  -6   0   9    0.08    2.16
  -6   0   9    2.76    2.28
   6   0  -9    2.64    2.54
   6   0  -9    1.82    1.87
   6   0   9    1.12    2.10
   6   0  -9   -1.29    1.48
   6   0  -9   -1.92    1.86
  -6  -1   9    4.75    2.43
  -6  -1   9    9.52    2.96
  -6  -1   9    6.60    2.07
  -6   1  -9    5.64    2.19
   6   1  -9    4.51    1.98
   6   1  -9    4.77    2.17
   6   1  -9    7.73    3.46
  -6   2  -9    1.99    2.12
  -6  -2   9    0.14    2.64
  -6  -2   9   -2.05    2.91
  -6  -2   9    1.98    2.05
  -6  -2   9    0.56    2.83
  -6  -2   9    1.69    2.82
  -6   2  -9    0.23    1.71
   6   2  -9   -2.32    2.53
   6   2  -9    2.27    4.00
   6   2  -9    2.53    2.01
   6   2  -9    0.22    2.22
  -6  -3   9   20.02    4.40
  -6  -3   9   13.46    3.62
  -6  -3   9   17.25    3.13
  -6  -3   9    7.44    3.55
  -6   3  -9   13.14    2.50
  -6   3  -9   14.86    2.66
   6   3  -9   14.44    3.46
   6   3  -9   16.28    3.13
  -6   4  -9    8.16    2.85
  -6   4  -9   10.89    3.16
  -6  -4   9    7.41    3.23
  -6   4  -9   11.72    2.91
  -6  -4   9   10.02    4.23
  -6  -4   9   15.90    4.18
   6   4  -9    9.81    3.71
  -6   5  -9    4.69    3.30
  -6   5  -9    1.44    2.66
  -6  -5   9    4.05    4.80
  -6   5  -9   -5.38    3.50
  -6  -5   9    2.10    4.62
  -6  -5   9    3.60    4.17
  -6  -5   9    6.31    3.65
   6   5  -9    5.11    4.57
   6   5  -9   -4.92    7.32
   6   5  -9    2.75    3.65
  -6   6  -9   29.85    5.53
  -6  -6   9   27.45    6.22
  -6  -6   9   14.38    7.25
  -6   6  -9   26.47    5.21
  -6  -6   9   22.35    5.60
  -6   6  -9   19.40    4.59
   6   6  -9   25.98    5.44
  -6  -7   9    9.17    5.14
  -6   7  -9   -0.70    4.53
  -6  -7   9   23.49    7.41
  -6   7  -9   11.25    5.21
  -6  -7   9   10.92    6.31
   6   7  -9   13.01    5.57
  -6   8  -9    3.72    6.17
  -6   8  -9   -0.95    5.68
  -6  -8   9    4.57    6.45
  -6  -8   9   17.40    6.82
   6   8  -9   11.47    6.25
  -7   8   9   -4.87    6.90
  -7   8   9   -8.82    8.13
   7   8   9  -12.09   10.17
   7   8   9    5.94   10.18
  -7   7   9   14.04    7.07
  -7  -7  -9   17.41   12.08
  -7   7   9   20.07    5.84
  -7   7   9   20.05    5.25
   7   7   9   10.69    8.72
   7   7   9   15.05    8.04
  -7   6   9    1.91    4.04
  -7   6   9   -3.53    3.57
  -7   6   9    5.36    5.14
  -7  -6  -9    3.94    7.46
   7   6   9    1.08    6.50
   7   6   9    3.79    5.72
   7  -6  -9    2.31    4.73
   7   6   9   -0.68    5.73
  -7  -5  -9   19.83    6.36
  -7  -5  -9    4.17    4.65
  -7   5   9    4.87    3.55
  -7   5   9   11.78    4.00
  -7   5   9    6.13    3.04
   7  -5  -9   13.48    4.99
   7   5   9    0.53    5.10
   7   5   9    5.50    4.18
   7   5   9    9.85    4.95
   7  -5  -9    9.43    4.11
  -7   4   9    0.66    2.37
  -7   4   9    0.22    2.85
  -7  -4  -9   -4.05    3.94
  -7   4   9    1.61    3.05
  -7   4   9    8.49    3.69
   7   4   9   -1.42    4.22
   7   4   9    1.83    3.80
   7  -4  -9   -3.35    3.63
  -7   3   9    8.09    2.79
  -7   3   9   -2.21    2.37
  -7  -3  -9    9.11    3.72
  -7   3   9    5.07    3.09
  -7  -3  -9    3.31    3.74
  -7  -3  -9    3.65    3.45
   7   3   9   -4.81    3.44
   7  -3  -9    2.30    2.98
   7  -3  -9   -2.06    3.36
  -7   2   9    0.79    2.78
  -7  -2  -9    1.97    2.88
  -7  -2  -9    3.55    2.96
  -7  -2  -9   -0.31    3.27
  -7   2   9    2.29    2.75
   7  -2  -9    3.56    2.38
   7  -2  -9    9.31    3.61
   7   2   9   -0.11    2.89
   7   2   9   -0.19    2.26
  -7  -1  -9    5.56    3.39
  -7   1   9   13.61    3.31
  -7   1   9    6.85    2.73
  -7   1   9    8.95    2.35
  -7  -1  -9    8.82    2.67
  -7  -1  -9   10.53    2.82
   7   1   9    9.55    2.56
   7  -1  -9   15.29    2.88
   7   1   9   10.25    2.92
   7  -1  -9   12.62    2.52
  -7   0  -9    4.70    2.79
  -7   0   9    2.67    2.69
  -7   0   9   -1.82    2.04
  -7   0   9   -1.43    2.72
   7   0  -9   -4.23    2.35
   7   0  -9    1.18    2.08
   7   0  -9    1.03    1.76
   7   0  -9   -3.92    3.49
  -7   1  -9    3.01    2.70
  -7  -1   9    6.05    2.92
  -7  -1   9   10.42    2.46
  -7  -1   9    8.09    3.13
   7   1  -9    8.50    2.93
   7   1  -9   11.21    2.45
   7   1  -9   10.13    2.45
  -7   2  -9   -2.66    2.20
  -7  -2   9    1.57    2.40
  -7   2  -9   -1.42    2.35
  -7  -2   9   -2.02    3.51
  -7  -2   9    0.35    3.40
   7   2  -9   -1.39    2.21
   7   2  -9    2.82    2.86
  -7  -3   9   -3.68    3.70
  -7   3  -9    3.59    2.53
  -7  -3   9    2.89    4.29
  -7  -3   9    3.35    3.30
  -7   3  -9   -1.20    2.52
  -7  -3   9    1.11    3.48
  -7  -3   9   -4.50    4.08
   7   3  -9   -0.33    5.29
   7   3  -9   -2.94    2.55
   7   3  -9   -3.59    3.99
  -7   4  -9    6.55    2.94
  -7  -4   9    3.52    4.85
  -7  -4   9   -0.38    3.98
  -7   4  -9    1.49    2.91
  -7  -4   9    1.25    3.55
  -7  -4   9    4.57    4.80
  -7  -4   9    5.62    5.01
   7   4  -9   -3.96    3.52
   7   4  -9    2.53    6.62
   7   4  -9   -0.49    3.45
  -7   5  -9    9.05    3.22
  -7   5  -9   10.46    3.76
  -7  -5   9   13.00    4.52
  -7   5  -9    9.02    4.06
  -7  -5   9   10.41    5.19
  -7  -5   9    4.06    5.76
  -7  -5   9    9.79    6.34
   7   5  -9    4.84    4.55
   7   5  -9   18.16    4.92
  -7  -6   9    7.06    4.87
  -7  -6   9    5.95    5.78
  -7   6  -9    5.04    3.74
   7   6  -9    4.40    5.20
  -7  -7   9   15.16    7.03
  -7  -7   9   17.73    5.99
  -7   7  -9   10.93    5.14
   7   7  -9   27.96    6.84
  -7   8  -9   -1.75    6.09
  -7  -8   9    2.31    8.22
  -7   8  -9    0.42    7.00
  -7  -8   9   14.39    7.51
   7   8  -9   12.57    7.88
  -8   7   9  -14.61    7.30
  -8   7   9    5.79    6.19
   8   7   9  -14.71    8.35
   8   7   9  -13.22    9.54
  -8   6   9    7.40    4.01
  -8   6   9   -2.65    4.83
  -8  -6  -9   19.25    8.99
  -8   6   9   -4.39    5.92
   8   6   9    7.49    7.07
   8   6   9    4.23    9.34
  -8   5   9   18.49    4.95
  -8  -5  -9   19.89    7.78
  -8   5   9   12.14    4.55
   8   5   9   11.35    5.23
   8   5   9   15.38    6.93
   8  -5  -9   18.99    5.17
   8  -5  -9   14.73    5.97
   8   5   9   15.03    5.35
  -8  -4  -9   11.63    5.83
  -8  -4  -9   16.38    5.14
  -8   4   9    2.93    3.73
  -8   4   9    6.99    3.68
   8  -4  -9    8.75    4.09
   8   4   9   12.14    5.84
  -8  -3  -9    5.62    4.29
  -8   3   9    5.07    3.68
  -8  -3  -9   10.17    4.66
  -8   3   9    2.49    3.20
  -8   3   9    0.82    3.52
   8  -3  -9    7.77    3.04
   8  -3  -9   14.63    4.54
   8   3   9    6.01    4.29
   8  -3  -9   -1.54    3.49
   8   3   9   11.79    3.44
  -8  -2  -9   -0.55    3.35
  -8   2   9    2.44    2.62
  -8   2   9   -0.19    3.32
  -8  -2  -9    0.93    3.65
  -8  -2  -9    4.12    3.53
  -8   2   9    1.84    2.88
   8  -2  -9   -7.59    4.04
   8   2   9    4.47    3.02
   8  -2  -9    0.17    2.68
   8   2   9    1.35    3.51
   8  -2  -9   -1.78    2.90
  -8   1   9    7.21    2.74
  -8  -1  -9    0.16    2.84
  -8   1   9    9.08    3.70
  -8  -1  -9    2.73    2.92
  -8  -1  -9    2.43    3.67
   8  -1  -9    7.35    2.80
   8   1   9    6.15    2.77
   8  -1  -9    3.62    3.26
   8  -1  -9   11.40    4.56
  -8   0   9   -1.30    2.28
  -8   0   9   -2.07    3.57
  -8   0   9   -2.79    3.27
  -8   0   9   -2.74    3.23
  -8   0  -9   -1.79    3.19
   8   0  -9   -1.69    3.06
   8   0  -9   -0.73    2.41
  -8  -1   9    9.28    3.04
  -8  -1   9    7.71    3.93
  -8  -1   9   -0.35    4.29
  -8   1  -9   11.93    3.15
  -8  -1   9    2.24    3.72
  -8  -1   9   11.52    4.25
   8   1  -9    5.79    2.62
   8   1  -9    8.36    3.54
   8   1  -9    6.85    2.72
   8   1  -9   -0.39    6.42
  -8  -2   9    3.01    4.18
  -8  -2   9    7.12    4.59
  -8   2  -9   -0.40    2.80
  -8  -2   9    4.16    4.41
  -8  -2   9    0.65    3.80
  -8   2  -9   -2.59    2.51
  -8  -2   9   -1.05    2.77
   8   2  -9   -7.71    5.71
   8   2  -9    1.27    2.62
  -8  -3   9   20.42    5.16
  -8  -3   9    3.25    5.64
  -8  -3   9    1.49    4.24
  -8   3  -9    3.26    3.01
  -8  -3   9   12.84    5.78
  -8  -3   9    3.51    3.17
  -8   3  -9    2.15    2.86
   8   3  -9    5.49    4.05
   8   3  -9   14.77    7.20
   8   3  -9    9.51    3.39
  -8   4  -9   20.01    3.80
  -8  -4   9   20.80    6.21
  -8  -4   9   13.76    6.10
  -8  -4   9    9.06    4.16
  -8  -4   9   11.11    5.17
  -8   4  -9   11.75    3.62
   8   4  -9    2.26    4.34
   8   4  -9    5.91    3.82
  -8   5  -9   20.44    4.77
  -8  -5   9   15.04    6.56
  -8  -5   9   10.45    5.17
  -8   5  -9   10.18    3.58
  -8   5  -9    7.84    4.46
   8   5  -9   14.47    5.44
   8   5  -9    9.87    5.36
  -8   6  -9    4.71    4.20
  -8  -6   9    0.90    7.08
  -8  -6   9    8.85    6.06
   8   6  -9   -0.28    6.79
  -8   7  -9    3.13    5.05
  -8   7  -9   20.86    6.81
  -8  -7   9    1.24    6.29
  -8  -7   9   -3.28    8.39
   8   7  -9   11.82    8.00
   8   7  -9   10.07    9.12
  -9   6   9   -7.48    6.47
  -9   6   9    6.67    6.09
   9   6   9   -4.63    6.79
   9   6   9   -9.23    8.57
  -9  -5  -9   16.68    8.79
  -9   5   9   12.10    5.46
  -9   5   9    3.50    4.74
   9   5   9    4.21    6.67
   9   5   9   -6.37    5.72
   9  -5  -9    9.42    6.73
  -9  -4  -9   15.71    7.35
  -9   4   9    0.32    4.32
  -9   4   9    2.68    3.99
   9  -4  -9    1.70    5.15
   9  -4  -9    6.69    6.12
   9   4   9    4.55    4.89
   9   4   9   -3.90    5.66
  -9   3   9    5.31    3.84
  -9   3   9    4.45    4.13
  -9  -3  -9   12.41    5.39
  -9  -3  -9   -1.93    4.82
   9   3   9   11.15    4.60
   9   3   9    5.65    3.51
   9  -3  -9    6.58    5.35
   9  -3  -9   -0.35    3.78
  -9   2   9   -1.00    2.95
  -9  -2  -9   -4.07    4.13
  -9  -2  -9    0.99    4.19
  -9   2   9   -1.50    3.72
   9  -2  -9    1.96    3.35
   9   2   9   -5.25    3.50
   9   2   9   -3.40    3.22
  -9   1   9   -3.15    2.61
  -9  -1  -9   -4.03    3.70
  -9  -1  -9    0.53    3.81
  -9   1   9    2.70    3.70
  -9   1   9   -1.61    3.86
   9   1   9   -2.34    3.17
   9  -1  -9   -2.97    3.04
  -9   0   9    1.96    4.53
  -9   0   9   -4.43    2.56
  -9   0  -9   -4.68    3.59
   9   0   9   -2.88    3.44
   9   0  -9   -4.45    2.99
   9   0  -9   -9.40    5.69
  -9  -1   9   -2.02    4.62
  -9  -1   9   -0.57    4.68
  -9  -1   9    2.28    2.89
  -9   1  -9    4.77    3.43
  -9  -1   9    0.34    4.64
   9   1  -9   -0.17    2.97
   9   1  -9    4.51    6.28
  -9  -2   9   -1.28    4.71
  -9   2  -9    5.27    3.32
  -9  -2   9    3.19    5.37
  -9  -2   9   10.11    5.35
  -9  -2   9   -0.10    3.63
   9   2  -9   -1.20    2.92
   9   2  -9    7.16    7.72
  -9  -3   9    3.75    3.64
  -9  -3   9    3.41    5.41
  -9   3  -9    3.56    3.50
  -9   3  -9   10.25    3.90
  -9  -3   9   -2.34    6.54
   9   3  -9    3.17    3.44
  -9  -4   9    0.51    4.25
  -9   4  -9   -2.53    3.49
  -9  -4   9    0.96    5.82
  -9   4  -9   -5.48    4.54
   9   4  -9    8.11    4.39
   9   4  -9   -3.73    4.78
  -9  -5   9    5.67    6.59
  -9   5  -9    5.57    4.85
  -9   5  -9    4.46    4.46
   9   5  -9   -4.89    5.68
   9   5  -9   -6.97    5.96
  -9  -6   9    7.67    8.28
  -9   6  -9   15.70    6.43
  -9  -6   9   -0.75    6.51
  -9   6  -9   -0.66    4.86
   9   6  -9  -11.07    7.16
 -10   5   9   -1.20    5.97
 -10   5   9   -0.01    5.72
 -10  -5  -9    9.71    9.73
  10  -5  -9   16.86    8.49
 -10   4   9   17.83    6.12
 -10   4   9   18.61    5.71
  10  -4  -9   32.12    6.63
  10   4   9   12.44   10.96
 -10   3   9   13.88    5.23
 -10   3   9    6.17    4.97
  10  -3  -9   12.49    4.96
  10   3   9   21.93    5.48
  10   3   9    5.32    4.45
  10  -3  -9    7.45    7.47
 -10   2   9   -2.42    3.65
 -10  -2  -9   11.11    5.51
 -10   2   9    1.66    4.66
 -10  -2  -9   -4.41    3.52
  10   2   9    7.42    4.28
  10  -2  -9   10.19    4.60
 -10   1   9   -2.11    3.41
 -10   1   9    2.04    4.71
 -10  -1  -9    2.65    3.02
 -10  -1  -9   -2.32    5.05
  10  -1  -9   -6.75    6.74
  10  -1  -9    3.42    3.93
 -10   0   9   -1.73    5.63
 -10   0   9    4.71    5.30
 -10   0   9    2.30    3.60
  10   0  -9    0.38    3.62
  10   0  -9    0.60    7.81
 -10  -1   9   -1.72    5.88
 -10  -1   9   16.77    7.06
 -10  -1   9   -0.51    3.46
  10   1  -9    0.71    3.63
  10   1  -9   -0.24    8.03
 -10  -2   9    2.74    7.43
 -10  -2   9   -2.90    6.01
 -10  -2   9   -0.04    3.97
  10   2  -9    4.04    3.71
 -10  -3   9   17.14    7.15
 -10  -3   9   11.15    5.01
  10   3  -9   12.95    4.07
 -10  -4   9   19.41    7.92
 -10  -4   9   22.80    6.45
  10   4  -9   13.45    5.22
 -10  -5   9    4.68    6.65
 -10  -5   9   12.62    8.54
  10   5  -9    3.01    7.12
 -11  -3  -9   -4.72    8.86
 -11  -3  -9   -4.03    4.78
 -11   3   9    2.14    6.16
 -11   3   9    1.73    6.40
  11  -3  -9   -0.40    5.73
 -11  -2  -9    5.73    4.65
 -11  -2  -9    3.74    8.52
 -11   2   9   -2.22    4.62
 -11   2   9    3.29    6.17
  11  -2  -9   11.04    5.73
 -11   1   9    4.30    4.48
 -11  -1  -9    7.84    7.96
 -11   1   9   -1.78    5.87
 -11  -1  -9    0.13    7.26
 -11   1   9   -6.87    7.39
  11  -1  -9   10.71    4.78
 -11   0  -9   -6.34    6.28
 -11   0   9    8.31    6.75
 -11   0   9   -3.51    4.19
 -11   0   9   -0.87    8.57
  11   0   9   -8.80    5.94
  11   0  -9   -3.47    4.69
 -11  -1   9   -3.88    4.34
 -11  -1   9    2.64    6.70
  11   1  -9   -4.01    4.22
 -11  -2   9    1.73    4.94
 -11  -2   9    6.56    7.93
  11   2  -9    3.75    4.56
 -11  -3   9    2.33    8.12
 -11  -3   9    5.32    5.69
  11   3  -9    7.17    4.87
   0  10  10   14.89   12.08
   0  10  10   14.77   10.03
   0   9  10   -9.49    7.88
   0   9  10   11.21    7.67
   0   8  10   43.29    7.46
   0   8  10   35.99    7.31
   0   7  10    2.13    4.52
   0  -7 -10    0.03    3.22
   0  -7 -10   -1.46    3.64
   0   7  10   -0.68    4.29
   0   6  10    6.18    3.47
   0   6  10    4.83    4.00
   0  -6 -10    4.41    4.55
   0   6  10    2.60    6.69
   0  -6 -10    6.04    3.00
   0   5  10   -1.05    3.23
   0  -5 -10   -0.81    1.96
   0  -5 -10   -1.54    2.31
   0   5  10    1.83    2.78
   0   5  10    1.30    2.57
   0  -5 -10   -0.91    2.92
   0  -4 -10    3.20    1.96
   0  -4 -10    1.90    1.79
   0   4  10    1.90    2.36
   0   4  10    1.82    2.14
   0   4  10    2.40    2.45
   0  -4 -10   -0.12    2.90
   0   3  10   -0.69    2.08
   0  -3 -10    1.87    1.45
   0   3  10    0.12    1.85
   0   3  10    2.94    1.75
   0  -3 -10    1.79    1.62
   0  -3 -10   -2.30    2.26
   0   3  10    1.69    1.82
   0  -2 -10    4.26    1.54
   0   2  10   -0.58    1.54
   0  -2 -10   -0.01    2.06
   0   2  10   -1.10    1.86
   0   2  10    1.12    1.37
   0   1  10   -1.08    1.25
   0  -1 -10   -0.17    1.57
   0  -1 -10    0.30    1.11
   0   1  10    0.30    1.56
   0   1  10    0.99    1.50
   0   1  10   -1.36    1.42
   0  -1 -10   -0.37    1.19
   0   0 -10   62.19    4.40
   0   0 -10   71.13    3.99
   0   0 -10   65.18    3.89
   0   0  10   67.81    4.15
   0   0  10   68.32    4.22
   0   0  10   65.21    4.50
   0   0 -10   65.74    4.15
   0   1 -10   -1.33    1.20
   0   1 -10   -1.96    1.05
   0  -1  10   -0.10    1.75
   0   1 -10   -1.57    1.36
   0   1 -10   -1.17    1.38
   0  -1  10   -1.48    1.41
   0  -1  10    0.47    1.12
   0  -1  10    0.26    1.25
   0   2 -10    1.50    1.50
   0  -2  10    2.65    1.35
   0   2 -10    1.04    1.35
   0   2 -10   -0.02    1.45
   0   2 -10   -1.31    1.21
   0  -2  10    1.28    1.68
   0   3 -10   -2.41    1.72
   0   3 -10   -1.57    1.39
   0   3 -10    1.81    1.81
   0  -3  10   -0.77    1.26
   0   3 -10   -0.71    1.77
   0   4 -10    2.28    2.53
   0  -4  10    4.10    1.44
   0   4 -10    1.88    2.14
   0  -4  10    6.36    2.26
   0   4 -10    6.12    1.92
   0   4 -10    3.96    2.43
   0  -4  10    5.61    2.75
   0  -5  10    5.70    3.58
   0   5 -10   -0.85    2.97
   0   5 -10   -0.36    2.52
   0  -5  10    3.91    1.80
   0  -5  10    0.25    2.40
   0   5 -10    2.83    3.32
   0   5 -10    3.86    2.33
   0   6 -10    2.18    3.13
   0  -6  10    9.56    3.40
   0   6 -10    2.76    3.25
   0  -6  10    8.71    2.30
   0   6 -10   -0.45    4.93
   0  -7  10   -7.78    3.97
   0   7 -10    2.37    6.76
   0   7 -10   -5.92    4.24
   0  -7  10   -1.48    2.66
   0  -8  10   30.56    5.79
   0   8 -10   35.47    6.74
   0   8 -10   53.54    7.30
   0  -8  10   38.42    5.80
   0   9 -10   -4.64    5.99
   0   9 -10   -1.08    7.53
   0  10 -10    5.70    9.23
   0  10 -10   15.32   10.57
   1  10  10    9.91    9.95
   1  10  10   13.58   10.89
  -1   9  10   14.11    8.29
  -1   9  10   10.42    8.03
   1   9  10   -3.77    7.13
   1   9  10   -3.60    8.07
   1   9  10  -11.07    7.61
  -1   8  10    6.32    6.51
  -1   8  10   23.16    6.77
   1  -8 -10   20.99    5.12
   1   8  10   21.56    6.96
   1   8  10    5.76    6.60
  -1   7  10    0.83    4.81
  -1   7  10    0.55    4.05
  -1  -7 -10   -0.21    3.43
  -1   7  10    2.35    4.35
  -1  -7 -10    5.32    3.95
   1  -7 -10    4.91    3.63
   1  -7 -10    5.24    3.65
   1   7  10    5.85    5.51
   1   7  10   -0.62    4.54
  -1   6  10    8.94    4.20
  -1   6  10   12.05    4.00
  -1  -6 -10   13.27    3.37
  -1  -6 -10   12.15    3.32
  -1   6  10   13.47    4.31
   1   6  10    8.15    7.47
   1  -6 -10    8.91    3.03
   1   6  10    2.77    4.22
  -1   5  10   40.80    4.70
  -1  -5 -10   47.86    4.88
  -1   5  10   33.47    5.66
  -1  -5 -10   34.90    5.57
  -1   5  10   39.30    5.26
   1  -5 -10   37.11    4.12
   1  -5 -10   43.16    4.42
   1   5  10   39.29    5.81
   1   5  10   38.82    5.48
   1  -5 -10   39.98    5.77
  -1   4  10   44.60    4.72
  -1   4  10   43.33    4.36
  -1  -4 -10   35.87    5.42
  -1   4  10   40.21    4.25
  -1  -4 -10   38.68    3.75
  -1  -4 -10   35.03    4.05
   1   4  10   33.53    4.86
   1   4  10   37.97    4.71
   1  -4 -10   43.92    3.86
   1  -4 -10   38.10    5.01
   1   4  10   34.90    4.10
  -1  -3 -10   30.95    4.40
  -1  -3 -10   27.56    3.12
  -1   3  10   29.22    3.19
  -1   3  10   26.56    3.82
  -1   3  10   25.51    3.50
  -1   3  10   33.72    3.19
  -1  -3 -10   26.91    3.19
   1  -3 -10   26.25    3.10
   1  -3 -10   32.20    4.36
   1   3  10   31.83    2.66
   1   3  10   23.75    3.69
   1  -3 -10   32.41    4.01
   1   3  10   24.98    3.49
   1   3  10   33.22    4.12
  -1   2  10   12.65    2.33
  -1  -2 -10    9.52    2.36
  -1   2  10   10.14    2.09
  -1   2  10    9.79    2.16
  -1   2  10   10.88    2.02
  -1  -2 -10   11.29    2.21
  -1  -2 -10   13.30    2.00
   1   2  10   10.22    2.12
   1   2  10    8.80    2.24
   1  -2 -10    9.53    1.87
   1   2  10    8.76    2.09
   1  -2 -10   10.07    2.03
   1  -2 -10   10.20    2.59
   1   2  10   11.55    1.71
  -1   1  10    3.82    1.59
  -1   1  10    5.53    1.67
  -1  -1 -10    6.99    1.63
  -1  -1 -10    4.65    1.42
  -1   1  10    4.49    1.71
  -1  -1 -10    5.05    1.81
  -1   1  10    2.03    1.39
   1  -1 -10    2.90    1.50
   1   1  10    2.57    1.86
   1   1  10    4.14    1.71
   1  -1 -10    4.06    1.39
   1  -1 -10    3.60    1.84
   1   1  10    1.89    1.57
   1   1  10    4.72    1.41
  -1   0 -10   21.42    2.30
  -1   0  10   17.50    2.47
  -1   0 -10   20.08    2.77
  -1   0  10   19.63    2.92
  -1   0  10   17.22    2.42
  -1   0 -10   19.38    2.10
  -1   0  10   16.47    2.61
  -1   0 -10   16.49    2.10
   1   0  10   22.43    2.86
   1   0 -10   18.32    2.51
   1   0  10   22.05    2.54
   1   0 -10   14.22    2.58
   1   0  10   18.70    2.76
   1   0 -10   16.96    2.11
   1   0  10   19.39    2.42
   1   0 -10   18.01    2.35
  -1   1 -10    3.17    1.18
  -1   1 -10    2.45    1.50
  -1   1 -10    2.98    1.34
  -1  -1  10    5.60    2.05
  -1   1 -10    3.50    1.58
  -1  -1  10    2.80    1.37
  -1  -1  10    3.90    1.28
  -1  -1  10    2.35    1.44
   1  -1  10    3.90    1.49
   1  -1  10    3.21    1.88
   1   1 -10    6.30    1.66
   1  -1  10    7.67    1.88
   1   1 -10    3.75    1.76
   1   1 -10    3.23    1.35
   1   1 -10    2.80    1.50
  -1  -2  10   14.74    2.48
  -1   2 -10    9.88    2.26
  -1   2 -10   10.47    1.93
  -1  -2  10   10.47    1.88
  -1  -2  10   11.97    1.75
  -1   2 -10   10.19    1.62
  -1   2 -10    8.33    1.82
   1  -2  10   12.75    1.89
   1   2 -10    9.02    2.09
   1   2 -10   10.11    2.24
   1   2 -10    9.72    1.78
   1   2 -10   13.25    2.36
   1  -2  10   11.99    2.60
  -1  -3  10   26.68    2.86
  -1  -3  10   29.45    2.91
  -1   3 -10   23.98    3.46
  -1  -3  10   31.21    3.88
  -1   3 -10   32.60    3.13
  -1   3 -10   26.64    3.13
  -1   3 -10   25.68    2.70
   1  -3  10   31.67    3.80
   1   3 -10   29.46    3.90
   1   3 -10   23.64    3.61
   1   3 -10   29.22    3.22
   1   3 -10   27.29    3.12
   1  -3  10   31.10    2.82
  -1  -4  10   40.11    4.09
  -1   4 -10   33.72    4.56
  -1  -4  10   41.98    4.96
  -1   4 -10   44.48    3.91
  -1   4 -10   43.14    4.47
  -1  -4  10   39.72    3.63
   1   4 -10   35.13    4.56
   1   4 -10   37.44    4.93
   1   4 -10   45.42    4.13
   1  -4  10   43.44    4.82
   1   4 -10   46.31    3.98
  -1   5 -10   53.34    5.47
  -1   5 -10   35.35    4.44
  -1   5 -10   40.61    5.38
  -1  -5  10   40.02    3.90
  -1  -5  10   50.02    5.16
  -1  -5  10   40.62    5.63
  -1   5 -10   46.46    4.53
   1   5 -10   46.31    6.84
   1  -5  10   36.59    5.45
   1   5 -10   36.31    5.49
   1   5 -10   45.12    5.07
   1   5 -10   38.09    4.63
  -1   6 -10    7.35    3.47
  -1   6 -10   20.59    4.99
  -1  -6  10   18.91    5.28
  -1  -6  10   13.50    2.77
  -1   6 -10   10.00    3.46
   1   6 -10   -0.12    5.53
   1   6 -10   14.49    3.89
  -1   7 -10    5.92    4.29
  -1  -7  10   13.23    5.49
  -1  -7  10   -1.02    4.34
  -1   7 -10   10.87    6.60
  -1   7 -10    2.52    3.83
  -1  -7  10    8.02    3.35
   1   7 -10    6.84    7.18
   1   7 -10   -4.39    4.51
  -1   8 -10   27.40    5.95
  -1  -8  10   16.11    4.04
  -1   8 -10   16.38    5.47
   1   8 -10    8.15    5.98
  -1   9 -10    7.93    6.22
  -1   9 -10    9.74    7.41
  -1  -9  10    7.70    5.10
   1   9 -10  -12.75    7.45
  -1  10 -10   10.86    9.44
  -1  10 -10   13.15   10.58
   1  10 -10    6.10   10.81
  -2   9  10    3.55    8.23
  -2   9  10   -0.52    7.63
  -2   9  10   -6.68    6.84
   2   9  10  -10.28    8.13
   2   9  10   -0.26    7.32
  -2   8  10    2.91    6.30
  -2   8  10    1.17    5.94
   2   8  10    0.18    6.63
   2   8  10    6.01    7.21
   2  -8 -10   -5.72    4.73
   2   8  10   -0.76    5.29
  -2   7  10    6.76    5.35
  -2  -7 -10    4.81    4.51
  -2  -7 -10    1.32    3.91
  -2   7  10    6.64    4.65
  -2   7  10    4.33    4.38
   2   7  10    6.59    5.52
   2   7  10    3.44    4.76
   2  -7 -10    4.48    3.71
   2   7  10   10.17    5.55
   2  -7 -10   12.71    3.63
  -2   6  10   -1.20    4.18
  -2  -6 -10   -1.87    3.31
  -2   6  10    4.46    3.66
  -2   6  10    7.63    3.43
   2  -6 -10   -2.25    2.62
   2   6  10   -4.70    5.32
   2   6  10    1.97    4.37
  -2   5  10   -0.99    3.21
  -2  -5 -10    0.61    2.60
  -2   5  10    0.57    2.54
  -2  -5 -10   -1.07    3.08
  -2   5  10    1.83    2.69
   2  -5 -10   -0.64    2.11
   2  -5 -10   -2.18    2.98
   2   5  10   -4.66    3.31
   2   5  10    2.51    3.20
   2  -5 -10   -1.03    2.41
  -2   4  10   65.44    5.30
  -2   4  10   70.94    5.72
  -2  -4 -10   65.23    6.51
  -2   4  10   70.16    5.29
  -2  -4 -10   76.06    5.20
   2   4  10   76.33    6.30
   2  -4 -10   71.40    4.90
   2  -4 -10   65.56    5.35
   2   4  10   68.48    6.50
   2   4  10   67.52    5.88
   2  -4 -10   69.87    6.22
  -2  -3 -10   47.58    4.95
  -2   3  10   41.72    4.40
  -2   3  10   43.25    3.89
  -2  -3 -10   44.36    3.94
  -2   3  10   38.38    3.77
  -2   3  10   50.44    3.88
  -2  -3 -10   41.91    3.85
   2   3  10   46.35    4.44
   2   3  10   43.09    4.94
   2   3  10   44.09    4.13
   2  -3 -10   44.78    5.00
   2   3  10   44.58    3.02
   2  -3 -10   46.63    4.00
   2  -3 -10   49.39    3.75
  -2  -2 -10    3.54    2.50
  -2   2  10    4.36    1.98
  -2  -2 -10    4.59    2.15
  -2   2  10    5.19    1.76
  -2  -2 -10    3.81    1.64
  -2   2  10    3.98    1.89
  -2   2  10    6.85    1.92
   2   2  10    5.61    2.00
   2   2  10    4.48    1.82
   2  -2 -10    4.64    2.17
   2   2  10    3.13    2.25
   2  -2 -10    3.63    1.68
   2  -2 -10    6.36    1.70
  -2   1  10   19.00    2.47
  -2  -1 -10   22.09    2.43
  -2   1  10   24.49    2.84
  -2  -1 -10   18.31    2.54
  -2   1  10   19.65    2.62
  -2  -1 -10   16.00    3.04
  -2   1  10   16.63    2.84
   2  -1 -10   18.08    2.98
   2  -1 -10   17.52    3.31
   2   1  10   18.55    2.99
   2   1  10   25.14    2.82
   2  -1 -10   19.37    2.49
  -2   0 -10   60.68    3.69
  -2   0 -10   56.90    3.38
  -2   0  10   58.05    3.90
  -2   0  10   58.73    4.29
  -2   0  10   60.36    4.07
  -2   0 -10   53.76    3.58
  -2   0 -10   61.91    4.46
  -2   0  10   61.12    4.07
   2   0 -10   55.25    4.76
   2   0  10   52.92    4.08
   2   0 -10   56.71    3.78
   2   0  10   63.97    3.82
   2   0 -10   56.49    4.10
  -2  -1  10   23.11    2.66
  -2   1 -10   18.89    2.24
  -2  -1  10   18.11    2.97
  -2   1 -10   19.18    2.69
  -2   1 -10   17.39    2.16
  -2  -1  10   19.41    2.65
  -2  -1  10   18.98    2.50
  -2   1 -10   19.75    2.06
   2   1 -10   20.21    3.13
   2  -1  10   13.49    2.57
   2   1 -10   25.68    2.54
   2  -1  10   18.54    3.58
   2  -1  10   19.34    2.67
   2   1 -10   18.56    2.82
   2   1 -10   18.25    2.60
  -2   2 -10    2.32    1.24
  -2   2 -10    3.15    1.90
  -2   2 -10    3.18    1.16
  -2  -2  10    2.92    1.66
  -2   2 -10    3.63    1.61
  -2  -2  10    3.85    1.94
  -2  -2  10    3.55    2.32
  -2  -2  10    2.68    1.53
   2  -2  10    4.92    1.98
   2   2 -10    1.59    1.69
   2   2 -10    3.16    1.73
   2   2 -10    2.73    1.87
   2  -2  10    2.36    1.30
  -2  -3  10   45.47    3.67
  -2  -3  10   44.36    4.21
  -2   3 -10   45.16    3.75
  -2   3 -10   37.88    4.01
  -2  -3  10   52.31    3.81
  -2  -3  10   51.24    4.53
   2  -3  10   54.14    4.46
   2   3 -10   46.33    3.95
   2   3 -10   41.30    3.85
   2   3 -10   54.38    5.20
   2   3 -10   40.84    4.34
  -2  -4  10   68.92    5.35
  -2  -4  10   69.98    4.93
  -2   4 -10   69.95    5.07
  -2  -4  10   79.56    5.03
  -2  -4  10   72.48    5.41
  -2   4 -10   76.03    5.73
  -2  -4  10   62.06    5.95
   2   4 -10   73.57    5.24
   2   4 -10   78.30    5.42
   2  -4  10   75.52    5.77
   2   4 -10   61.33    5.76
   2   4 -10   69.97    6.69
  -2  -5  10    1.85    2.42
  -2  -5  10    0.00    2.19
  -2   5 -10    0.13    2.81
  -2  -5  10    1.71    3.24
  -2   5 -10    3.15    2.51
   2   5 -10    1.68    3.51
   2   5 -10    3.04    2.46
   2   5 -10   13.16    4.44
  -2   6 -10    5.23    3.04
  -2  -6  10   -0.67    3.88
  -2  -6  10    1.31    2.88
   2   6 -10    8.66    3.50
   2   6 -10    1.29    5.85
   2   6 -10    2.00    3.20
  -2   7 -10    2.36    3.94
  -2  -7  10   11.24    3.71
  -2  -7  10    3.86    4.81
  -2  -7  10    5.20    5.95
   2   7 -10   -0.91    7.44
   2   7 -10   -0.10    3.51
  -2   8 -10   -3.70    5.06
  -2   8 -10    1.09    5.59
  -2  -8  10    8.50    4.41
   2   8 -10    2.14    4.47
   2   8 -10   -8.53    6.00
  -2   9 -10  -11.60    6.00
  -2  -9  10   -3.32    5.59
   2   9 -10   -9.51    7.76
   2   9 -10   -2.73    5.78
  -3   9  10    8.07    8.04
  -3   9  10  -10.84    7.56
   3   9  10   -3.25   11.60
   3   9  10   -6.38    7.82
   3   9  10  -13.27    9.30
  -3   8  10    4.79    6.16
  -3   8  10    0.79    6.09
   3   8  10    2.46    5.61
   3   8  10   11.24    8.46
   3   8  10    0.67    6.98
   3  -8 -10   14.02    5.25
  -3  -7 -10   -2.91    5.45
  -3   7  10    6.80    4.72
  -3   7  10    5.72    4.92
  -3   7  10   -0.64    2.86
  -3   7  10    4.45    4.57
   3   7  10    5.38    4.21
   3   7  10    1.99    6.06
   3  -7 -10    5.60    3.84
   3   7  10   -2.78    5.46
  -3   6  10   21.23    4.60
  -3   6  10   19.89    4.12
  -3   6  10   19.79    4.30
  -3  -6 -10   17.76    4.62
  -3   6  10   19.47    3.40
   3   6  10   20.44    5.15
   3  -6 -10   19.88    3.42
   3   6  10   14.76    4.52
   3   6  10   10.84    5.08
  -3  -5 -10   10.04    4.13
  -3  -5 -10    7.25    3.60
  -3   5  10    6.23    3.11
  -3   5  10    8.55    3.25
  -3   5  10    5.14    2.82
   3   5  10   11.30    4.09
   3  -5 -10    7.19    3.56
   3  -5 -10    5.10    2.54
   3   5  10    2.61    3.69
   3  -5 -10    4.66    2.86
  -3   4  10   33.60    4.13
  -3  -4 -10   47.47    4.39
  -3   4  10   36.40    4.30
  -3  -4 -10   48.45    6.18
  -3   4  10   31.78    4.86
  -3  -4 -10   39.34    5.66
   3  -4 -10   42.01    5.19
   3  -4 -10   40.13    3.77
   3   4  10   44.38    4.66
   3   4  10   50.49    5.66
   3   4  10   42.64    5.50
   3  -4 -10   44.80    4.35
  -3   3  10    3.67    1.98
  -3  -3 -10    2.37    1.85
  -3   3  10    2.19    1.83
  -3  -3 -10   -1.22    2.97
  -3  -3 -10   -3.17    2.09
  -3   3  10    0.60    2.39
  -3   3  10    5.81    2.41
   3   3  10    0.26    2.32
   3  -3 -10    1.76    2.60
   3  -3 -10    2.57    1.63
   3   3  10    1.79    2.59
   3  -3 -10   -1.09    1.96
  -3  -2 -10   -2.47    1.64
  -3   2  10   -0.48    1.43
  -3  -2 -10   -0.58    2.37
  -3   2  10   -1.69    1.48
  -3   2  10    0.23    1.84
  -3   2  10   -1.37    1.79
   3   2  10    2.09    1.81
   3   2  10    2.14    2.24
   3   2  10   -2.35    1.99
   3  -2 -10    0.57    2.28
   3  -2 -10   -1.93    1.34
   3  -2 -10    0.83    1.49
   3  -2 -10   -0.29    1.79
  -3   1  10    5.48    1.77
  -3   1  10    3.34    1.93
  -3  -1 -10    5.33    1.55
  -3   1  10    5.39    1.92
  -3   1  10    3.58    1.77
  -3  -1 -10    3.92    2.18
  -3  -1 -10    7.32    1.65
   3   1  10    0.87    1.72
   3  -1 -10    6.36    2.02
   3   1  10    3.75    2.22
   3  -1 -10    3.46    1.90
   3  -1 -10    5.25    1.60
   3  -1 -10    3.72    1.19
  -3   0  10   11.26    2.11
  -3   0 -10    9.91    2.28
  -3   0  10   13.17    2.13
  -3   0 -10   11.71    1.70
  -3   0 -10   11.17    1.77
  -3   0  10   12.34    2.30
  -3   0  10    8.68    2.28
   3   0 -10   12.03    2.31
   3   0  10    7.11    2.03
   3   0 -10   11.42    2.55
   3   0 -10   11.23    2.03
  -3  -1  10    4.45    2.02
  -3   1 -10    4.39    1.28
  -3  -1  10    4.85    1.64
  -3  -1  10    5.38    1.89
  -3   1 -10    5.33    1.15
  -3   1 -10    4.57    2.05
  -3  -1  10    2.33    1.86
   3   1 -10    5.02    2.01
   3   1 -10    3.34    1.64
   3   1 -10    6.58    2.31
   3  -1  10    4.46    1.73
   3  -1  10    5.92    1.49
  -3   2 -10   -0.89    1.87
  -3  -2  10    2.95    2.22
  -3  -2  10    1.87    1.52
  -3  -2  10    1.45    1.87
  -3  -2  10    1.56    2.05
  -3   2 -10   -1.67    1.45
   3   2 -10    0.09    1.93
   3   2 -10   -1.50    1.71
   3   2 -10   -2.08    1.65
   3   2 -10    1.25    2.40
   3  -2  10   -0.63    1.75
  -3   3 -10   -1.31    2.00
  -3  -3  10    0.22    2.65
  -3  -3  10   -1.16    2.01
  -3  -3  10   -0.60    1.71
  -3  -3  10    1.44    1.99
  -3   3 -10   -0.34    1.95
  -3  -3  10    1.90    2.34
  -3   3 -10    1.26    1.82
   3   3 -10   -1.28    2.42
   3   3 -10    1.17    1.98
   3   3 -10    1.06    2.24
   3   3 -10   -0.62    2.11
  -3  -4  10   42.89    4.52
  -3   4 -10   43.72    4.32
  -3  -4  10   50.13    4.47
  -3   4 -10   45.72    4.13
  -3   4 -10   38.58    4.65
   3   4 -10   46.05    6.54
   3   4 -10   40.57    5.08
   3   4 -10   49.67    4.55
  -3   5 -10    8.65    3.17
  -3  -5  10    4.11    2.47
  -3   5 -10    8.50    3.29
  -3   5 -10    5.75    2.65
  -3  -5  10    7.72    2.93
  -3  -5  10    5.40    2.86
   3   5 -10    6.28    3.12
   3   5 -10   12.03    5.52
   3   5 -10   10.55    3.72
  -3   6 -10   13.55    5.61
  -3  -6  10   20.41    4.15
  -3  -6  10   15.56    4.73
  -3   6 -10   22.89    4.58
  -3  -6  10   22.43    3.70
  -3   6 -10   20.61    4.14
  -3  -6  10   27.51    4.04
   3   6 -10   18.90    4.11
   3   6 -10   19.33    4.80
   3   6 -10   28.70    7.22
  -3  -7  10    4.31    3.60
  -3  -7  10    5.38    6.11
  -3  -7  10   -2.36    3.94
  -3  -7  10    4.72    3.70
  -3   7 -10   -1.13    4.45
  -3   7 -10   -0.88    3.66
  -3   7 -10    3.01    5.21
   3   7 -10    6.31    4.10
   3   7 -10   10.30    4.88
  -3  -8  10    6.59    4.82
   3   8 -10    6.73    5.08
   3   8 -10    7.93    6.49
  -3   9 -10    2.68    6.61
  -3  -9  10    4.09    6.30
   3   9 -10    9.76    8.67
   3   9 -10    8.32    6.68
  -4   9  10   14.20    8.74
   4   9  10    4.25   14.12
   4   9  10    6.35    9.35
   4   9  10    7.09   13.21
  -4   8  10   -8.09    4.58
  -4   8  10   -3.93    6.09
  -4   8  10    5.45    7.06
   4   8  10    7.14    9.56
   4  -8 -10   11.99    6.12
   4   8  10    2.51    5.56
   4   8  10    1.73    7.61
  -4   7  10   11.72    5.14
  -4  -7 -10   -7.29    6.01
  -4   7  10   -4.57    4.95
  -4   7  10    3.67    4.34
   4   7  10   10.99    7.04
   4  -7 -10   11.62    4.56
   4   7  10    7.04    6.47
  -4  -6 -10   -5.78    4.45
  -4  -6 -10   -5.81    3.38
  -4   6  10   -1.30    2.53
  -4   6  10    4.32    3.93
  -4   6  10   -1.10    4.12
  -4   6  10    0.91    3.29
   4   6  10   -3.28    4.83
   4  -6 -10   -2.85    2.97
   4   6  10   -6.03    4.97
  -4  -5 -10   15.02    5.13
  -4  -5 -10   17.50    3.54
  -4  -5 -10   16.00    4.27
  -4   5  10   11.45    3.23
  -4   5  10   13.77    4.63
   4  -5 -10   13.74    3.66
   4  -5 -10   19.91    4.44
   4  -5 -10   14.97    3.23
   4   5  10   12.13    4.46
   4   5  10   14.61    4.23
   4   5  10   10.01    4.62
  -4  -4 -10   52.27    4.93
  -4  -4 -10   51.46    6.40
  -4   4  10   45.50    5.21
  -4   4  10   45.09    4.51
  -4   4  10   48.35    4.97
  -4  -4 -10   61.68    6.68
   4  -4 -10   56.52    4.64
   4   4  10   48.50    5.01
   4   4  10   35.12    6.05
   4  -4 -10   42.34    5.69
   4  -4 -10   52.47    5.26
   4  -4 -10   51.08    4.36
   4   4  10   52.62    6.32
  -4   3  10    2.01    2.42
  -4  -3 -10    7.72    2.63
  -4  -3 -10    2.36    3.12
  -4   3  10    4.41    2.13
  -4  -3 -10    6.54    2.22
  -4   3  10    7.90    2.66
   4  -3 -10    6.81    1.97
   4   3  10   10.25    3.33
   4   3  10    2.04    2.08
   4  -3 -10    9.28    2.56
   4  -3 -10    8.32    3.27
   4  -3 -10    7.51    2.11
   4   3  10    5.97    2.87
  -4   2  10    8.33    2.41
  -4   2  10    7.99    2.03
  -4   2  10    7.67    2.05
  -4   2  10    5.17    2.10
  -4  -2 -10    6.19    1.99
  -4  -2 -10    6.63    1.98
  -4  -2 -10    4.24    2.72
   4  -2 -10   10.97    2.74
   4   2  10    4.54    2.59
   4  -2 -10    7.14    1.82
   4  -2 -10    5.10    1.85
   4  -2 -10    4.24    2.48
   4   2  10    9.10    2.24
  -4  -1 -10    5.26    1.70
  -4   1  10    5.08    2.06
  -4  -1 -10    1.39    1.50
  -4   1  10    0.97    1.90
  -4  -1 -10    3.14    2.58
  -4   1  10    0.83    1.67
  -4   1  10    3.42    1.92
   4  -1 -10    1.43    1.74
   4  -1 -10    1.92    2.14
   4  -1 -10    0.76    1.70
   4   1  10    1.86    2.25
   4   1  10    1.44    1.82
   4  -1 -10    0.45    1.45
  -4   0  10   37.19    3.73
  -4   0 -10   41.54    3.15
  -4   0  10   33.97    3.69
  -4   0 -10   42.83    4.10
  -4   0  10   38.63    3.60
  -4   0 -10   38.26    3.01
   4   0 -10   37.33    4.49
   4   0  10   33.39    4.04
   4   0 -10   34.07    3.43
   4   0 -10   40.72    3.67
  -4  -1  10    2.79    2.13
  -4  -1  10    1.32    2.11
  -4  -1  10    1.55    2.11
  -4   1 -10    2.31    2.01
  -4  -1  10    4.11    1.89
   4   1 -10   -1.21    1.80
   4   1 -10    2.85    1.82
   4   1 -10   -0.41    1.95
   4   1 -10    2.14    2.57
  -4  -2  10    7.61    2.69
  -4  -2  10    8.27    2.18
  -4  -2  10    6.31    2.58
  -4  -2  10    5.89    2.56
  -4   2 -10    8.52    2.18
   4   2 -10    6.99    2.21
   4   2 -10    5.05    2.99
   4   2 -10    5.68    3.05
   4   2 -10    7.75    2.33
  -4   3 -10    5.55    2.41
  -4   3 -10    4.28    1.93
  -4  -3  10    5.74    2.46
  -4   3 -10    9.41    2.27
  -4  -3  10    8.10    2.46
  -4  -3  10    7.16    3.04
  -4  -3  10    6.59    2.27
   4   3 -10    9.62    3.49
   4   3 -10    5.04    2.64
   4   3 -10    4.66    2.30
   4   3 -10    3.46    2.67
  -4  -4  10   56.73    5.51
  -4  -4  10   51.21    5.91
  -4   4 -10   45.31    4.61
  -4   4 -10   54.77    5.00
  -4   4 -10   45.65    4.57
  -4  -4  10   54.78    4.99
   4   4 -10   48.05    5.61
   4   4 -10   71.34    8.18
   4   4 -10   50.45    4.96
  -4   5 -10   17.93    3.58
  -4  -5  10   12.82    3.55
  -4  -5  10   13.06    3.98
  -4   5 -10    9.53    3.60
  -4  -5  10   12.78    3.53
  -4   5 -10    7.28    3.30
   4   5 -10    5.50    5.92
   4   5 -10   14.55    3.81
   4   5 -10   18.26    4.71
  -4   6 -10   -0.79    4.14
  -4   6 -10   -3.40    4.10
  -4  -6  10    5.77    3.67
  -4  -6  10    7.85    4.32
  -4  -6  10   12.30    4.90
  -4  -6  10   -6.33    5.22
  -4  -6  10   -0.85    3.70
   4   6 -10   -2.29    3.63
   4   6 -10    2.93    7.29
  -4  -7  10    6.96    4.26
  -4   7 -10   10.89    4.80
  -4   7 -10   -2.43    4.28
  -4  -7  10   -3.26    4.92
   4   7 -10   17.05    4.93
   4   7 -10   16.40    5.86
  -4  -8  10    0.40    5.48
  -4   8 -10   -9.46    5.08
  -4   8 -10   -2.04    5.78
  -4  -8  10    6.66    5.10
   4   8 -10    2.55    6.56
   4   8 -10    9.51    5.89
  -4   9 -10   -6.24    6.96
  -4   9 -10    3.30    7.46
  -4  -9  10    2.72    6.15
  -4  -9  10   -8.49    7.68
   4   9 -10   24.86    9.51
   4   9 -10    2.83    7.25
  -5   9  10   -1.79    9.08
   5   9  10   -4.99   13.56
   5   9  10   21.77   11.15
  -5   8  10   10.87    6.97
  -5   8  10   13.58    5.70
  -5   8  10   -0.07    7.29
   5   8  10   21.31   10.48
   5   8  10   22.47    8.97
   5  -8 -10    7.58    6.20
  -5   7  10   -0.99    5.45
  -5   7  10    0.65    4.72
  -5   7  10   -6.81    3.73
  -5  -7 -10   16.63    6.68
  -5   7  10   -4.68    4.89
   5  -7 -10    7.39    4.96
   5   7  10    4.49    7.48
   5   7  10    1.97    6.59
  -5   6  10   -3.16    4.39
  -5   6  10    3.08    3.47
  -5  -6 -10    1.82    4.82
  -5   6  10    2.81    4.04
   5   6  10   -0.59    5.47
   5   6  10   -6.13    4.65
   5   6  10    8.17    6.13
  -5  -5 -10    2.87    3.09
  -5  -5 -10    8.92    3.94
  -5   5  10   -0.87    2.78
  -5   5  10   -4.09    3.29
  -5   5  10    4.64    3.22
   5   5  10    0.54    4.26
   5   5  10    4.34    3.76
   5  -5 -10   -4.30    2.73
   5   5  10    3.28    4.51
   5  -5 -10    0.10    3.06
  -5  -4 -10    0.06    2.50
  -5   4  10    1.70    2.46
  -5   4  10   -0.16    2.58
  -5  -4 -10    4.66    4.68
  -5  -4 -10   -1.40    3.83
   5   4  10   -1.62    3.58
   5  -4 -10   -2.77    2.96
   5   4  10    3.32    3.97
   5  -4 -10    4.02    3.22
   5  -4 -10   -0.58    2.86
  -5   3  10    1.21    2.11
  -5  -3 -10    1.39    2.73
  -5   3  10   -0.40    2.27
  -5   3  10    1.19    2.77
  -5  -3 -10    2.41    3.58
  -5  -3 -10   -1.09    2.17
   5  -3 -10   -0.89    2.80
   5  -3 -10   -2.32    3.11
   5   3  10   -2.94    2.84
   5   3  10   -1.52    2.27
   5  -3 -10    2.19    2.16
   5  -3 -10   -0.49    1.82
   5   3  10    1.80    3.04
  -5  -2 -10   15.56    3.56
  -5   2  10   10.80    2.38
  -5  -2 -10   14.58    2.71
  -5   2  10   12.99    2.71
  -5   2  10   19.34    3.20
  -5  -2 -10   11.77    2.63
   5   2  10   14.25    3.00
   5  -2 -10   15.14    2.40
   5  -2 -10   13.01    3.14
   5  -2 -10   17.85    3.52
   5  -2 -10   11.78    2.41
   5   2  10   13.75    2.69
  -5  -1 -10   34.45    4.22
  -5  -1 -10   28.49    3.64
  -5   1  10   33.78    3.93
  -5   1  10   29.37    3.79
  -5  -1 -10   28.50    3.48
  -5   1  10   30.33    3.91
   5  -1 -10   30.01    3.47
   5   1  10   31.64    4.10
   5  -1 -10   32.25    4.48
   5   1  10   36.92    3.80
   5  -1 -10   38.38    3.91
   5  -1 -10   32.58    2.97
  -5   0  10    9.81    2.52
  -5   0 -10    6.40    1.83
  -5   0  10    4.83    2.22
  -5   0 -10    6.64    2.41
  -5   0 -10    7.35    1.80
   5   0 -10    9.11    2.31
   5   0 -10    5.92    1.62
   5   0 -10    4.88    3.16
   5   0  10    5.68    2.25
   5   0 -10    7.26    2.07
  -5  -1  10   37.02    4.21
  -5   1 -10   31.34    3.96
  -5  -1  10   30.31    3.67
  -5  -1  10   31.18    4.41
   5   1 -10   31.78    4.94
   5   1 -10   36.69    3.56
   5   1 -10   28.48    4.01
  -5  -2  10   13.51    3.26
  -5  -2  10   12.76    2.76
  -5  -2  10   11.54    3.57
  -5   2 -10   14.58    2.85
   5   2 -10   17.50    3.12
   5   2 -10   14.95    2.84
   5   2 -10   12.24    2.87
  -5  -3  10    0.16    2.68
  -5  -3  10    1.42    2.23
  -5  -3  10    2.38    3.15
  -5  -3  10    4.56    2.65
  -5   3 -10    2.06    1.95
  -5   3 -10    1.99    2.09
   5   3 -10   -1.02    2.68
   5   3 -10    1.36    2.81
   5   3 -10    1.79    2.63
  -5  -4  10    9.42    3.61
  -5  -4  10    2.36    3.18
  -5  -4  10    1.30    3.72
  -5  -4  10   -1.02    2.40
  -5  -4  10   -5.00    3.36
  -5   4 -10   -0.11    2.57
  -5   4 -10   -1.91    2.43
  -5   4 -10    4.33    2.77
   5   4 -10   -1.87    2.93
  -5   5 -10    5.34    3.45
  -5  -5  10    0.73    3.31
  -5  -5  10    5.02    4.57
  -5   5 -10   -5.37    3.07
  -5   5 -10   -1.19    2.84
  -5  -5  10   -2.66    5.10
  -5  -5  10    3.68    4.39
   5   5 -10   -0.23    3.49
   5   5 -10    4.48    4.12
   5   5 -10    4.99    6.54
  -5  -6  10    0.71    4.34
  -5   6 -10    2.49    3.99
  -5  -6  10    9.57    6.59
  -5   6 -10    4.85    4.76
  -5  -6  10    8.25    3.87
  -5  -6  10    3.19    5.08
  -5   6 -10   -4.93    3.69
   5   6 -10    8.86    9.05
   5   6 -10    5.87    4.36
  -5   7 -10   -2.89    4.76
  -5  -7  10   -2.06    4.92
  -5   7 -10   -1.40    4.69
  -5  -7  10   10.92    6.08
  -5  -7  10    2.34    4.90
   5   7 -10   14.71    5.49
  -5  -8  10    9.79    6.05
  -5  -8  10    6.50    5.82
  -5  -8  10    7.03    6.68
  -5   8 -10    3.35    6.18
  -5   8 -10    8.11    6.26
   5   8 -10   12.77    8.01
   5   8 -10    8.78    6.39
  -5  -9  10    3.77    7.33
  -5  -9  10  -12.45    7.43
  -5   9 -10  -12.12    7.45
  -5   9 -10   -1.96    7.06
   5   9 -10  -19.72   10.48
   5   9 -10   17.77    8.30
  -6   8  10   -7.27    7.64
  -6   8  10   14.34    7.09
   6   8  10  -12.00    9.44
   6   8  10    7.00   10.40
  -6   7  10   -6.09    6.12
  -6   7  10   11.01    5.01
  -6   7  10   -7.95    5.59
  -6  -7 -10   12.19    8.12
   6   7  10   12.85    8.34
   6   7  10   -0.55    7.62
   6  -7 -10    1.85    5.22
  -6   6  10    0.92    4.97
  -6  -6 -10   -1.93    6.09
  -6   6  10   -4.51    3.72
  -6   6  10    1.14    3.98
   6   6  10    1.14    6.26
   6   6  10    7.86    5.79
  -6  -5 -10    3.96    3.77
  -6   5  10   -0.24    3.00
  -6   5  10   -3.72    3.32
  -6   5  10   -3.63    3.69
   6  -5 -10   -0.84    4.46
   6   5  10   -4.29    4.80
   6   5  10    3.56    5.20
   6   5  10   -3.23    4.33
  -6   4  10   18.52    3.22
  -6  -4 -10   13.32    3.70
  -6   4  10   18.45    3.91
  -6   4  10   19.56    5.57
  -6   4  10   25.31    3.90
  -6  -4 -10   18.26    5.07
   6   4  10   18.53    4.77
   6   4  10   15.48    4.33
   6  -4 -10   27.31    4.65
   6  -4 -10   21.82    3.94
   6  -4 -10   14.88    4.04
   6  -4 -10   24.53    4.57
  -6  -3 -10    4.07    3.06
  -6   3  10    2.59    2.19
  -6  -3 -10    6.51    2.92
  -6  -3 -10   -3.85    3.39
   6  -3 -10    3.80    3.02
   6   3  10    4.50    3.55
   6  -3 -10    3.57    2.74
   6  -3 -10   -0.29    3.12
   6   3  10   -2.33    2.80
  -6   2  10    5.03    2.55
  -6   2  10    7.70    2.67
  -6   2  10    4.00    2.57
  -6  -2 -10   -2.28    3.51
  -6  -2 -10    7.48    2.68
  -6  -2 -10    2.71    2.54
   6  -2 -10    5.84    2.90
   6   2  10    0.51    2.83
   6   2  10    2.26    2.38
   6  -2 -10    3.33    3.27
   6  -2 -10    1.34    2.07
   6  -2 -10    2.48    2.14
  -6  -1 -10    3.38    2.36
  -6   1  10    4.34    2.43
  -6  -1 -10    2.61    2.26
  -6  -1 -10   -1.51    3.05
  -6   1  10    5.68    2.33
   6  -1 -10    6.70    3.31
   6   1  10    3.09    2.27
   6  -1 -10    4.10    2.59
   6  -1 -10    3.38    2.12
   6   1  10    5.36    2.71
   6  -1 -10    2.26    2.14
  -6   0  10  110.90    7.37
  -6   0  10  117.23    6.80
  -6   0 -10  110.03    7.19
   6   0 -10  113.43    6.93
   6   0 -10  107.49    6.53
   6   0 -10  114.13    6.02
   6   0 -10  115.97    8.37
   6   0  10  108.02    6.98
  -6  -1  10    4.95    2.75
  -6  -1  10    4.83    2.42
  -6   1 -10    5.34    2.41
  -6  -1  10    0.91    2.87
   6   1 -10    4.74    2.76
   6   1 -10    8.58    2.36
   6   1 -10    7.50    5.39
  -6  -2  10    2.99    2.39
  -6  -2  10    5.96    3.02
  -6   2 -10    5.33    2.47
  -6   2 -10    3.77    2.01
   6   2 -10   -0.64    2.82
   6   2 -10    4.12    2.72
   6   2 -10    3.24    2.63
  -6   3 -10    4.62    2.39
  -6  -3  10    5.53    3.84
  -6   3 -10    5.87    2.40
  -6  -3  10    2.03    2.57
  -6  -3  10   -4.25    3.59
   6   3 -10   -2.36    2.75
   6   3 -10    4.10    3.33
  -6  -4  10   23.67    5.18
  -6  -4  10   23.58    4.90
  -6  -4  10   22.65    4.08
  -6   4 -10   11.53    3.45
  -6  -4  10   18.46    4.48
  -6   4 -10   16.60    3.60
  -6  -4  10   26.06    5.19
  -6   4 -10   15.91    3.37
   6   4 -10   21.19    4.31
   6   4 -10   11.46    8.87
   6   4 -10   25.53    4.25
  -6   5 -10   -1.82    3.52
  -6  -5  10   -3.60    4.06
  -6  -5  10   10.28    5.55
  -6  -5  10   -5.43    5.14
  -6   5 -10    4.86    3.18
  -6   5 -10   -1.46    3.99
   6   5 -10    7.87    7.90
   6   5 -10    0.07    4.56
   6   5 -10    2.22    4.45
  -6   6 -10    4.24    3.85
  -6  -6  10   -0.99    5.14
  -6   6 -10    3.14    5.16
  -6  -6  10    3.30    4.60
  -6  -6  10    7.90    6.16
   6   6 -10    4.31    5.86
   6   6 -10    7.50    4.84
  -6   7 -10   12.72    5.23
  -6  -7  10   13.03    6.18
  -6   7 -10    3.50    4.81
  -6  -7  10    1.82    5.25
   6   7 -10   14.99    5.99
  -6  -8  10   16.21    7.22
  -6   8 -10   10.50    6.52
  -6   8 -10    5.14    6.31
  -6  -8  10    3.35    7.36
   6   8 -10   11.38    8.20
  -7   8  10   -6.95    7.95
   7   8  10   -3.94   10.83
  -7   7  10   -0.90    5.70
  -7   7  10   -7.96    5.16
  -7   7  10    4.55    7.21
   7   7  10    4.59    8.24
   7   7  10   -6.84    9.21
  -7   6  10    4.64    4.61
  -7  -6 -10   -0.49    7.31
  -7   6  10    7.07    5.91
  -7   6  10   14.73    4.11
   7   6  10   19.35    6.68
   7   6  10   -2.90    7.29
  -7   5  10    9.49    4.59
  -7  -5 -10   -2.57    5.46
  -7   5  10    5.16    3.85
  -7   5  10   10.03    3.33
   7  -5 -10   18.36    5.79
   7   5  10    8.48    4.85
   7   5  10   12.20    5.98
   7   5  10    7.18    5.35
  -7   4  10    3.46    3.37
  -7   4  10    4.94    3.36
  -7   4  10    1.12    3.12
  -7   4  10    9.21    4.29
  -7  -4 -10    2.90    3.91
  -7  -4 -10   -2.12    4.57
   7   4  10   -0.83    3.41
   7   4  10    4.18    4.80
   7  -4 -10    7.50    4.15
  -7  -3 -10    5.00    3.62
  -7   3  10    1.31    2.84
  -7  -3 -10    3.08    3.43
  -7  -3 -10    4.65    4.28
  -7   3  10   -3.10    3.30
  -7   3  10   -1.06    2.95
  -7   3  10   -0.52    2.86
   7  -3 -10   -4.55    4.22
   7  -3 -10   -1.14    2.61
   7   3  10    0.09    3.22
   7  -3 -10   -0.11    3.29
   7   3  10    1.83    4.07
   7  -3 -10    3.25    3.24
  -7   2  10    5.23    3.19
  -7   2  10    2.88    2.97
  -7  -2 -10    3.42    3.30
  -7  -2 -10   -2.45    3.86
  -7  -2 -10    0.18    3.07
  -7   2  10   -0.29    2.38
   7  -2 -10    0.26    2.61
   7   2  10    0.33    3.48
   7  -2 -10   -8.92    5.10
   7  -2 -10    4.10    2.54
   7   2  10    0.05    2.63
   7  -2 -10   -2.20    2.94
  -7   1  10   20.29    3.45
  -7   1  10   19.55    3.64
  -7  -1 -10   17.66    4.18
  -7  -1 -10   15.41    3.06
  -7  -1 -10   30.80    4.75
  -7   1  10   21.85    3.84
   7  -1 -10   23.45    3.60
   7   1  10   17.85    3.28
   7  -1 -10   24.02    3.47
   7   1  10   16.52    4.02
   7  -1 -10   12.33    3.22
  -7   0 -10    4.92    2.61
  -7   0 -10    1.35    3.13
  -7   0  10    5.64    3.34
  -7   0  10   -0.58    3.09
   7   0 -10   -0.43    2.57
   7   0 -10    4.46    2.02
   7   0  10   -3.84    2.78
   7   0 -10    4.36    2.60
  -7  -1  10   21.80    4.28
  -7  -1  10   16.97    4.12
  -7   1 -10   15.60    3.49
   7   1 -10   14.07    7.11
   7   1 -10   22.33    3.18
   7   1 -10   20.51    3.13
   7   1 -10   20.26    3.83
  -7  -2  10    1.33    3.76
  -7   2 -10    3.75    2.67
  -7  -2  10    4.35    4.23
  -7   2 -10    1.27    2.28
  -7  -2  10    4.42    3.53
  -7  -2  10   -1.11    3.78
   7   2 -10    3.74    3.26
   7   2 -10   -0.43    2.55
   7   2 -10    6.41    5.45
  -7  -3  10    1.21    2.98
  -7  -3  10    1.92    4.89
  -7  -3  10   -6.74    4.24
  -7  -3  10    2.80    3.98
  -7  -3  10   -1.07    4.46
  -7   3 -10    2.27    2.54
  -7   3 -10    1.23    2.89
   7   3 -10    0.75    3.58
   7   3 -10    2.79    6.51
   7   3 -10   -0.92    2.90
  -7   4 -10   -3.87    3.26
  -7  -4  10   -3.63    4.43
  -7  -4  10    4.78    5.46
  -7   4 -10    0.88    2.78
  -7  -4  10    8.62    3.82
  -7   4 -10    1.80    3.21
  -7  -4  10   -7.83    4.98
  -7  -4  10   10.75    5.39
   7   4 -10   -4.35    4.27
   7   4 -10   17.11    8.71
   7   4 -10    8.09    3.80
  -7  -5  10   13.87    5.30
  -7  -5  10   -2.30    8.17
  -7   5 -10    8.21    3.53
  -7   5 -10    4.37    4.26
  -7  -5  10    4.20    4.59
  -7   5 -10    8.49    4.27
   7   5 -10    4.20    4.79
  -7  -6  10   13.17    6.12
  -7  -6  10    5.99    5.39
  -7   6 -10   13.50    5.18
  -7   6 -10   10.39    4.14
   7   6 -10    7.34    6.24
   7   6 -10    6.94    5.98
  -7  -7  10   -5.61    6.76
  -7   7 -10   -0.41    4.79
  -7   7 -10   15.82    6.34
  -7  -7  10    1.06    6.24
   7   7 -10   -0.45    6.49
   7   7 -10   -0.44    8.14
  -7   8 -10   -4.41    7.00
   7   8 -10   20.25    8.92
  -8   7  10    3.62    7.12
  -8   7  10   -4.48    8.55
   8   7  10   -2.85    8.99
   8   7  10   -5.94   10.20
  -8   6  10   18.03    6.71
  -8   6  10   15.94    5.90
  -8  -6 -10    4.17    8.87
   8   6  10   20.48   16.81
   8   6  10    4.89    6.99
  -8   5  10    1.21    4.42
  -8  -5 -10  -10.32    6.67
  -8   5  10    5.09    3.83
  -8   5  10    1.38    4.67
   8   5  10   14.44    7.00
   8  -5 -10   17.39    6.73
  -8   4  10    3.21    3.72
  -8  -4 -10    2.19    5.35
  -8   4  10   -0.42    3.98
  -8   4  10    8.37    3.37
   8   4  10    7.78    6.10
   8  -4 -10    6.25    4.58
  -8   3  10   -5.16    3.26
  -8  -3 -10   -3.51    4.33
  -8  -3 -10    3.27    4.34
  -8   3  10    4.01    3.43
  -8  -3 -10    6.08    4.72
   8  -3 -10    0.78    3.91
   8   3  10   -2.78    4.62
  -8   2  10   -1.85    2.74
  -8  -2 -10    1.05    3.63
  -8   2  10    1.09    3.50
  -8  -2 -10   -5.02    3.97
  -8  -2 -10    4.80    3.70
   8  -2 -10    1.88    3.37
   8   2  10    0.65    3.10
   8   2  10    7.25    3.84
   8  -2 -10   -3.25    3.46
  -8   1  10   14.33    3.23
  -8  -1 -10    9.74    4.04
  -8  -1 -10    5.59    3.42
  -8   1  10    0.85    3.67
  -8   1  10   12.07    4.01
  -8  -1 -10    8.88    3.14
   8  -1 -10   10.00    3.61
   8  -1 -10    7.40    3.48
   8  -1 -10   13.95    3.14
   8  -1 -10    1.58    5.10
   8   1  10   13.92    3.57
  -8   0 -10   11.61    3.90
  -8   0  10   13.76    3.25
  -8   0  10    9.24    4.44
  -8   0  10   11.54    4.48
  -8   0  10   14.70    4.13
   8   0 -10   12.68    6.11
   8   0 -10   18.78    4.10
   8   0 -10   15.16    3.30
   8   0 -10   14.65    3.06
  -8  -1  10   13.70    4.37
  -8  -1  10    8.53    3.17
  -8   1 -10   13.15    3.44
  -8  -1  10    8.18    4.80
  -8  -1  10    3.85    4.35
   8   1 -10    8.32    3.11
   8   1 -10    4.31    2.69
   8   1 -10    9.31    3.70
   8   1 -10    7.80    6.34
  -8  -2  10    6.50    4.82
  -8  -2  10   -4.23    3.07
  -8  -2  10   -1.77    3.85
  -8   2 -10    0.88    3.15
  -8  -2  10   -5.56    4.78
  -8  -2  10   12.02    5.14
  -8   2 -10    1.00    2.77
   8   2 -10    6.18    6.78
   8   2 -10    4.32    2.87
   8   2 -10    1.98    4.35
  -8  -3  10    6.24    5.19
  -8  -3  10   -4.01    4.29
  -8  -3  10   -2.22    6.11
  -8  -3  10    5.61    3.66
   8   3 -10    7.14    7.96
   8   3 -10    3.03    3.41
  -8  -4  10    2.51    4.28
  -8  -4  10   -2.29    5.15
  -8   4 -10    1.32    3.61
  -8   4 -10    0.34    4.11
   8   4 -10   -1.48    4.68
  -8  -5  10    0.45    5.04
  -8   5 -10   -7.02    6.12
  -8  -5  10    4.81    6.28
  -8   5 -10    8.41    3.71
  -8   5 -10   -5.67    4.33
   8   5 -10    4.14    6.14
   8   5 -10   -2.39    5.55
  -8   6 -10   10.50    5.00
  -8   6 -10   13.89    5.94
  -8  -6  10   10.46    6.71
  -8  -6  10    5.48    6.97
   8   6 -10   13.75    7.07
   8   6 -10   10.12    7.22
  -8  -7  10    1.72    8.54
  -8   7 -10   -1.64    5.56
  -8   7 -10   -8.00    6.81
  -8  -7  10    1.37    7.25
   8   7 -10   -3.08    8.63
   8   7 -10    0.37    9.32
  -9   6  10   -1.77    7.76
  -9   6  10   -4.80    6.24
   9   6  10   11.10    9.98
  -9   5  10    3.54    5.57
  -9   5  10    7.81    5.51
   9   5  10   19.48    8.08
   9  -5 -10   23.51    7.72
  -9   4  10   -3.88    4.23
  -9   4  10    2.82    4.80
  -9  -4 -10    2.55    7.15
   9  -4 -10    7.39    5.44
   9   4  10   -6.06    6.48
   9   4  10    7.71    5.26
  -9   3  10    6.35    4.13
  -9   3  10    5.26    4.17
  -9  -3 -10   -4.20    5.47
  -9  -3 -10    2.53    6.57
   9   3  10   -1.34    5.21
   9  -3 -10    2.78    4.48
   9  -3 -10   -2.13    6.31
  -9   2  10    3.46    3.53
  -9  -2 -10    6.79    5.29
  -9   2  10    5.65    4.16
  -9  -2 -10    9.18    4.58
   9  -2 -10    2.66    3.92
   9  -2 -10   11.76    6.39
   9   2  10    6.08    4.54
   9   2  10   14.79    3.83
  -9  -1 -10    2.72    4.43
  -9   1  10    7.38    4.49
  -9  -1 -10    5.27    4.77
  -9   1  10    8.05    3.67
   9   1  10    9.17    4.03
   9  -1 -10   14.13    3.44
   9  -1 -10    8.35    6.52
  -9   0  10   11.98    4.99
  -9   0  10   16.55    3.76
   9   0 -10   20.82    7.52
   9   0 -10    8.37    3.62
  -9  -1  10    3.86    3.65
  -9  -1  10   18.34    5.74
  -9  -1  10   12.47    5.02
  -9   1 -10    5.19    3.83
   9   1 -10   11.90    3.42
   9   1 -10  -10.57    7.05
   9   1 -10   12.12    3.22
  -9  -2  10    9.21    4.13
  -9   2 -10    6.51    3.87
  -9  -2  10   -2.84    5.12
  -9  -2  10   10.56    6.13
   9   2 -10    7.64    3.86
   9   2 -10    5.63    3.65
  -9   3 -10    4.00    3.78
  -9  -3  10   -3.99    5.33
  -9  -3  10   -0.90    4.30
  -9   3 -10    1.89    4.15
   9   3 -10    8.13    3.98
  -9   4 -10   -9.45    5.17
  -9   4 -10   -6.28    3.83
  -9  -4  10    0.14    4.87
  -9  -4  10   -5.42    6.04
   9   4 -10    0.55    4.60
  -9   5 -10    1.06    4.79
  -9  -5  10    7.54    6.07
  -9  -5  10   14.28    7.54
  -9   5 -10   -6.63    4.90
   9   5 -10  -10.50    5.92
   9   5 -10   -7.92    5.85
  -9   6 -10  -10.12    6.15
  -9   6 -10    2.09    5.56
  -9  -6  10   -2.88    7.14
  -9  -6  10   -0.68    8.57
   9   6 -10    4.32    7.82
 -10   5  10    5.25    6.44
 -10   4  10   19.71    6.35
 -10   4  10   19.76    5.95
  10  -4 -10   30.99    6.93
 -10   3  10    5.39    5.38
 -10   3  10   10.19    5.15
  10  -3 -10    4.85    5.46
 -10   2  10    3.00    4.24
 -10   2  10    5.13    5.11
  10  -2 -10   -4.64    7.46
  10  -2 -10   14.61    5.35
  10   2  10    9.37    5.99
 -10  -1 -10   -3.06    5.59
 -10   1  10    7.68    4.29
 -10   1  10    1.33    5.22
  10  -1 -10   13.62    4.13
  10  -1 -10    7.66    8.06
 -10   0  10    5.81    5.76
 -10   0 -10   -5.82    4.71
 -10   0  10    3.70    4.03
 -10   0  10   -3.97    6.45
  10   0 -10   24.46    8.72
  10   0 -10    4.39    4.12
 -10  -1  10   11.87   12.29
 -10  -1  10   22.69    6.67
 -10   1 -10    1.70    4.79
 -10  -1  10   -2.11    4.40
  10   1 -10   10.19    4.28
 -10  -2  10   12.99    4.59
 -10  -2  10   11.60    6.47
  10   2 -10    7.61    4.21
 -10  -3  10    2.41    4.96
 -10  -3  10   11.00    7.24
  10   3 -10    0.98    4.25
  10   3 -10   12.33    4.77
 -10  -4  10    9.84    6.16
 -10  -4  10   13.32    7.96
  10   4 -10   13.88    6.06
 -11  -3 -10   -2.92    5.16
 -11  -2 -10   -3.39    4.66
 -11  -2 -10   18.46    9.27
 -11   2  10    2.74    6.30
 -11   2  10    2.47    5.35
  11  -2 -10   18.82    6.47
 -11   1  10   14.52    6.61
 -11   1  10    5.36    4.98
 -11  -1 -10   15.38    8.69
  11  -1 -10    7.28    5.03
 -11   0  10   15.91    7.35
 -11   0  10   -1.55    4.67
  11   0 -10   -2.42    4.95
 -11  -1  10    0.71    4.89
 -11  -1  10    3.92    8.09
  11   1 -10   -8.66    4.98
 -11  -2  10    5.44    5.47
 -11  -2  10   10.33    8.15
  11   2 -10   10.29    5.89
   0   9  11   13.08    9.77
   0   9  11   -6.78    8.71
   0   8  11   -2.87    6.76
   0   8  11   -1.24    6.57
   0  -7 -11    8.39    4.25
   0   7  11   -4.47    4.79
   0  -7 -11    0.23    3.79
   0   7  11    9.93    5.22
   0   7  11   -2.71    5.43
   0  -6 -11   22.34    4.07
   0   6  11   26.01    4.91
   0   6  11   23.53    4.76
   0  -6 -11   19.68    3.78
   0   5  11    1.38    3.17
   0  -5 -11   -3.34    3.39
   0  -5 -11    2.63    2.76
   0   5  11   -2.67    2.95
   0   5  11   -2.40    3.41
   0   4  11   18.70    3.56
   0   4  11   14.99    3.21
   0  -4 -11   17.54    4.01
   0   4  11   16.19    3.07
   0  -4 -11   16.61    2.82
   0   3  11    0.96    2.13
   0  -3 -11   -4.62    2.39
   0  -3 -11    0.50    2.92
   0   3  11    2.34    2.37
   0   3  11    0.00    1.71
   0   3  11   -3.24    1.83
   0  -3 -11    3.30    1.77
   0  -2 -11  100.74    5.70
   0  -2 -11  107.47    5.95
   0   2  11   95.51    6.25
   0   2  11  102.69    5.38
   0   2  11   95.54    6.00
   0   2  11   98.16    6.06
   0  -2 -11   92.66    6.51
   0  -1 -11    0.50    1.58
   0   1  11   -0.69    1.48
   0   1  11    2.17    1.72
   0   1  11    0.44    1.93
   0  -1 -11    0.50    1.90
   0   1  11   -1.62    1.43
   0  -1 -11    0.92    1.29
   0   0 -11   -1.40    1.36
   0   0  11   -0.62    1.72
   0   0 -11   -0.53    1.28
   0   0  11    1.50    1.74
   0   0  11   -0.51    1.50
   0   0  11    0.72    1.63
   0   0 -11   -0.38    1.62
   0  -1  11   -0.33    1.53
   0  -1  11    3.15    1.53
   0   1 -11   -0.20    1.29
   0   1 -11    0.15    1.67
   0   1 -11   -0.71    1.48
   0   1 -11    0.45    1.55
   0  -1  11   -3.12    1.90
   0  -1  11   -0.88    1.35
   0   2 -11   97.46    6.13
   0   2 -11  102.63    5.75
   0   2 -11  103.99    5.65
   0  -2  11   97.99    5.59
   0  -2  11  106.40    6.25
   0   2 -11  103.59    5.98
   0   3 -11   -0.33    1.90
   0  -3  11   -1.33    2.52
   0   3 -11   -0.60    1.95
   0   3 -11    1.33    1.67
   0   3 -11    3.74    2.14
   0  -3  11    0.93    1.53
   0   4 -11   18.74    2.66
   0  -4  11   19.01    2.74
   0   4 -11   14.39    3.43
   0  -4  11   18.06    3.99
   0   4 -11   16.61    3.51
   0   4 -11   14.93    2.88
   0  -4  11   19.23    2.32
   0   5 -11   -1.10    2.54
   0  -5  11    5.21    2.02
   0   5 -11    2.43    3.61
   0  -5  11    4.45    5.17
   0  -5  11   -1.78    2.79
   0   5 -11   -0.97    2.92
   0   6 -11   24.12    5.94
   0  -6  11   25.36    4.19
   0   6 -11   23.52    4.89
   0  -6  11   22.50    5.43
   0   6 -11   31.39    4.54
   0   6 -11   15.50    3.96
   0  -7  11   -4.45    4.21
   0   7 -11    4.28    4.24
   0   7 -11    7.48    6.77
   0   7 -11   -3.80    4.77
   0   7 -11    7.57    4.51
   0  -7  11    5.80    2.70
   0  -8  11    3.30    3.57
   0   8 -11   -1.26    5.98
   0   8 -11   -6.74    5.14
   0   8 -11    2.32    9.57
   0   9 -11   -5.28    6.35
  -1   9  11   10.65    9.23
  -1   9  11   20.58    9.37
   1   9  11    9.35    9.33
   1   9  11   20.17    9.84
  -1   8  11    2.63    6.45
   1   8  11   12.74    7.06
   1   8  11    5.75    7.08
  -1   7  11    6.14    5.08
  -1  -7 -11   -2.58    4.20
  -1   7  11    4.75    4.63
  -1  -7 -11   -5.34    3.95
  -1   7  11    2.36    4.96
   1  -7 -11    2.53    4.23
   1   7  11    7.62    5.73
   1   7  11    1.61    5.36
   1  -7 -11   -7.62    4.08
  -1  -6 -11    1.85    2.99
  -1   6  11    8.04    3.78
  -1   6  11   -0.87    4.34
  -1  -6 -11    0.13    3.30
  -1   6  11    6.13    3.96
   1  -6 -11    1.07    3.37
   1   6  11   -1.14    4.12
   1  -6 -11   -1.96    2.97
   1   6  11    6.60    4.05
   1   6  11   -4.98    4.34
  -1   5  11    8.10    3.22
  -1  -5 -11    8.59    3.88
  -1  -5 -11   10.03    3.04
  -1   5  11    3.09    3.53
  -1   5  11    9.71    3.27
   1   5  11   14.15    3.92
   1  -5 -11    2.59    3.47
   1   5  11   11.26    3.93
   1  -5 -11   10.10    2.85
  -1   4  11   12.97    2.92
  -1   4  11   17.55    3.48
  -1   4  11   21.40    3.60
  -1   4  11   11.34    3.01
  -1  -4 -11   13.92    3.89
  -1  -4 -11   20.31    2.97
   1  -4 -11   10.40    3.73
   1   4  11   19.55    3.06
   1   4  11   15.23    3.41
   1  -4 -11   19.29    2.76
   1   4  11   14.88    3.69
  -1   3  11   49.32    4.16
  -1  -3 -11   53.28    5.59
  -1  -3 -11   50.01    4.11
  -1   3  11   44.42    4.53
  -1   3  11   48.30    5.13
  -1  -3 -11   53.92    4.18
   1  -3 -11   59.56    4.31
   1  -3 -11   51.08    5.18
   1   3  11   44.43    3.49
   1   3  11   48.38    4.38
   1   3  11   47.06    5.23
   1  -3 -11   47.69    4.03
   1   3  11   43.02    4.70
  -1  -2 -11   -0.15    2.21
  -1  -2 -11   -1.80    1.53
  -1   2  11   -1.14    1.82
  -1   2  11    1.17    2.04
  -1   2  11    1.68    1.70
  -1  -2 -11   -0.15    1.66
  -1   2  11    1.82    1.75
   1   2  11   -0.53    2.13
   1   2  11   -0.76    2.15
   1   2  11    0.70    1.79
   1  -2 -11   -0.17    1.54
   1   2  11   -0.25    1.41
   1  -2 -11   -2.36    1.64
   1  -2 -11    1.60    2.26
  -1  -1 -11   16.10    2.11
  -1   1  11   18.13    3.15
  -1   1  11   12.12    2.20
  -1  -1 -11   11.02    2.97
  -1   1  11   13.85    2.25
  -1   1  11   15.75    2.61
  -1  -1 -11   16.33    2.99
   1   1  11   17.22    3.15
   1   1  11   16.07    2.40
   1  -1 -11   13.20    2.55
   1   1  11   16.78    2.70
   1  -1 -11   16.45    2.36
   1  -1 -11   15.51    2.16
   1   1  11   14.74    2.29
  -1   0 -11   -0.28    1.26
  -1   0  11    0.13    1.64
  -1   0  11    1.56    1.50
  -1   0 -11    1.83    1.70
  -1   0  11   -1.22    1.61
  -1   0  11   -1.85    1.72
  -1   0 -11   -1.07    1.34
   1   0  11    0.94    1.73
   1   0  11    1.30    1.72
   1   0 -11   -0.77    1.26
   1   0  11    0.59    1.80
   1   0 -11   -1.22    1.54
   1   0 -11   -1.73    1.63
   1   0  11    0.80    1.66
  -1  -1  11   15.03    2.33
  -1  -1  11   17.70    2.95
  -1  -1  11   16.44    2.42
  -1   1 -11   15.74    2.21
  -1  -1  11   14.87    2.60
  -1   1 -11   19.51    2.71
  -1   1 -11   18.38    2.43
  -1   1 -11   19.16    2.87
   1  -1  11   23.58    2.96
   1  -1  11   17.22    2.31
   1   1 -11   16.38    2.75
   1  -1  11   13.51    2.79
   1   1 -11   15.72    2.84
   1   1 -11   13.12    2.13
  -1  -2  11   -0.53    1.79
  -1   2 -11   -0.99    1.28
  -1   2 -11   -0.99    1.49
  -1  -2  11    3.64    2.26
  -1   2 -11    3.57    1.69
  -1   2 -11   -2.28    1.77
  -1  -2  11    0.67    1.44
  -1  -2  11    0.09    1.59
   1  -2  11    3.81    1.72
   1   2 -11   -1.66    1.97
   1   2 -11    0.02    1.81
   1   2 -11    2.30    2.38
  -1   3 -11   44.43    4.53
  -1  -3  11   55.89    3.89
  -1  -3  11   49.46    4.88
  -1   3 -11   46.16    4.19
  -1   3 -11   48.26    3.98
  -1  -3  11   46.42    3.60
  -1  -3  11   50.36    4.34
  -1   3 -11   52.82    3.72
   1  -3  11   46.89    3.61
   1  -3  11   44.62    5.62
   1   3 -11   51.79    4.96
   1   3 -11   43.81    4.21
   1   3 -11   49.98    4.52
   1   3 -11   55.70    4.41
  -1   4 -11   14.87    2.84
  -1  -4  11   18.94    3.05
  -1   4 -11   12.87    3.05
  -1   4 -11   17.85    3.40
  -1  -4  11   18.85    3.03
  -1  -4  11   13.67    3.70
   1  -4  11   14.04    2.57
   1   4 -11   13.83    3.24
   1  -4  11   20.69    3.70
   1   4 -11   16.17    2.85
   1  -4  11   17.79    2.25
   1   4 -11   20.70    3.85
  -1   5 -11   10.90    3.51
  -1  -5  11    1.18    5.27
  -1  -5  11    9.89    2.46
  -1   5 -11    5.66    2.83
   1   5 -11   10.03    2.85
   1  -5  11    4.22    3.71
   1   5 -11   14.22    4.17
   1   5 -11    8.22    3.48
  -1   6 -11   19.62    5.22
  -1   6 -11    7.49    4.13
  -1   6 -11    1.46    4.38
  -1   6 -11    9.78    3.60
  -1  -6  11    6.28    2.68
  -1  -6  11    6.65    5.01
   1   6 -11    1.91    3.22
   1   6 -11    9.35    3.97
   1   6 -11    0.34    4.04
   1   6 -11    2.63    5.93
  -1   7 -11   -2.81    3.68
  -1   7 -11    2.35    4.85
  -1   7 -11  -13.97    6.57
  -1  -7  11    4.37    5.19
  -1   7 -11    6.10    4.99
  -1  -7  11    2.72   10.89
  -1  -7  11    1.91    3.13
   1   7 -11    5.46    4.39
   1   7 -11    9.88    8.29
   1   7 -11    5.62    5.06
  -1   8 -11    3.29    4.93
  -1  -8  11    6.46    3.81
   1   8 -11   -3.80    4.62
   1   8 -11    8.82    6.08
   1   8 -11  -23.50   11.51
  -1   9 -11   10.75    7.04
  -1   9 -11   -1.52    8.37
   1   9 -11   11.49    8.76
   1   9 -11    9.18    6.34
  -2   9  11   10.05    8.73
  -2   9  11    6.16    8.83
   2   9  11   21.99    9.60
   2   9  11   12.41    7.37
  -2   8  11   -2.77    6.16
  -2   8  11    3.38    7.35
   2   8  11   -3.01    8.28
   2   8  11    1.99    7.47
  -2   7  11    7.95    4.98
  -2   7  11   -2.88    5.72
  -2   7  11    2.82    5.12
  -2  -7 -11    4.33    5.18
   2   7  11    7.87    5.50
   2  -7 -11   -2.09    4.20
   2   7  11    0.16    5.74
  -2   6  11    2.56    3.64
  -2  -6 -11    1.24    3.94
  -2   6  11    2.42    3.55
  -2  -6 -11    6.33    3.33
  -2   6  11   -2.98    4.06
   2  -6 -11    0.14    3.13
   2  -6 -11    1.25    3.38
   2   6  11    1.89    4.52
   2   6  11   -4.29    4.45
  -2  -5 -11   17.36    5.49
  -2   5  11   21.97    6.56
  -2   5  11   17.96    4.56
  -2  -5 -11   18.40    3.70
  -2   5  11   17.14    3.38
   2   5  11   23.23    4.31
   2  -5 -11   18.12    4.54
   2  -5 -11   18.10    3.27
   2   5  11   11.33    4.31
  -2   4  11   49.59    4.56
  -2  -4 -11   39.83    5.81
  -2   4  11   35.41    5.24
  -2   4  11   31.76    4.72
  -2  -4 -11   39.61    4.34
  -2  -4 -11   36.18    4.65
  -2   4  11   41.12    4.42
   2   4  11   46.03    5.81
   2  -4 -11   37.51    4.18
   2   4  11   40.00    3.34
   2  -4 -11   38.98    5.71
   2   4  11   36.67    5.56
   2  -4 -11   42.23    4.57
  -2   3  11  112.64    6.94
  -2   3  11  107.81    6.58
  -2  -3 -11  115.47    6.54
  -2  -3 -11  108.89    7.60
  -2   3  11  101.63    6.38
  -2   3  11  111.91    6.27
  -2  -3 -11  108.04    6.45
   2   3  11   91.71    6.42
   2  -3 -11  109.49    6.71
   2  -3 -11  108.60    7.38
   2  -3 -11  115.04    6.28
   2   3  11  105.04    7.05
   2   3  11   92.39    7.13
  -2   2  11   22.19    3.04
  -2   2  11   26.24    3.36
  -2  -2 -11   23.52    3.10
  -2   2  11   21.03    3.13
  -2  -2 -11   19.55    3.16
  -2   2  11   24.21    3.70
  -2  -2 -11   26.08    3.91
   2   2  11   25.39    3.59
   2  -2 -11   25.44    3.16
   2   2  11   23.82    3.42
   2   2  11   18.75    2.42
   2   2  11   25.89    3.32
   2  -2 -11   20.26    3.95
   2  -2 -11   21.62    3.38
  -2   1  11   79.56    5.27
  -2  -1 -11   77.85    4.70
  -2   1  11   73.13    5.05
  -2   1  11   70.57    4.84
  -2  -1 -11   81.75    5.10
  -2  -1 -11   74.04    5.51
  -2   1  11   79.37    5.16
   2   1  11   75.61    5.22
   2   1  11   76.27    5.03
   2  -1 -11   73.18    5.22
   2  -1 -11   81.22    5.35
   2  -1 -11   77.05    4.73
   2   1  11   81.67    4.63
  -2   0 -11   -0.85    1.15
  -2   0  11    1.41    1.70
  -2   0  11   -0.05    1.90
  -2   0  11    1.13    1.49
  -2   0 -11   -0.46    1.91
  -2   0 -11   -1.17    1.29
  -2   0  11   -1.75    1.88
   2   0 -11    2.58    1.82
   2   0  11    0.17    1.82
   2   0  11    3.38    1.76
   2   0  11   -0.71    1.84
   2   0 -11    3.23    1.71
   2   0 -11   -2.28    1.42
  -2   1 -11   75.46    4.60
  -2  -1  11   86.02    5.45
  -2   1 -11   75.72    4.40
  -2  -1  11   73.20    4.94
  -2  -1  11   82.60    4.99
  -2  -1  11   75.52    4.79
  -2   1 -11   79.07    4.34
  -2   1 -11   73.36    5.15
   2   1 -11   81.38    4.81
   2  -1  11   73.61    5.43
   2   1 -11   71.53    4.74
   2  -1  11   71.57    4.92
   2   1 -11   77.45    5.17
   2   1 -11   76.47    5.48
  -2  -2  11   23.12    3.08
  -2  -2  11   19.44    2.99
  -2   2 -11   22.30    2.81
  -2  -2  11   22.55    4.21
  -2   2 -11   21.85    2.35
  -2   2 -11   18.73    3.07
  -2   2 -11   21.30    2.93
  -2  -2  11   26.79    3.02
   2  -2  11   19.22    3.37
   2   2 -11   23.37    3.23
   2  -2  11   24.42    3.60
   2   2 -11   22.77    2.93
   2   2 -11   19.93    3.19
   2   2 -11   33.54    4.13
  -2  -3  11  106.22    7.13
  -2  -3  11  104.94    6.19
  -2  -3  11  103.51    6.11
  -2   3 -11  110.04    6.15
  -2   3 -11  109.11    6.14
  -2  -3  11  110.72    6.72
  -2   3 -11  105.19    6.85
   2   3 -11  110.27    6.46
   2   3 -11  105.25    6.49
   2  -3  11  111.95    6.95
   2   3 -11  107.71    7.61
   2   3 -11  106.11    6.71
  -2  -4  11   31.76    5.21
  -2   4 -11   39.95    4.09
  -2   4 -11   34.12    4.58
  -2  -4  11   38.67    3.98
  -2  -4  11   42.82    4.88
  -2  -4  11   32.93    3.94
  -2  -4  11   34.49    4.61
   2   4 -11   32.94    4.99
   2   4 -11   39.41    4.43
   2   4 -11   46.88    5.79
   2   4 -11   43.14    4.58
   2  -4  11   43.68    4.97
  -2   5 -11   23.24    4.17
  -2  -5  11   34.75    5.09
  -2  -5  11   23.84    3.06
  -2  -5  11   23.57    4.12
  -2   5 -11   16.99    3.65
   2   5 -11   30.42    5.60
   2   5 -11   19.15    4.48
   2   5 -11   29.60    4.77
  -2   6 -11    1.60    4.10
  -2  -6  11   -2.29    4.26
  -2  -6  11    2.67    3.02
  -2  -6  11   -3.93    4.64
   2   6 -11    0.04    4.64
   2   6 -11   -0.57    3.02
   2   6 -11  -11.17    6.16
  -2   7 -11    6.30    3.94
  -2   7 -11   -0.42    6.47
  -2   7 -11    5.46    4.89
  -2  -7  11   -2.84    3.64
  -2  -7  11   -6.14    5.16
   2   7 -11    7.65    4.27
   2   7 -11   -6.91    8.25
   2   7 -11    0.04    4.86
  -2   8 -11    2.97    5.05
  -2   8 -11   -8.05    6.16
  -2  -8  11    0.29    4.20
  -2   8 -11   -0.91    6.06
   2   8 -11   -4.77    5.26
   2   8 -11    2.60    6.61
  -2   9 -11   16.85    8.17
  -2   9 -11    0.97    6.35
  -2   9 -11  -13.27    8.63
   2   9 -11   19.25    8.30
   2   9 -11  -10.19    6.05
  -3   9  11   13.40    9.61
  -3   9  11  -15.06    8.71
   3   9  11    9.81   12.67
   3   9  11   10.69   10.28
   3   9  11    6.02    8.30
  -3   8  11   -1.04    7.04
  -3   8  11   10.27    6.58
   3   8  11   -7.07    7.97
   3   8  11   -0.27    5.61
   3   8  11    2.48    9.23
  -3   7  11   -1.52    5.28
  -3   7  11    2.61    5.02
  -3  -7 -11    0.47    5.36
  -3   7  11    7.83    5.02
   3   7  11    0.21    6.31
   3   7  11    2.09    6.30
   3  -7 -11    4.61    4.64
   3   7  11   -1.01    4.30
  -3  -6 -11   -0.36    4.23
  -3   6  11    0.55    4.15
  -3   6  11   -3.77    3.79
  -3   6  11    1.20    3.73
  -3  -6 -11    3.58    3.53
   3  -6 -11    3.97    3.93
   3   6  11   -0.99    4.19
   3  -6 -11   -0.70    3.14
   3   6  11   -3.12    5.23
   3   6  11    2.68    5.09
  -3   5  11   -4.18    2.95
  -3   5  11    2.51    3.18
  -3  -5 -11    6.26    4.74
  -3   5  11   11.67    8.23
  -3  -5 -11   -2.06    3.12
  -3  -5 -11    4.80    2.86
   3  -5 -11    1.47    2.50
   3   5  11    7.40    3.46
   3  -5 -11    2.21    3.99
   3   5  11    2.10    4.13
   3   5  11    0.42    3.88
  -3  -4 -11   32.61    5.21
  -3  -4 -11   26.09    3.75
  -3   4  11   23.15    4.02
  -3   4  11   27.25    3.83
  -3   4  11   29.82    4.23
  -3  -4 -11   27.65    3.70
  -3   4  11   33.78    4.78
   3  -4 -11   28.28    3.95
   3  -4 -11   28.28    4.49
   3   4  11   24.39    4.36
   3   4  11   25.97    4.20
  -3  -3 -11    6.65    2.06
  -3   3  11    9.20    2.74
  -3   3  11    9.32    2.37
  -3  -3 -11    3.72    3.31
  -3   3  11   11.14    2.52
  -3   3  11    7.32    2.41
  -3  -3 -11    5.55    2.35
   3   3  11    4.82    2.18
   3  -3 -11    3.67    2.37
   3   3  11    7.60    3.08
   3   3  11    4.33    2.98
   3  -3 -11    4.65    2.03
   3  -3 -11    7.65    3.32
  -3   2  11    2.98    2.23
  -3  -2 -11    0.34    1.88
  -3   2  11    3.65    2.23
  -3  -2 -11   -0.63    2.70
  -3   2  11    4.16    2.16
  -3   2  11   -0.89    1.80
   3   2  11   -0.79    2.21
   3   2  11    4.32    2.16
   3  -2 -11    1.33    2.13
   3  -2 -11   -1.03    1.56
   3   2  11    0.73    2.51
   3  -2 -11   -0.17    2.56
  -3   1  11    2.81    1.81
  -3   1  11   -1.37    1.81
  -3  -1 -11    0.19    2.16
  -3  -1 -11   -0.27    1.71
  -3  -1 -11    0.71    1.59
  -3   1  11    0.46    1.97
   3   1  11   -2.17    2.29
   3  -1 -11    3.27    2.17
   3  -1 -11   -1.52    1.44
   3   1  11    0.90    1.98
   3  -1 -11    0.73    2.01
  -3   0  11   -0.58    1.95
  -3   0  11    2.09    1.90
  -3   0 -11   -1.98    1.36
  -3   0 -11   -1.78    2.02
  -3   0 -11   -1.03    1.32
  -3   0  11    2.42    2.22
  -3   0  11    0.10    1.66
   3   0 -11   -1.89    1.87
   3   0 -11   -0.92    2.10
   3   0  11    1.52    1.92
   3   0  11   -2.58    2.14
   3   0 -11   -2.46    1.75
  -3   1 -11    1.16    1.09
  -3  -1  11   -0.29    1.76
  -3  -1  11    2.85    1.89
  -3   1 -11    0.13    1.34
  -3   1 -11    1.59    1.60
  -3   1 -11    0.19    2.20
  -3  -1  11    2.27    2.49
   3   1 -11    3.12    2.37
   3  -1  11    1.42    2.49
   3   1 -11    0.79    1.79
   3   1 -11   -1.66    1.91
   3  -1  11    4.14    1.73
   3   1 -11   -2.79    1.56
  -3  -2  11   -0.67    2.23
  -3   2 -11    4.90    1.82
  -3  -2  11   -1.08    1.73
  -3  -2  11    1.87    2.63
  -3  -2  11    1.98    1.90
  -3   2 -11   -0.66    2.09
   3   2 -11    2.76    2.70
   3   2 -11    2.04    2.11
   3   2 -11    3.06    2.15
   3  -2  11    2.21    2.20
   3   2 -11    5.10    2.06
  -3   3 -11   11.50    2.55
  -3   3 -11    8.05    2.24
  -3  -3  11    8.88    3.19
  -3   3 -11    7.08    2.62
  -3  -3  11    9.19    2.39
  -3  -3  11    8.19    2.76
  -3  -3  11    9.85    2.44
   3   3 -11    6.82    2.76
   3   3 -11    9.05    2.56
   3   3 -11    6.85    3.44
   3   3 -11    6.36    2.70
  -3  -4  11   26.74    4.32
  -3   4 -11   26.06    4.43
  -3  -4  11   25.94    4.25
  -3   4 -11   19.04    3.80
  -3  -4  11   28.90    4.16
  -3   4 -11   24.59    3.94
   3   4 -11   32.87    4.89
   3   4 -11   24.74    5.02
   3   4 -11   33.28    4.39
   3   4 -11   26.08    4.17
  -3   5 -11   -1.70    2.72
  -3  -5  11    3.08    3.56
  -3  -5  11    0.90    2.57
  -3   5 -11    7.39    3.48
  -3  -5  11    4.40    2.80
  -3   5 -11    2.49    3.22
  -3  -5  11   -0.65    3.10
   3   5 -11    1.87    3.16
   3   5 -11    2.02    3.90
   3   5 -11    2.40    5.78
  -3   6 -11   -1.87    3.99
  -3  -6  11    2.98    3.11
  -3  -6  11    4.77    3.43
  -3  -6  11    7.71    3.81
  -3  -6  11    1.69    4.83
  -3   6 -11   11.02    4.48
  -3  -6  11    2.96    5.26
   3   6 -11   10.16    7.25
   3   6 -11    2.97    3.84
   3   6 -11   -3.75    4.50
  -3   7 -11   -0.12    4.43
  -3   7 -11    5.66    4.82
  -3  -7  11   -4.53    3.78
  -3   7 -11   14.62    5.98
   3   7 -11    5.76    4.21
  -3   8 -11    2.64    5.39
  -3  -8  11   -4.12    4.77
  -3   8 -11   -3.31    6.20
   3   8 -11    3.75    6.98
   3   8 -11    6.05    5.90
  -3   9 -11   -6.23    8.28
  -3   9 -11  -10.36    7.92
  -3   9 -11   10.54    7.10
   3   9 -11   -3.03    9.19
   3   9 -11    8.71    7.36
  -4   9  11   -4.78    9.19
  -4   9  11    1.89   15.55
   4   9  11   -6.90   13.61
   4   9  11    8.26   10.80
  -4   8  11   -2.93    4.74
  -4   8  11    1.96    6.83
  -4   8  11   -1.64    7.44
   4  -8 -11    4.58   10.86
   4   8  11   -0.05    9.97
   4   8  11    3.40    8.32
  -4   7  11    0.18    5.78
  -4   7  11   13.97    6.18
  -4  -7 -11    3.06    5.99
  -4   7  11    0.87    5.17
   4   7  11    9.39    7.57
   4   7  11    3.77    6.58
   4  -7 -11   12.84    5.28
  -4  -6 -11   -1.22    6.40
  -4   6  11   -0.44    3.89
  -4  -6 -11    8.31    4.69
  -4   6  11    5.29    4.18
   4  -6 -11    2.85    3.93
   4   6  11    0.94    5.15
   4  -6 -11   -2.89    4.18
   4   6  11    6.07    4.36
  -4  -5 -11    6.87    3.58
  -4   5  11    3.84    2.98
  -4   5  11    1.95    3.39
  -4  -5 -11    4.72    3.67
  -4   5  11    2.37    3.87
  -4  -5 -11    1.57    4.79
   4  -5 -11    3.70    2.91
   4   5  11    4.11    4.62
   4  -5 -11    9.50    4.40
   4   5  11    0.13    4.91
   4   5  11    1.68    3.51
  -4   4  11   21.55    3.45
  -4   4  11   19.35    3.97
  -4  -4 -11   27.05    4.60
  -4  -4 -11   16.78    3.91
  -4   4  11   19.65    5.20
  -4  -4 -11   18.42    4.93
   4   4  11   19.31    4.25
   4   4  11   23.06    4.42
   4  -4 -11   16.86    3.01
   4  -4 -11   27.28    4.50
  -4  -3 -11    2.20    3.70
  -4   3  11    1.58    2.21
  -4  -3 -11    0.07    2.41
  -4   3  11    4.58    2.64
  -4  -3 -11    3.41    2.20
  -4   3  11    3.77    2.37
  -4   3  11    3.58    2.76
   4  -3 -11    3.26    2.66
   4   3  11    3.55    3.39
   4  -3 -11    1.49    1.93
   4   3  11    2.74    3.08
   4  -3 -11    6.38    3.26
  -4   2  11    5.79    2.26
  -4   2  11    1.74    2.33
  -4  -2 -11    3.96    1.96
  -4   2  11   -0.03    2.01
  -4   2  11    4.39    2.52
  -4  -2 -11   -3.94    2.90
  -4  -2 -11    1.57    1.98
   4  -2 -11    4.83    1.91
   4  -2 -11    0.11    2.45
   4   2  11    3.95    2.77
   4   2  11   -0.47    2.19
   4  -2 -11    0.95    1.67
   4  -2 -11    4.13    2.75
  -4  -1 -11   17.54    3.59
  -4   1  11   16.85    3.12
  -4   1  11   18.59    2.83
  -4  -1 -11   17.66    2.98
  -4   1  11   18.31    2.80
  -4   1  11   19.80    3.43
   4  -1 -11   15.01    3.25
   4  -1 -11   16.86    2.71
   4   1  11   14.33    2.90
   4  -1 -11   20.56    3.54
   4   1  11   16.36    2.81
   4  -1 -11   17.27    2.48
  -4   0 -11    0.41    2.39
  -4   0 -11    0.85    1.60
  -4   0  11    0.58    2.02
  -4   0  11   -0.45    2.02
  -4   0  11    3.12    2.30
  -4   0 -11    0.28    1.40
   4   0 -11    0.12    1.74
   4   0 -11    1.87    1.33
   4   0  11    0.20    2.35
   4   0 -11   -0.43    2.09
   4   0  11    0.63    2.07
  -4  -1  11   18.32    2.83
  -4   1 -11   16.01    2.97
  -4  -1  11   15.88    2.85
  -4  -1  11   22.10    3.78
  -4  -1  11   21.00    3.12
   4   1 -11   17.74    3.15
   4   1 -11   13.97    2.66
   4   1 -11   18.13    3.14
  -4   2 -11    4.77    2.13
  -4  -2  11    4.32    2.27
  -4   2 -11    3.26    1.87
  -4  -2  11    0.44    2.13
  -4  -2  11   -2.52    2.57
   4   2 -11    1.08    2.19
   4   2 -11   -0.05    2.33
   4   2 -11    4.14    2.15
  -4   3 -11    5.99    2.44
  -4   3 -11    0.42    2.36
  -4  -3  11    6.21    3.21
  -4   3 -11    1.46    2.18
  -4  -3  11    3.35    2.66
  -4  -3  11    2.87    2.28
   4   3 -11   -0.28    2.61
   4   3 -11    0.63    2.74
   4   3 -11    1.31    3.51
   4   3 -11    4.57    2.73
  -4  -4  11   24.40    3.58
  -4  -4  11   18.05    3.46
  -4   4 -11   16.68    3.63
  -4  -4  11   27.46    4.52
  -4   4 -11   18.94    3.43
  -4   4 -11   22.34    3.64
   4   4 -11   21.99    5.52
   4   4 -11   20.89    4.04
  -4  -5  11    7.24    5.53
  -4   5 -11    1.60    3.10
  -4   5 -11   -1.84    3.59
  -4  -5  11    3.37    3.08
  -4  -5  11    5.44    3.84
  -4  -5  11    0.53    3.26
  -4  -5  11    4.83    5.88
  -4   5 -11    1.19    3.20
   4   5 -11   10.98    3.53
  -4  -6  11   -1.15   11.15
  -4  -6  11    4.69    3.60
  -4  -6  11    4.11    4.71
  -4  -6  11    0.27    3.55
  -4   6 -11    2.84    3.65
  -4  -6  11   14.95    7.33
   4   6 -11   -1.77    8.27
   4   6 -11    1.89    5.19
   4   6 -11    9.09    4.15
  -4   7 -11    2.76    5.45
  -4   7 -11    1.74    4.74
  -4  -7  11   11.99    5.49
  -4  -7  11    5.43    4.73
   4   7 -11    4.22    4.66
  -4   8 -11   -3.53    5.58
  -4   8 -11    5.01    6.39
  -4  -8  11    6.84    5.40
  -4  -8  11    0.36    5.44
   4   8 -11   12.76    6.67
  -4   9 -11   -3.63    7.12
  -4   9 -11    0.58    7.95
  -4  -9  11    6.54    9.62
   4   9 -11   21.88   10.92
   4   9 -11    1.66    8.78
  -5   8  11    8.72    7.46
  -5   8  11    6.76    7.84
   5  -8 -11    6.47    7.42
   5   8  11   15.55   11.17
   5   8  11  -12.67    9.15
  -5   7  11    8.97    5.95
  -5   7  11   14.84    5.37
  -5   7  11   24.95    6.50
  -5  -7 -11    9.60    8.18
   5   7  11   27.59    9.02
   5   7  11   20.13    8.05
   5  -7 -11   25.50    6.10
  -5   6  11   -6.05    4.63
  -5   6  11   -0.77    3.87
  -5   6  11   -0.98    4.35
  -5  -6 -11   -7.36    5.49
   5   6  11   -8.82    5.59
   5  -6 -11   -1.79    4.52
   5   6  11   -1.54    6.26
  -5   5  11    1.77    3.21
  -5   5  11    2.13    4.30
  -5   5  11    4.60    3.53
  -5  -5 -11    7.38    3.60
  -5  -5 -11    5.19    5.11
  -5   5  11   -1.65    3.89
  -5  -5 -11   -6.74    4.23
   5  -5 -11    2.69    3.69
   5   5  11    4.72    5.25
   5   5  11    2.85    4.20
   5   5  11    3.06    4.84
   5  -5 -11    4.34    3.15
  -5  -4 -11   -2.47    2.83
  -5   4  11   -0.90    2.92
  -5   4  11   -0.38    2.68
  -5  -4 -11   -4.98    3.45
  -5   4  11    1.78    3.80
  -5  -4 -11   -2.22    4.21
  -5   4  11    4.63    3.36
   5   4  11   -1.21    3.99
   5  -4 -11   -0.40    2.48
   5   4  11    0.22    3.14
   5   4  11    5.59    4.23
   5  -4 -11    2.37    3.27
   5  -4 -11    0.74    3.53
  -5  -3 -11    8.30    2.79
  -5   3  11    7.43    3.57
  -5  -3 -11    8.67    3.13
  -5   3  11   12.61    3.45
  -5   3  11    8.64    2.78
  -5   3  11    6.72    4.27
  -5  -3 -11    5.45    3.92
   5   3  11    0.65    3.01
   5   3  11    9.41    3.69
   5  -3 -11    9.14    2.61
   5  -3 -11    8.56    2.50
   5   3  11    8.78    3.40
   5  -3 -11    9.85    3.74
  -5   2  11    5.96    2.90
  -5   2  11    8.00    2.57
  -5  -2 -11    3.57    2.16
  -5   2  11    7.37    2.57
  -5  -2 -11    4.79    3.69
  -5  -2 -11    8.48    2.41
   5  -2 -11    9.45    3.24
   5  -2 -11    8.02    2.25
   5  -2 -11    8.10    3.22
   5  -2 -11    3.32    2.30
   5   2  11    4.85    2.51
   5   2  11    9.40    3.14
  -5  -1 -11    4.99    2.94
  -5  -1 -11    4.59    1.97
  -5  -1 -11    2.07    1.85
  -5   1  11   -0.70    2.36
  -5   1  11   -0.76    2.23
   5   1  11    0.92    2.14
   5  -1 -11    5.51    3.24
   5  -1 -11   -0.57    1.83
   5   1  11    2.26    2.67
   5  -1 -11    1.45    2.60
   5  -1 -11   -1.10    1.94
  -5   0 -11    1.70    1.53
  -5   0 -11    2.40    2.55
  -5   0 -11    2.80    1.62
  -5   0  11   -4.03    2.08
  -5   0  11   -2.21    2.08
   5   0 -11   -0.21    2.01
   5   0 -11   -0.95    1.64
   5   0  11    1.83    2.35
   5   0 -11    1.83    2.23
   5   0 -11   -1.58    2.86
  -5  -1  11    1.90    2.63
  -5  -1  11   -0.48    2.88
  -5  -1  11    1.75    2.28
  -5   1 -11   -3.35    2.38
   5   1 -11   -1.22    2.25
   5   1 -11    0.96    2.21
  -5  -2  11    9.92    3.11
  -5  -2  11    7.41    3.54
  -5  -2  11   10.99    2.51
  -5   2 -11    7.26    2.66
   5   2 -11    5.23    2.90
   5   2 -11    7.49    3.02
   5   2 -11    6.01    2.63
  -5  -3  11    9.08    3.55
  -5  -3  11   12.05    3.29
  -5   3 -11    8.97    2.91
  -5   3 -11   10.54    2.42
  -5  -3  11    7.33    2.88
  -5  -3  11    5.54    4.00
   5   3 -11    9.62    3.15
   5   3 -11    8.74    3.26
  -5   4 -11    0.57    2.79
  -5  -4  11    1.63    3.33
  -5  -4  11    0.66    3.10
  -5  -4  11    1.88    3.89
  -5   4 -11    1.39    2.43
  -5   4 -11    0.60    3.15
  -5  -4  11   -3.32    3.84
   5   4 -11   11.07    6.23
   5   4 -11    4.62    3.54
   5   4 -11   -2.66    3.36
  -5  -5  11    3.61    3.87
  -5  -5  11    0.02    3.10
  -5  -5  11    7.06    4.89
  -5   5 -11    8.42    3.49
  -5  -5  11   -5.18    5.40
  -5   5 -11    8.01    3.95
   5   5 -11    1.12    4.86
   5   5 -11    5.48    3.88
   5   5 -11   -0.91    7.89
  -5  -6  11   12.01    5.63
  -5  -6  11   -0.12    4.34
  -5  -6  11   -3.01    3.90
  -5   6 -11    0.55    4.93
  -5   6 -11    8.71    5.56
  -5   6 -11   -6.61    3.41
   5   6 -11    8.19    5.77
   5   6 -11    1.81    4.96
  -5   7 -11    0.36    4.76
  -5  -7  11    9.53    7.00
  -5   7 -11   18.68    5.71
  -5  -7  11   14.28    5.42
   5   7 -11   19.57    6.04
   5   7 -11   10.11    7.31
  -5  -8  11    2.37    6.37
  -5  -8  11    3.29    6.21
  -5   8 -11    2.62    6.58
  -6   8  11   -1.59    9.81
  -6   8  11    2.97    7.87
   6   8  11   31.35   11.37
   6   8  11    5.13   10.78
  -6   7  11    1.00    6.70
  -6   7  11    3.56    5.22
  -6   7  11   -4.60    5.80
   6  -7 -11    1.71    6.44
   6   7  11   12.58    8.67
   6   7  11   10.60    8.67
  -6  -6 -11   27.38    6.97
  -6   6  11   22.55    6.09
  -6   6  11   23.83    5.42
   6  -6 -11   25.64    6.03
   6   6  11   24.99    7.01
   6   6  11   17.10    7.72
  -6   5  11   -3.85    3.59
  -6   5  11    1.68    3.94
  -6   5  11   -1.96    4.10
  -6  -5 -11    7.85    5.17
   6   5  11    3.04    4.55
   6   5  11    9.13    5.64
   6  -5 -11    0.65    4.41
   6   5  11    0.20    5.03
   6  -5 -11   -2.04    5.76
  -6   4  11    2.50    3.41
  -6  -4 -11    3.48    3.48
  -6   4  11   -1.06    2.90
  -6   4  11    3.84    3.82
  -6   4  11   -4.12    2.87
  -6  -4 -11    1.37    4.32
  -6  -4 -11    0.35    4.48
   6   4  11    1.32    4.17
   6  -4 -11    0.69    3.64
   6  -4 -11    4.88    3.77
   6   4  11   -4.29    3.49
   6  -4 -11    0.46    4.90
   6  -4 -11   -2.05    2.77
   6   4  11   14.43    4.88
  -6   3  11    3.43    5.02
  -6  -3 -11   10.37    3.56
  -6  -3 -11    2.08    4.02
  -6   3  11    9.81    3.39
  -6   3  11    9.41    3.00
  -6   3  11   13.97    3.31
  -6  -3 -11   11.85    3.45
   6  -3 -11    4.38    3.80
   6  -3 -11    8.90    2.91
   6  -3 -11    8.57    3.17
   6   3  11   15.77    4.35
  -6   2  11    4.78    3.20
  -6  -2 -11    1.88    4.00
  -6  -2 -11    3.40    2.65
  -6   2  11    3.21    3.00
  -6  -2 -11    2.76    2.81
   6  -2 -11    7.94    3.21
   6  -2 -11    1.35    2.38
   6   2  11    5.63    3.13
   6   2  11    8.66    3.40
   6  -2 -11    4.49    2.48
  -6  -1 -11    4.75    3.67
  -6  -1 -11    6.87    2.30
  -6   1  11    9.22    2.85
  -6  -1 -11    6.29    2.34
   6  -1 -11    8.99    2.53
   6   1  11    5.63    3.09
   6  -1 -11   10.12    3.14
   6   1  11    7.80    2.88
   6  -1 -11    6.31    2.52
  -6   0  11    3.66    2.54
  -6   0  11   -0.32    2.89
  -6   0 -11   -2.15    2.94
   6   0  11   -0.18    2.78
   6   0 -11   -1.45    2.22
   6   0 -11    2.08    2.55
   6   0 -11    0.49    1.96
  -6   1 -11   11.14    3.20
  -6  -1  11    7.92    2.73
   6   1 -11    6.20    2.80
   6   1 -11    3.40    2.95
  -6   2 -11    3.24    2.75
  -6  -2  11    6.94    4.58
  -6  -2  11    5.84    3.91
  -6  -2  11    3.96    4.14
   6   2 -11    1.74    3.17
   6   2 -11    1.37    2.65
   6   2 -11    0.21    4.65
   6   2 -11    1.74    3.35
  -6  -3  11    6.47    3.18
  -6   3 -11    8.38    2.59
  -6  -3  11    7.75    4.43
  -6   3 -11   14.29    3.19
  -6  -3  11   11.88    3.80
  -6  -3  11    6.80    4.08
  -6  -3  11    9.98    4.73
   6   3 -11   14.36    6.97
   6   3 -11    8.31    3.38
   6   3 -11   13.74    3.88
   6   3 -11    3.45    3.42
  -6   4 -11    1.69    3.18
  -6  -4  11    5.16    3.55
  -6  -4  11    9.81    5.26
  -6  -4  11    3.00    3.87
  -6  -4  11    9.14    4.86
  -6  -4  11    6.57    4.71
  -6   4 -11   -2.39    3.01
  -6   4 -11    0.76    2.88
   6   4 -11    7.26    3.82
   6   4 -11    3.13    3.99
   6   4 -11   -7.56    7.26
  -6  -5  11   -4.44    4.46
  -6   5 -11    0.37    4.92
  -6  -5  11   -5.02    5.41
  -6   5 -11   -2.14    3.33
  -6  -5  11    1.85    4.59
  -6   5 -11    5.01    4.20
   6   5 -11   -1.38    4.52
   6   5 -11   -6.72    4.77
  -6   6 -11   15.18    4.47
  -6  -6  11   15.91    5.31
  -6  -6  11   21.50    6.31
  -6   6 -11   10.24    4.71
  -6  -6  11    4.07    6.97
  -6   6 -11   21.13    5.97
   6   6 -11   13.28    6.31
   6   6 -11   15.64    5.96
  -6  -7  11   -3.64    5.95
  -6  -7  11    6.17    5.98
  -6   7 -11   -3.28    4.98
   6   7 -11    6.43    6.53
   6   7 -11    9.86    7.50
  -6  -8  11    2.76    7.62
  -6  -8  11   -2.50    7.27
  -6   8 -11   -8.01    6.50
   6   8 -11    8.40    8.59
   6   8 -11   15.16   10.15
  -7   7  11   13.81    8.06
  -7   7  11   10.54    6.96
   7   7  11   12.49    9.91
   7   7  11   14.31    9.13
  -7   6  11    0.27    6.13
  -7   6  11    6.22    5.20
  -7   6  11   14.16    5.09
   7  -6 -11    9.49    6.51
   7   6  11   18.01    7.44
  -7   5  11    1.54    4.57
  -7  -5 -11   10.62    6.13
   7   5  11  -10.46    5.26
   7  -5 -11    2.12    5.78
   7   5  11    6.40    6.60
   7  -5 -11   -8.77    5.48
   7   5  11   -1.86    5.33
  -7   4  11    9.79    4.20
  -7   4  11    6.56    3.44
  -7  -4 -11    0.48    4.31
  -7  -4 -11   16.68    5.15
  -7  -4 -11    4.85    5.62
  -7   4  11    3.98    3.88
   7   4  11    3.27    4.40
   7   4  11   17.05    5.66
   7  -4 -11   16.73    5.22
   7  -4 -11    9.95    4.50
  -7  -3 -11    3.85    4.07
  -7   3  11   -2.11    3.82
  -7   3  11    0.85    3.20
  -7   3  11    4.78    3.28
  -7  -3 -11   -1.11    3.60
  -7   3  11    4.23    3.26
  -7  -3 -11    4.00    4.81
   7  -3 -11    1.79    3.73
   7  -3 -11   -3.13    2.87
   7   3  11    5.15    5.24
   7  -3 -11    6.25    4.55
   7   3  11    5.05    4.77
  -7   2  11   -3.16    3.26
  -7  -2 -11   -4.18    3.33
  -7   2  11    0.71    3.29
  -7   2  11    4.41    3.27
  -7  -2 -11   -4.34    3.10
  -7  -2 -11   -5.27    4.15
   7   2  11    4.64    3.03
   7  -2 -11   -8.98    4.52
   7   2  11   -3.59    3.79
   7  -2 -11   -2.21    2.89
   7  -2 -11   -1.95    2.78
   7  -2 -11   -1.48    3.49
  -7   1  11    1.26    3.52
  -7   1  11    3.78    2.65
  -7  -1 -11   -1.41    3.86
  -7  -1 -11   -0.83    2.64
  -7  -1 -11    0.99    2.49
  -7   1  11   -2.92    3.05
   7  -1 -11    5.29    4.25
   7   1  11   -2.01    2.93
   7  -1 -11    3.59    2.67
   7  -1 -11    5.06    3.10
   7  -1 -11    2.21    2.90
  -7   0  11    1.73    3.14
  -7   0  11   -5.85    3.81
  -7   0 -11   -0.26    3.59
  -7   0  11    1.95    2.74
   7   0 -11    1.63    2.62
   7   0 -11    0.70    2.38
   7   0 -11   -2.71    3.19
   7   0  11   -4.49    3.16
  -7  -1  11    3.88    3.37
  -7   1 -11    0.56    3.39
  -7  -1  11    0.96    4.17
  -7  -1  11   15.96    4.41
  -7  -1  11   -1.83    2.75
   7   1 -11   -0.76    5.63
   7   1 -11   -0.01    2.75
   7   1 -11    9.63    3.61
  -7  -2  11    3.61    3.13
  -7  -2  11    1.70    3.70
  -7  -2  11   10.76    4.92
  -7  -2  11    5.74    4.82
  -7   2 -11    0.45    3.05
  -7  -2  11    1.30    4.38
   7   2 -11    7.57    6.62
   7   2 -11    0.91    2.89
   7   2 -11    0.91    3.54
  -7  -3  11    9.94    5.49
  -7  -3  11    1.42    3.50
  -7   3 -11    1.88    3.02
  -7   3 -11   -0.21    3.16
  -7  -3  11    0.39    5.17
  -7  -3  11    8.93    5.35
  -7  -3  11    0.80    4.07
   7   3 -11   -2.58    7.85
   7   3 -11    1.28    3.87
   7   3 -11    1.09    3.24
  -7   4 -11   15.36    3.74
  -7  -4  11   12.10    5.13
  -7  -4  11   13.93    6.55
  -7  -4  11    8.45    3.97
  -7   4 -11    1.11    3.44
   7   4 -11    7.33    4.06
   7   4 -11    3.68    4.61
  -7   5 -11   -0.12    3.71
  -7   5 -11   11.17    4.79
  -7  -5  11    8.72    5.61
  -7  -5  11    3.54    4.37
   7   5 -11    6.93    5.31
   7   5 -11    7.24    5.38
  -7   6 -11    4.75    4.52
  -7   6 -11    1.57    4.81
  -7  -6  11    0.79    6.07
  -7  -6  11    5.72    5.36
   7   6 -11    4.77    6.50
   7   6 -11    0.07    6.09
  -7   7 -11   14.59    5.92
  -7   7 -11   -7.97    6.22
  -7  -7  11    1.28    6.80
  -7  -7  11   20.96    7.80
   7   7 -11   11.03    7.79
   7   7 -11   -6.38    8.70
  -8   6  11    0.56    6.12
  -8   6  11    5.30    7.13
   8   6  11    5.80    9.26
   8   6  11    1.90    7.41
  -8  -5 -11   25.68    7.40
  -8   5  11    9.10    5.04
   8  -5 -11   18.37    7.13
   8   5  11   -9.16    6.80
  -8   4  11    1.39    4.16
  -8   4  11   -0.34    4.29
  -8   4  11    1.78    4.48
  -8  -4 -11    7.94    5.82
   8   4  11   -0.69    5.92
   8  -4 -11   -1.68    4.84
   8  -4 -11   -7.89    5.55
   8   4  11   10.85    5.00
  -8  -3 -11    4.21    4.75
  -8  -3 -11   15.26    4.65
  -8  -3 -11    6.94    6.42
  -8   3  11    5.69    3.90
  -8   3  11    6.99    4.34
   8  -3 -11    7.05    4.36
   8  -3 -11   19.28    6.42
   8   3  11    9.78    5.11
   8   3  11    9.50    4.01
  -8  -2 -11    0.22    4.09
  -8  -2 -11   -7.04    4.61
  -8   2  11    1.47    3.37
  -8   2  11   -3.62    3.79
   8   2  11    0.33    4.16
   8  -2 -11   -5.16    3.39
  -8   1  11   19.25    4.58
  -8  -1 -11   15.63    4.82
  -8  -1 -11   16.81    4.07
  -8  -1 -11   13.19    3.32
  -8   1  11   17.07    3.81
   8  -1 -11   13.67    6.24
   8   1  11   14.54    3.88
   8  -1 -11   19.62    4.24
   8  -1 -11   22.55    3.68
  -8   0  11    0.18    3.34
  -8   0 -11    1.17    3.88
  -8   0  11   -4.19    3.69
   8   0 -11   -2.34    2.94
   8   0 -11    3.28    3.42
   8   0 -11   16.28    6.45
   8   0 -11   -0.26    4.40
  -8   1 -11   19.87    4.04
  -8  -1  11   19.17    4.63
  -8  -1  11   16.03    3.94
  -8  -1  11   18.81    7.24
   8   1 -11    9.11    5.26
   8   1 -11   12.02    3.57
   8   1 -11   15.13    3.39
   8   1 -11   14.05    7.29
  -8   2 -11   -1.33    3.47
  -8  -2  11   -2.75    4.17
  -8  -2  11    3.01    3.55
   8   2 -11   -4.81    8.01
   8   2 -11    1.57    2.93
   8   2 -11    2.43    3.37
  -8  -3  11    9.44    4.29
  -8   3 -11    9.76    3.91
  -8   3 -11    2.99    3.98
  -8  -3  11   15.98    5.53
   8   3 -11   10.51    4.13
  -8  -4  11    0.84    4.44
  -8  -4  11    3.64    5.85
  -8   4 -11    0.98    3.94
  -8   4 -11    3.16    4.58
   8   4 -11    5.40    4.85
   8   4 -11   -8.32    4.95
  -8   5 -11   -0.72    4.63
  -8  -5  11    5.02    6.95
  -8   5 -11    4.97    4.55
  -8  -5  11   -2.91    5.30
   8   5 -11    0.85    5.87
   8   5 -11   -6.22    6.13
  -8  -6  11    4.67    6.14
  -8   6 -11   -6.02    5.66
  -8  -6  11    7.95    7.99
  -8   6 -11   -2.60    4.95
   8   6 -11   10.34    7.36
   8   6 -11    8.86    8.00
  -9   5  11    1.50    6.28
  -9   5  11    3.59    6.04
   9  -5 -11   39.86    9.02
  -9   4  11    5.58    5.23
  -9   4  11   -0.07    5.56
   9  -4 -11   -1.06    5.78
   9   4  11   11.12    7.11
   9  -4 -11   -6.51    7.01
   9   4  11   12.52    5.74
  -9   3  11    2.73    4.55
  -9  -3 -11   13.82    6.67
   9   3  11    9.97    4.72
   9  -3 -11   -1.66    4.91
   9   3  11    0.75    5.90
   9  -3 -11   24.41    7.67
  -9  -2 -11    2.00    5.51
  -9   2  11    7.82    3.81
  -9   2  11    5.45    4.98
  -9  -2 -11    1.87    4.72
  -9  -2 -11   -1.02    5.48
   9  -2 -11   10.33    7.48
   9   2  11   -2.52    4.72
   9  -2 -11   -7.49    4.06
  -9  -1 -11   -1.50    4.94
  -9  -1 -11    8.97    4.38
  -9   1  11    7.08    4.67
  -9   1  11   -1.09    3.59
   9  -1 -11    7.37    4.07
   9   1  11    6.90    4.49
   9  -1 -11   20.58    7.97
  -9   0  11    3.64    4.75
  -9   0 -11   -2.06    4.70
  -9   0  11   -4.76    3.53
   9   0 -11   -7.11    3.59
  -9  -1  11   14.03    6.38
  -9  -1  11    7.46    5.58
  -9  -1  11    5.46    3.86
   9   1 -11   14.54    3.63
   9   1 -11   11.65    3.82
  -9   2 -11    4.51    4.39
  -9  -2  11    4.82    4.04
  -9  -2  11    6.59    5.53
   9   2 -11    3.08    3.91
   9   2 -11    4.47    4.04
  -9  -3  11    3.62    5.76
  -9   3 -11    3.80    4.44
  -9   3 -11    2.60    4.63
  -9  -3  11    0.73    4.66
   9   3 -11    8.10    4.13
  -9   4 -11   -6.48    4.43
  -9  -4  11   -2.00    6.89
  -9  -4  11    6.44    5.15
   9   4 -11    1.64    5.15
  -9   5 -11    2.99    5.49
  -9  -5  11   12.54    7.93
  -9  -5  11  -11.58    6.08
   9   5 -11   -0.95    6.37
 -10   4  11    6.39    6.54
 -10   4  11    2.48    7.28
  10  -4 -11   11.22    7.76
 -10   3  11    4.18    5.46
 -10   3  11   -1.40    5.68
  10  -3 -11   -2.51    6.02
 -10   2  11   -8.98    5.43
 -10   2  11    0.50    4.49
  10  -2 -11   -2.29    5.42
  10  -2 -11   -9.06    9.41
 -10   1  11    6.50    4.54
 -10   1  11    2.22    5.60
 -10  -1 -11   -3.83    6.05
 -10  -1 -11    8.68    5.84
  10  -1 -11    6.17    4.52
 -10   0  11    3.67    5.72
 -10   0  11   -1.79    4.46
  10   0 -11    3.29    4.59
 -10  -1  11    1.99    5.88
 -10  -1  11   -0.44    5.11
  10   1 -11    0.67    4.23
 -10  -2  11    5.54    5.01
 -10   2 -11   -2.96    5.34
 -10  -2  11   15.51    7.16
  10   2 -11    5.42    4.52
 -10   3 -11   10.17    5.49
 -10  -3  11    4.08    7.17
 -10  -3  11   -1.94    5.32
  10   3 -11   -7.93    4.48
 -10  -4  11   -1.82    9.95
 -10  -4  11   -8.60    6.29
 -10   4 -11    2.21    7.65
 -11   1  11    5.56    7.35
  11  -1 -11    4.92    5.94
 -11   0  11   -8.66    5.44
 -11   0  11   -2.47    8.03
  11   0 -11   -2.13    5.57
 -11  -1  11    9.76   12.75
 -11  -1  11    1.49    8.08
  11   1 -11    0.31    5.66
   0   9  12   16.58   10.29
   0   9  12   21.89   10.54
   0   8  12   -8.43    7.24
   0   8  12    5.85    7.43
   0   7  12    1.37    5.48
   0   7  12   -0.93    6.22
   0  -6 -12    5.85    3.51
   0   6  12    0.43    4.04
   0  -6 -12    2.22    4.99
   0   6  12    8.01    4.92
   0   6  12   10.20    5.10
   0  -6 -12    2.00    3.68
   0   5  12   -0.80    3.83
   0   5  12   -4.50    4.72
   0  -5 -12   -6.10    4.15
   0   5  12    4.39    3.25
   0  -5 -12    1.36    2.85
   0   4  12   42.08    5.95
   0   4  12   48.31    5.65
   0  -4 -12   41.62    4.64
   0   4  12   44.17    4.04
   0  -4 -12   41.11    5.98
   0   4  12   39.07    4.77
   0  -3 -12    2.45    2.16
   0  -3 -12   -0.25    2.18
   0   3  12    1.63    2.28
   0   3  12   -1.43    2.36
   0  -3 -12   -1.64    2.83
   0   3  12    0.00    2.15
   0   3  12   -1.30    2.80
   0  -2 -12  257.33   11.91
   0  -2 -12  240.67   11.41
   0   2  12  242.57   11.14
   0  -2 -12  230.22   12.30
   0   2  12  214.98   11.67
   0   2  12  248.68   11.87
   0   2  12  228.83   11.97
   0  -1 -12    1.19    1.71
   0  -1 -12   -0.21    1.78
   0   1  12   -0.70    1.81
   0   1  12    1.53    2.22
   0   1  12    1.87    2.01
   0  -1 -12    0.64    2.24
   0   1  12    0.78    1.89
   0   0 -12   34.32    3.66
   0   0  12   37.53    4.15
   0   0  12   30.08    3.38
   0   0 -12   30.26    3.19
   0   0  12   33.95    3.81
   0   0  12   28.41    3.56
   0   0 -12   27.89    3.73
   0   1 -12   -1.81    1.64
   0  -1  12    0.87    1.65
   0  -1  12   -2.82    1.59
   0   1 -12    0.38    1.81
   0  -1  12   -1.51    2.32
   0   1 -12    3.13    1.79
   0  -1  12    0.19    1.78
   0   1 -12   -0.21    1.60
   0  -2  12  231.34   11.66
   0   2 -12  210.39   11.61
   0   2 -12  236.54   11.11
   0  -2  12  239.91   11.06
   0   2 -12  243.89   11.16
   0   2 -12  234.11   11.61
   0   3 -12    5.33    2.43
   0  -3  12   -3.05    1.63
   0  -3  12   -5.04    2.83
   0   3 -12    1.70    1.92
   0   3 -12   -0.97    2.11
   0   3 -12    0.05    2.51
   0  -4  12   41.18    3.87
   0  -4  12   36.87    5.67
   0   4 -12   43.48    4.35
   0   4 -12   45.43    6.21
   0   4 -12   46.34    4.73
   0   4 -12   43.07    4.98
   0  -4  12   28.74    4.48
   0   5 -12    0.91    3.26
   0  -5  12    1.34    1.97
   0   5 -12    2.71    2.84
   0   5 -12    7.15    3.99
   0  -6  12   -0.40    4.26
   0   6 -12    2.91    4.41
   0  -6  12    7.92    5.37
   0  -6  12    7.93    2.60
   0   6 -12   12.49    6.53
   0   6 -12    1.20    3.41
   0   7 -12    3.74    5.14
   0   7 -12    7.16    7.71
   0   7 -12    8.55    4.63
   0   7 -12    2.79    5.09
   0  -7  12    2.70    2.82
   0  -7  12   -4.91    4.96
   0   8 -12   -7.22    5.01
   0   8 -12    0.34    7.14
   0   8 -12    7.91    7.11
   0   9 -12   -3.82    6.84
   0   9 -12   16.01    9.33
   0   9 -12   -9.77    8.35
  -1   9  12   -4.65   10.10
  -1   9  12   -1.29   10.41
   1   9  12   36.38   11.47
   1   9  12    9.82    9.97
  -1   8  12   20.00    7.79
  -1   8  12    0.45    8.03
   1   8  12   13.76    8.14
   1   8  12   -2.55    7.93
  -1   7  12    6.25    6.33
  -1   7  12   -2.86    5.47
   1   7  12   -4.36    6.17
   1   7  12   10.44    6.35
  -1  -6 -12    0.81    3.14
  -1  -6 -12    7.08    3.90
  -1   6  12    6.49    4.52
  -1   6  12    5.25    5.09
  -1   6  12   -0.75    4.20
  -1  -6 -12    9.03    5.24
   1   6  12    9.35    4.49
   1  -6 -12    5.07    3.91
   1  -6 -12   -2.39    3.54
   1  -6 -12    6.42    5.20
   1   6  12    6.63    6.30
   1   6  12    9.90    5.12
  -1  -5 -12   38.61    7.01
  -1   5  12   44.42    6.51
  -1   5  12   50.43    7.15
  -1   5  12   33.61    5.53
  -1  -5 -12   47.79    5.88
   1   5  12   45.17    4.76
   1   5  12   48.50    7.72
   1  -5 -12   46.79    5.27
   1  -5 -12   38.00    5.30
  -1   4  12   28.37    4.47
  -1   4  12   32.45    5.58
  -1   4  12   40.64    5.40
  -1  -4 -12   32.27    6.03
  -1  -4 -12   34.64    4.76
  -1   4  12   41.41    4.36
   1   4  12   33.60    3.65
   1  -4 -12   37.98    4.60
   1   4  12   31.31    4.77
   1  -4 -12   39.10    5.58
   1   4  12   40.91    5.62
  -1   3  12   30.20    4.44
  -1   3  12   25.71    3.99
  -1  -3 -12   25.78    4.51
  -1   3  12   24.86    3.92
  -1   3  12   26.70    3.42
  -1  -3 -12   25.30    3.63
   1   3  12   28.87    4.09
   1   3  12   31.94    3.04
   1   3  12   23.82    3.85
   1  -3 -12   22.69    3.83
   1  -3 -12   28.61    4.53
  -1  -2 -12    2.93    2.81
  -1   2  12   -0.94    1.96
  -1  -2 -12    1.40    2.10
  -1  -2 -12    4.17    1.82
  -1   2  12    2.94    2.45
  -1   2  12    3.23    2.25
  -1   2  12    2.40    2.36
   1  -2 -12    0.73    2.01
   1   2  12   -2.13    2.35
   1   2  12   -1.08    1.68
   1   2  12    0.94    2.04
   1  -2 -12    2.03    2.50
  -1  -1 -12   39.24    3.68
  -1  -1 -12   38.74    4.38
  -1   1  12   33.30    3.95
  -1   1  12   39.86    4.33
  -1   1  12   34.24    3.71
  -1  -1 -12   34.73    3.41
   1   1  12   39.11    4.32
   1  -1 -12   40.45    4.26
   1  -1 -12   40.50    3.59
   1  -1 -12   32.12    3.83
   1   1  12   37.28    4.08
   1   1  12   37.75    3.58
   1   1  12   39.90    4.14
  -1   0  12    5.29    2.64
  -1   0 -12    2.48    2.18
  -1   0  12    3.93    1.81
  -1   0 -12    4.55    1.76
  -1   0 -12    4.32    1.67
  -1   0  12    0.84    2.69
  -1   0  12    4.79    2.18
   1   0  12    7.07    2.52
   1   0 -12    3.09    2.01
   1   0  12    4.30    2.39
   1   0 -12    1.85    2.16
   1   0  12    8.23    2.34
   1   0 -12    2.18    1.71
   1   0  12    3.45    1.87
  -1  -1  12   35.60    3.68
  -1  -1  12   37.67    3.95
  -1   1 -12   39.59    3.95
  -1  -1  12   37.65    3.60
  -1   1 -12   36.95    3.33
  -1   1 -12   38.12    4.32
  -1  -1  12   38.90    4.53
  -1   1 -12   39.49    3.27
   1  -1  12   39.69    3.93
   1   1 -12   44.33    3.95
   1   1 -12   38.35    3.49
   1  -1  12   38.99    3.72
   1   1 -12   41.68    3.94
   1   1 -12   40.37    3.72
  -1   2 -12    2.28    1.93
  -1  -2  12    4.08    1.93
  -1   2 -12    1.09    2.12
  -1  -2  12    2.68    2.15
  -1  -2  12    3.36    2.89
  -1  -2  12    2.26    1.78
  -1   2 -12    0.04    1.88
  -1   2 -12    0.99    1.67
   1   2 -12    1.63    2.14
   1  -2  12   -0.54    2.55
   1   2 -12   -2.12    2.22
   1   2 -12    2.22    1.78
   1   2 -12    1.24    2.25
   1  -2  12    0.34    1.86
  -1  -3  12   26.93    4.12
  -1   3 -12   33.04    3.84
  -1   3 -12   22.07    4.14
  -1  -3  12   23.82    3.55
  -1   3 -12   25.87    3.29
  -1   3 -12   27.64    4.56
   1   3 -12   32.55    3.99
   1  -3  12   24.59    3.45
   1   3 -12   33.39    5.01
   1   3 -12   20.43    3.89
   1  -3  12   26.93    4.47
   1   3 -12   27.97    3.45
  -1  -4  12   36.01    4.12
  -1   4 -12   48.31    4.64
  -1   4 -12   38.24    5.09
  -1   4 -12   33.66    3.91
  -1   4 -12   43.42    5.14
   1  -4  12   38.00    5.73
   1  -4  12   35.70    3.79
   1  -4  12   47.03    4.40
   1   4 -12   30.38    4.94
   1   4 -12   38.63    5.20
   1   4 -12   39.48    4.94
   1   4 -12   35.23    4.31
  -1  -5  12   49.48    6.91
  -1   5 -12   42.35    6.81
  -1  -5  12   51.61    4.59
  -1   5 -12   46.02    6.18
  -1   5 -12   39.13    5.15
   1   5 -12   52.33    8.39
   1   5 -12   44.64    6.27
   1  -5  12   48.71    5.09
  -1  -6  12   12.91    3.04
  -1   6 -12    6.72    3.40
  -1   6 -12    2.43    4.43
  -1  -6  12    8.18    5.22
  -1  -6  12    9.85    4.53
  -1   6 -12   21.76    6.15
   1   6 -12    8.73    4.26
   1   6 -12    2.30    6.71
   1   6 -12    6.26    4.53
  -1   7 -12    5.40    7.85
  -1  -7  12   -2.82    5.56
  -1  -7  12    8.77    3.40
  -1   7 -12    7.29    5.30
  -1   7 -12    7.33    4.14
  -1   7 -12    1.22    5.04
   1   7 -12   11.99    8.66
   1   7 -12    3.86    5.52
   1   7 -12    6.29    4.78
  -1  -8  12   14.99    4.63
  -1   8 -12   13.71    7.09
  -1   8 -12    1.93    5.24
  -1   8 -12    0.69   11.45
   1   8 -12   14.51    6.97
   1   8 -12   10.87    7.03
   1   8 -12    3.15    5.45
  -1   9 -12   19.34    9.32
  -1   9 -12   13.73    9.78
   1   9 -12   30.09    9.47
   1   9 -12   23.14    9.17
  -2   9  12    5.05   10.47
  -2   9  12   19.14   10.49
   2   9  12   13.29   11.26
   2   9  12  -24.40   11.96
   2   9  12   -8.96    8.09
  -2   8  12    5.27    8.13
   2   8  12    7.39    8.28
   2   8  12   -6.79    8.67
  -2   7  12   -3.86    6.31
  -2  -7 -12   -1.86    6.89
  -2   7  12   10.92    5.80
   2   7  12    1.65    6.25
   2   7  12   -4.91    6.34
  -2  -6 -12   12.76    4.35
  -2   6  12    3.13    4.15
  -2  -6 -12   -4.48    3.64
  -2  -6 -12    3.40    4.83
  -2   6  12    4.04    5.05
  -2   6  12   -0.72    4.46
   2   6  12   -4.07    4.54
   2  -6 -12   -2.51    3.68
   2  -6 -12    8.27    4.80
   2  -6 -12    4.29    3.74
   2   6  12    3.28    5.07
  -2   5  12   -2.14    3.35
  -2  -5 -12   -0.28    3.93
  -2  -5 -12   -3.83    2.93
  -2  -5 -12   -1.87    3.18
   2   5  12   -4.92    4.34
   2   5  12    2.67    5.06
   2  -5 -12    1.20    3.05
   2  -5 -12   -0.44    2.74
   2  -5 -12    1.18    4.86
  -2  -4 -12    2.69    2.31
  -2   4  12    4.42    2.57
  -2  -4 -12    0.08    2.68
  -2   4  12    5.73    2.88
  -2  -4 -12   -2.96    3.45
  -2   4  12   -2.76    3.31
  -2   4  12    0.12    2.76
   2  -4 -12   -5.61    3.55
   2   4  12    4.13    3.33
   2   4  12   -3.06    2.07
   2  -4 -12    0.80    2.48
   2   4  12    1.07    3.93
  -2  -3 -12    3.23    1.99
  -2  -3 -12    2.80    2.37
  -2   3  12    1.76    2.35
  -2   3  12    2.52    2.89
  -2   3  12    2.05    2.31
  -2   3  12   -2.71    2.42
  -2  -3 -12    2.34    3.57
   2   3  12   -0.18    3.19
   2  -3 -12    1.53    2.19
   2  -3 -12    1.47    3.30
   2   3  12    3.81    2.72
  -2   2  12   10.20    2.48
  -2   2  12    6.38    2.54
  -2  -2 -12    8.53    3.15
  -2  -2 -12    7.95    2.26
  -2  -2 -12   10.71    2.23
  -2   2  12    6.61    2.34
  -2   2  12    8.58    2.70
   2  -2 -12   11.34    3.06
   2   2  12    8.57    2.45
   2   2  12    8.57    2.69
   2   2  12    1.99    2.89
   2  -2 -12    5.69    2.21
   2   2  12    7.59    1.98
  -2   1  12    3.07    2.21
  -2   1  12    1.78    1.98
  -2  -1 -12    2.47    2.53
  -2  -1 -12    2.69    1.77
  -2  -1 -12    3.64    1.72
  -2   1  12   -0.74    2.04
  -2   1  12    1.68    2.28
   2   1  12    2.75    2.15
   2   1  12    2.94    2.30
   2  -1 -12    2.63    2.58
   2  -1 -12    2.10    2.03
   2   1  12    4.33    2.15
  -2   0 -12   11.02    2.97
  -2   0  12   19.00    3.66
  -2   0 -12   16.86    2.64
  -2   0  12   18.21    2.99
  -2   0  12   13.88    3.00
  -2   0  12   15.46    2.42
   2   0  12   16.12    2.98
   2   0 -12   16.18    2.94
   2   0  12   13.15    2.45
   2   0  12   21.12    3.23
   2   0 -12   19.80    3.09
   2   0 -12   16.00    2.34
  -2  -1  12    4.49    2.50
  -2  -1  12    3.53    2.00
  -2   1 -12    1.31    1.88
  -2   1 -12    5.06    1.71
  -2   1 -12    3.65    2.14
  -2  -1  12    4.97    2.68
  -2  -1  12    3.95    2.01
  -2   1 -12    5.22    1.55
   2   1 -12    5.03    2.54
   2   1 -12    0.87    2.25
   2  -1  12    1.16    2.13
   2  -1  12    2.00    2.18
   2   1 -12    2.55    2.18
   2   1 -12    0.93    1.87
  -2  -2  12    8.59    2.16
  -2   2 -12    7.17    1.99
  -2  -2  12    6.45    2.72
  -2  -2  12    8.10    2.47
  -2  -2  12    7.88    3.10
  -2   2 -12    7.19    1.78
  -2   2 -12    3.98    2.33
  -2   2 -12    9.24    2.28
   2   2 -12    4.87    2.32
   2   2 -12    3.92    2.41
   2  -2  12    7.61    2.19
   2  -2  12   10.28    2.82
   2   2 -12    8.82    2.90
   2   2 -12    8.28    2.67
  -2  -3  12    2.05    1.97
  -2   3 -12    2.63    2.74
  -2  -3  12    0.52    1.96
  -2  -3  12    1.82    2.66
  -2   3 -12   -0.16    2.17
  -2   3 -12    2.67    2.29
  -2  -3  12    2.78    3.07
   2   3 -12    0.14    2.36
   2   3 -12    0.14    2.60
   2   3 -12   -2.24    2.94
   2  -3  12    2.56    3.24
   2   3 -12    4.61    2.34
  -2   4 -12   -0.83    2.82
  -2  -4  12    1.21    2.23
  -2  -4  12    4.97    2.20
  -2   4 -12    2.67    2.58
  -2  -4  12   -3.13    2.72
   2   4 -12    1.85    2.59
   2   4 -12   -1.30    2.90
   2  -4  12    5.16    3.49
   2   4 -12    3.59    3.86
   2   4 -12    3.48    2.51
  -2   5 -12   -0.23    3.63
  -2  -5  12    0.04    2.65
  -2  -5  12   -4.90    4.47
  -2   5 -12   -2.82    2.71
  -2  -5  12   -0.67    3.66
   2   5 -12   -3.43    3.53
   2   5 -12    1.80    3.43
   2   5 -12   -3.89    5.12
  -2   6 -12   -1.33    4.61
  -2  -6  12    9.53    4.96
  -2  -6  12    6.10    3.15
  -2   6 -12    0.93    3.49
  -2  -6  12    0.49    5.75
   2   6 -12    3.39    7.31
   2   6 -12    1.37    4.96
   2   6 -12    1.21    4.13
  -2  -7  12    7.05    3.71
  -2   7 -12   -6.74    5.20
  -2   7 -12    2.81    7.56
  -2   7 -12    0.98    4.11
   2   7 -12   -5.44    4.79
   2   7 -12    4.96    5.96
   2   7 -12   15.70   10.95
  -2  -8  12    8.09    4.71
  -2   8 -12   -2.88    5.49
  -2   8 -12   14.82    6.61
  -2   8 -12    9.71   10.04
  -2   8 -12   -0.25    6.20
   2   8 -12   -2.75    7.16
   2   8 -12    2.17    6.04
   2   8 -12    9.26    7.56
  -2   9 -12   25.63    9.18
  -2   9 -12    0.12    7.73
  -2   9 -12   -0.22    8.11
   2   9 -12   16.03   10.34
   2   9 -12   19.52    7.99
   2   9 -12    3.26    9.55
   3   9  12    1.89   15.23
   3   9  12   16.02   10.15
   3   9  12   18.49   11.11
  -3   8  12  -12.01    7.71
  -3   8  12    1.28    7.91
   3   8  12   10.39    9.95
   3   8  12    7.10    6.33
   3   8  12    6.63    8.80
  -3   7  12    4.05    5.70
  -3   7  12   -8.75    5.87
  -3  -7 -12   -1.83    6.94
   3   7  12    2.28    4.86
   3   7  12   -5.40    7.03
   3   7  12   -0.92    6.49
  -3   6  12   10.80    5.13
  -3   6  12   15.53    5.04
  -3  -6 -12   12.49    5.09
  -3   6  12   20.13    4.85
   3   6  12    3.71    5.58
   3  -6 -12   13.68    7.07
   3   6  12   21.39    9.36
   3  -6 -12    3.94    4.67
  -3   5  12   -1.56    3.60
  -3   5  12    4.29    4.05
  -3  -5 -12    2.51    4.42
  -3   5  12    3.16    3.58
  -3   5  12    5.38    3.79
  -3  -5 -12   -0.58    3.27
  -3  -5 -12   -3.36    3.36
   3   5  12   -1.34    4.58
   3   5  12   -0.18    3.88
   3  -5 -12   -2.77    2.92
   3   5  12   -4.38    4.80
   3  -5 -12    0.24    4.10
   3  -5 -12   -5.52    3.14
  -3  -4 -12   14.18    3.40
  -3   4  12   12.43    3.16
  -3   4  12   10.04    3.76
  -3  -4 -12   13.65    3.13
   3   4  12   11.96    4.30
   3  -4 -12    9.55    4.10
   3   4  12   16.29    4.29
   3  -4 -12   18.83    3.12
   3   4  12    6.16    3.40
  -3  -3 -12    1.51    3.70
  -3   3  12    1.39    2.34
  -3   3  12   -4.00    2.62
  -3  -3 -12   -2.52    2.14
  -3  -3 -12    1.22    2.33
  -3   3  12   -1.36    2.55
  -3   3  12   -1.27    2.71
   3  -3 -12   -3.83    2.11
   3   3  12    7.20    3.17
   3  -3 -12    2.72    3.12
   3   3  12    3.54    2.99
  -3  -2 -12   10.29    2.38
  -3   2  12    4.78    2.45
  -3   2  12    4.67    2.91
  -3  -2 -12    2.23    3.17
  -3  -2 -12    6.64    2.38
  -3   2  12    3.87    2.25
  -3   2  12    4.01    2.37
   3  -2 -12    4.87    2.13
   3   2  12    3.57    3.09
   3   2  12    2.60    2.84
   3  -2 -12    3.94    2.95
   3   2  12    7.85    2.57
  -3   1  12   28.64    4.23
  -3   1  12   34.73    4.28
  -3   1  12   34.08    3.85
  -3  -1 -12   27.90    3.47
  -3  -1 -12   38.81    3.80
  -3   1  12   30.20    3.78
  -3  -1 -12   32.32    4.57
   3  -1 -12   34.13    4.21
   3   1  12   26.93    3.78
   3   1  12   29.61    4.23
   3  -1 -12   28.37    3.67
  -3   0 -12   15.87    3.46
  -3   0  12   13.13    2.66
  -3   0  12    7.94    2.76
  -3   0  12   15.10    3.31
  -3   0 -12    7.64    2.81
  -3   0 -12   13.21    2.13
  -3   0  12   14.31    2.59
   3   0  12   13.85    2.59
   3   0 -12   13.55    2.89
   3   0  12   11.19    3.11
   3   0 -12   11.40    2.68
  -3   1 -12   30.81    3.10
  -3   1 -12   34.27    3.03
  -3  -1  12   30.23    4.26
  -3   1 -12   34.58    3.33
  -3  -1  12   33.77    3.88
  -3  -1  12   33.24    4.04
  -3   1 -12   32.10    4.51
  -3  -1  12   24.86    4.49
   3   1 -12   34.75    3.88
   3   1 -12   29.98    3.71
   3  -1  12   24.58    3.88
   3   1 -12   38.63    4.80
   3   1 -12   27.69    3.97
  -3  -2  12    1.37    2.72
  -3  -2  12    7.76    3.38
  -3   2 -12    6.92    2.10
  -3   2 -12    6.99    1.56
  -3  -2  12    3.52    2.13
  -3   2 -12    5.56    2.47
  -3  -2  12    3.39    2.22
   3   2 -12    3.66    2.66
   3   2 -12    6.25    3.11
   3   2 -12    5.22    2.59
   3  -2  12    3.66    2.63
  -3  -3  12    4.21    2.90
  -3  -3  12   -0.74    2.26
  -3   3 -12    0.01    2.60
  -3  -3  12   -1.04    2.21
   3  -3  12    1.84    5.61
   3   3 -12    0.42    2.85
   3   3 -12   -2.72    2.50
   3   3 -12    2.05    3.60
  -3   4 -12   10.74    2.93
  -3   4 -12   12.97    3.42
  -3  -4  12   19.17    3.90
  -3   4 -12    7.90    3.15
  -3  -4  12   10.16    2.82
  -3  -4  12   18.12    3.19
  -3  -4  12   15.40    4.32
   3   4 -12   16.66    3.70
   3   4 -12   20.32    5.00
   3   4 -12   15.50    3.80
  -3   5 -12    5.70    3.75
  -3   5 -12    2.60    3.22
  -3  -5  12    2.28    2.94
  -3  -5  12    8.10    4.90
  -3  -5  12    7.54    4.45
  -3  -5  12   -1.22    2.57
   3   5 -12   22.41    6.49
   3   5 -12    5.38    3.33
  -3   6 -12    7.58    3.91
  -3   6 -12   25.23    5.27
  -3   6 -12   13.69    4.66
  -3  -6  12   15.53    7.85
  -3  -6  12   19.34    3.73
   3   6 -12   29.65    9.17
   3   6 -12   11.33    4.64
   3   6 -12   11.11    5.31
  -3   7 -12   -8.26    5.25
  -3   7 -12   -2.32    4.27
  -3  -7  12   -2.37    3.93
   3   7 -12   -9.31    6.40
   3   7 -12   -1.06    5.14
  -3   8 -12   -1.88    6.61
  -3   8 -12    5.39    5.76
  -3  -8  12    2.28    5.27
   3   8 -12    2.40    6.12
   3   8 -12   -9.86    7.93
  -3   9 -12   13.59    9.21
  -3   9 -12   16.81    8.38
   3   9 -12    0.16   11.25
  -4   8  12   17.14    9.06
  -4   8  12    5.01    8.71
   4   8  12  -16.23    9.20
   4   8  12   10.40   10.62
  -4   7  12  -11.90    6.12
  -4   7  12    2.18    6.51
   4   7  12    0.53    7.35
   4   7  12    9.87    8.23
  -4   6  12    5.02    4.33
  -4   6  12   -6.65    5.30
  -4  -6 -12   -3.82    4.66
  -4   6  12    4.69    4.57
   4  -6 -12    4.53    4.66
   4   6  12    3.74    8.31
   4   6  12    0.72    6.38
  -4  -5 -12    9.06    5.53
  -4  -5 -12    7.62    4.17
  -4   5  12    7.56    3.64
  -4   5  12   17.16    4.88
  -4  -5 -12   11.93    3.89
  -4   5  12   10.14    4.25
   4   5  12   17.27    6.21
   4  -5 -12   13.01    3.49
   4  -5 -12   11.24    4.44
   4   5  12   13.47    5.33
   4  -5 -12   17.82    5.09
   4   5  12   17.51    4.27
  -4  -4 -12    9.60    3.34
  -4  -4 -12    9.07    3.36
  -4  -4 -12    6.50    4.90
  -4   4  12   12.38    4.11
  -4   4  12   16.05    3.51
  -4   4  12   12.25    3.49
   4   4  12    2.80    3.56
   4  -4 -12    6.64    4.22
   4   4  12   19.72    4.56
   4   4  12   12.10    4.55
   4  -4 -12   18.36    3.16
   4  -4 -12   18.50    3.64
   4  -4 -12   19.36    3.84
  -4   3  12    1.96    2.97
  -4  -3 -12    1.94    2.47
  -4  -3 -12   -1.78    4.17
  -4   3  12    0.39    2.75
  -4  -3 -12   -3.75    2.37
   4  -3 -12    2.84    3.35
   4  -3 -12   -1.04    2.22
   4   3  12    0.98    3.58
   4   3  12    1.11    3.40
   4  -3 -12   -1.42    2.12
  -4   2  12   25.87    3.53
  -4  -2 -12   21.90    3.04
  -4  -2 -12   21.77    3.15
  -4  -2 -12   17.79    4.17
  -4   2  12   19.41    3.54
  -4   2  12   28.00    4.21
   4   2  12   19.52    3.81
   4  -2 -12   24.83    4.05
   4   2  12   17.48    3.35
   4  -2 -12   21.03    3.11
   4  -2 -12   21.36    3.19
  -4   1  12    6.39    2.69
  -4   1  12    0.24    2.02
  -4  -1 -12    3.16    1.98
  -4   1  12   -1.13    2.76
  -4  -1 -12    1.89    3.24
  -4  -1 -12    4.94    2.13
   4  -1 -12    4.08    2.35
   4   1  12    3.47    2.43
   4  -1 -12    2.19    2.62
   4  -1 -12    3.61    1.89
   4   1  12    1.34    2.79
  -4   0 -12   85.89    6.40
  -4   0  12   81.58    5.84
  -4   0  12   80.15    5.96
  -4   0  12   82.07    6.31
  -4   0 -12   81.98    5.01
   4   0  12   83.19    6.34
   4   0 -12   90.88    5.74
   4   0 -12   85.71    4.73
   4   0 -12   87.45    6.12
  -4   1 -12    3.34    1.72
  -4  -1  12    3.75    2.34
  -4  -1  12   10.06    2.86
  -4   1 -12    2.35    2.55
  -4  -1  12   -1.49    2.93
  -4  -1  12    1.04    2.52
   4   1 -12    3.81    2.44
   4   1 -12    3.83    2.51
  -4  -2  12   25.47    4.26
  -4   2 -12   26.70    4.43
  -4  -2  12   26.60    3.43
  -4  -2  12   22.09    3.27
   4   2 -12   21.45    3.94
   4   2 -12   23.13    3.52
   4   2 -12   19.52    3.39
  -4  -3  12    7.19    3.77
  -4  -3  12    3.29    2.63
  -4   3 -12    2.67    2.33
  -4  -3  12    3.07    2.33
   4   3 -12    0.07    4.12
   4   3 -12    1.55    4.29
   4   3 -12    2.06    2.79
   4   3 -12   -0.54    2.83
  -4   4 -12   11.53    3.51
  -4   4 -12   14.11    3.34
  -4   4 -12   12.13    3.58
  -4  -4  12   10.67    4.30
  -4  -4  12   11.77    3.25
  -4  -4  12   13.93    3.42
   4   4 -12   13.79    4.03
   4   4 -12   16.49    3.97
   4   4 -12   11.58    5.62
   4   4 -12   16.17    3.89
  -4  -5  12   17.69    4.82
  -4  -5  12   19.64    3.76
  -4   5 -12   10.91    4.26
  -4  -5  12   20.96    4.19
  -4  -5  12   13.72    5.29
  -4  -5  12   18.20    6.08
  -4   5 -12   11.51    3.80
  -4   5 -12   13.87    3.97
   4   5 -12   14.53    4.36
   4   5 -12   20.65    8.15
   4   5 -12   17.06    4.81
  -4   6 -12    3.98    4.16
  -4  -6  12    0.63    5.31
  -4  -6  12   -1.25    3.84
  -4  -6  12    5.04    5.76
  -4   6 -12    0.69    5.07
  -4   6 -12   -0.52    4.15
   4   6 -12   -2.65    5.35
  -4  -7  12    3.96    4.63
  -4   7 -12    0.39    4.83
  -4  -7  12    4.06    4.73
  -4   7 -12    2.30    5.22
   4   7 -12    6.85    5.40
   4   7 -12    9.09    6.76
  -4   8 -12   -2.86    5.97
  -4  -8  12   15.01    6.06
  -4   8 -12    5.50    6.89
  -4  -8  12   -0.38    5.33
   4   8 -12    6.08    6.93
   4   8 -12    5.94    8.87
  -5   8  12    7.86    8.89
  -5   8  12   13.62    9.16
   5   8  12   22.55   12.12
   5   8  12   26.95   11.67
  -5   7  12   11.45    7.46
  -5   7  12    6.97    6.70
   5   7  12    3.39    8.78
   5   7  12    8.79    8.51
  -5   6  12   -1.36    5.08
  -5   6  12    0.74    4.49
  -5  -6 -12    2.17    6.03
  -5   6  12   -1.01    5.39
   5  -6 -12    1.90    5.61
   5   6  12    3.39    6.88
  -5   5  12   11.73    3.78
  -5   5  12   15.47    4.19
  -5  -5 -12    1.14    4.74
  -5  -5 -12    6.95    5.81
  -5   5  12    7.46    4.89
   5   5  12    7.04    4.65
   5  -5 -12    9.29    4.71
   5  -5 -12    6.22    4.58
   5   5  12   -0.64    5.30
   5   5  12   10.79    6.21
  -5  -4 -12   15.64    3.80
  -5   4  12    6.06    3.91
  -5  -4 -12    7.34    3.88
  -5  -4 -12    6.36    4.92
  -5   4  12   13.43    4.27
  -5   4  12    9.18    3.31
  -5   4  12   11.00    3.65
   5   4  12    5.75    4.84
   5  -4 -12   10.50    3.07
   5  -4 -12    9.83    4.23
   5   4  12    6.59    3.56
   5  -4 -12    7.13    4.46
   5  -4 -12   10.98    3.97
   5   4  12   15.48    4.41
  -5  -3 -12    7.10    4.40
  -5  -3 -12   12.45    3.21
  -5   3  12    4.25    2.75
  -5   3  12    0.95    3.17
  -5   3  12    4.30    3.09
  -5  -3 -12    8.24    3.09
  -5   3  12    4.16    3.39
   5  -3 -12    5.88    2.78
   5   3  12    5.32    4.05
   5  -3 -12    3.44    3.72
   5   3  12    6.95    4.07
   5  -3 -12   -1.76    3.93
   5  -3 -12    7.36    2.82
  -5   2  12   14.79    3.32
  -5  -2 -12   12.30    4.16
  -5   2  12    9.79    3.49
  -5   2  12    7.92    3.10
  -5  -2 -12   12.53    2.84
  -5  -2 -12   12.30    2.96
  -5   2  12    7.21    3.21
   5  -2 -12   14.21    2.76
   5   2  12   15.31    3.70
   5  -2 -12    9.85    3.66
   5  -2 -12    9.74    2.88
  -5   1  12    4.16    2.73
  -5   1  12    2.38    3.07
  -5  -1 -12    5.35    3.18
  -5  -1 -12    5.08    2.18
  -5  -1 -12    0.59    2.23
  -5   1  12    0.42    2.59
   5  -1 -12   -1.14    2.06
   5  -1 -12    1.38    3.10
   5   1  12    1.35    3.04
   5  -1 -12    2.82    2.21
   5   1  12    0.23    2.42
  -5   0  12   21.01    3.58
  -5   0 -12   28.85    4.78
  -5   0  12   25.05    3.78
  -5   0 -12   19.20    3.07
  -5   0 -12   12.11    2.90
   5   0 -12   22.45    3.33
   5   0 -12   21.28    3.66
   5   0 -12   17.54    3.07
   5   0  12   20.50    3.66
  -5  -1  12    3.88    2.69
  -5   1 -12   -4.66    2.84
  -5  -1  12    0.43    2.50
   5   1 -12    2.94    2.70
   5   1 -12   -3.42    2.52
  -5   2 -12   10.11    3.06
  -5  -2  12   14.30    3.29
  -5  -2  12    7.90    2.94
   5   2 -12    9.43    4.10
   5   2 -12   14.01    3.37
   5   2 -12    8.21    2.97
  -5  -3  12    6.78    3.68
  -5   3 -12    5.63    2.70
  -5  -3  12   11.00    3.27
  -5   3 -12    8.28    2.93
   5   3 -12    9.26    3.25
   5   3 -12   15.30    3.58
   5   3 -12   17.36    8.17
   5   3 -12    7.75    3.60
  -5  -4  12    2.25    3.16
  -5  -4  12    9.95    6.38
  -5  -4  12    9.40    5.00
  -5  -4  12   10.16    4.02
  -5   4 -12    6.78    3.60
  -5   4 -12    8.81    2.95
  -5   4 -12    7.35    4.11
   5   4 -12    8.21    4.16
   5   4 -12   26.32    7.72
   5   4 -12   10.21    4.09
  -5  -5  12    7.08    4.43
  -5   5 -12    2.96    3.50
  -5  -5  12   -0.72    5.02
  -5   5 -12   10.13    3.87
  -5  -5  12   14.38    3.97
   5   5 -12    5.04    4.87
   5   5 -12    5.86    4.50
  -5  -6  12   -2.97    4.42
  -5   6 -12    0.63    4.29
  -5  -6  12    1.35    4.44
  -5   6 -12   -3.73    4.08
  -5  -6  12    6.00    6.23
  -5   6 -12    0.56    5.42
   5   6 -12   -7.92    5.55
   5   6 -12    2.47    4.90
  -5   7 -12    2.82    5.47
  -5   7 -12    5.41    5.20
  -5  -7  12    1.52    7.34
  -5  -7  12   16.11    5.71
  -5  -7  12   10.95    5.50
   5   7 -12    9.30    6.46
   5   7 -12   11.31    7.62
  -5  -8  12   11.94    6.60
  -5  -8  12   20.41    7.08
  -5   8 -12    7.35    6.88
  -5   8 -12   15.00    7.35
   5   8 -12   34.41    9.01
   5   8 -12   15.01   10.51
  -6   7  12   12.96    7.95
  -6   7  12   -5.12    7.47
   6   7  12   -5.19    9.45
   6   7  12   -4.82    9.35
  -6   6  12    1.59    5.58
  -6   6  12    4.96    5.14
  -6  -6 -12    7.00    7.57
  -6   6  12    0.54    5.96
   6   6  12    3.55    6.98
   6  -6 -12    3.66    5.99
   6   6  12   -2.57   15.37
  -6  -5 -12    4.05    5.52
  -6   5  12   -5.06    4.85
  -6   5  12    6.35    4.42
  -6   5  12   -3.59    3.87
   6   5  12    5.24    8.55
   6   5  12    7.24    6.22
   6  -5 -12    9.81    5.38
  -6  -4 -12    2.82    5.12
  -6   4  12   -1.19    3.66
  -6  -4 -12   -6.83    3.69
  -6   4  12    6.34    4.24
  -6  -4 -12    4.45    4.30
  -6   4  12    1.78    3.43
   6   4  12   14.77    5.55
   6  -4 -12    5.21    4.08
   6  -4 -12   -2.10    4.52
   6  -4 -12    0.47    4.08
  -6   3  12    2.51    3.54
  -6   3  12   -4.51    3.73
  -6   3  12   -1.90    2.96
  -6  -3 -12   -3.09    3.45
  -6  -3 -12    4.52    5.36
  -6   3  12   -0.97    3.18
  -6  -3 -12    1.73    3.21
   6  -3 -12   -2.06    3.16
   6  -3 -12   11.69    4.71
   6  -3 -12    0.27    3.21
   6   3  12    6.73    4.65
   6  -3 -12   -4.98    3.88
   6   3  12    1.35    3.70
  -6   2  12    0.12    3.28
  -6   2  12    0.99    3.40
  -6  -2 -12    0.45    2.72
  -6   2  12   -1.14    2.86
  -6   2  12    1.70    3.31
  -6  -2 -12    2.97    4.55
  -6  -2 -12    2.90    2.75
   6  -2 -12    1.77    3.66
   6  -2 -12    2.59    2.73
   6   2  12    7.90    3.99
   6  -2 -12    8.15    4.30
   6  -2 -12    3.93    3.11
  -6  -1 -12   -4.04    2.23
  -6  -1 -12   -0.68    3.86
  -6   1  12   -2.15    2.78
  -6   1  12   -2.02    3.08
   6  -1 -12    2.61    4.51
   6   1  12    2.14    3.36
   6  -1 -12   -2.40    2.39
   6   1  12    3.96    3.37
   6  -1 -12    3.59    3.22
   6  -1 -12   -2.70    2.80
  -6   0  12    0.09    2.79
  -6   0 -12   -4.41    3.17
  -6   0  12   -0.28    3.49
  -6   0 -12    0.03    2.11
  -6   0  12   -2.38    4.71
   6   0 -12    4.97    4.75
   6   0 -12   -3.36    2.66
   6   0 -12    0.32    2.73
   6   0  12   -1.71    3.24
   6   0 -12    6.30    2.25
  -6  -1  12    4.65    2.80
  -6  -1  12    4.00    3.24
  -6   1 -12    2.19    3.15
  -6  -1  12    5.18    3.79
   6   1 -12    2.01    2.80
   6   1 -12   -4.79    3.03
   6   1 -12   -0.22    2.09
   6   1 -12    8.33    4.56
  -6  -2  12   -3.35    4.24
  -6   2 -12    0.86    3.05
  -6  -2  12    0.39    2.88
  -6  -2  12    0.87    4.33
  -6  -2  12    2.62    3.64
   6   2 -12    1.06    2.97
   6   2 -12   16.18    5.51
   6   2 -12   -2.97    3.46
  -6   3 -12    2.00    3.33
  -6  -3  12    1.33    3.71
  -6  -3  12    6.80    4.78
  -6  -3  12    7.83    4.95
  -6  -3  12    8.01    5.37
  -6  -3  12    1.59    4.20
   6   3 -12    9.06    6.56
   6   3 -12    3.95    3.43
   6   3 -12    6.28    4.18
   6   3 -12   -1.17    3.59
  -6  -4  12    8.71    5.96
  -6   4 -12   -1.04    3.06
  -6   4 -12    2.12    3.44
  -6  -4  12    0.36    4.56
  -6  -4  12    4.99    4.21
   6   4 -12    6.64    4.31
  -6   5 -12   -1.99    3.78
  -6   5 -12   -0.53    3.75
  -6  -5  12    5.30    4.13
  -6  -5  12    0.46    5.08
  -6   5 -12    9.83    4.87
  -6  -5  12   -8.60    6.46
   6   5 -12    3.71    4.98
   6   5 -12   -1.59    4.88
  -6  -6  12    4.64    5.23
  -6   6 -12    0.52    4.42
  -6  -6  12   -0.26    5.06
  -6   6 -12    0.56    4.87
   6   6 -12    0.45    6.35
   6   6 -12   -5.23    5.83
  -6   7 -12    1.67    6.01
  -6   7 -12    3.71    5.73
  -6  -7  12    4.05    6.21
  -6  -7  12    9.18    6.40
   6   7 -12   -7.61    7.86
   6   7 -12   10.41    7.79
  -7   7  12   -5.57    8.65
   7   7  12   16.97   10.88
   7   7  12   -2.55    9.90
  -7   6  12   -1.48    5.79
  -7   6  12   -9.78    5.31
  -7  -6 -12    1.30    8.45
  -7   6  12   -0.52    6.73
   7  -6 -12   14.06    7.32
   7   6  12    6.29    7.77
   7   6  12   -1.90    8.86
  -7   5  12    1.06    4.97
  -7   5  12   -0.37    4.27
  -7  -5 -12    8.39    6.69
  -7   5  12   13.42    5.67
   7  -5 -12   19.79    6.38
   7   5  12    3.07    6.84
   7   5  12   19.26    7.85
   7  -5 -12   -3.68    6.35
  -7   4  12    4.31    4.52
  -7   4  12   -0.76    4.29
  -7  -4 -12   -3.74    6.24
  -7  -4 -12   -8.94    4.85
  -7   4  12    0.90    3.77
   7  -4 -12    3.11    6.16
   7  -4 -12   14.16    4.84
   7   4  12   10.33    5.20
   7  -4 -12    7.92    4.81
  -7  -3 -12    2.77    5.44
  -7   3  12   11.09    3.78
  -7  -3 -12    5.96    3.97
  -7   3  12    4.01    4.05
  -7   3  12    4.14    4.34
  -7  -3 -12    1.40    4.19
   7  -3 -12    3.94    4.24
   7  -3 -12    4.76    5.34
   7   3  12    7.78    4.39
   7   3  12   11.00    5.33
   7  -3 -12    6.73    4.04
  -7  -2 -12   12.03    3.66
  -7   2  12    9.36    4.08
  -7  -2 -12   10.30    6.60
  -7   2  12   14.16    3.96
  -7  -2 -12    8.44    3.41
   7  -2 -12    5.18    3.92
   7  -2 -12    9.58    5.21
   7  -2 -12   20.01    4.56
   7   2  12    8.41    3.78
   7  -2 -12    7.90    5.63
   7   2  12   13.10    4.37
  -7  -1 -12   13.86    2.79
  -7  -1 -12    9.74    4.62
  -7   1  12    0.09    3.24
  -7   1  12    8.69    4.35
  -7   1  12    7.77    3.63
  -7  -1 -12    9.97    3.16
   7  -1 -12    2.41    3.61
   7  -1 -12   15.62    3.82
   7  -1 -12    6.47    5.20
  -7   0  12   13.40    4.56
  -7   0  12   13.45    4.19
  -7   0 -12   15.74    4.30
  -7   0  12    9.28    4.98
  -7   0 -12   11.85    2.92
  -7   0  12   14.02    3.84
   7   0 -12   17.59    3.70
   7   0 -12   22.62    4.35
   7   0 -12   12.31    5.57
   7   0 -12   12.42    3.40
  -7  -1  12   10.50    3.47
  -7  -1  12    5.51    4.82
  -7  -1  12   -0.12    3.70
  -7  -1  12    5.39    4.85
  -7   1 -12    5.79    3.89
   7   1 -12   11.31    3.54
   7   1 -12    6.53    3.90
   7   1 -12    7.56    2.96
   7   1 -12   13.45    6.71
  -7  -2  12   13.10    3.78
  -7  -2  12   16.99    6.08
  -7  -2  12   17.38    7.54
  -7  -2  12   11.26    4.67
  -7  -2  12   14.24    5.07
  -7   2 -12    6.79    3.62
   7   2 -12    7.23    4.13
   7   2 -12   14.39    7.51
   7   2 -12   13.19    3.48
  -7  -3  12    9.76    7.38
  -7   3 -12   -0.42    3.56
  -7  -3  12    6.89    4.60
  -7  -3  12    7.45    3.64
   7   3 -12    3.35    4.37
  -7  -4  12    4.51    5.46
  -7   4 -12    5.26    4.07
  -7   4 -12    1.13    3.92
  -7  -4  12    6.62    4.18
   7   4 -12    1.52    4.73
   7   4 -12    3.69    4.89
  -7  -5  12    9.47    5.92
  -7   5 -12    3.85    4.26
  -7  -5  12   11.37    5.09
  -7   5 -12    2.05    4.22
   7   5 -12    5.02    5.59
   7   5 -12   -0.81    5.85
  -7  -6  12   -7.70    5.55
  -7   6 -12    8.73    5.39
  -7   6 -12    8.76    5.16
  -7  -6  12   18.42    6.76
   7   6 -12    5.52    6.96
   7   6 -12   -1.28    6.98
  -7   7 -12    7.35    6.69
  -7   7 -12   -1.25    6.47
  -7  -7  12    7.31    7.19
  -7  -7  12    4.19    7.13
   7   7 -12    8.70    9.17
   7   7 -12   12.16    9.06
  -8   6  12   -2.26    8.69
  -8   6  12    9.01    6.99
   8   6  12   -0.13   10.35
   8   6  12    3.41    8.28
  -8   5  12   14.20    6.09
  -8   5  12   19.11    6.36
   8  -5 -12   -2.02    7.86
   8  -5 -12   28.43    8.23
   8   5  12   11.79    8.84
  -8   4  12   -4.66    4.59
  -8   4  12    3.65    4.99
  -8   4  12    6.79    5.09
  -8  -4 -12   -8.27    6.12
   8  -4 -12    8.88    5.92
   8  -4 -12   -9.68    6.67
   8   4  12   -7.26    6.47
  -8   3  12   -5.14    4.64
  -8  -3 -12    2.79    5.71
  -8   3  12    6.59    4.61
  -8  -3 -12    3.64    5.15
   8  -3 -12   11.58    4.79
   8  -3 -12    9.93    6.24
   8  -3 -12    8.52    4.59
   8   3  12   -2.21    5.32
  -8   2  12   -3.65    3.92
  -8  -2 -12   -2.40    3.74
  -8  -2 -12   -3.63    5.21
  -8   2  12    4.48    4.27
   8   2  12   -1.08    4.78
   8   2  12    2.29    4.30
   8  -2 -12   -3.74    4.41
   8  -2 -12   15.34    6.57
   8  -2 -12   -0.49    3.92
  -8  -1 -12    0.94    3.85
  -8  -1 -12    0.13    4.87
  -8   1  12   -1.62    4.36
  -8   1  12    1.17    3.91
   8  -1 -12    1.48    4.19
   8  -1 -12    1.82    3.55
   8  -1 -12    7.22    6.54
  -8   0  12    8.26    4.38
  -8   0 -12    8.37    4.56
  -8   0  12    4.20    3.78
   8   0 -12   14.27    7.25
   8   0 -12    2.53    3.42
   8   0 -12    1.66    4.00
  -8  -1  12    1.86    4.43
  -8  -1  12    6.02    3.88
  -8   1 -12    9.94    4.37
   8   1 -12   -1.16    2.89
   8   1 -12    1.08    3.47
  -8  -2  12   -1.71    4.48
  -8  -2  12    1.23    3.96
  -8   2 -12   -0.67    3.93
   8   2 -12    4.49    3.25
   8   2 -12    1.64    3.84
  -8  -3  12    5.05    4.42
  -8  -3  12    2.66    5.66
  -8   3 -12    4.72    4.28
  -8   3 -12    0.82    4.30
   8   3 -12    9.80    4.44
  -8   4 -12   -3.43    5.18
  -8   4 -12    1.72    4.73
  -8  -4  12    7.98    6.03
  -8  -4  12    2.85    5.16
   8   4 -12   -8.29    5.18
   8   4 -12    0.50    5.01
  -8   5 -12   13.68    5.45
  -8  -5  12   19.01    5.46
  -8  -5  12   18.09    7.31
   8   5 -12   11.80    7.16
   8   5 -12    7.63    6.35
  -8  -6  12   19.78    8.42
  -8  -6  12   -7.68    6.55
  -8   6 -12    4.21    5.67
  -8   6 -12    1.15    5.99
   8   6 -12  -11.93    7.70
   8   6 -12    7.14    7.96
  -9   5  12   13.29    7.07
   9  -5 -12    3.84    9.78
  -9   4  12    8.90    5.96
  -9   4  12   15.82    5.96
   9  -4 -12   10.00    7.25
  -9   3  12    5.86    5.13
  -9   3  12   -2.85    5.02
   9  -3 -12    4.07   12.91
   9  -3 -12   -1.76    5.54
  -9   2  12    3.56    5.44
  -9  -2 -12    6.07    6.37
  -9  -2 -12    3.40    5.93
  -9   2  12    8.60    5.04
   9   2  12   -7.76    5.36
   9  -2 -12    1.54    5.28
  -9   1  12   -1.92    4.83
  -9   1  12   -0.52    4.45
  -9  -1 -12    3.83    5.04
   9  -1 -12    7.39    4.58
   9   1  12   -6.49    5.28
   9  -1 -12   -5.08    4.96
  -9   0 -12   11.47    5.87
  -9   0  12   -4.48    4.07
  -9   0  12    7.37    5.34
   9   0 -12    1.04    4.21
  -9  -1  12    1.59    5.35
  -9   1 -12    6.29    5.52
  -9  -1  12    4.47    4.43
   9   1 -12   10.43    4.29
   9   1 -12    3.31    3.77
  -9  -2  12    0.66    4.95
  -9  -2  12   13.38    6.34
  -9   2 -12    6.88    5.14
   9   2 -12   13.04    4.79
   9   2 -12    4.70    4.16
  -9  -3  12    1.88    5.11
  -9  -3  12   10.41    7.01
  -9   3 -12   -6.05    4.92
   9   3 -12    2.82    4.87
   9   3 -12   -4.60    3.70
  -9   4 -12   -0.34    5.33
  -9  -4  12   -5.08    5.81
  -9  -4  12   10.28    7.74
   9   4 -12    6.41    5.82
  -9  -5  12   23.81    6.71
  -9  -5  12   24.06    8.90
  -9   5 -12   -2.24    6.12
   9   5 -12   12.40    7.32
 -10   3  12   -1.27    6.04
 -10   3  12   -1.90    9.18
  10  -3 -12  -11.43    6.71
 -10   2  12    5.73    6.10
 -10   2  12   -2.97    5.52
  10  -2 -12   -7.05    6.18
 -10  -1 -12   -3.97    6.79
 -10   1  12   -5.67    5.08
 -10   1  12   -9.87    6.37
  10  -1 -12   -2.17    5.11
 -10   0 -12   -6.71    7.51
 -10   0  12    4.32    5.19
 -10   0  12    6.28    6.68
  10   0 -12   12.63    5.26
 -10   1 -12    7.79    6.57
 -10  -1  12   10.73    6.86
 -10  -1  12   -4.89    5.33
  10   1 -12    4.10    4.98
 -10  -2  12    3.79    6.05
 -10   2 -12    0.71    6.17
 -10  -2  12    8.88    7.69
  10   2 -12    2.79    4.72
 -10   3 -12   17.22   11.60
 -10  -3  12   -4.27    8.96
 -10  -3  12    0.36    6.16
  10   3 -12    0.12    5.22
   0   8  13   -1.02    9.01
   0   8  13  -10.85    8.80
   0   7  13    9.32    7.39
   0   7  13    3.95    6.42
   0   6  13   -4.68    5.76
   0  -6 -13    9.80    4.12
   0  -6 -13    3.90    5.68
   0   6  13    6.08    5.39
   0   5  13   -0.93    3.64
   0  -5 -13    1.47    3.12
   0   5  13    0.86    4.51
   0   5  13    6.29    3.37
   0  -5 -13   -1.66    3.45
   0   5  13   -3.51    4.19
   0   4  13   -2.51    2.78
   0   4  13   -0.57    2.50
   0   4  13    1.38    3.51
   0   4  13    3.33    3.77
   0  -4 -13   -0.95    2.82
   0  -3 -13    0.58    3.44
   0  -3 -13   -2.03    2.42
   0   3  13   -3.12    2.75
   0   3  13    1.93    2.69
   0  -3 -13   -0.83    2.52
   0   3  13   -0.45    2.33
   0   3  13   -0.25    2.67
   0   2  13   34.93    4.61
   0   2  13   43.85    4.78
   0  -2 -13   42.17    4.19
   0  -2 -13   30.19    5.02
   0   2  13   39.20    5.37
   0   1  13   -3.05    2.49
   0   1  13   -1.39    2.04
   0   1  13    0.82    4.19
   0   1  13   -0.30    2.19
   0  -1 -13    0.82    2.25
   0  -1 -13   -2.37    2.00
   0  -1 -13    3.36    1.85
   0   0  13    3.22    2.54
   0   0 -13   -0.46    2.26
   0   0 -13   -0.97    1.72
   0   0 -13   -2.30    1.98
   0   0  13    6.24    2.60
   0   0  13   -0.07    2.09
   0   1 -13    1.14    1.86
   0   1 -13   -0.93    2.12
   0  -1  13   -0.93    1.89
   0  -1  13    0.79    2.11
   0  -1  13   -1.17    2.68
   0   1 -13   -3.12    2.14
   0   1 -13    1.49    2.13
   0  -2  13   34.44    4.43
   0   2 -13   35.52    3.97
   0   2 -13   39.28    3.98
   0  -2  13   37.18    4.20
   0   2 -13   25.87    4.17
   0   2 -13   32.42    4.52
   0  -3  13   -4.28    1.96
   0   3 -13    0.40    3.11
   0   3 -13   -0.49    2.46
   0  -3  13   -4.15    3.40
   0   3 -13    2.75    2.42
   0   3 -13    2.18    2.50
   0   4 -13   -2.30    3.87
   0   4 -13    2.81    3.13
   0   4 -13    1.02    2.48
   0   4 -13   -2.68    3.32
   0  -4  13   -3.02    2.09
   0  -5  13    2.00    2.54
   0   5 -13    3.64    3.46
   0  -5  13   -5.47    4.07
   0   5 -13   -1.63    3.53
   0   5 -13    9.40    4.88
   0  -5  13    6.59    5.02
   0  -6  13    6.43    2.79
   0   6 -13    1.24    4.92
   0   6 -13    5.58    3.76
   0   6 -13   12.60    6.82
   0  -6  13   -5.25    6.00
   0   7 -13   -5.29    5.46
   0   7 -13    8.66    9.80
   0   7 -13    8.49    5.17
   0   8 -13   -1.69    6.02
   0   8 -13    2.32    7.56
   0   9 -13  -15.10    9.26
  -1   8  13   16.43    8.68
   1   8  13    8.63    9.17
  -1   7  13    3.15    6.29
  -1   7  13    7.97    6.92
   1   7  13   10.68    7.35
   1   7  13    8.13    7.74
  -1  -6 -13    2.63    4.56
  -1   6  13   -8.76    4.99
  -1   6  13   -4.27    4.80
  -1  -6 -13   -7.21    4.93
  -1   6  13   -2.83    4.95
   1  -6 -13    4.21    4.28
   1   6  13   18.34    6.47
   1   6  13    8.34    3.78
   1   6  13    0.38    5.41
   1  -6 -13   -1.06    5.04
  -1  -5 -13   90.33    7.30
  -1   5  13   96.85    7.60
  -1  -5 -13   71.93    7.37
  -1  -5 -13   90.34    9.47
  -1   5  13   91.93    8.97
   1   5  13   82.49    9.93
   1  -5 -13   88.57    9.33
   1  -5 -13   99.41    7.46
   1   5  13   97.57    6.29
   1   5  13   97.06    7.60
   1  -5 -13   95.78    7.62
  -1  -4 -13    7.18    4.55
  -1  -4 -13   12.32    3.21
  -1   4  13    3.19    3.66
  -1   4  13    3.23    3.02
  -1  -4 -13    8.55    2.91
  -1   4  13    9.60    2.96
   1   4  13    5.32    3.82
   1   4  13    1.51    4.09
   1  -4 -13    7.76    2.98
   1   4  13    5.34    2.65
   1  -4 -13    0.94    5.41
  -1  -3 -13   -3.27    3.54
  -1   3  13    0.95    2.46
  -1  -3 -13    4.15    2.27
  -1  -3 -13    3.16    2.51
  -1   3  13    1.12    2.94
  -1   3  13    4.19    2.61
  -1   3  13    2.86    3.21
   1   3  13    4.26    3.50
   1  -3 -13    0.56    2.16
   1   3  13   -0.06    2.12
   1  -3 -13   -1.91    3.58
   1   3  13    3.43    3.18
  -1   2  13    7.07    2.81
  -1   2  13    4.22    3.06
  -1  -2 -13    7.05    2.33
  -1  -2 -13    7.36    2.39
  -1   2  13    3.99    2.58
  -1  -2 -13    7.07    3.54
  -1   2  13    3.85    2.37
   1  -2 -13    6.92    2.55
   1   2  13    5.34    2.41
   1   2  13    5.53    3.15
   1  -2 -13    9.94    3.49
   1  -2 -13    5.96    2.37
   1   2  13    2.71    2.82
  -1  -1 -13   11.42    3.23
  -1   1  13    9.70    2.80
  -1   1  13   16.01    3.03
  -1   1  13   12.00    2.83
  -1  -1 -13    9.33    2.50
  -1   1  13   13.32    2.93
  -1  -1 -13   10.36    2.30
   1  -1 -13    9.60    2.62
   1  -1 -13   10.42    2.59
   1  -1 -13   12.30    2.95
   1   1  13   11.48    2.98
   1   1  13    9.69    2.64
   1   1  13   13.04    2.87
  -1   0  13    1.35    2.03
  -1   0 -13    1.09    1.77
  -1   0  13    1.65    2.40
  -1   0  13   -1.49    2.28
  -1   0  13    0.97    2.49
  -1   0 -13    1.54    2.37
  -1   0 -13   -0.52    1.92
   1   0  13    0.36    2.48
   1   0 -13   -2.23    2.10
   1   0  13   -0.08    2.28
   1   0 -13   -0.61    2.23
   1   0 -13   -1.14    1.84
  -1   1 -13    9.82    2.48
  -1   1 -13    8.65    2.10
  -1   1 -13   11.75    2.68
  -1   1 -13   10.14    2.71
  -1  -1  13    9.37    3.07
  -1  -1  13   15.83    2.61
  -1  -1  13   11.26    2.79
  -1  -1  13   11.03    2.43
   1   1 -13   10.90    2.66
   1   1 -13   13.00    2.93
   1  -1  13   12.08    3.06
   1   1 -13    9.47    2.28
   1   1 -13    7.93    2.58
   1  -1  13    9.64    2.44
  -1  -2  13   12.77    3.50
  -1   2 -13    5.80    2.38
  -1   2 -13    2.96    2.32
  -1  -2  13    6.54    2.34
  -1   2 -13    7.78    2.53
  -1  -2  13    4.95    2.54
  -1   2 -13    8.65    2.18
  -1  -2  13    6.77    2.10
   1   2 -13    7.77    2.95
   1  -2  13   10.10    2.35
   1  -2  13    0.69    2.98
   1   2 -13    4.43    2.49
   1   2 -13    8.40    2.32
   1   2 -13    6.12    2.58
  -1   3 -13    0.44    2.04
  -1   3 -13    0.84    2.72
  -1   3 -13   -0.39    2.46
  -1   3 -13    4.48    2.42
  -1  -3  13    0.94    2.13
   1   3 -13   -1.23    2.54
   1   3 -13    3.34    3.26
   1  -3  13    0.70    2.15
   1   3 -13    2.63    2.80
   1  -3  13   -1.99    3.23
   1   3 -13   -2.75    2.35
  -1   4 -13    4.33    3.42
  -1   4 -13   10.79    2.68
  -1   4 -13   10.84    3.66
  -1  -4  13    9.40    2.55
  -1   4 -13    9.36    2.98
   1  -4  13    8.03    4.30
   1  -4  13    5.89    2.95
   1   4 -13    5.27    3.62
   1   4 -13    0.34    4.20
   1   4 -13   10.05    3.34
   1   4 -13    8.43    2.80
   1  -4  13    5.91    2.52
  -1   5 -13   91.22    8.08
  -1  -5  13   92.62    8.15
  -1  -5  13   95.81    9.30
  -1   5 -13   87.06    8.58
  -1  -5  13   84.49    6.49
   1   5 -13   88.74    8.15
   1   5 -13   89.06    7.39
   1   5 -13  108.75   10.39
   1  -5  13   84.91    8.78
   1  -5  13   94.59    6.04
  -1  -6  13   -0.56    8.17
  -1  -6  13    0.77    5.22
  -1   6 -13    0.95    6.12
  -1   6 -13    8.15    4.81
  -1  -6  13    6.04    3.10
  -1   6 -13    1.27    4.07
   1   6 -13    5.00    4.57
   1   6 -13    4.35    4.73
  -1   7 -13    2.81    5.01
  -1  -7  13    5.68    3.56
  -1   7 -13   -5.00    5.36
  -1   7 -13    8.05    8.90
   1   7 -13    1.33    6.04
   1   7 -13    4.73    5.23
   1   7 -13   19.79   10.82
  -1   8 -13   -3.33   12.56
  -1   8 -13   -8.64    6.94
   1   8 -13    1.68    6.67
   1   8 -13   -0.46    7.27
  -2   8  13    5.83    8.18
  -2   8  13   -7.53   13.59
   2   8  13   16.75   10.63
   2   8  13   -0.25    8.42
  -2   7  13   -0.38    6.32
  -2   7  13  -11.13    7.29
   2   7  13   -4.14    7.10
  -2  -6 -13    1.44    4.70
  -2   6  13    2.86    4.81
  -2   6  13    9.90    5.23
  -2  -6 -13    9.26    6.04
  -2   6  13    9.81    5.91
  -2   6  13    9.45    5.22
   2   6  13    8.47    6.12
   2  -6 -13    6.04    5.52
   2   6  13   18.06    6.26
   2   6  13   10.12    3.65
  -2  -5 -13   16.80    4.14
  -2   5  13   10.92    3.80
  -2  -5 -13    9.93    5.11
  -2   5  13   12.66    4.27
  -2  -5 -13   10.59    3.70
  -2   5  13    8.38    4.19
  -2   5  13    2.53    4.94
   2   5  13    1.90    3.68
   2  -5 -13    7.35    3.90
   2  -5 -13    2.46    3.40
   2   5  13    5.62    4.92
   2   5  13   16.22    5.08
   2  -5 -13    7.93    4.91
  -2   4  13    1.86    3.24
  -2  -4 -13   -4.28    4.05
  -2  -4 -13   -1.35    3.07
  -2  -4 -13   -3.59    2.64
  -2   4  13    0.11    3.59
  -2   4  13    3.06    3.00
   2   4  13   -2.37    2.35
   2  -4 -13   -1.41    2.66
   2   4  13    3.69    4.12
   2  -4 -13   -1.22    3.15
   2  -4 -13   -4.07    4.01
   2   4  13    3.52    3.95
  -2  -3 -13    0.46    2.59
  -2   3  13   -1.48    2.55
  -2   3  13   -2.38    3.17
  -2   3  13   -2.31    2.66
  -2  -3 -13   -0.82    2.33
  -2   3  13   -0.72    2.55
  -2  -3 -13   -1.83    3.78
   2  -3 -13    2.12    3.69
   2   3  13   -0.50    3.05
   2   3  13   -2.56    3.33
  -2  -2 -13    8.58    3.39
  -2  -2 -13    9.84    2.48
  -2   2  13   12.39    2.95
  -2   2  13   12.31    3.24
  -2  -2 -13    9.25    2.49
  -2   2  13   13.66    3.11
  -2   2  13    9.56    2.76
   2   2  13   11.23    2.52
   2  -2 -13    8.94    2.33
   2   2  13    9.76    2.94
   2   2  13    3.13    3.17
   2  -2 -13    5.76    3.47
  -2   1  13   28.51    4.52
  -2   1  13   33.65    4.73
  -2   1  13   31.56    4.09
  -2  -1 -13   34.18    3.81
  -2   1  13   27.65    4.11
  -2  -1 -13   32.41    3.89
  -2  -1 -13   28.68    4.85
   2   1  13   30.26    4.13
   2   1  13   30.58    4.51
   2  -1 -13   30.93    3.87
   2  -1 -13   31.88    5.92
   2  -1 -13   36.88    4.61
   2   1  13   37.03    6.35
  -2   0 -13   -0.77    2.55
  -2   0  13    0.96    2.42
  -2   0 -13    2.25    2.11
  -2   0  13   -1.00    2.51
  -2   0  13    0.28    2.72
  -2   0  13   -1.29    2.00
  -2   0 -13    0.00    1.66
   2   0 -13    4.20    2.62
   2   0  13   -0.72    2.36
   2   0  13    3.52    2.35
   2   0 -13   -0.35    2.70
   2   0 -13    2.01    2.46
   2   0  13    5.04    2.37
  -2  -1  13   29.64    3.83
  -2   1 -13   34.61    3.26
  -2   1 -13   27.30    3.28
  -2   1 -13   30.30    3.99
  -2  -1  13   33.46    4.28
  -2  -1  13   28.84    5.23
  -2  -1  13   30.77    4.59
  -2   1 -13   36.60    4.64
   2   1 -13   32.92    4.07
   2  -1  13   23.08    4.14
   2   1 -13   27.10    3.73
   2   1 -13   37.85    4.38
   2   1 -13   34.54    4.72
   2  -1  13   29.44    4.09
  -2  -2  13   10.21    2.74
  -2   2 -13    7.90    2.99
  -2   2 -13   10.67    2.86
  -2   2 -13   11.74    2.64
  -2  -2  13   11.61    3.74
  -2   2 -13   11.07    2.19
  -2  -2  13   14.81    2.62
   2  -2  13    5.15    2.58
   2   2 -13    7.56    2.92
   2   2 -13   10.42    2.61
   2   2 -13   11.44    3.18
   2   2 -13   10.21    3.56
  -2  -3  13   -2.19    2.84
  -2   3 -13    0.65    2.94
  -2   3 -13   -1.94    2.65
  -2   3 -13    0.54    2.61
  -2  -3  13    2.20    2.16
  -2  -3  13    1.98    2.41
   2   3 -13   -6.42    3.50
   2   3 -13    0.36    2.63
   2   3 -13   -4.04    2.79
   2   3 -13   -0.74    2.47
   2  -3  13   -2.14    3.32
  -2   4 -13   -0.03    2.88
  -2  -4  13   -6.47    4.36
  -2  -4  13    0.76    2.49
  -2  -4  13   -0.52    2.29
  -2  -4  13    1.23    3.51
  -2   4 -13    2.45    3.15
   2   4 -13   -1.12    3.84
   2   4 -13   -1.82    2.98
   2  -4  13    7.26    3.94
   2   4 -13   -3.83    4.07
   2   4 -13    0.42    3.36
  -2  -5  13   12.19    3.09
  -2  -5  13    6.22    4.78
  -2  -5  13   15.77    5.74
  -2   5 -13   14.91    4.19
  -2   5 -13   16.99    4.39
  -2   5 -13    9.91    3.67
   2   5 -13   12.07    6.35
   2   5 -13   13.58    4.23
   2   5 -13   11.40    4.23
  -2   6 -13    9.40    4.09
  -2  -6  13    5.48    3.57
  -2  -6  13   23.90   10.18
  -2   6 -13    2.03    5.09
   2   6 -13   -0.47    5.22
   2   6 -13   10.62    4.83
  -2  -7  13    3.54    4.04
  -2   7 -13    1.70    6.03
  -2   7 -13   -2.98    4.77
   2   7 -13    3.99    6.35
   2   7 -13   -1.47    5.39
  -2   8 -13    0.24   11.92
  -2   8 -13    2.08    6.17
  -2   8 -13    0.12    7.29
   2   8 -13    6.18    8.52
   2   8 -13    6.48    6.91
  -3   8  13    2.21    8.84
  -3   8  13   -3.93    9.32
   3   8  13    4.41    9.81
   3   8  13   -6.55    7.18
   3   8  13    4.85   11.53
  -3   7  13   36.90    7.27
  -3   7  13    9.61    7.27
   3   7  13   19.05    8.60
   3   7  13   20.26    8.48
  -3   6  13   -5.85    5.15
  -3   6  13   10.61    9.87
  -3  -6 -13    4.81    4.94
  -3  -6 -13   -2.29    6.18
  -3   6  13    2.07    4.89
  -3   6  13    1.21    4.55
   3   6  13   -7.92    6.14
   3   6  13    8.92    6.34
  -3   5  13    2.07    4.55
  -3   5  13   -1.77    3.89
  -3   5  13   12.11    4.83
  -3   5  13    0.79    3.72
  -3  -5 -13   -3.74    3.70
  -3  -5 -13   -5.72    4.96
  -3  -5 -13    1.78    3.81
   3  -5 -13   -1.77    3.84
   3   5  13   -6.38    5.02
   3  -5 -13    4.50    3.53
   3  -5 -13    2.09    4.88
   3   5  13   -5.42    4.98
  -3   4  13    6.39    3.72
  -3   4  13   -0.29    4.60
  -3  -4 -13   -0.48    3.06
  -3   4  13    5.88    3.40
  -3  -4 -13    0.36    4.93
  -3  -4 -13    3.88    3.03
  -3   4  13    7.10    3.60
   3  -4 -13    2.80    3.05
   3   4  13    4.27    4.50
   3  -4 -13   -3.25    4.14
   3   4  13    7.55    4.45
   3  -4 -13   -4.38    3.25
  -3  -3 -13    6.88    2.85
  -3   3  13    3.07    3.50
  -3  -3 -13    1.63    3.38
  -3   3  13    5.74    2.96
   3  -3 -13    5.47    2.68
   3   3  13   12.42    4.07
   3   3  13    6.41    3.71
   3  -3 -13    9.70    3.53
   3   3  13    5.90    2.98
   3  -3 -13    8.07    4.09
  -3  -2 -13   33.76    4.11
  -3  -2 -13   31.92    4.20
  -3  -2 -13   26.19    4.76
  -3   2  13   37.28    4.81
  -3   2  13   30.62    5.08
  -3   2  13   28.96    4.35
   3   2  13   28.75    4.41
   3  -2 -13   26.54    3.56
   3  -2 -13   27.64    4.55
  -3   1  13    0.69    2.89
  -3   1  13    2.58    2.91
  -3  -1 -13   -0.28    1.93
  -3  -1 -13   -0.83    2.99
  -3   1  13   -1.77    2.16
  -3  -1 -13   -2.58    1.90
  -3   1  13    2.19    2.70
   3   1  13   -0.58    2.85
   3   1  13   -0.77    3.62
   3  -1 -13   -4.02    2.04
   3  -1 -13    1.61    2.72
  -3   0 -13   -0.60    1.72
  -3   0  13   -0.26    2.61
  -3   0  13    0.77    2.67
  -3   0 -13    1.56    2.15
  -3   0  13    0.97    2.23
  -3   0 -13    4.94    2.92
   3   0 -13   -1.59    2.31
   3   0  13    1.62    2.78
   3   0  13   -1.96    2.27
   3   0 -13    1.20    1.56
   3   0 -13    2.75    2.87
  -3  -1  13    2.60    3.58
  -3  -1  13    6.31    2.79
  -3   1 -13    0.92    2.85
  -3  -1  13   -0.84    2.13
  -3   1 -13    1.78    2.03
  -3  -1  13    0.81    2.27
  -3   1 -13   -0.34    2.11
  -3   1 -13   -0.41    1.65
   3   1 -13    6.41    3.14
   3  -1  13    0.33    2.48
   3  -1  13    2.76    2.54
   3   1 -13   -1.24    2.25
   3   1 -13    2.20    2.41
   3   1 -13   -2.62    2.79
  -3   2 -13   38.03    4.98
  -3   2 -13   30.00    3.54
  -3  -2  13   25.12    4.28
  -3  -2  13   32.95    5.59
  -3   2 -13   29.07    3.57
  -3  -2  13   29.38    3.87
  -3   2 -13   19.88    3.06
   3  -2  13   27.94    4.38
   3   2 -13   27.70    4.09
   3   2 -13   29.93    4.91
   3   2 -13   24.03    4.42
   3   2 -13   41.50    4.95
  -3   3 -13    6.53    2.89
  -3  -3  13    6.85    2.60
  -3   3 -13    1.89    2.99
  -3  -3  13    5.09    3.28
  -3  -3  13    3.94    2.48
  -3  -3  13    7.25    4.07
   3   3 -13    7.46    3.34
   3   3 -13   -4.46    4.17
   3  -3  13    8.48    3.30
   3   3 -13    7.81    3.32
  -3  -4  13    5.49    2.83
  -3  -4  13    3.03    3.72
  -3   4 -13    6.63    3.40
  -3  -4  13   10.66    4.23
  -3   4 -13    2.73    3.32
  -3  -4  13    5.06    3.03
  -3  -4  13    2.97    4.35
  -3   4 -13    9.60    3.48
   3   4 -13    6.11    5.23
   3   4 -13    3.86    3.70
   3   4 -13    4.46    3.62
   3   4 -13    3.93    3.39
  -3  -5  13    1.38    6.06
  -3   5 -13    1.16    3.63
  -3  -5  13   -1.32    5.04
  -3   5 -13   -3.09    3.88
  -3   5 -13    0.03    3.51
  -3  -5  13   -1.99    2.93
  -3  -5  13    2.56    3.28
  -3  -5  13   -5.91    3.74
   3   5 -13   17.17    7.02
   3   5 -13    9.32    4.14
   3   5 -13    6.55    4.56
  -3   6 -13    3.57    4.65
  -3   6 -13    2.35    5.29
  -3  -6  13    5.92    3.90
  -3   6 -13    4.84    4.11
   3   6 -13    1.13    4.46
   3   6 -13   -7.11    4.98
  -3   7 -13   23.00    6.56
  -3  -7  13   31.15    5.02
  -3   7 -13   21.43    5.83
   3   7 -13   29.26    6.97
   3   7 -13   25.24    7.46
  -3   8 -13    0.88    7.22
  -3  -8  13    3.68    6.33
   3   8 -13    5.40    7.22
   3   8 -13   -8.23    8.24
  -4   8  13   13.88    9.85
  -4   8  13   -4.04    9.61
   4   8  13   13.76   11.12
   4   8  13    8.53   12.13
  -4   7  13    5.46    6.83
   4   7  13    7.76    8.86
   4   7  13   -5.29    8.28
  -4   6  13    0.60    5.63
  -4  -6 -13    8.57    5.95
   4   6  13    8.89    7.12
   4   6  13   12.95    7.32
  -4   5  13   -6.50    4.12
  -4   5  13   10.44    5.34
  -4   5  13   -0.73    4.42
  -4   5  13   -0.89    4.81
  -4  -5 -13   -3.44    4.14
  -4  -5 -13   -4.85    5.59
   4   5  13    4.76    5.90
   4  -5 -13    3.76    4.82
   4  -5 -13   -5.86    4.41
   4   5  13   -1.78    5.21
  -4   4  13    0.40    3.40
  -4   4  13    9.11    4.01
  -4  -4 -13    5.22    3.42
  -4  -4 -13    2.04    5.11
  -4   4  13    4.05    4.24
  -4   4  13    7.27    3.73
   4  -4 -13   -1.81    4.59
   4  -4 -13    7.15    3.24
   4  -4 -13   15.86    4.21
   4   4  13    9.35    4.89
   4   4  13    3.16    4.18
   4   4  13    1.14    3.72
  -4  -3 -13    3.51    4.76
  -4  -3 -13    2.97    2.84
  -4   3  13    2.45    3.45
  -4   3  13    5.35    3.09
  -4   3  13    4.65    2.90
  -4  -3 -13    2.56    2.89
   4   3  13   -2.96    3.85
   4  -3 -13    1.94    3.83
   4  -3 -13   -1.15    3.45
   4   3  13    5.74    3.29
   4  -3 -13   -0.75    2.73
  -4  -2 -13   -3.51    2.43
  -4   2  13    3.62    3.76
  -4   2  13   -2.15    3.64
  -4   2  13   -1.55    2.92
  -4  -2 -13   -6.93    3.77
  -4  -2 -13   -1.99    2.36
  -4   2  13   -2.72    3.26
   4  -2 -13   -2.02    2.52
   4  -2 -13   -1.46    3.16
   4  -2 -13   -2.32    3.21
   4   2  13    1.68    3.56
  -4   1  13    9.24    3.56
  -4  -1 -13   14.08    2.84
  -4   1  13   13.38    3.17
  -4  -1 -13   11.28    2.42
  -4   1  13   10.47    3.53
  -4  -1 -13   12.72    3.91
   4   1  13    6.00    3.30
   4  -1 -13   12.17    2.31
   4  -1 -13    5.25    2.79
   4  -1 -13   15.18    3.53
  -4   0 -13    2.41    1.82
  -4   0  13    0.43    2.73
  -4   0  13    1.90    2.37
  -4   0 -13   -1.84    2.02
  -4   0 -13   -1.94    2.98
   4   0 -13   -1.49    2.83
   4   0 -13   -2.70    1.99
   4   0  13   -1.96    2.73
   4   0 -13    0.81    2.42
  -4  -1  13   14.39    3.13
  -4  -1  13   10.25    2.98
  -4   1 -13   10.54    3.11
  -4  -1  13   12.24    3.68
   4   1 -13   11.80    3.19
   4   1 -13   13.01    3.21
  -4   2 -13    1.41    2.77
  -4  -2  13   -0.97    2.62
  -4  -2  13    1.15    3.68
  -4   2 -13   -1.72    2.16
  -4  -2  13   -0.63    3.92
  -4  -2  13    0.00    2.64
   4   2 -13   -3.55    4.53
   4   2 -13   -1.48    3.06
   4   2 -13   -1.87    2.78
   4   2 -13    3.02    3.90
  -4   3 -13    3.36    2.72
  -4  -3  13   -2.18    2.86
  -4  -3  13   -1.27    3.98
  -4   3 -13    1.11    3.23
  -4  -3  13    2.52    2.82
  -4  -3  13    0.99    3.91
   4   3 -13    4.91    5.08
   4   3 -13   -0.25    3.56
   4   3 -13    6.03    3.35
   4   3 -13    1.88    3.65
  -4   4 -13    0.18    3.11
  -4  -4  13    7.92    3.05
  -4  -4  13    6.21    5.19
  -4   4 -13    3.48    2.98
  -4  -4  13    0.84    3.24
  -4  -4  13   -6.37    4.27
  -4   4 -13   -0.60    3.53
   4   4 -13    5.02    3.89
   4   4 -13    6.57    6.28
   4   4 -13   14.70    4.73
   4   4 -13    6.50    3.96
  -4   5 -13    2.51    3.48
  -4  -5  13    2.81    4.06
  -4  -5  13    0.14    6.11
  -4   5 -13    1.28    3.95
  -4  -5  13   -3.00    3.47
  -4   5 -13   -3.58    4.48
   4   5 -13   -2.02    4.20
   4   5 -13    0.18    4.60
  -4  -6  13    6.63    4.40
  -4  -6  13    0.30    4.15
  -4   6 -13    1.10    4.05
  -4   6 -13    6.87    5.86
  -4   6 -13    7.11    5.04
   4   6 -13    1.95    5.72
   4   6 -13   -0.31    4.97
  -4  -7  13    2.40    4.80
  -4  -7  13    1.81    4.65
  -4   7 -13   -3.46    5.33
  -4   7 -13   -8.28    5.31
   4   7 -13   -3.59    7.24
  -4   8 -13    0.44    6.76
  -4   8 -13   13.46    7.63
   4   8 -13   -1.52    9.56
   4   8 -13    9.72    8.06
  -5   7  13    6.66    7.99
  -5   7  13    7.65    7.22
   5   7  13    0.35   10.52
   5   7  13   22.69    9.82
  -5   6  13    4.07    6.57
  -5   6  13   11.74    5.62
  -5   6  13   -7.85    5.87
  -5  -6 -13   -9.39    6.00
   5   6  13    6.42    7.81
   5   6  13   10.56    7.92
  -5   5  13    0.50    5.49
  -5   5  13    5.28    4.81
  -5  -5 -13    7.57    6.22
  -5   5  13    0.65    4.26
  -5  -5 -13   -0.26    4.49
   5  -5 -13    0.91    5.45
   5   5  13   10.99    6.43
   5  -5 -13    0.01    4.94
   5   5  13   -0.57    6.09
  -5  -4 -13    1.99    3.74
  -5   4  13   -2.38    4.30
  -5  -4 -13    0.68    3.82
  -5  -4 -13    1.41    5.33
  -5   4  13    3.99    3.80
  -5   4  13    6.21    5.63
  -5   4  13    3.54    3.56
   5   4  13    8.08    4.94
   5   4  13    4.19    4.50
   5  -4 -13   -0.56    4.11
   5  -4 -13    3.56    4.30
   5   4  13    0.45    5.20
   5  -4 -13   -0.10    4.87
   5  -4 -13   -2.98    4.36
  -5  -3 -13    4.66    3.31
  -5   3  13    2.22    3.33
  -5   3  13    1.50    3.28
  -5  -3 -13   -0.69    4.75
  -5  -3 -13    6.14    3.15
  -5   3  13    5.07    3.88
  -5   3  13    0.20    3.66
   5   3  13    2.40    4.45
   5  -3 -13    3.78    3.14
   5  -3 -13   -1.36    4.31
   5   3  13    2.83    3.61
   5  -3 -13    6.10    4.37
   5  -3 -13    0.10    3.01
  -5   2  13    5.26    3.64
  -5   2  13   -2.79    3.33
  -5  -2 -13    4.19    2.65
  -5   2  13    4.15    2.94
  -5  -2 -13    6.42    3.01
  -5   2  13    5.26    3.46
   5   2  13    6.40    4.17
   5  -2 -13    2.70    3.61
   5  -2 -13    5.09    2.83
   5   2  13   10.15    3.53
   5  -2 -13   16.24    4.40
   5  -2 -13    4.18    3.02
  -5   1  13    2.84    2.68
  -5  -1 -13    4.26    2.49
  -5  -1 -13    2.82    2.33
  -5   1  13   -0.36    3.14
  -5  -1 -13    5.81    3.68
   5  -1 -13    2.67    2.32
   5  -1 -13    0.15    3.21
   5   1  13   -1.65    3.46
   5  -1 -13    4.64    2.71
   5  -1 -13   12.93    4.44
  -5   0  13    2.24    2.90
  -5   0  13   -2.81    2.81
  -5   0 -13   -1.48    2.29
  -5   0 -13    2.99    3.59
  -5   0  13    0.00    3.35
  -5   0 -13    1.68    2.04
  -5   0  13   -1.91    3.28
   5   0 -13    0.57    2.25
   5   0 -13   -0.74    2.88
   5   0 -13   -3.85    3.91
   5   0 -13   -0.75    2.95
  -5   1 -13   -3.01    3.19
  -5  -1  13   -1.71    2.64
  -5  -1  13   -4.60    3.66
  -5  -1  13    1.11    3.53
  -5  -1  13   -3.24    2.98
  -5   1 -13   -0.52    2.47
   5   1 -13    0.29    3.20
  -5  -2  13    5.45    4.40
  -5  -2  13    4.82    3.25
  -5  -2  13    5.93    3.12
  -5   2 -13    1.64    3.19
  -5  -2  13   13.48    5.09
   5   2 -13    3.42    3.22
   5   2 -13   -3.04    3.50
   5   2 -13   16.75    5.86
   5   2 -13    1.59    3.54
  -5  -3  13    9.85    4.99
  -5  -3  13    3.36    3.41
  -5   3 -13    1.90    5.88
  -5  -3  13    0.48    4.22
  -5  -3  13    7.19    5.14
  -5  -3  13   -2.48    3.21
  -5   3 -13    6.89    2.78
   5   3 -13    1.27    3.54
   5   3 -13   14.50    6.22
   5   3 -13    2.22    3.91
   5   3 -13   -2.69    3.43
  -5  -4  13    3.39    3.45
  -5  -4  13    8.12    5.11
  -5   4 -13    4.04    3.66
  -5   4 -13   -3.35    3.39
  -5  -4  13    2.80    3.85
  -5   4 -13    0.83    3.13
   5   4 -13    4.97    4.12
   5   4 -13    0.08    4.19
  -5  -5  13    1.50    4.16
  -5  -5  13   -0.96    3.73
  -5  -5  13   -7.27    5.70
  -5   5 -13    6.28    3.76
  -5   5 -13   -3.01    3.87
   5   5 -13   -2.14    4.70
   5   5 -13    5.01    5.33
  -5   6 -13    2.55    6.11
  -5  -6  13    1.75    5.67
  -5  -6  13    0.65    4.59
  -5  -6  13   13.91    7.42
  -5   6 -13    4.45    4.94
   5   6 -13    4.79    6.57
   5   6 -13    3.44    5.42
  -5   7 -13   -1.31    5.95
  -5  -7  13    1.40    5.56
  -5  -7  13   14.28    6.08
  -5   7 -13    4.75    5.58
   5   7 -13   13.85    6.89
   5   7 -13   -5.71    8.49
  -6   7  13    6.43    9.06
  -6   7  13   -1.15    8.44
   6   7  13   24.11   10.44
   6   7  13    9.97   10.60
  -6   6  13    4.93    6.95
  -6   6  13   -2.42    5.43
  -6   6  13   -5.31    6.33
  -6  -6 -13  -14.74    7.04
   6   6  13   14.39    8.86
   6   6  13   13.85    8.35
  -6   5  13   -0.51    4.85
  -6   5  13   -5.44    5.26
  -6  -5 -13    2.36    7.08
  -6   5  13   -8.94    4.42
  -6  -5 -13   -3.06    5.31
   6   5  13    8.01    8.60
  -6  -4 -13    1.75    4.64
  -6  -4 -13    5.07    5.87
  -6   4  13   18.55    4.99
  -6   4  13   14.45    4.37
  -6   4  13   13.11    5.46
   6  -4 -13    4.22    4.62
   6   4  13   10.55    6.12
   6  -4 -13   16.76    5.03
   6  -4 -13    8.89    5.76
   6   4  13   10.95    5.59
  -6   3  13    5.32    4.14
  -6  -3 -13   12.26    4.26
  -6   3  13    4.74    3.65
  -6   3  13    0.88    4.11
  -6  -3 -13    7.25    5.53
  -6  -3 -13   -2.02    3.52
   6   3  13   -2.07    4.14
   6  -3 -13   -0.61    4.45
   6   3  13   10.29    5.08
   6  -3 -13    1.50    3.51
  -6  -2 -13    6.93    3.57
  -6   2  13   -2.20    3.90
  -6   2  13    2.76    4.14
  -6   2  13    4.55    3.33
  -6  -2 -13    3.66    5.09
  -6   2  13    0.74    3.61
  -6  -2 -13   -0.38    2.90
   6  -2 -13    1.02    3.31
   6  -2 -13    3.47    5.00
   6   2  13    0.85    4.49
   6  -2 -13   -4.04    3.91
   6  -2 -13   -1.97    3.10
   6   2  13   -0.05    3.49
  -6   1  13   -5.41    3.88
  -6   1  13    4.12    3.49
  -6  -1 -13    6.35    2.91
  -6   1  13   -0.37    3.16
   6  -1 -13    2.12    2.90
   6  -1 -13   -0.37    5.22
   6  -1 -13    2.99    3.67
   6  -1 -13   -1.31    3.24
   6   1  13    7.15    3.91
   6   1  13    2.57    3.85
  -6   0  13   -5.66    4.00
  -6   0  13   -0.98    3.10
  -6   0  13    0.19    3.04
  -6   0 -13    0.13    4.15
  -6   0 -13   -2.26    2.40
  -6   0 -13    0.74    2.06
   6   0 -13    1.38    2.53
   6   0 -13    5.51    3.31
   6   0 -13   -1.19    5.17
  -6  -1  13   -0.76    3.30
  -6   1 -13    2.70    3.64
  -6  -1  13    0.12    3.51
  -6  -1  13    1.90    4.69
  -6  -1  13    4.54    4.64
   6   1 -13   -0.08    3.05
   6   1 -13    2.54    2.59
   6   1 -13    1.56    3.84
   6   1 -13   13.55    5.45
  -6  -2  13    1.89    5.19
  -6  -2  13    5.28    3.42
  -6  -2  13    3.55    5.80
  -6   2 -13   -2.95    4.48
  -6  -2  13    3.29    3.70
   6   2 -13   -3.48    3.99
   6   2 -13    5.18    3.10
   6   2 -13   20.34    6.12
  -6  -3  13    9.56    5.83
  -6  -3  13    6.43    4.24
  -6   3 -13    2.77    3.67
  -6  -3  13    0.09    3.67
   6   3 -13   -0.89    4.20
   6   3 -13    8.25    4.66
   6   3 -13   -2.67    5.72
  -6  -4  13   17.63    4.39
  -6   4 -13    4.05    3.91
  -6  -4  13    5.76    4.67
  -6   4 -13    9.37    4.01
  -6   4 -13   14.89    3.67
  -6  -4  13   15.39    6.40
   6   4 -13    5.45    4.76
   6   4 -13   15.69    4.61
  -6  -5  13   -2.03    4.37
  -6   5 -13   -6.74    4.97
  -6  -5  13   10.10    5.22
  -6  -5  13  -15.38    8.88
  -6   5 -13    2.12    3.94
   6   5 -13    0.28    5.04
   6   5 -13   -3.48    5.23
  -6   6 -13    5.46    5.37
  -6   6 -13   -3.84    5.04
  -6  -6  13    4.14    5.64
  -6  -6  13   13.05    5.57
   6   6 -13   11.35    7.01
   6   6 -13   -1.58    6.37
  -6  -7  13    7.19    6.45
  -6   7 -13   10.74    6.19
  -6   7 -13   -7.78    6.48
  -6  -7  13   -1.97    6.48
   6   7 -13  -14.27    7.72
   6   7 -13   11.90    8.91
  -7   6  13    1.67    6.83
  -7   6  13    6.31    7.96
   7   6  13    8.67   10.44
   7   6  13   -0.28    7.94
  -7   5  13   11.23    5.66
  -7  -5 -13   -5.15    6.57
  -7   5  13   10.87    6.26
   7   5  13   14.15    8.42
   7  -5 -13    9.69    7.52
  -7   4  13   -7.75    4.83
  -7  -4 -13   -3.26    5.09
  -7  -4 -13   -1.79    6.89
  -7   4  13   -6.83    4.93
  -7   4  13    0.14    5.06
   7   4  13   13.10    6.81
   7  -4 -13   -2.37    5.40
   7  -4 -13    6.25    5.63
  -7   3  13    2.58    4.94
  -7  -3 -13    0.05    4.44
  -7  -3 -13    1.16    3.98
  -7   3  13    2.59    4.41
  -7   3  13    1.85    4.79
   7   3  13   -4.00    4.60
   7  -3 -13   -7.75    4.06
   7   3  13   17.18    5.55
   7  -3 -13   -8.27    4.56
   7  -3 -13    8.24    6.05
  -7  -2 -13    9.53    3.44
  -7   2  13    9.35    4.48
  -7   2  13    5.54    4.12
  -7  -2 -13    7.62    4.02
  -7  -2 -13   -0.10    5.80
   7   2  13    6.09    4.34
   7  -2 -13   14.63    5.02
   7  -2 -13   15.03    6.47
   7   2  13   17.61    4.82
   7  -2 -13   10.97    4.00
  -7   1  13   -1.60    3.62
  -7  -1 -13    5.52    2.88
  -7  -1 -13    9.20    3.38
  -7   1  13   -7.10    3.50
  -7  -1 -13   -4.51    4.70
   7   1  13    2.28    4.28
   7  -1 -13    9.46    3.82
   7  -1 -13    2.73    3.61
  -7   0 -13    7.85    3.04
  -7   0  13   -0.32    3.67
  -7   0  13    1.65    3.58
   7   0 -13  -12.03    7.70
   7   0 -13   -3.15    3.13
   7   0 -13    1.69    3.63
   7   0 -13   -0.60    5.94
  -7  -1  13    2.65    3.71
  -7  -1  13    0.18    4.20
   7   1 -13    6.90    4.62
   7   1 -13   -4.06    3.12
   7   1 -13   -0.18    3.69
  -7  -2  13   15.66    4.66
  -7   2 -13   11.31    4.77
  -7  -2  13   12.44    4.20
   7   2 -13   10.10    4.03
   7   2 -13    5.56    5.68
  -7   3 -13    1.41    4.11
  -7  -3  13    5.92    4.87
  -7  -3  13    2.54    4.43
   7   3 -13    2.64    4.76
   7   3 -13    2.02    6.66
  -7   4 -13   -5.69    4.45
  -7  -4  13    5.05    4.51
  -7   4 -13    2.89    4.45
  -7  -4  13    5.50    5.52
   7   4 -13    6.63    4.87
  -7   5 -13   -6.36    4.35
  -7   5 -13   -5.04    5.36
  -7  -5  13   -1.79    6.00
  -7  -5  13    0.93    5.10
   7   5 -13    9.09    6.14
  -7   6 -13    1.41    5.67
  -7  -6  13    2.24    6.16
  -7  -6  13  -10.09    6.74
   7   6 -13   -5.49    7.58
   7   6 -13   -5.50    7.01
  -8   5  13   21.35    7.41
  -8   5  13    3.68    6.69
   8  -5 -13   45.83    9.21
  -8   4  13    3.31    6.02
  -8   4  13    8.77    6.01
   8  -4 -13   18.69    6.70
   8   4  13    0.20    8.36
  -8  -3 -13   -5.69    6.23
  -8   3  13    2.70    5.49
  -8   3  13   12.59    5.23
   8  -3 -13    2.01    5.12
   8  -3 -13   -6.87    4.96
   8   3  13    6.26    8.66
   8   3  13    2.25    6.39
  -8  -2 -13   10.41    4.85
  -8   2  13    9.38    5.00
  -8  -2 -13   16.16    6.53
  -8  -2 -13    4.82    3.88
  -8   2  13    0.25    5.12
   8  -2 -13   -5.80    5.01
   8  -2 -13    5.10    4.86
   8   2  13    1.10    4.87
  -8   1  13   -1.09    4.62
  -8  -1 -13    0.25    5.85
  -8  -1 -13   -0.26    3.91
  -8   1  13   -1.75    4.30
   8   1  13   -5.64    4.93
   8  -1 -13    5.03    4.77
   8  -1 -13    2.17    4.06
  -8   0  13   -1.66    4.35
  -8   0 -13   -1.55    4.98
  -8   0 -13   14.40    3.97
  -8   0  13   -0.09    4.41
   8   0 -13    5.18    3.96
   8   0 -13    2.38    4.55
  -8  -1  13    5.56    4.43
  -8   1 -13    2.57    4.79
  -8  -1  13    9.01    4.78
   8   1 -13    8.33    3.67
   8   1 -13    4.03    4.36
  -8   2 -13    2.57    5.06
  -8  -2  13   -8.10    4.90
  -8  -2  13    3.02    4.68
   8   2 -13   -2.24    3.64
   8   2 -13   -1.29    4.72
  -8  -3  13   11.11    6.03
  -8  -3  13    3.40    5.02
  -8   3 -13   -1.16    4.79
   8   3 -13   -4.84    4.99
  -8  -4  13   16.89    5.48
  -8   4 -13    0.59    5.78
  -8   4 -13   -2.98    5.13
  -8  -4  13   17.34    6.82
   8   4 -13   -7.98    5.73
   8   4 -13   12.30    6.34
  -8  -5  13   16.87    7.70
  -8  -5  13    2.47    6.21
  -8   5 -13   -2.13    5.82
   8   5 -13    5.49    6.93
  -9   4  13   11.27    7.18
  -9   4  13   -2.87    9.17
   9  -4 -13   12.09    8.17
  -9  -3 -13   16.91    8.54
  -9   3  13   19.92    6.69
   9  -3 -13   12.54    6.24
  -9  -2 -13    1.48    7.02
  -9   2  13   -1.45    5.61
  -9   2  13    9.07    6.14
   9   2  13   21.73    6.57
   9  -2 -13   10.57    5.84
   9  -2 -13    8.49    5.87
  -9   1  13   -7.32    5.53
  -9  -1 -13   -4.95    6.52
  -9  -1 -13    8.00    5.18
  -9   1  13   -6.16    4.87
   9  -1 -13    9.73    4.93
   9  -1 -13    0.10    5.92
  -9   0  13   -0.93    4.99
  -9   0 -13    8.41    6.86
  -9   0  13   -3.37    5.19
   9   0 -13    0.94    5.56
   9   0 -13    0.78    4.84
  -9  -1  13   -5.37    5.61
  -9  -1  13    8.32    5.45
  -9   1 -13    3.33    6.28
   9   1 -13    1.07    4.48
  -9  -2  13    7.96    5.47
  -9   2 -13    2.64    5.81
  -9  -2  13    6.09    6.57
   9   2 -13   -2.25    4.80
   9   2 -13    0.74    5.42
  -9  -3  13   -1.84    6.20
  -9  -3  13    6.58    7.11
  -9   3 -13    9.90    6.39
   9   3 -13    4.28    6.03
   9   3 -13    6.89    4.81
  -9   4 -13   -0.97    6.31
  -9  -4  13   13.85    6.63
  -9  -4  13    7.63    8.56
   9   4 -13    2.87    6.62
 -10  -2 -13   16.50    9.06
 -10   1  13  -11.39    6.22
 -10  -1 -13   -3.47    7.55
 -10   1  13   -4.15    7.42
  10  -1 -13    1.96    5.90
 -10   0  13   -7.29    6.76
 -10   0  13   -4.73    6.25
 -10   0 -13   -6.51    7.72
  10   0 -13    9.18    6.02
 -10  -1  13    4.97    6.49
 -10   1 -13    4.33    7.62
 -10  -1  13   24.59   11.50
  10   1 -13   -2.24    5.51
 -10   2 -13    3.91    7.49
  10   2 -13   16.25    5.71
   0   8  14   11.64   10.52
   0   8  14  -17.97    9.85
   0   7  14   25.77    8.81
   0   7  14    0.42    7.51
   0   7  14    7.97    6.06
   0   6  14   -1.95    6.72
   0   6  14    2.15    4.50
   0  -6 -14    2.69    6.41
   0   6  14    6.58    6.03
   0   5  14    1.05    3.79
   0  -5 -14   -0.64    3.85
   0  -5 -14    5.42    4.82
   0   5  14   -2.57    4.57
   0  -5 -14   -6.16    5.39
   0   5  14   -3.05    5.29
   0   5  14   -1.88    3.76
   0  -4 -14   15.32    3.92
   0  -4 -14   15.23    5.94
   0   4  14   12.31    3.96
   0   4  14   13.84    5.00
   0   4  14   10.32    4.41
   0  -4 -14   15.85    4.00
   0   4  14   24.24    4.21
   0   3  14    3.60    3.38
   0   3  14   -4.57    2.53
   0   3  14    0.87    3.00
   0   3  14   -1.73    3.41
   0  -3 -14    1.48    2.75
   0  -3 -14   -5.55    3.75
   0  -3 -14   -3.00    2.73
   0   2  14   10.92    3.21
   0   2  14   12.88    3.80
   0  -2 -14   10.76    2.93
   0  -2 -14    8.26    3.81
   0  -2 -14   10.97    2.98
   0   2  14   13.18    3.32
   0   2  14    4.91    2.71
   0   1  14   -4.42    2.60
   0  -1 -14   -0.48    2.39
   0   1  14    1.87    2.63
   0   1  14    2.70    2.71
   0  -1 -14   -2.25    2.17
   0   1  14   -4.17    2.84
   0  -1 -14    1.42    2.74
   0   0 -14   18.78    3.21
   0   0  14   17.11    3.03
   0   0  14   15.00    3.62
   0   0  14   13.19    3.11
   0   0 -14   11.93    3.55
   0   0 -14   14.30    2.70
   0  -1  14    6.57    3.21
   0   1 -14    1.43    2.61
   0  -1  14    4.11    2.61
   0  -1  14    1.63    2.40
   0   1 -14   -2.14    2.60
   0   1 -14    2.03    2.27
   0   1 -14    0.12    2.41
   0   2 -14    6.13    2.78
   0  -2  14   10.75    2.76
   0  -2  14    9.82    3.64
   0   2 -14   11.07    2.97
   0   2 -14    8.97    3.15
   0   2 -14   12.41    2.63
   0   3 -14   -0.02    3.33
   0  -3  14    1.46    2.68
   0   3 -14   -3.01    2.94
   0  -3  14    6.15    4.63
   0   3 -14   -2.12    2.46
   0   3 -14   -1.72    2.59
   0  -4  14   14.53    3.77
   0   4 -14   17.10    3.39
   0  -4  14   16.01    3.16
   0   4 -14   12.80    4.85
   0   4 -14   14.15    4.13
   0  -4  14   16.55    6.07
   0  -5  14    0.11    5.77
   0  -5  14   11.06    4.67
   0   5 -14    6.49    5.31
   0   5 -14   -1.31    3.86
   0   5 -14    2.22    4.16
   0  -5  14   -3.80    2.73
   0   6 -14    6.81    7.64
   0   6 -14    7.14    4.90
   0   6 -14   -0.54    5.04
   0  -6  14    0.89    3.28
   0  -6  14    4.79    5.68
   0   7 -14    3.05    6.39
   0   7 -14  -11.86   12.34
   0   7 -14    8.49    5.78
   0   8 -14   14.23    7.01
   0   8 -14  -13.45    8.06
  -1   8  14    3.59   10.42
  -1   8  14    7.35   10.11
   1   8  14    4.42    9.84
   1   8  14    9.77   11.02
  -1   7  14    8.14    7.78
  -1   7  14   -0.24    8.50
   1   7  14   12.58    8.56
   1   7  14   16.90    5.93
   1   7  14    2.11    7.85
  -1   6  14   17.78    6.54
  -1   6  14   17.27    5.41
  -1  -6 -14   18.52    5.49
  -1   6  14    7.79    6.53
  -1  -6 -14   18.04    6.86
   1   6  14   27.99    7.32
   1  -6 -14   21.25    6.84
   1   6  14   16.47    6.80
  -1   5  14   33.94    6.35
  -1   5  14   46.26    6.31
  -1   5  14   34.75    5.71
  -1   5  14   45.58    6.77
  -1  -5 -14   49.82    7.58
  -1  -5 -14   46.61    7.37
   1   5  14   51.57   11.01
   1   5  14   34.57    4.77
   1  -5 -14   37.88    6.95
   1  -5 -14   55.63    7.59
   1   5  14   54.03    8.13
   1   5  14   24.45    7.54
   1  -5 -14   44.73    6.81
  -1   4  14    2.91    3.60
  -1  -4 -14    6.82    3.32
  -1   4  14    1.86    3.75
  -1   4  14   -0.49    4.30
  -1   4  14   -0.79    3.47
  -1  -4 -14   -0.01    4.90
  -1  -4 -14    2.44    3.36
   1  -4 -14    0.71    3.38
   1  -4 -14   -2.12    4.75
   1  -4 -14   -1.07    3.32
   1   4  14   -0.14    2.82
   1   4  14   12.12    4.61
   1   4  14    5.07    3.44
  -1   3  14    2.75    2.74
  -1  -3 -14    0.84    2.98
  -1   3  14    6.99    3.81
  -1   3  14   -1.71    3.15
  -1  -3 -14   -2.21    4.22
  -1  -3 -14    3.04    2.72
  -1   3  14   -0.12    3.38
   1   3  14    1.40    3.71
   1   3  14    1.72    3.82
   1   3  14   -5.36    2.92
   1  -3 -14   -0.48    2.54
  -1   2  14   51.81    6.40
  -1  -2 -14   43.22    5.18
  -1   2  14   46.22    4.65
  -1  -2 -14   55.16    7.72
  -1   2  14   44.24    5.53
  -1   2  14   50.03    5.46
   1   2  14   39.87    4.83
   1  -2 -14   51.50    6.49
   1   2  14   43.20    5.66
   1  -2 -14   44.74    5.23
   1   2  14   46.47    5.85
  -1   1  14   23.65    3.96
  -1  -1 -14   29.77    4.17
  -1  -1 -14   26.99    4.11
  -1   1  14   24.70    4.02
  -1   1  14   16.61    3.40
  -1   1  14   22.15    3.72
  -1  -1 -14   22.40    4.21
   1  -1 -14   29.79    4.79
   1   1  14   25.98    4.00
   1   1  14   28.71    4.08
   1  -1 -14   24.07    3.29
   1   1  14   21.61    3.63
   1  -1 -14   32.33    4.46
  -1   0 -14   -0.40    2.44
  -1   0  14    5.68    2.82
  -1   0  14    3.05    2.57
  -1   0 -14    2.18    2.15
  -1   0  14    4.36    3.10
  -1   0  14    8.02    3.05
  -1   0 -14    2.95    3.01
   1   0 -14    3.87    2.51
   1   0 -14    5.65    3.18
   1   0 -14   -0.94    2.68
   1   0  14    5.11    2.86
  -1  -1  14   28.24    4.48
  -1   1 -14   18.39    3.11
  -1   1 -14   25.39    4.58
  -1   1 -14   27.75    4.26
  -1  -1  14   24.18    3.26
  -1  -1  14   21.51    4.36
  -1  -1  14   25.55    3.80
  -1   1 -14   24.55    3.85
   1   1 -14   20.00    3.83
   1   1 -14   16.42    3.68
   1  -1  14   23.05    3.69
   1   1 -14   25.63    4.09
   1  -1  14   23.27    3.37
   1   1 -14   25.62    3.38
  -1   2 -14   49.15    4.53
  -1  -2  14   43.03    4.55
  -1   2 -14   46.39    5.48
  -1  -2  14   51.79    5.10
  -1  -2  14   50.10    5.55
  -1   2 -14   48.06    4.61
  -1   2 -14   52.72    5.50
  -1  -2  14   55.41    6.03
   1  -2  14   61.53    4.92
   1   2 -14   50.60    6.10
   1  -2  14   38.67    5.72
   1   2 -14   53.81    4.90
   1   2 -14   48.59    5.33
   1   2 -14   48.52    4.63
  -1  -3  14    5.45    2.53
  -1   3 -14    2.61    3.21
  -1   3 -14    4.18    2.74
  -1   3 -14    7.15    3.07
  -1   3 -14   -1.33    3.29
   1   3 -14   -0.53    2.78
   1  -3  14    5.50    3.82
   1   3 -14    9.79    3.75
   1   3 -14    1.75    3.16
   1   3 -14    1.43    2.74
   1  -3  14    0.02    2.66
  -1   4 -14    9.28    3.52
  -1  -4  14    0.50    3.63
  -1   4 -14    9.04    2.88
  -1   4 -14   10.42    4.02
  -1   4 -14    2.11    3.58
  -1  -4  14   -2.82    4.61
  -1  -4  14   -0.24    2.70
   1   4 -14   -1.07    3.53
   1   4 -14    7.89    3.21
   1   4 -14    5.79    5.10
   1  -4  14    1.35    2.84
   1   4 -14    4.30    3.42
  -1  -5  14   41.06    5.63
  -1  -5  14   46.53    7.49
  -1   5 -14   56.26    6.42
  -1   5 -14   38.59    6.50
  -1  -5  14   42.67    5.89
  -1   5 -14   37.93    5.87
   1   5 -14   58.98   10.08
   1  -5  14   56.10    8.59
   1  -5  14   37.21    5.20
   1   5 -14   43.54    6.80
   1   5 -14   53.65    6.39
  -1   6 -14   10.01    5.50
  -1  -6  14   22.14    3.85
  -1   6 -14   25.41    7.70
  -1   6 -14   15.40    5.18
   1   6 -14   11.03    5.77
   1   6 -14   37.26    9.17
   1   6 -14   24.15    5.94
  -1   7 -14   14.45    7.01
  -1   7 -14    4.00    5.32
  -1  -7  14    6.96    4.44
  -1   7 -14   -4.93   11.02
   1   7 -14    8.50    6.85
   1   7 -14   14.31    6.44
  -1   8 -14   26.21    8.91
  -1   8 -14    6.90    6.92
   1   8 -14    1.62    8.26
   1   8 -14    7.35    7.72
  -2   8  14   11.75   10.10
  -2   8  14   12.88   10.67
   2   8  14   28.01   10.41
   2   8  14   -6.41   11.13
  -2   7  14  -11.97    7.80
  -2   7  14    4.59    7.55
   2   7  14    9.91    8.67
   2   7  14    1.75    7.98
  -2   6  14   11.62    5.63
  -2   6  14  -12.67    5.84
  -2  -6 -14   -3.14    6.44
  -2   6  14    7.63    5.79
   2   6  14   -8.21    6.60
   2   6  14    9.29    6.82
   2  -6 -14   -0.37    5.78
   2   6  14    1.85    3.71
  -2  -5 -14   -3.66    4.05
  -2   5  14    4.67    4.10
  -2  -5 -14   -1.62    5.25
  -2   5  14   -0.17    5.16
  -2   5  14   10.61    5.16
  -2   5  14   -2.94    4.08
   2  -5 -14   -7.18    4.98
   2   5  14    6.05    5.47
   2   5  14    1.99    5.18
   2  -5 -14    4.72    3.91
   2   5  14    4.00    2.93
  -2   4  14    0.98    3.60
  -2   4  14   -4.64    5.62
  -2   4  14    5.34    4.16
  -2   4  14   -1.28    3.67
  -2  -4 -14    1.44    3.19
  -2  -4 -14   -2.74    3.08
  -2  -4 -14   -8.19    4.60
   2  -4 -14   -1.40    3.60
   2   4  14   -4.14    2.54
   2   4  14    1.89    4.20
   2   4  14   -2.74    3.60
   2  -4 -14    4.93    3.37
   2  -4 -14   -4.55    4.72
   2   4  14    3.13    4.56
  -2   3  14   11.69    4.05
  -2  -3 -14    7.94    3.19
  -2  -3 -14   10.15    3.03
  -2   3  14    7.84    3.37
  -2  -3 -14   11.40    5.03
  -2   3  14    6.57    4.00
   2   3  14    8.96    3.04
   2  -3 -14    8.15    3.27
   2   3  14   12.11    4.19
   2   3  14    5.94    4.39
  -2  -2 -14    5.52    2.55
  -2  -2 -14    3.32    2.54
  -2   2  14   -0.12    2.90
  -2   2  14    5.79    2.98
  -2   2  14    2.11    3.13
  -2  -2 -14    6.58    6.80
  -2   2  14    2.45    2.94
   2   2  14    4.90    3.54
   2   2  14   -6.35    3.29
   2   2  14    3.74    2.69
   2  -2 -14    0.60    2.46
   2  -2 -14   -1.65    3.36
  -2   1  14    3.27    2.96
  -2  -1 -14    5.19    2.37
  -2   1  14    0.05    3.44
  -2  -1 -14   -0.71    2.12
  -2   1  14    0.03    2.62
  -2   1  14    1.23    3.22
  -2  -1 -14    1.08    3.50
   2  -1 -14    3.79    2.96
   2   1  14    3.29    3.06
   2  -1 -14    2.67    3.05
   2  -1 -14    1.91    2.41
  -2   0  14    8.82    3.68
  -2   0 -14   13.92    2.89
  -2   0 -14    9.67    2.43
  -2   0 -14    8.25    3.27
  -2   0  14    9.64    2.71
  -2   0  14    8.40    3.32
  -2   0  14   13.16    3.31
   2   0 -14    9.55    2.84
   2   0  14   10.77    2.90
   2   0 -14    5.78    3.21
   2   0  14    9.87    2.98
   2   0 -14    8.88    3.13
  -2  -1  14    1.98    2.66
  -2  -1  14   -0.18    2.42
  -2   1 -14    2.80    2.01
  -2  -1  14    1.51    3.99
  -2   1 -14    1.30    2.52
  -2  -1  14    2.91    2.86
  -2   1 -14   -0.27    2.95
  -2   1 -14    1.90    2.35
   2   1 -14    2.35    2.60
   2  -1  14   -1.83    2.93
   2   1 -14    3.11    3.21
   2   1 -14    3.94    2.85
   2  -1  14    6.92    2.73
   2   1 -14   -2.24    2.84
  -2   2 -14    2.47    2.68
  -2  -2  14    5.21    2.66
  -2   2 -14    0.68    2.80
  -2   2 -14    3.01    2.11
  -2  -2  14    1.51    2.37
  -2  -2  14   -0.72    3.16
   2   2 -14    5.85    3.07
   2   2 -14    5.27    2.91
   2   2 -14    8.02    3.63
   2  -2  14    0.35    2.82
   2  -2  14    1.57    3.20
  -2  -3  14   16.12    4.56
  -2   3 -14   12.77    3.35
  -2   3 -14   12.04    3.68
  -2   3 -14   15.33    3.34
  -2  -3  14   10.49    2.98
  -2  -3  14   11.64    2.61
  -2   3 -14   12.14    2.68
   2   3 -14   11.54    5.03
   2   3 -14    9.05    4.65
   2  -3  14   14.88    4.63
   2   3 -14   11.49    3.58
  -2  -4  14    1.27    4.18
  -2   4 -14    6.52    3.73
  -2   4 -14    1.04    3.61
  -2   4 -14    3.41    3.56
  -2  -4  14   -0.55    5.41
  -2  -4  14    1.08    2.83
   2   4 -14   19.69    7.04
   2   4 -14   -1.19    3.48
   2   4 -14    2.89    3.94
   2   4 -14   -6.89    4.83
  -2   5 -14    2.13    5.09
  -2  -5  14    0.25    3.29
  -2   5 -14   10.47    4.25
  -2  -5  14   -2.72    5.22
  -2  -5  14    8.00    7.24
  -2   5 -14   -3.90    3.92
   2   5 -14    8.52    4.59
   2   5 -14    8.19    4.71
   2   5 -14    2.87    7.24
  -2   6 -14    8.41    5.44
  -2   6 -14   15.02    7.38
  -2  -6  14    2.10    3.66
  -2   6 -14    5.11    4.63
   2   6 -14    2.18    5.65
   2   6 -14    6.68    5.57
  -2   7 -14   -2.70    5.36
  -2   7 -14   -9.87    5.95
  -2  -7  14    9.77    4.54
   2   7 -14   13.98    7.39
   2   7 -14    3.21    7.02
  -2   8 -14  -12.72    7.06
  -2   8 -14    2.38    8.56
   2   8 -14    5.71    8.59
  -3   8  14   31.38   13.19
   3   8  14   31.82   11.65
   3   8  14   42.15   13.48
  -3   7  14   -3.74    8.59
  -3   7  14   14.82    8.00
   3   7  14    6.51    9.67
   3   7  14   -0.26    8.77
  -3  -6 -14    8.33    5.88
  -3   6  14    6.99    5.75
  -3   6  14   10.38    6.62
   3   6  14    0.48    7.35
   3   6  14   11.16    7.35
   3  -6 -14   13.04    6.86
  -3   5  14    3.70    4.49
  -3   5  14    4.25    4.48
  -3   5  14    3.56    4.76
  -3  -5 -14   -5.61    5.52
  -3   5  14   12.40    5.58
   3   5  14    1.20    5.85
   3   5  14   -6.87    5.90
   3  -5 -14    1.01    5.71
  -3  -4 -14    2.75    3.69
  -3  -4 -14    2.73    3.66
  -3   4  14    2.87    3.83
  -3   4  14   -1.25    4.25
  -3   4  14   -3.77    4.13
  -3   4  14   -2.50    4.42
  -3  -4 -14   -2.01    5.42
   3   4  14    8.62    4.88
   3   4  14   -1.72    4.58
   3  -4 -14   -2.99    3.92
   3   4  14    1.33    3.83
   3  -4 -14   -6.94    3.36
   3  -4 -14    0.81    4.88
  -3  -3 -14    4.49    3.01
  -3  -3 -14    3.67    3.14
  -3   3  14    6.54    3.50
  -3   3  14    4.07    3.56
  -3  -3 -14    2.54    4.74
  -3   3  14    5.47    3.24
  -3   3  14    5.63    6.12
   3  -3 -14    3.39    6.04
   3  -3 -14    4.23    3.93
   3  -3 -14   -2.49    2.87
   3   3  14    1.77    3.68
   3   3  14    6.18    3.41
   3   3  14   11.01    4.58
  -3  -2 -14   14.62    3.14
  -3   2  14   14.67    4.30
  -3   2  14    9.54    3.73
  -3  -2 -14   16.19    4.62
  -3   2  14   21.16    3.95
  -3  -2 -14   14.02    3.35
   3   2  14    9.31    4.32
   3  -2 -14   13.50    4.52
   3  -2 -14   18.01    3.43
   3   2  14   13.75    4.15
  -3  -1 -14   37.24    4.98
  -3   1  14   28.06    4.72
  -3   1  14   38.74    5.65
  -3  -1 -14   38.19    4.23
  -3   1  14   33.85    5.05
   3   1  14   26.41    4.26
   3   1  14   36.12    5.54
   3  -1 -14   34.14    5.60
   3  -1 -14   33.04    5.00
  -3   0  14    3.78    2.69
  -3   0 -14    1.73    3.48
  -3   0 -14    4.53    2.06
  -3   0 -14    7.68    2.58
  -3   0  14    4.46    3.33
   3   0  14    0.81    4.54
   3   0 -14    2.13    2.76
   3   0 -14   -0.06    3.20
   3   0  14    4.18    2.95
   3   0 -14    1.36    3.76
  -3  -1  14   43.37    5.84
  -3   1 -14   35.21    5.78
  -3   1 -14   39.30    4.88
  -3  -1  14   33.34    5.21
  -3   1 -14   35.30    3.87
  -3  -1  14   38.80    4.85
   3   1 -14   31.11    5.16
   3  -1  14   30.90    4.82
   3   1 -14   31.54    5.01
   3  -1  14   41.98    4.87
   3   1 -14   39.84    6.33
  -3   2 -14   19.42    3.29
  -3   2 -14   14.28    2.89
  -3   2 -14   19.20    5.75
  -3  -2  14   18.75    3.25
  -3  -2  14   12.68    4.03
  -3  -2  14   21.93    3.36
  -3  -2  14   11.90    4.88
  -3   2 -14   14.53    2.58
   3   2 -14   12.22    5.50
   3   2 -14   14.94    3.68
   3   2 -14   10.17    4.57
   3   2 -14   13.20    4.04
  -3  -3  14    5.13    4.08
  -3  -3  14    4.58    2.88
  -3   3 -14    7.75    2.99
  -3  -3  14    5.30    3.03
  -3  -3  14   10.76    4.72
  -3   3 -14    7.43    3.26
   3   3 -14    8.90    3.75
   3   3 -14    3.54    3.42
   3   3 -14   -5.31    4.80
   3   3 -14    2.32    3.54
   3  -3  14    4.60    3.77
  -3   4 -14   -5.59    3.31
  -3  -4  14    8.28    3.27
  -3  -4  14    3.47    4.94
  -3  -4  14    3.48    2.99
  -3  -4  14    1.75    4.20
  -3   4 -14    7.13    3.65
  -3  -4  14    1.07    5.38
   3   4 -14    0.94    5.95
   3   4 -14    5.09    4.04
   3   4 -14    1.05    4.08
   3   4 -14    7.82    4.08
  -3   5 -14    8.59    4.38
  -3   5 -14   10.67    4.70
  -3  -5  14   -3.15    3.19
  -3  -5  14    3.16    3.78
  -3  -5  14   -4.14    4.57
  -3   5 -14   -0.95    4.60
   3   5 -14   -2.74    4.59
   3   5 -14    1.11    4.31
   3   5 -14   15.05   13.30
  -3   6 -14    0.53    5.11
  -3  -6  14   15.43    4.34
  -3   6 -14   10.32    4.91
   3   6 -14   14.89    5.93
   3   6 -14    9.50    6.24
  -3   7 -14    3.97    5.83
  -3   7 -14    2.12    5.84
  -3  -7  14    2.58    5.17
   3   7 -14    5.79    7.58
   3   7 -14    3.74    7.16
  -3   8 -14   30.43    8.55
  -3   8 -14   20.53    7.72
   3   8 -14   22.27   11.80
   3   8 -14   10.91   10.04
  -4   7  14    2.24    8.50
  -4   7  14   17.65    7.83
   4   7  14   -0.01    9.92
   4   7  14   18.10    9.85
  -4  -6 -14   11.05    8.52
  -4   6  14    3.97    5.95
  -4  -6 -14   -0.23    5.86
  -4   6  14   -9.37    6.44
   4   6  14    8.55    7.72
   4   6  14   -0.62    7.93
  -4  -5 -14  -10.55    6.16
  -4   5  14   -8.93    4.78
  -4  -5 -14   -8.82    4.60
  -4   5  14    7.44    6.05
  -4   5  14    7.35    4.65
   4   5  14   11.48    6.29
   4   5  14    1.39    5.87
   4  -5 -14   -2.81    5.19
  -4   4  14   14.16    4.66
  -4  -4 -14   16.56    6.50
  -4  -4 -14   13.07    4.30
  -4  -4 -14   20.48    4.46
  -4   4  14    6.72    4.72
  -4   4  14   16.93    4.62
  -4   4  14   10.94    5.24
   4  -4 -14   10.81    3.93
   4   4  14   17.90    5.81
   4  -4 -14   15.69    5.96
   4   4  14   24.32    5.83
   4   4  14   12.65    5.27
   4  -4 -14   21.84    5.18
  -4  -3 -14   10.81    3.47
  -4   3  14    0.96    3.62
  -4   3  14    8.75    3.62
  -4   3  14    8.32    4.07
  -4  -3 -14    3.73    4.79
  -4   3  14    9.41    3.96
  -4  -3 -14    9.34    5.65
   4  -3 -14   -1.05    4.04
   4   3  14    4.47    4.36
   4  -3 -14    9.16    3.40
   4  -3 -14    4.60    5.56
   4   3  14    8.00    4.96
  -4   2  14   -2.43    3.48
  -4   2  14   -1.25    3.71
  -4  -2 -14    2.81    3.09
  -4  -2 -14    2.75    2.69
  -4   2  14    0.07    3.15
  -4  -2 -14   -5.07    4.35
   4   2  14    4.31    4.28
   4   2  14    2.11    3.51
   4  -2 -14   -2.61    3.81
   4  -2 -14    2.67    4.35
   4  -2 -14   -3.56    3.09
  -4   1  14   13.43    4.11
  -4  -1 -14    9.24    2.78
  -4   1  14   11.16    3.13
  -4   1  14    8.67    4.08
  -4  -1 -14   11.50    2.96
  -4  -1 -14   11.29    4.53
  -4   1  14   13.15    3.68
   4   1  14    5.92    3.65
   4  -1 -14    6.37    3.45
   4   1  14   11.07    3.67
   4  -1 -14    9.43    3.92
   4  -1 -14   10.22    5.00
  -4   0  14   15.63    3.43
  -4   0  14    9.46    4.32
  -4   0 -14    3.87    6.63
  -4   0 -14   15.12    2.62
  -4   0 -14   13.94    3.11
   4   0 -14   10.43    3.47
   4   0  14   10.97    3.71
   4   0  14   16.48    4.12
   4   0 -14   11.38    2.60
   4   0 -14   15.10    3.60
  -4   1 -14    0.83    6.07
  -4  -1  14   11.75    3.46
  -4   1 -14   13.95    2.81
  -4  -1  14   18.53    4.58
   4   1 -14    8.20    3.44
   4   1 -14   18.59    4.97
   4   1 -14   15.66    3.78
  -4   2 -14    2.35    3.23
  -4  -2  14   -0.55    2.98
  -4  -2  14    0.53    3.33
  -4  -2  14   11.06    5.02
   4   2 -14    5.55    5.29
   4   2 -14    4.10    4.00
   4   2 -14   -3.62    3.38
   4   2 -14    1.10    3.56
  -4  -3  14    6.73    5.42
  -4   3 -14    7.64    3.50
  -4  -3  14    7.00    3.08
  -4   3 -14    8.51    3.02
   4   3 -14   12.62    5.72
   4   3 -14    0.46    3.90
   4   3 -14    2.47    3.74
   4   3 -14    5.49    4.24
  -4   4 -14   17.91    4.10
  -4   4 -14   14.18    4.12
  -4   4 -14    9.98    4.26
  -4  -4  14   11.77    3.75
   4   4 -14   16.58    4.98
   4   4 -14   19.69    4.72
   4   4 -14    9.87    4.53
  -4   5 -14    2.78    5.13
  -4  -5  14    6.97    3.88
  -4   5 -14   -0.49    4.44
  -4  -5  14   -4.16    3.69
   4   5 -14   -0.02    4.89
   4   5 -14    5.38    5.07
  -4   6 -14    2.62    4.73
  -4  -6  14    2.27    4.34
  -4   6 -14    7.32    5.70
  -4  -6  14    6.78    4.77
  -4   6 -14    6.31    6.81
   4   6 -14    5.38    5.93
   4   6 -14   -3.20    6.02
  -4  -7  14   -0.79    6.06
  -4   7 -14    8.41    5.73
  -4   7 -14   -2.56    6.10
   4   7 -14   10.83    8.61
   4   7 -14   12.89    6.99
  -5   7  14    0.34    9.57
  -5   7  14  -11.62    8.58
   5   7  14   -4.38    9.88
   5   7  14   -0.57   10.72
  -5   6  14    8.13    7.08
  -5  -6 -14   -7.05    6.30
  -5   6  14    5.66    7.57
   5   6  14    8.40    8.16
   5   6  14   11.66    8.50
  -5   5  14    4.86    6.34
  -5   5  14    6.62    5.35
  -5  -5 -14    0.11    6.71
  -5  -5 -14   13.42    5.37
  -5   5  14   -5.07    4.79
   5   5  14    1.89    6.61
   5   5  14   -7.32    7.18
   5  -5 -14    6.13    5.75
  -5  -4 -14   -1.00    4.37
  -5  -4 -14   -7.48    5.47
  -5   4  14    2.99    4.17
  -5   4  14   -0.34    4.38
  -5   4  14   -3.75    4.56
   5   4  14    9.27    6.32
   5  -4 -14   -4.95    4.92
   5   4  14    1.90    5.47
  -5  -3 -14    1.82    3.70
  -5   3  14   15.32    4.01
  -5   3  14    7.39    4.53
  -5  -3 -14   -0.06    5.41
  -5   3  14    4.75    4.16
  -5  -3 -14   19.12    5.26
   5  -3 -14    4.05    5.18
   5  -3 -14    6.97    3.96
   5   3  14   -3.57    4.38
   5   3  14   11.50    5.67
   5  -3 -14   13.65    5.59
  -5   2  14   11.40    3.67
  -5  -2 -14   20.33    5.56
  -5   2  14   10.39    4.10
  -5  -2 -14    8.24    3.14
  -5   2  14   16.60    4.50
  -5   2  14    7.04    4.26
  -5  -2 -14   15.68    3.72
   5   2  14   13.09    4.28
   5   2  14    5.98    4.75
   5  -2 -14    7.13    4.05
   5  -2 -14   23.31    5.22
   5  -2 -14   10.27    4.62
   5  -2 -14   13.01    3.29
  -5  -1 -14   -5.00    2.89
  -5   1  14    0.19    3.22
  -5   1  14   -3.43    3.64
  -5  -1 -14    2.34    3.89
  -5   1  14    2.30    4.09
  -5  -1 -14    1.35    2.53
   5   1  14    6.82    4.00
   5  -1 -14    0.58    2.68
   5  -1 -14   -0.50    3.85
   5  -1 -14    0.64    3.00
   5   1  14    0.25    3.90
  -5   0  14   -3.46    4.00
  -5   0 -14    0.62    4.03
  -5   0  14   -4.26    3.98
  -5   0 -14   -0.79    2.70
  -5   0  14    0.86    3.11
  -5   0 -14    5.01    2.16
   5   0 -14    1.67    3.31
   5   0  14   -3.82    4.00
   5   0 -14    2.36    3.56
   5   0 -14    1.11    2.41
   5   0 -14   -4.78    4.59
  -5   1 -14    2.11    2.69
  -5  -1  14    2.75    3.60
  -5  -1  14   11.68    5.04
  -5   1 -14   -0.91    3.89
  -5  -1  14    2.06    4.48
  -5  -1  14   -0.18    3.09
   5   1 -14    3.26    3.84
   5   1 -14   -2.52    3.55
   5   1 -14    1.39    5.34
  -5   2 -14   14.98    4.29
  -5  -2  14   11.36    3.95
  -5  -2  14   12.85    3.70
  -5  -2  14   19.62    5.72
  -5  -2  14   11.75    5.45
   5   2 -14   12.95    4.35
   5   2 -14   16.83    4.52
   5   2 -14    8.66    6.21
  -5  -3  14    6.45    3.98
  -5   3 -14   10.42    3.33
  -5  -3  14   10.64    3.87
  -5   3 -14    6.77    3.77
   5   3 -14    6.66    4.52
   5   3 -14    3.26    4.11
   5   3 -14    9.07    4.27
  -5   4 -14    6.52    4.19
  -5  -4  14   -1.37    3.73
  -5  -4  14   -2.00    5.95
  -5   4 -14    2.95    3.89
  -5  -4  14   -0.35    4.77
   5   4 -14    4.94    5.73
   5   4 -14    6.88    5.02
   5   4 -14   -4.58    4.69
  -5  -5  14   -6.09    6.23
  -5   5 -14   -0.82    4.37
  -5   5 -14   22.45   10.12
  -5   5 -14    1.88    5.36
  -5  -5  14    3.20    4.34
  -5  -5  14    6.59    5.20
   5   5 -14   -6.76    5.40
   5   5 -14   -5.53    4.80
  -5  -6  14    1.18    5.35
  -5  -6  14    8.58    7.87
  -5  -6  14    5.42    5.15
  -5   6 -14    2.22    5.25
  -5   6 -14    9.69    5.74
   5   6 -14    3.79    6.10
   5   6 -14    0.53    7.54
  -5  -7  14    4.79    5.91
  -5  -7  14    9.95    6.60
  -5   7 -14    1.14    6.78
  -5   7 -14    4.19    6.21
   5   7 -14    3.28    9.04
   5   7 -14    6.04    7.78
  -6   6  14   -8.56    7.51
  -6   6  14    8.07    8.11
   6   6  14   11.59    9.19
   6   6  14   12.88    9.95
  -6   5  14    1.23    5.50
  -6  -5 -14   -2.49    5.90
  -6   5  14   -2.75    6.38
  -6   5  14   -0.53    5.46
   6  -5 -14   14.41    6.53
   6   5  14    9.15    7.23
   6   5  14    0.05    8.17
  -6   4  14    2.05    4.62
  -6   4  14   -5.35    4.67
  -6   4  14    7.22    5.79
  -6  -4 -14    3.90    4.82
  -6  -4 -14    5.89    6.68
   6  -4 -14    7.47    5.39
   6   4  14    8.53    6.67
  -6  -3 -14    2.08    6.40
  -6   3  14    9.54    4.86
  -6  -3 -14   -1.62    4.55
  -6   3  14    3.82    4.77
  -6  -3 -14    1.25    3.83
  -6   3  14    0.92    4.08
   6   3  14    2.43    5.76
   6  -3 -14    1.62    4.00
   6   3  14    2.96    5.97
   6  -3 -14   -5.81    5.02
  -6   2  14    0.45    4.15
  -6   2  14    1.11    4.80
  -6  -2 -14   -3.56    3.59
  -6  -2 -14    3.90    3.47
  -6   2  14    2.14    3.71
  -6  -2 -14    9.37    5.66
   6  -2 -14   -0.85    4.21
   6   2  14    8.33    4.86
   6  -2 -14    3.44    3.53
   6   2  14   -1.76    4.47
  -6  -1 -14    9.83    5.11
  -6   1  14    9.51    3.66
  -6  -1 -14    5.19    3.14
  -6   1  14    8.14    4.15
  -6  -1 -14    1.98    2.84
   6  -1 -14   -2.20    3.90
   6  -1 -14    7.49    3.37
   6  -1 -14    6.37    4.38
   6   1  14   10.92    4.74
   6   1  14    2.29    4.15
   6  -1 -14   -6.29    9.29
  -6   0 -14   11.56    3.21
  -6   0 -14    7.09    2.56
  -6   0 -14    5.80    4.95
  -6   0  14   -3.64    5.04
  -6   0  14    7.01    3.98
  -6   0  14    4.97    4.02
   6   0  14   13.79    5.16
   6   0 -14   -3.59    3.92
   6   0 -14    6.86    3.35
   6   0 -14   10.03    4.04
  -6  -1  14    6.73    3.95
  -6  -1  14   14.50    5.87
  -6  -1  14    6.21    3.76
  -6   1 -14    4.08    4.12
   6   1 -14    7.80    4.70
   6   1 -14    8.82    3.85
   6   1 -14    9.19    3.24
  -6  -2  14   -0.89    3.99
  -6  -2  14   -5.18    3.83
  -6  -2  14   -2.94    6.19
  -6   2 -14   -4.60    4.09
   6   2 -14    2.53    4.72
   6   2 -14    7.45    5.92
  -6  -3  14   -0.16    4.21
  -6  -3  14    5.18    6.82
  -6  -3  14    9.65    4.17
  -6   3 -14    6.32    4.57
   6   3 -14   -3.81    5.19
   6   3 -14   -6.91    4.35
   6   3 -14    0.30    4.14
  -6   4 -14   16.27    4.47
  -6   4 -14    0.52    4.54
  -6   4 -14   13.17    4.37
  -6  -4  14   10.46    5.31
  -6  -4  14    6.28    4.54
   6   4 -14    8.76    5.14
   6   4 -14   -0.67    4.79
  -6   5 -14    0.18    5.48
  -6   5 -14    2.60    5.28
  -6  -5  14    4.49    5.40
  -6   5 -14    0.41    4.93
  -6  -5  14   12.89    5.34
   6   5 -14   -5.61    5.76
   6   5 -14   -0.83    6.10
  -6  -6  14    6.26    6.04
  -6   6 -14   -5.14    5.46
  -6   6 -14    1.68    5.99
  -6  -6  14   -6.78    5.85
   6   6 -14    2.94    6.98
   6   6 -14    0.31    7.78
  -7   5  14  -15.36    7.26
  -7   5  14   -6.11    8.83
  -7   5  14    0.90    6.37
   7  -5 -14   -1.33    8.38
   7   5  14    9.71    9.39
  -7   4  14    5.93    5.54
  -7  -4 -14    8.12    7.22
  -7   4  14    8.01    6.26
  -7   4  14    3.49    6.40
   7  -4 -14    5.32    6.49
   7   4  14    9.54    7.45
   7  -4 -14   10.76    6.13
  -7  -3 -14    4.63    4.65
  -7   3  14    8.91    5.60
  -7  -3 -14   -4.04    6.60
  -7   3  14   19.24    5.92
  -7   3  14    4.59    4.71
   7  -3 -14   -0.72    5.73
   7   3  14   11.35    6.51
   7  -3 -14    2.13    4.67
  -7   2  14    8.12    4.49
  -7  -2 -14    8.19    3.80
  -7  -2 -14   16.40    4.61
  -7   2  14    2.56    4.67
  -7  -2 -14   14.29    6.38
   7   2  14    8.68    5.37
   7  -2 -14    3.42    4.46
   7  -2 -14   18.15    5.60
   7   2  14   11.32    5.50
  -7  -1 -14   -4.22    5.48
  -7  -1 -14   -0.62    3.26
  -7   1  14    4.19    4.26
  -7   1  14    3.93    4.61
  -7  -1 -14   -4.12    3.85
   7  -1 -14    7.26    3.84
   7  -1 -14   13.37    4.83
   7   1  14    0.89    5.37
  -7   0  14    4.19    4.55
  -7   0  14    5.02    4.16
  -7   0 -14   14.74    5.50
  -7   0 -14    0.79    3.52
   7   0 -14   10.13    4.62
   7   0 -14   -2.30    3.63
  -7   1 -14   -3.80    4.69
  -7  -1  14   -1.81    4.73
  -7  -1  14   -4.70    4.14
   7   1 -14   -2.02    3.60
   7   1 -14   -1.04    4.27
  -7  -2  14    9.61    4.90
  -7  -2  14    2.02    4.64
  -7   2 -14    6.95    4.94
   7   2 -14    9.88    4.94
  -7  -3  14    5.21    4.74
  -7   3 -14   -4.87    4.55
  -7  -3  14   11.09    5.23
   7   3 -14    9.46    4.63
  -7   4 -14   10.80    5.02
  -7  -4  14    0.97    5.50
  -7   4 -14    5.19    5.35
  -7  -4  14    1.69    5.17
   7   4 -14   -9.40    5.72
   7   4 -14   -1.97    5.57
  -7   5 -14    8.10    5.40
  -7  -5  14   15.84    6.32
  -7   5 -14    9.90    6.03
  -7  -5  14   -2.68    5.86
   7   5 -14   -1.70    6.57
   7   5 -14   -9.56    6.62
  -8  -4 -14    9.38    9.37
  -8   4  14    0.51    6.64
  -8   4  14    9.96    7.42
   8  -4 -14   11.94    7.75
  -8  -3 -14   -3.09    7.56
  -8   3  14   -7.31    5.39
  -8   3  14    2.93    6.48
   8  -3 -14   -5.59    6.01
  -8  -2 -14   -4.21    7.00
  -8   2  14   -0.47    5.21
  -8   2  14    3.06    5.69
   8  -2 -14   -4.15    5.68
   8  -2 -14   -1.20    5.38
  -8   1  14   -6.80    4.88
  -8  -1 -14    1.64    4.65
  -8   1  14    8.03    5.22
  -8  -1 -14   -2.83    6.64
   8  -1 -14    0.07    5.44
   8   1  14    0.95    6.07
   8  -1 -14    1.16    4.62
  -8   0  14    4.68    4.78
  -8   0  14    2.38    5.27
  -8   0 -14   -2.86    5.96
   8   0 -14   -2.23    5.32
   8   0 -14    4.16    4.47
  -8  -1  14   -5.34    4.89
  -8   1 -14   12.34    5.90
  -8  -1  14   -2.01    5.14
   8   1 -14    2.14    4.79
   8   1 -14   -5.69    4.11
  -8   2 -14   -6.87    5.80
  -8  -2  14    6.13    5.78
  -8  -2  14    0.86    5.22
   8   2 -14    4.56    4.57
   8   2 -14   -2.21    5.33
  -8   3 -14   -4.87    5.35
  -8  -3  14    8.20    5.32
  -8  -3  14  -10.12    6.54
   8   3 -14   10.41    5.65
  -8  -4  14    8.32    6.40
  -8   4 -14    5.92    6.31
  -8  -4  14   20.63    7.58
   8   4 -14   10.09    6.74
  -9   3  14    4.60   10.20
  -9  -3 -14  -11.49    9.57
  -9   3  14   10.74    9.51
   9  -3 -14   -4.28    7.24
  -9   2  14    0.50    6.29
  -9  -2 -14   -2.02    8.57
  -9   2  14   -3.45    6.30
   9  -2 -14    0.16    6.70
  -9  -1 -14   -5.25    7.86
  -9   1  14   13.45    5.87
  -9   1  14   -0.73    6.16
   9  -1 -14   15.07    6.02
   9  -1 -14    3.90    7.84
  -9   0  14   -4.64    6.17
  -9   0  14    7.57    5.85
  -9   0 -14   13.92    7.81
   9   0 -14    1.76    6.23
   9   0 -14   12.81    5.68
  -9  -1  14   -1.81    6.01
  -9  -1  14   -2.43    6.17
  -9   1 -14    3.22    7.21
   9   1 -14    0.34    5.14
   9   1 -14   16.02    6.42
  -9   2 -14    5.12    7.16
  -9  -2  14    9.87    7.39
  -9  -2  14    3.75    6.32
   9   2 -14   -2.14    5.31
   9   2 -14  -10.10    6.04
  -9  -3  14    0.02    7.37
  -9  -3  14    8.59    6.77
  -9   3 -14    1.29    7.12
   9   3 -14   -6.88    7.06
   9   3 -14    2.47    5.36
   0   7  15    5.75    9.62
   0   7  15   31.90    9.09
   0   6  15    9.07    7.80
   0   6  15   10.75    7.14
   0  -6 -15    7.51    7.52
   0   6  15   -0.80    5.11
   0   5  15   -3.75    5.45
   0  -5 -15   -3.37    6.08
   0   5  15   14.46    6.02
   0  -5 -15   -0.27    4.69
   0   4  15    3.19    4.05
   0   4  15   -1.46    4.48
   0  -4 -15   -1.31    3.78
   0   4  15   -1.59    3.37
   0  -4 -15   -1.57    4.37
   0  -4 -15    1.92    5.64
   0   4  15   -5.41    4.84
   0  -3 -15   -3.31    4.36
   0   3  15   -1.60    3.82
   0   3  15   -5.00    3.14
   0   3  15    3.94    4.07
   0  -3 -15   -0.88    3.34
   0  -3 -15    1.14    3.22
   0   2  15    7.92    3.55
   0   2  15    8.21    3.25
   0  -2 -15    6.51    3.39
   0  -2 -15    4.56    4.00
   0   2  15    8.47    3.62
   0   2  15    9.55    3.83
   0  -2 -15    8.90    3.01
   0   1  15   -0.45    3.41
   0  -1 -15   -1.43    3.46
   0   1  15    0.54    3.21
   0  -1 -15   -0.52    2.66
   0  -1 -15   -1.08    2.89
   0   1  15    3.53    3.55
   0   1  15    3.34    3.49
   0   0  15   -1.19    2.83
   0   0  15    2.98    3.60
   0   0 -15   -1.77    2.80
   0   0 -15   -4.23    3.33
   0   0 -15   -0.54    2.50
   0   0  15    1.76    3.10
   0   0  15    6.15    3.56
   0  -1  15    9.03    3.03
   0   1 -15   -4.29    3.19
   0   1 -15   -1.70    2.86
   0  -1  15    8.66    3.91
   0   1 -15   -4.51    3.02
   0   2 -15   13.84    3.01
   0   2 -15    7.83    3.83
   0  -2  15    7.08    4.09
   0  -2  15   10.59    3.28
   0   2 -15    5.16    3.25
   0   2 -15   10.74    3.31
   0   3 -15   -4.21    3.23
   0   3 -15    1.17    3.05
   0   3 -15   -3.82    3.23
   0   3 -15   -5.49    4.11
   0  -3  15    0.76    3.07
   0   4 -15    3.72    3.35
   0  -4  15   -1.21    3.22
   0   4 -15   -4.43    5.24
   0   4 -15    5.38    3.77
   0  -4  15   -7.03    4.12
   0  -4  15    4.44    5.44
   0   4 -15    4.04    3.85
   0  -5  15   -0.90    3.15
   0   5 -15   -0.69    4.36
   0   5 -15    1.89    4.43
   0   5 -15    0.41    6.27
   0  -5  15    8.21    5.32
   0  -5  15   -3.68    6.88
   0   6 -15   11.35    5.74
   0  -6  15    1.54    3.89
   0   6 -15    0.27    5.36
   0   6 -15   17.15    9.50
   0   7 -15    3.33    7.15
   0   8 -15   16.10    8.91
  -1   7  15    6.51    8.64
  -1   7  15    8.08    9.59
   1   7  15    6.27    9.30
   1   7  15   13.43    8.70
  -1   6  15    3.47    7.15
  -1  -6 -15    0.85    6.40
  -1   6  15    6.42    7.29
  -1   6  15   13.49    5.44
   1   6  15   20.05    8.20
   1  -6 -15   -0.57    6.26
   1   6  15   14.14    7.54
  -1  -5 -15    4.25    4.65
  -1  -5 -15    7.29    6.29
  -1   5  15   10.96    6.31
  -1   5  15   14.81    5.79
   1   5  15    8.67    3.85
   1   5  15   12.46    6.45
   1   5  15   16.33    6.19
   1  -5 -15   15.26    4.82
   1  -5 -15    1.03    5.62
  -1   4  15   10.00    4.19
  -1  -4 -15    1.13    5.55
  -1   4  15   -0.49    5.35
  -1  -4 -15    4.68    6.40
  -1   4  15    0.72    4.52
  -1  -4 -15   -0.97    3.75
  -1   4  15    1.66    6.19
   1   4  15   -3.13    6.04
   1   4  15    4.80    4.69
   1   4  15   -2.83    3.18
   1  -4 -15   -4.56    5.76
   1   4  15    1.15    5.04
   1  -4 -15   -3.90    3.74
  -1   3  15   -0.07    3.76
  -1   3  15    8.72    4.63
  -1   3  15   -0.48    3.67
  -1  -3 -15    1.43    4.75
  -1  -3 -15   -0.79    3.40
  -1  -3 -15    3.74    3.39
   1  -3 -15   -1.01    3.72
   1  -3 -15    0.74    3.20
   1   3  15    2.01    4.15
   1   3  15   -3.14    3.27
   1  -3 -15    7.76    4.69
  -1  -2 -15    9.68    3.44
  -1   2  15    1.73    3.26
  -1   2  15    1.98    3.51
  -1  -2 -15    3.12    2.88
  -1  -2 -15    3.45    4.24
  -1   2  15    9.60    3.96
  -1   2  15    2.86    3.56
   1  -2 -15    7.74    3.03
   1   2  15    5.85    4.98
   1   2  15    6.49    3.56
   1  -2 -15    6.60    3.43
   1  -2 -15    6.03    4.54
   1   2  15    5.16    4.18
   1   2  15    4.90    3.35
  -1   1  15   17.62    4.45
  -1  -1 -15   10.08    3.34
  -1   1  15   14.69    3.57
  -1   1  15   14.26    3.91
  -1  -1 -15   10.16    4.12
  -1   1  15   12.48    3.65
   1   1  15    9.03    3.58
   1  -1 -15   19.07    3.51
   1   1  15   12.04    3.45
   1  -1 -15   14.77    3.69
   1  -1 -15   11.24    3.72
  -1   0  15    4.75    3.64
  -1   0  15    3.90    2.92
  -1   0 -15   -3.33    3.03
  -1   0  15   -1.34    3.00
  -1   0 -15   -3.54    2.22
  -1   0  15    2.31    2.93
  -1   0  15    6.70    3.73
  -1   0 -15    0.32    2.91
   1   0 -15   -1.48    3.62
   1   0 -15    2.00    3.27
   1   0  15   -4.47    3.10
   1   0 -15   -2.67    2.75
   1   0  15    1.18    3.57
  -1   1 -15   14.77    2.85
  -1   1 -15   16.41    3.82
  -1   1 -15    9.28    3.16
  -1   1 -15   18.50    3.70
  -1  -1  15   -2.42    7.53
  -1  -1  15    9.00    3.30
  -1  -1  15   19.15    3.67
  -1  -1  15   11.54    3.11
   1   1 -15   11.71    3.98
   1   1 -15   19.94    5.44
   1  -1  15   16.64    3.61
   1   1 -15   21.81    4.11
   1  -1  15   12.05    3.64
  -1   2 -15    3.86    2.72
  -1   2 -15    7.67    3.39
  -1  -2  15    4.25    3.40
  -1   2 -15    5.96    3.02
  -1   2 -15    5.51    3.45
  -1  -2  15    1.35    3.14
   1  -2  15    3.13    4.08
   1   2 -15    5.51    4.30
   1   2 -15   11.75    3.55
   1  -2  15    6.05    3.10
   1   2 -15    2.56    3.19
   1   2 -15    8.39    3.20
  -1   3 -15   -0.85    3.55
  -1  -3  15    2.29    3.02
  -1   3 -15    3.00    3.26
  -1  -3  15   -4.91    4.57
  -1   3 -15    3.26    4.10
  -1   3 -15    7.87    2.95
   1   3 -15    2.51    4.71
   1   3 -15    1.59    3.27
   1  -3  15    6.93    3.29
   1   3 -15   -0.11    3.28
   1   3 -15    3.98    3.52
  -1   4 -15    0.55    3.79
  -1   4 -15    1.73    4.03
  -1  -4  15    4.93    5.58
  -1   4 -15    4.27    4.81
  -1  -4  15   12.31    4.48
  -1   4 -15    6.02    3.18
   1   4 -15   -0.53    3.87
   1  -4  15   -2.54    5.41
   1  -4  15    5.49    3.15
   1   4 -15    8.20    3.77
   1   4 -15    3.84    5.75
   1   4 -15    0.48    3.95
  -1   5 -15   -7.04    6.33
  -1  -5  15    8.79    3.68
  -1   5 -15   10.29    5.05
  -1   5 -15   11.53    4.65
   1   5 -15   15.02    4.70
   1   5 -15    3.03    4.63
   1   5 -15   20.60    7.70
   1  -5  15   11.50    6.54
   1  -5  15   12.68    4.97
  -1  -6  15   16.21    4.44
  -1   6 -15   32.82    9.10
  -1   6 -15   14.63    5.86
  -1   6 -15    2.13    5.47
   1   6 -15   12.98    5.76
   1   6 -15   10.24    5.76
  -1   7 -15   16.47    6.87
  -1   7 -15   10.09    7.28
   1   7 -15    3.28    7.04
   1   7 -15    9.82    6.64
  -2   7  15  -12.52    8.11
   2   7  15   11.52    9.63
   2   7  15   -4.96    9.26
  -2   6  15   15.23    6.88
  -2   6  15    8.40    7.39
  -2  -6 -15   -0.87    7.15
   2   6  15   -3.55    7.38
   2   6  15    7.62    4.31
   2  -6 -15    9.11    7.32
   2   6  15   19.40    8.07
  -2  -5 -15   -7.05    6.05
  -2   5  15   12.06    5.38
  -2  -5 -15   -3.95    4.48
  -2   5  15   -9.98    5.84
   2  -5 -15    0.31    6.00
   2   5  15    8.25    8.12
   2   5  15    6.19    6.02
  -2  -4 -15   -3.33    3.95
  -2  -4 -15   -5.10    5.24
  -2   4  15    1.60    4.03
  -2   4  15    0.45    5.17
  -2   4  15   -1.53    4.63
  -2   4  15    0.39    4.46
   2  -4 -15   -9.99    5.69
   2   4  15    1.50    4.84
   2   4  15   -8.57    5.13
   2  -4 -15   10.55    4.09
  -2   3  15   13.27    4.03
  -2   3  15   10.95    4.24
  -2  -3 -15   20.02    3.88
  -2   3  15   11.74    4.42
  -2  -3 -15   19.01    4.10
  -2   3  15   20.21    5.48
  -2  -3 -15   19.62    5.88
   2   3  15   13.41    4.39
   2   3  15   11.30    3.57
   2   3  15    9.84    5.01
   2  -3 -15   18.36    3.93
   2  -3 -15    6.28    4.41
   2  -3 -15   21.55    5.52
   2   3  15    9.36    4.39
  -2  -2 -15    5.40    3.08
  -2  -2 -15    0.01    3.98
  -2   2  15    0.03    3.55
  -2  -2 -15    7.97    4.48
  -2   2  15    5.21    4.23
  -2   2  15   -0.74    3.52
   2  -2 -15   -0.04    3.60
   2   2  15    8.30    3.77
   2  -2 -15    6.15    3.24
   2   2  15   12.48    3.27
   2  -2 -15   -0.06    4.07
   2   2  15    0.06    3.41
   2   2  15    1.09    3.83
  -2  -1 -15   47.66    5.76
  -2   1  15   42.82    6.45
  -2  -1 -15   52.36    5.06
  -2   1  15   41.17    5.93
  -2  -1 -15   45.54    6.71
  -2   1  15   60.20    6.34
   2  -1 -15   38.14    5.30
   2   1  15   39.69    6.16
   2   1  15   43.54    6.37
   2   1  15   54.57    5.87
   2  -1 -15   51.76    6.16
   2  -1 -15   37.50    6.43
  -2   0  15    1.69    2.74
  -2   0  15    0.56    3.07
  -2   0  15   -5.78    3.21
  -2   0 -15    0.43    3.70
  -2   0 -15    3.75    2.92
  -2   0 -15   -1.27    2.33
   2   0 -15    3.26    3.11
   2   0 -15   -3.89    4.10
   2   0  15   -2.66    3.39
   2   0 -15   -1.29    3.46
   2   0  15   -1.11    3.27
  -2   1 -15   33.45    4.17
  -2  -1  15   50.22    6.09
  -2   1 -15   43.88    4.79
  -2  -1  15   42.61    5.83
  -2   1 -15   45.62    6.31
  -2   1 -15   38.10    5.66
  -2  -1  15   36.47    5.11
   2   1 -15   42.59    5.72
   2  -1  15   38.82    5.43
   2  -1  15   35.28    5.77
   2   1 -15   32.81    5.73
   2   1 -15   51.99    6.94
  -2  -2  15    0.15    3.97
  -2   2 -15    3.25    2.63
  -2  -2  15    2.41    2.82
  -2  -2  15    5.69    2.69
  -2   2 -15    7.84    3.93
  -2   2 -15    4.65    3.12
  -2   2 -15    0.36    3.24
   2   2 -15    6.21    3.31
   2   2 -15    0.20    3.39
   2   2 -15    5.66    4.28
   2   2 -15    2.46    3.45
   2  -2  15    3.01    4.06
   2  -2  15   -5.33    3.19
  -2   3 -15   10.68    3.10
  -2   3 -15   18.60    4.35
  -2   3 -15   18.18    4.38
  -2  -3  15   18.76    6.97
  -2  -3  15   15.66    3.37
  -2  -3  15   15.32    3.44
  -2   3 -15   13.51    3.62
  -2  -3  15   17.87    5.39
   2   3 -15   18.79    4.10
   2   3 -15   13.89    4.29
   2   3 -15   11.50    5.53
   2  -3  15   15.00    5.18
   2   3 -15   20.04    4.30
  -2   4 -15    2.88    4.54
  -2  -4  15   -1.45    6.36
  -2   4 -15    3.03    3.93
  -2   4 -15    5.80    4.51
  -2  -4  15   -7.66    5.82
  -2  -4  15    1.22    3.45
   2   4 -15   14.57    4.35
   2  -4  15    4.12    6.13
   2   4 -15   -7.67    6.08
   2   4 -15   -2.04    4.05
   2   4 -15   -0.99    4.14
  -2   5 -15    8.16    4.86
  -2  -5  15   10.35    3.97
  -2   5 -15   12.31    5.96
  -2   5 -15    6.96    4.83
   2   5 -15    4.30    4.77
   2   5 -15   -2.95    5.14
  -2   6 -15   10.64    7.61
  -2   6 -15   10.76    5.94
  -2  -6  15    5.33    4.21
  -2   6 -15    1.30    5.97
   2   6 -15   21.91    5.96
   2   6 -15   17.60    7.06
  -2   7 -15    0.32   11.76
  -2   7 -15    9.92    6.44
  -2   7 -15    7.42    7.36
   2   7 -15   -6.61    8.01
   2   7 -15   -0.30    6.94
  -3   7  15   -9.65    9.05
  -3   7  15  -11.28    8.39
   3   7  15   -1.93   10.06
   3   7  15   -1.44   10.12
  -3   6  15   17.49    7.22
  -3  -6 -15   -0.20    8.29
  -3   6  15    5.69    7.67
   3  -6 -15   16.65    7.54
   3   6  15    5.63    7.74
   3   6  15   18.62    8.66
  -3  -5 -15   -3.44    4.96
  -3   5  15   -0.35    6.59
  -3  -5 -15   -3.14    6.62
  -3   5  15    7.70    5.75
   3   5  15   -9.28    6.24
   3  -5 -15    7.29    6.30
  -3  -4 -15   -3.49    4.04
  -3   4  15   -5.60    4.33
  -3  -4 -15    1.60    6.12
  -3   4  15    3.77    4.80
  -3   4  15   -1.40    4.51
  -3   4  15   -1.44    5.54
   3  -4 -15    5.16    4.03
   3   4  15   -2.89   10.52
   3   4  15   -7.20    5.18
   3  -4 -15   -7.79    5.96
  -3   3  15    6.03    4.34
  -3  -3 -15   -3.61    3.33
  -3  -3 -15    2.36    3.35
  -3   3  15    4.96    4.03
  -3   3  15   -1.10    4.42
  -3  -3 -15   -0.60    5.57
  -3   3  15   -2.19    4.12
   3  -3 -15    0.56    3.65
   3   3  15    3.47    4.57
   3   3  15   -0.92    4.26
   3  -3 -15    9.12    5.45
   3  -3 -15    3.66    4.58
   3   3  15    4.21    5.14
  -3   2  15   -1.68    4.27
  -3   2  15   -3.26    3.80
  -3  -2 -15    1.22    3.11
  -3  -2 -15    4.73    3.23
  -3   2  15    3.20    3.51
  -3   2  15    7.97    4.25
  -3  -2 -15    0.89    4.82
   3   2  15    3.13    4.56
   3  -2 -15    8.84    4.08
   3  -2 -15    2.65    3.34
   3   2  15    3.81    4.10
   3  -2 -15    1.42    4.39
  -3   1  15   31.07    4.46
  -3   1  15   31.23    4.99
  -3  -1 -15   23.54    5.21
  -3   1  15   34.06    5.19
  -3   1  15   23.89    4.82
  -3  -1 -15   26.08    4.52
  -3  -1 -15   32.37    4.18
   3   1  15   24.30    4.99
   3  -1 -15   27.45    5.12
   3  -1 -15   30.91    4.47
   3  -1 -15   29.11    5.88
   3   1  15   18.93    4.81
  -3   0  15    6.19    4.31
  -3   0  15    0.96    4.97
  -3   0 -15   -0.48    2.51
  -3   0 -15   -2.11    4.02
  -3   0  15    4.44    3.57
  -3   0 -15    7.05    3.16
   3   0  15   -0.84    4.46
   3   0 -15   -2.99    2.92
   3   0  15    0.74    3.43
   3   0 -15   -3.77    4.23
  -3  -1  15   28.40    4.09
  -3   1 -15   22.81    5.05
  -3   1 -15   33.59    4.24
  -3  -1  15   32.13    4.34
  -3   1 -15   27.75    4.22
  -3  -1  15   40.41    7.30
   3   1 -15   31.28    5.63
   3   1 -15   32.13    4.94
   3   1 -15   37.74    5.46
  -3  -2  15    3.78    3.49
  -3  -2  15    1.17    4.39
  -3  -2  15    6.55    3.13
  -3   2 -15    3.05    2.34
  -3   2 -15    1.51    3.00
  -3   2 -15    2.73    3.22
  -3  -2  15   15.35    5.67
  -3   2 -15    3.52    3.83
   3   2 -15   -0.32    3.61
   3   2 -15    2.11    4.99
   3   2 -15    2.39    3.98
   3  -2  15   -0.53    3.95
   3   2 -15    5.48    3.59
  -3  -3  15   -2.06    3.31
  -3   3 -15   -4.03    3.53
  -3  -3  15    3.65    4.56
  -3  -3  15    0.69    3.02
  -3   3 -15    5.20    3.85
  -3   3 -15    4.45    3.25
   3   3 -15   -1.13    3.88
   3   3 -15   -0.38    3.85
   3   3 -15    1.91    4.16
   3  -3  15    1.91    4.18
   3   3 -15   -4.39    5.60
  -3  -4  15    5.06    3.85
  -3  -4  15   -0.47    2.86
  -3   4 -15   11.98    3.97
  -3   4 -15   -0.21    4.09
  -3  -4  15   -1.33    4.79
   3   4 -15    1.33    4.39
   3   4 -15    9.37    4.82
   3   4 -15    3.30    4.44
  -3   5 -15   11.36    4.95
  -3   5 -15   -3.62    4.78
  -3  -5  15    4.71    3.98
  -3   5 -15   -5.45    5.55
  -3  -5  15    6.33    5.33
   3   5 -15    0.22    5.36
   3   5 -15    5.91    5.59
  -3  -6  15    7.15    5.04
  -3   6 -15    5.15    7.76
  -3   6 -15   21.17    6.03
   3   6 -15    3.02    6.75
   3   6 -15    9.27    6.40
  -3   7 -15   -1.34    6.54
  -3   7 -15    7.64    6.44
   3   7 -15    7.17    8.86
   3   7 -15   24.75    8.55
  -4   7  15    8.03   12.39
  -4   7  15   -2.00   10.25
   4   7  15   20.75   11.65
   4   7  15   -2.09   11.24
  -4  -6 -15   12.24    9.55
  -4   6  15   10.52    7.18
   4   6  15   27.63   10.07
   4   6  15   17.50    8.85
  -4  -5 -15    1.28    7.52
  -4  -5 -15   15.75    5.77
  -4   5  15    1.76    6.49
  -4   5  15    2.54    5.57
   4   5  15    7.17    8.13
   4   5  15    4.56    6.82
  -4  -4 -15   -0.20    6.86
  -4   4  15    2.19    4.93
  -4  -4 -15   -6.42    4.45
  -4   4  15   -8.86    4.49
  -4   4  15   -1.88    5.17
   4  -4 -15   -4.51    6.00
   4   4  15    0.62    5.69
   4   4  15   14.45    6.40
  -4   3  15    3.15    4.42
  -4   3  15    0.85    3.93
  -4  -3 -15    8.56    4.14
  -4  -3 -15    5.97    3.57
  -4  -3 -15   -0.30    6.00
  -4   3  15    1.67    4.84
  -4   3  15   -1.70    4.59
   4  -3 -15    0.16    5.41
   4   3  15   -1.37    5.42
   4  -3 -15   -4.13    3.77
  -4   2  15   -8.60    4.53
  -4   2  15    6.91    4.38
  -4  -2 -15   -4.50    3.37
  -4  -2 -15    4.21    3.26
  -4   2  15    1.51    4.25
  -4   2  15    2.75    3.32
   4  -2 -15    2.64    3.91
   4   2  15    2.17    4.87
   4  -2 -15    5.04    4.84
   4  -2 -15   10.32    5.46
  -4  -1 -15    2.13    3.22
  -4   1  15    0.76    4.81
  -4   1  15    2.17    3.43
  -4  -1 -15   -1.69    4.67
  -4  -1 -15    0.82    2.75
   4  -1 -15    2.65    4.20
   4   1  15   -6.46    4.02
   4  -1 -15   -5.92    4.72
   4   1  15   -3.49    4.34
  -4   0 -15    5.59    4.32
  -4   0 -15    0.45    2.39
  -4   0  15   -5.76    4.47
  -4   0  15   -2.03    4.86
  -4   0  15   -3.56    3.88
  -4   0  15    2.02    3.20
  -4   0 -15    2.31    3.03
   4   0 -15   -2.71    4.04
   4   0 -15   -1.79    2.47
   4   0 -15    7.85    5.08
   4   0  15    0.32    3.69
   4   0 -15   -7.53    3.58
   4   0  15    5.20    4.35
  -4   1 -15    0.47    2.30
  -4   1 -15   -4.11    3.90
  -4  -1  15    4.37    5.10
  -4  -1  15    5.42    4.48
  -4   1 -15    4.06    3.18
  -4  -1  15    5.01    3.36
  -4  -1  15   -1.05    3.39
   4   1 -15   -2.13    5.55
   4   1 -15    1.65    3.70
   4   1 -15   -4.84    3.82
  -4   2 -15    0.08    3.95
  -4  -2  15   -1.80    3.45
  -4  -2  15   -1.63    4.78
  -4   2 -15   -0.95    3.35
  -4  -2  15   -3.27    5.50
  -4  -2  15    4.23    3.40
   4   2 -15    1.32    3.73
   4   2 -15    2.25    4.32
   4   2 -15    8.19    6.40
   4   2 -15   -3.01    4.24
  -4   3 -15    5.11    4.13
  -4  -3  15    4.64    5.87
  -4  -3  15   -0.58    3.57
  -4  -3  15   -2.36    3.49
  -4   3 -15    3.28    3.30
   4   3 -15   -6.53    4.11
   4   3 -15    4.17    4.81
  -4  -4  15   -0.58    3.48
  -4   4 -15    6.39    4.28
  -4  -4  15    6.69    3.79
  -4  -4  15  -14.48    6.76
  -4   4 -15    5.06    4.31
   4   4 -15    3.70    5.44
   4   4 -15    6.14    4.87
   4   4 -15   -5.34    4.68
  -4   5 -15    7.58    5.26
  -4  -5  15    9.61    8.79
  -4  -5  15   -7.41    4.24
  -4  -5  15   -4.70    4.12
  -4   5 -15    7.96    4.87
  -4   5 -15   10.46    6.05
   4   5 -15   -1.02    5.51
   4   5 -15    3.77    5.60
  -4  -6  15   -3.21    4.65
  -4   6 -15   10.65    6.04
  -4  -6  15    3.35    5.29
  -4   6 -15    6.72    5.66
   4   6 -15   15.60    7.56
   4   6 -15    4.04    6.78
  -4   7 -15    5.68    6.75
  -4   7 -15    0.29    7.06
   4   7 -15   -2.78    9.42
   4   7 -15   20.33    9.69
  -5   6  15    3.63    8.49
  -5   6  15    9.76    7.80
   5   6  15   15.95   10.01
   5   6  15  -19.00    9.22
  -5   5  15   -1.24    6.11
  -5  -5 -15   -5.62    7.57
  -5  -5 -15  -12.50    5.88
  -5   5  15    9.71    7.66
   5   5  15   -5.21    8.04
   5  -5 -15   15.69    6.25
   5   5  15   11.58    8.08
  -5   4  15    9.94    5.28
  -5   4  15   15.81    5.58
  -5  -4 -15   22.00    4.88
  -5  -4 -15    0.84    6.79
  -5   4  15   10.26    6.02
   5   4  15    8.80    6.82
   5  -4 -15    3.57    5.90
  -5   3  15   28.15    5.13
  -5  -3 -15   17.78    6.96
  -5  -3 -15   18.23    4.28
  -5   3  15   21.39    5.65
  -5   3  15   22.35    5.84
   5   3  15   30.40    6.66
   5  -3 -15   33.29    6.30
  -5   2  15    7.25    4.79
  -5   2  15    1.20    5.11
  -5  -2 -15    4.40    4.01
  -5   2  15   -3.90    3.94
  -5  -2 -15   10.63    6.16
  -5  -2 -15   -2.01    3.42
   5   2  15    0.73    5.14
   5  -2 -15    4.59    4.70
   5   2  15    2.60    5.15
  -5  -1 -15   -0.32    3.35
  -5   1  15    5.87    3.59
  -5  -1 -15    5.32    3.10
  -5   1  15    2.23    4.02
  -5  -1 -15    6.80    5.11
   5   1  15    8.76    4.46
   5  -1 -15   10.10    4.86
   5   1  15   12.49    5.24
  -5   0  15   -3.68    3.93
  -5   0 -15   -1.43    3.17
  -5   0 -15   -1.15    2.63
  -5   0  15    6.17    3.65
  -5   0 -15   -7.40    4.45
   5   0  15    1.45    5.25
   5   0 -15   -1.97    4.21
   5   0 -15   -1.09    3.99
   5   0 -15    3.64    2.85
  -5   1 -15    8.97    3.48
  -5  -1  15    6.23    4.03
  -5   1 -15    5.51    4.55
  -5  -1  15   -1.26    3.60
  -5  -1  15    5.01    5.28
   5   1 -15    2.00    2.76
   5   1 -15    0.52    4.67
   5   1 -15    2.16    4.04
  -5  -2  15   -2.57    3.78
  -5  -2  15   -1.39    5.99
  -5  -2  15   -0.88    4.09
  -5   2 -15    4.82    4.42
   5   2 -15    3.21    4.63
   5   2 -15    4.77    4.26
  -5  -3  15   30.75    4.99
  -5   3 -15   19.36    5.26
  -5  -3  15   33.10    7.13
  -5  -3  15   28.51    5.45
   5   3 -15   23.24    5.49
   5   3 -15   13.81    5.65
   5   3 -15   21.27    5.23
  -5  -4  15   10.26    4.65
  -5  -4  15   -4.51    6.97
  -5   4 -15   18.11    4.86
  -5   4 -15   13.51    4.93
  -5  -4  15   15.69    4.77
   5   4 -15    6.75    5.62
   5   4 -15   13.60    5.85
   5   4 -15    5.34    7.08
  -5   5 -15   -4.40    5.14
  -5  -5  15    8.91    7.63
  -5   5 -15    8.52    5.48
  -5  -5  15   -2.32    5.13
  -5  -5  15    4.01    4.81
   5   5 -15    2.26    5.87
   5   5 -15    4.62    6.11
  -5  -6  15   -4.23    5.54
  -5   6 -15   10.63    6.46
  -5  -6  15    2.40    5.62
  -5   6 -15    8.00    6.13
   5   6 -15   -0.47    7.48
   5   6 -15   14.53    8.06
  -6   5  15   -0.43    6.45
  -6   5  15   -6.18    7.45
  -6  -5 -15  -16.08    8.80
   6   5  15  -10.40    9.65
   6  -5 -15    5.50    7.23
  -6  -4 -15    9.00    8.09
  -6   4  15    9.15    6.92
  -6   4  15    3.71    5.31
  -6   4  15    4.67    6.06
   6   4  15   -3.58    7.65
   6  -4 -15   10.96    7.78
   6  -4 -15   -2.25    6.11
  -6  -3 -15   -4.27    7.15
  -6  -3 -15    7.36    4.79
  -6   3  15    6.52    6.28
  -6   3  15    0.72    4.77
  -6   3  15    1.79    5.22
   6  -3 -15   -7.71    8.01
   6   3  15   10.01    6.45
  -6  -2 -15    1.52    3.71
  -6   2  15   -6.01    3.98
  -6   2  15   -7.75    4.47
  -6  -2 -15    3.31    6.61
  -6  -2 -15    0.93    4.26
   6   2  15   14.13    5.84
   6  -2 -15    5.22    5.75
   6  -2 -15   -2.26    4.91
  -6  -1 -15    4.85    4.02
  -6  -1 -15    2.82    3.36
  -6   1  15   -3.99    4.01
  -6   1  15   -6.33    4.91
  -6  -1 -15    3.46    5.72
   6  -1 -15    5.08    5.30
   6  -1 -15   -2.20    6.70
   6   1  15   14.81    5.86
  -6   0  15   -8.23    4.22
  -6   0  15   -3.91    3.82
  -6   0 -15    2.92    3.58
  -6   0 -15   -0.55    5.21
  -6   0 -15    6.21    2.78
   6   0 -15    3.00    4.18
   6   0 -15    0.97    3.58
  -6  -1  15    5.54    4.19
  -6  -1  15    1.13    4.25
  -6   1 -15   -0.42    5.05
   6   1 -15   -2.07    9.35
   6   1 -15   -0.18    4.62
   6   1 -15   -2.71    3.49
  -6   2 -15    3.00    4.88
  -6  -2  15   -0.78    4.16
  -6  -2  15   -2.16    4.22
   6   2 -15   -1.19    4.65
   6   2 -15    0.38    9.93
  -6   3 -15    4.24    5.23
  -6  -3  15    1.32    4.61
  -6  -3  15   -0.10    4.81
   6   3 -15    6.61    5.14
   6   3 -15    8.88    4.95
  -6   4 -15   10.68    5.77
  -6  -4  15   -7.32    4.79
  -6  -4  15    5.19    5.31
   6   4 -15   -3.71    5.59
   6   4 -15   -4.56    5.73
  -6  -5  15   -4.88    6.10
  -6   5 -15   17.91    6.40
  -6   5 -15  -10.94    7.44
  -6   5 -15   15.88    5.71
  -6  -5  15    2.91    5.32
   6   5 -15   -8.29    6.17
   6   5 -15   13.39    6.98
  -6   6 -15   -6.80    6.68
  -6   6 -15   -1.80    6.31
   6   6 -15    4.61    8.13
  -7   5  15   16.29   12.09
  -7  -4 -15    4.18    8.79
  -7   4  15   15.26    9.21
  -7   4  15   10.61    7.29
  -7   4  15    1.93    6.18
   7  -4 -15   -3.95    6.46
   7  -4 -15   16.29    7.71
  -7  -3 -15   20.84    8.66
  -7   3  15   34.34    7.28
  -7   3  15   25.75    6.49
   7  -3 -15   29.59    5.84
   7  -3 -15   23.42    7.06
  -7  -2 -15   -9.47    7.03
  -7   2  15    6.07    5.27
  -7   2  15    9.30    5.85
   7  -2 -15   -1.01    5.14
   7  -2 -15    4.74    6.66
  -7   1  15    5.30    4.85
  -7   1  15   -1.65    5.37
  -7  -1 -15   -5.27    6.67
  -7  -1 -15   -2.41    4.45
   7  -1 -15    6.36    4.51
   7  -1 -15   13.71    6.28
  -7   0 -15    9.66    4.17
  -7   0  15   -5.81    4.94
  -7   0  15   -4.12    4.93
  -7   0 -15   18.25    6.65
   7   0 -15   -5.97    3.97
   7   0 -15   -2.61    5.26
  -7  -1  15    3.05    5.21
  -7   1 -15   -9.09    5.81
  -7  -1  15    6.01    4.99
   7   1 -15    1.91    4.84
   7   1 -15    1.47    3.92
  -7   2 -15    1.99    5.74
  -7  -2  15    3.56    4.91
  -7  -2  15    2.64    5.36
   7   2 -15   -5.10    3.98
   7   2 -15    0.91    5.39
  -7  -3  15   30.74    6.19
  -7  -3  15   32.88    6.68
   7   3 -15   28.72    6.17
  -7   4 -15   -4.29    5.92
  -7  -4  15   -2.00    5.77
  -7  -4  15    4.66    5.78
   7   4 -15    1.18    6.66
   7   4 -15    0.84    6.51
  -7  -5  15   -5.29    6.97
  -7   5 -15    9.57    6.85
  -7  -5  15    8.05    6.95
   7   5 -15    1.47    7.56
  -8  -3 -15    6.38    8.83
  -8   3  15   -3.12    6.53
  -8   3  15   -1.21    7.02
   8  -3 -15   -0.80    6.64
   8  -3 -15    1.27    7.16
  -8   2  15    4.01    6.61
  -8   2  15    5.82    5.93
  -8  -2 -15  -10.70    7.98
   8  -2 -15  -10.46    6.34
  -8   1  15    7.74    5.78
  -8  -1 -15    9.47    8.12
  -8   1  15    3.73    6.12
   8  -1 -15    5.16    5.56
   8  -1 -15    3.84   11.40
  -8   0  15   -3.55    5.90
  -8   0 -15   -4.57    4.91
  -8   0 -15   -0.68    7.52
  -8   0  15  -10.35    5.57
   8   0 -15    0.73    5.08
   8   0 -15    8.87    6.43
  -8  -1  15    4.19    6.17
  -8  -1  15    4.46    6.05
  -8   1 -15   22.25    7.18
   8   1 -15    2.67    4.94
   8   1 -15    8.07    5.92
  -8  -2  15   -3.40    7.15
  -8   2 -15   -5.55    6.40
  -8  -2  15    5.04    5.97
   8   2 -15   -5.33    6.20
   8   2 -15   -8.23    5.32
  -8  -3  15   -6.02    6.57
  -8  -3  15    6.39    6.26
  -8   3 -15   -6.38    7.10
   8   3 -15   -5.56    6.67
   9  -1 -15   -0.11    6.82
  -9   0  15    1.04    7.17
  -9   0 -15   10.99    8.93
   9   0 -15   -2.49    6.61
  -9   1 -15   18.97    9.00
   9   1 -15    7.10    6.45
   0   7  16    5.00   10.36
   0   7  16   11.84   10.56
   0   6  16   11.20    5.64
   0  -6 -16   -2.81    7.58
   0   6  16   15.50    8.35
   0   6  16   -2.66    8.26
   0   5  16   -1.22    6.68
   0   5  16    7.05    4.87
   0   5  16   -5.94    6.60
   0  -4 -16   -6.46    6.44
   0  -4 -16   -4.45    4.05
   0   4  16  -11.11    5.65
   0   3  16   -7.14    4.13
   0   3  16   -4.03    4.38
   0   3  16    6.70    5.22
   0  -3 -16   -3.21    5.47
   0  -3 -16   -0.27    3.66
   0  -2 -16   54.18    7.13
   0   2  16   53.40    7.40
   0  -2 -16   70.13    6.89
   0  -2 -16   61.34    7.67
   0   2  16   42.80    7.58
   0   2  16   58.32    7.85
   0   2  16   52.38    6.45
   0   1  16   -0.41    4.08
   0   1  16   -3.98    3.85
   0   1  16    1.15    4.13
   0   1  16    4.68    3.49
   0  -1 -16    4.43    3.59
   0  -1 -16   -4.48    4.03
   0  -1 -16    0.78    3.01
   0   0  16    4.44    4.65
   0   0 -16    4.15    3.01
   0   0  16   -0.48    4.42
   0   0  16    4.98    3.78
   0   0 -16   -5.88    3.52
   0   0 -16   -1.02    3.77
   0   0  16    5.36    3.28
   0   1 -16   -1.13    3.75
   0   1 -16   -4.39    2.98
   0  -1  16    5.69    3.67
   0   2 -16   74.62    7.26
   0   2 -16   48.07    7.83
   0   2 -16   66.33    6.04
   0  -2  16   64.62    6.84
   0   2 -16   69.82    6.42
   0   3 -16    5.36    3.85
   0   3 -16    5.84    5.24
   0   3 -16   -4.08    3.53
   0  -3  16   -3.66    3.39
   0  -3  16   -2.41    5.50
   0   3 -16    2.54    3.76
   0  -4  16   -2.50    3.65
   0   4 -16   -0.33    3.69
   0   4 -16   -5.44    4.42
   0  -4  16   21.14    6.61
   0  -4  16    7.49    4.90
   0   4 -16   -5.10    6.34
   0   4 -16    4.32    4.34
   0   5 -16   -9.55    7.46
   0   5 -16    0.75    5.10
   0   5 -16    2.82    4.84
   0  -5  16    8.79    4.24
   0   6 -16    1.49    6.11
   0   6 -16   16.07    6.51
   0   7 -16   -4.14    7.50
   0   7 -16    8.38    7.83
  -1   7  16   16.05   10.72
  -1   7  16   -2.01   10.72
   1   7  16    2.22   10.48
   1   7  16    3.98   11.06
  -1   6  16  -12.02    8.37
  -1   6  16   14.76    8.04
  -1  -6 -16    1.40    7.76
   1  -6 -16   -6.21    8.07
   1   6  16   -6.14    8.59
   1   6  16   11.61    7.41
   1   6  16   22.70    8.79
  -1   5  16   -0.94    6.08
  -1   5  16   -5.94    5.00
  -1  -5 -16  -10.94    5.34
  -1  -5 -16   -9.13    6.34
  -1   5  16  -12.36    6.46
   1   5  16   -6.90    6.92
   1   5  16    9.12    6.59
   1  -5 -16   -4.19    6.98
  -1   4  16   -0.58    4.33
  -1   4  16    2.58    5.23
  -1   4  16    8.41    5.63
  -1  -4 -16   -0.94    6.31
  -1  -4 -16   -5.90    4.19
   1  -4 -16   -5.49    6.50
   1   4  16   -1.74    5.25
   1   4  16   -4.10    6.77
   1  -4 -16   -1.66    4.38
  -1  -3 -16   -1.37    5.32
  -1  -3 -16    1.81    3.51
  -1   3  16   13.47    6.51
  -1   3  16    5.73    4.44
  -1   3  16    9.14    5.70
   1  -3 -16    9.70    3.95
   1  -3 -16   14.80    6.02
   1   3  16    7.24    6.31
  -1  -2 -16    1.81    3.69
  -1  -2 -16    3.55    4.98
  -1   2  16    3.47    4.29
  -1   2  16    7.98    3.93
  -1   2  16   -7.03    4.48
   1  -2 -16    8.72    3.51
   1   2  16   -8.04    4.14
   1  -2 -16    6.72    4.97
   1   2  16   -4.74    3.68
   1   2  16    3.57    4.00
   1  -2 -16    0.84    4.00
   1   2  16    2.54    4.48
  -1   1  16    0.60    4.01
  -1  -1 -16    2.94    3.25
  -1  -1 -16   -8.27    4.29
  -1   1  16   -5.47    3.37
  -1   1  16    5.59    4.54
  -1  -1 -16   -3.99    3.49
   1   1  16   -1.02    4.42
   1   1  16    1.97    4.04
   1  -1 -16   -0.33    3.36
   1   1  16    4.62    3.73
   1   1  16    5.42    4.60
   1  -1 -16   -4.34    4.45
  -1   0  16    6.94    4.75
  -1   0  16   -0.12    3.28
  -1   0 -16    0.18    3.81
  -1   0  16    7.17    3.72
  -1   0  16   -5.39    3.66
  -1   0 -16   -1.50    2.87
   1   0 -16    2.16    3.99
   1   0  16   10.71    4.38
   1   0 -16   -1.01    3.18
   1   0 -16   -4.57    3.54
   1   0  16    8.25    3.87
   1   0  16   -4.45    4.34
  -1   1 -16   -5.56    3.75
  -1  -1  16   -5.08    3.58
  -1   1 -16    0.19    3.01
  -1  -1  16    8.68    3.86
  -1  -1  16    1.77    3.08
  -1  -1  16    6.49    5.02
   1   1 -16   -5.10    3.86
   1  -1  16   -4.20    3.65
   1   1 -16   -1.39    3.31
   1  -1  16   -1.28    3.81
   1   1 -16    1.11    4.21
  -1   2 -16    4.38    3.47
  -1   2 -16    6.29    3.88
  -1  -2  16   -1.08    4.65
  -1   2 -16    9.55    4.17
  -1   2 -16    4.31    3.10
  -1  -2  16    9.04    3.68
   1   2 -16    2.70    3.70
   1   2 -16   -0.60    4.50
   1  -2  16    2.46    5.53
   1   2 -16   13.38    4.28
   1  -2  16    9.53    4.09
   1   2 -16   -2.39    4.64
  -1   3 -16    6.91    3.58
  -1  -3  16    0.47    4.00
  -1  -3  16   -1.68    5.71
  -1   3 -16    6.96    4.07
  -1   3 -16   -0.18    4.46
   1   3 -16   -4.30    3.83
   1   3 -16    1.40    5.87
   1  -3  16    8.73    5.57
   1   3 -16   -0.86    5.49
   1   3 -16   -5.15    3.77
   1  -3  16    5.27    3.38
  -1   4 -16    2.56    4.13
  -1   4 -16    9.25    5.97
  -1   4 -16   -2.67    4.40
  -1  -4  16   -6.02    8.45
  -1  -4  16   -4.35    3.68
  -1   4 -16   -0.66    3.59
   1  -4  16    5.55    3.79
   1  -4  16    4.91    6.58
   1   4 -16   -0.21    4.27
   1  -4  16   -8.66    4.45
   1   4 -16   -1.75    4.32
   1   4 -16   -3.15    4.27
   1   4 -16    1.90    6.92
  -1   5 -16    7.68    4.99
  -1   5 -16    1.39    5.35
  -1  -5  16    2.08    3.96
  -1   5 -16  -13.66    7.48
   1   5 -16    5.32    5.23
   1   5 -16    3.67    5.16
  -1   6 -16   11.52   11.26
  -1   6 -16   12.28    6.46
  -1   6 -16   10.43    6.53
   1   6 -16   17.33    6.59
  -1   7 -16    5.92    8.20
  -1   7 -16   -6.49    7.36
   1   7 -16   11.56    7.73
   1   7 -16    5.77    8.01
  -2   7  16  -14.11   11.28
  -2   7  16  -10.77   10.86
   2   7  16   21.27   10.97
  -2   6  16    4.70    8.10
  -2  -6 -16   -9.50    7.82
   2   6  16   10.56    7.87
   2  -6 -16    6.93    8.46
   2   6  16   16.74    9.48
  -2  -5 -16    0.53    5.47
  -2  -5 -16   -2.00    7.66
  -2   5  16   -2.49    7.15
  -2   5  16    5.99    6.47
   2  -5 -16    0.33    6.95
   2   5  16    7.19    8.09
   2   5  16    6.41    6.55
   2   5  16   -1.37    4.35
  -2   4  16    6.89    5.05
  -2  -4 -16    0.83    4.62
  -2  -4 -16   -9.38    6.10
  -2   4  16    0.75    5.91
  -2   4  16    3.06    5.53
   2  -4 -16   -7.32    5.35
   2   4  16    3.14    5.28
   2   4  16   -2.62    6.24
   2  -4 -16  -11.44    5.83
  -2   3  16   27.97    6.15
  -2  -3 -16   23.61    4.53
  -2   3  16   28.01    6.09
  -2  -3 -16   25.04    6.50
  -2   3  16   24.00    5.26
   2  -3 -16   26.54    5.01
   2   3  16   21.89    6.29
   2  -3 -16   36.23    6.94
   2   3  16   20.47    5.66
  -2  -2 -16   -2.65    3.25
  -2  -2 -16    2.84    5.24
  -2   2  16   -7.35    4.65
  -2   2  16    2.62    4.14
  -2   2  16   -1.59    4.20
  -2   2  16    2.13    3.80
  -2  -2 -16   -0.87    3.81
   2   2  16    1.64    3.75
   2   2  16    3.89    4.98
   2  -2 -16   -0.67    3.49
   2  -2 -16   -3.30    4.83
   2   2  16    0.27    4.46
  -2   1  16   -1.25    4.43
  -2   1  16   -1.60    3.90
  -2  -1 -16   -2.51    3.07
  -2  -1 -16    0.35    4.80
  -2   1  16   -5.80    3.54
  -2  -1 -16    7.30    3.59
  -2   1  16    0.69    4.52
   2   1  16    7.76    4.26
   2  -1 -16    3.97    4.46
   2  -1 -16    2.30    4.12
   2  -1 -16   -0.25    3.41
   2   1  16   -4.71    4.04
   2   1  16   -4.10    4.34
  -2   0 -16   -1.33    3.58
  -2   0  16   -2.28    5.03
  -2   0 -16    1.97    4.31
  -2   0  16    2.72    3.97
  -2   0  16   -1.66    3.50
  -2   0  16    9.53    4.87
  -2   0 -16   -5.06    2.87
   2   0  16    2.60    4.06
   2   0  16   -6.89    4.29
   2   0  16   -3.65    3.58
   2   0 -16   -3.58    3.60
   2   0 -16    6.17    4.20
   2   0 -16   -2.49    3.77
  -2  -1  16   -1.18    2.99
  -2  -1  16   -4.00    5.19
  -2   1 -16    1.16    2.90
  -2  -1  16    3.53    4.11
  -2  -1  16    4.92    3.71
  -2   1 -16   -3.50    3.57
  -2   1 -16   -1.95    3.95
   2  -1  16    2.05    3.95
   2  -1  16    4.00    3.98
   2   1 -16   -0.50    4.05
   2   1 -16    0.95    3.61
   2   1 -16    0.10    4.85
  -2   2 -16   -4.89    2.91
  -2   2 -16   -1.26    4.01
  -2  -2  16    0.30    3.83
  -2   2 -16   -0.78    3.74
  -2   2 -16   -4.42    3.34
  -2  -2  16    4.52    3.12
  -2  -2  16    5.79    4.31
  -2  -2  16    7.40    5.58
   2   2 -16    7.31    5.35
   2  -2  16    2.42    3.63
   2  -2  16    7.16    4.66
   2   2 -16    0.33    3.87
   2   2 -16    6.49    4.34
   2   2 -16   -5.21    3.99
  -2  -3  16   25.49    5.31
  -2   3 -16   25.35    5.04
  -2   3 -16   23.68    4.37
  -2   3 -16   32.15    5.35
  -2  -3  16   25.59    6.52
  -2   3 -16   27.61    5.09
  -2  -3  16   26.22    4.60
   2   3 -16   19.37    4.84
   2   3 -16   28.16    5.00
   2   3 -16   28.66    5.10
   2   3 -16   24.60    6.82
  -2   4 -16   -2.80    4.58
  -2   4 -16   11.27    5.44
  -2   4 -16    9.72    4.39
  -2  -4  16   -5.56    3.63
   2   4 -16    3.83    4.96
   2   4 -16   -1.37    4.43
   2  -4  16    3.97    5.91
   2   4 -16    1.63    4.40
  -2   5 -16    8.91    5.29
  -2   5 -16   -3.14    5.33
  -2  -5  16    4.72    4.52
  -2   5 -16   12.06    7.49
   2   5 -16    4.84    5.45
   2   5 -16   -0.55    5.28
  -2   6 -16    7.23    6.88
  -2   6 -16   16.85    6.86
  -2  -6  16    4.65    5.30
   2   6 -16   13.75    6.59
  -2   7 -16   -3.30    7.63
  -2   7 -16    9.42    7.83
   2   7 -16   13.64    9.12
   2   7 -16   21.10    8.86
  -3   6  16  -10.65    8.30
  -3  -6 -16    1.88    9.17
  -3   6  16    7.41    8.04
   3   6  16   16.48    8.77
   3   6  16   15.69   10.17
   3  -6 -16   15.89    8.92
  -3   5  16   -2.58    6.12
  -3   5  16  -15.22    7.12
  -3  -5 -16  -12.17    7.55
  -3  -5 -16    7.23    5.81
   3  -5 -16   -5.94    7.27
   3   5  16  -13.73    6.98
   3   5  16    1.10    8.01
  -3  -4 -16   -8.65    4.54
  -3   4  16    2.14    5.49
  -3   4  16   11.79    6.55
  -3  -4 -16    2.69    7.17
   3   4  16   -0.79    6.50
   3   4  16   -8.75    6.03
  -3  -3 -16    5.30    4.01
  -3  -3 -16    0.75    6.06
  -3   3  16    6.95    5.20
  -3   3  16    2.12    4.58
  -3   3  16    5.61    5.45
   3  -3 -16    7.48    4.34
   3  -3 -16   11.70    6.14
   3   3  16   14.32    6.28
  -3  -2 -16    6.24    5.67
  -3   2  16    3.09    4.75
  -3  -2 -16    8.11    3.90
  -3  -2 -16   11.51    4.27
  -3   2  16    5.85    4.47
  -3   2  16    2.41    5.02
  -3   2  16   12.03    5.53
   3   2  16    4.05    5.46
   3  -2 -16    7.37    4.11
   3  -2 -16    7.19    4.89
  -3   1  16   16.35    4.72
  -3   1  16    4.36    5.35
  -3  -1 -16   14.49    3.42
  -3   1  16    6.84    5.21
  -3  -1 -16   13.23    3.94
  -3   1  16   13.44    4.08
  -3  -1 -16    4.27    5.41
   3   1  16   13.31    5.51
   3  -1 -16    7.17    4.41
   3  -1 -16    3.96    4.67
   3   1  16    1.15    5.05
  -3   0  16   23.09    4.15
  -3   0  16   19.34    4.66
  -3   0 -16   26.64    4.69
  -3   0 -16   17.85    3.44
  -3   0 -16   22.22    5.24
  -3   0  16   21.18    5.58
  -3   0  16   20.47    5.23
   3   0 -16   20.38    4.56
   3   0 -16   15.23    4.15
   3   0  16   23.02    4.55
   3   0 -16   13.48    5.71
   3   0  16   10.35    5.59
  -3  -1  16   21.63    6.40
  -3   1 -16    6.84    4.89
  -3   1 -16    3.31    3.70
  -3  -1  16    8.29    3.64
  -3  -1  16   12.63    4.40
  -3   1 -16    7.37    3.14
   3   1 -16   11.16    8.08
   3   1 -16   13.79    3.96
   3  -1  16    0.21    3.71
   3   1 -16   14.08    4.49
   3  -1  16    8.12    4.35
  -3   2 -16   -0.26    3.39
  -3   2 -16   -3.44    2.87
  -3   2 -16    2.96    4.14
  -3   2 -16   11.88    4.96
  -3  -2  16    4.06    3.94
   3   2 -16   -1.89    4.24
   3  -2  16    1.98    4.34
   3   2 -16   10.16    4.47
   3   2 -16    2.16    4.94
  -3  -3  16    6.69    3.74
  -3   3 -16    1.62    3.63
  -3  -3  16   -7.21    4.96
  -3   3 -16    5.76    4.56
  -3   3 -16   15.30    5.19
  -3  -3  16    3.41    4.01
   3   3 -16   12.37    5.09
   3   3 -16    4.51    4.80
   3   3 -16    9.32    4.76
   3  -3  16   -3.37    4.71
  -3  -4  16   -3.74    5.57
  -3   4 -16    3.64    5.79
  -3   4 -16   16.29    5.22
  -3  -4  16    2.01    4.18
  -3   4 -16    5.78    4.56
   3   4 -16   -1.21    4.94
   3   4 -16    8.02    5.66
   3   4 -16    6.17    5.23
  -3   5 -16    5.28    5.94
  -3   5 -16   -2.64    5.77
  -3   5 -16    7.01    5.34
  -3  -5  16    2.18    4.77
   3   5 -16    1.60    6.22
   3   5 -16   -1.97    5.86
  -3   6 -16   15.78    6.97
  -3  -6  16    5.13    5.62
  -3   6 -16   10.96    6.41
   3   6 -16   13.01    7.39
   3   6 -16   -2.21    7.41
  -4   6  16    9.54   10.01
  -4  -6 -16   24.39   10.94
  -4   6  16    9.36    8.53
   4   6  16    7.35   10.62
   4  -6 -16   18.02    8.27
   4   6  16   23.77   10.23
  -4  -5 -16    2.40    8.22
  -4   5  16    3.13    6.98
  -4   5  16    1.29    8.34
  -4  -5 -16   -2.55    6.14
   4   5  16    5.72    8.20
   4  -5 -16   -8.63    6.44
   4   5  16   12.08    8.78
  -4   4  16   -1.54    5.90
  -4   4  16    6.65    6.46
  -4  -4 -16    1.50    7.95
  -4  -4 -16   -2.28    4.76
   4   4  16   -1.08    6.98
  -4  -3 -16   -5.51    6.92
  -4   3  16    5.15    5.53
  -4   3  16    5.61    5.63
  -4  -3 -16   -0.22    3.94
  -4   3  16    2.84    4.92
   4  -3 -16    4.54    5.78
   4   3  16    6.98    6.36
  -4   2  16    8.71    4.32
  -4  -2 -16   -2.38    5.72
  -4   2  16    2.14    5.67
  -4   2  16   12.34    5.18
  -4  -2 -16    5.75    3.81
  -4  -2 -16    6.02    4.12
   4  -2 -16    4.90    5.81
   4  -2 -16   -2.66    4.42
   4   2  16    5.92    5.68
  -4   1  16    5.83    4.85
  -4  -1 -16   14.34    3.41
  -4  -1 -16   13.80    5.60
  -4   1  16   14.24    4.29
  -4  -1 -16   18.88    4.23
   4  -1 -16   12.22    5.26
   4   1  16    3.54    4.79
  -4   0 -16   30.02    5.06
  -4   0 -16   26.96    5.99
  -4   0  16   23.44    4.64
  -4   0  16   28.00    5.60
  -4   0 -16   28.86    4.39
  -4   0  16   14.78    5.54
   4   0  16   23.88    4.86
   4   0 -16   22.09    4.97
   4   0 -16   25.93    5.06
  -4  -1  16   12.04    3.84
  -4   1 -16   13.55    4.12
  -4   1 -16   12.64    2.95
  -4   1 -16   13.36    5.25
  -4  -1  16   24.67    6.35
  -4  -1  16   15.54    6.54
   4   1 -16   15.82    4.98
   4   1 -16    2.99    4.67
  -4   2 -16    8.89    4.75
  -4   2 -16   -1.88    4.04
  -4  -2  16    6.80    6.03
  -4  -2  16    8.94    4.21
  -4  -2  16    6.77    4.13
   4   2 -16   13.68    5.08
   4   2 -16   -1.50    4.56
  -4   3 -16   -1.49    3.70
  -4  -3  16   -1.49    3.51
  -4  -3  16    0.13    4.24
  -4  -3  16    0.84    6.14
  -4   3 -16   -2.96    4.65
   4   3 -16   -1.15    5.51
   4   3 -16    1.04    4.69
   4   3 -16    0.53    5.11
  -4   4 -16    4.37    5.11
  -4   4 -16    4.40    5.18
  -4  -4  16    8.23    4.19
  -4  -4  16    0.46    4.97
  -4  -4  16    6.30    6.40
   4   4 -16   22.55    6.75
   4   4 -16   -2.79    5.68
   4   4 -16    3.30    5.80
  -4   5 -16   -0.60    6.38
  -4  -5  16   10.89    4.84
  -4  -5  16    0.83    7.08
  -4   5 -16   11.54    5.77
   4   5 -16   -1.21    6.37
   4   5 -16   -4.35    6.61
  -4  -6  16   14.25    5.72
  -4  -6  16   21.21    8.49
  -4   6 -16   14.21    6.96
  -4   6 -16   21.70    7.87
   4   6 -16    7.50    8.37
   4   6 -16   11.85    7.55
  -5   5  16    5.41    8.42
  -5  -5 -16   -8.14    8.80
  -5   5  16  -15.12    7.26
   5   5  16   17.37    8.93
   5   5  16  -11.97   10.67
   5  -5 -16    0.21    6.81
  -5   4  16   24.26    7.00
  -5   4  16   10.19    7.43
  -5  -4 -16   -5.38    7.84
  -5  -4 -16   13.40    5.66
   5   4  16    6.64    7.86
   5  -4 -16    9.58    7.03
  -5  -3 -16   -7.41    4.53
  -5   3  16    5.09    4.98
  -5  -3 -16   -8.48    7.16
  -5   3  16    3.63    7.03
  -5   3  16    2.47    5.71
   5  -3 -16    2.44    6.56
   5   3  16   -5.39    6.83
  -5  -2 -16   -1.84    6.55
  -5   2  16    5.53    4.59
  -5   2  16    7.44    6.10
  -5  -2 -16   -0.48    3.91
  -5   2  16   -1.77    5.55
   5   2  16   13.81    5.89
   5  -2 -16   -2.02    5.61
  -5   1  16   13.26    5.57
  -5  -1 -16   13.56    4.42
  -5  -1 -16   23.55    6.66
  -5  -1 -16    9.36    3.67
  -5   1  16   17.89    4.92
   5   1  16   30.09    5.49
   5  -1 -16   17.90    5.77
  -5   0  16   51.83    6.82
  -5   0  16   41.83    6.47
  -5   0 -16   36.48    6.81
  -5   0 -16   48.39    5.51
   5   0 -16   44.84    5.43
   5   0 -16   63.39    8.43
   5   0 -16   50.22    7.28
  -5  -1  16    4.06    8.17
  -5  -1  16   10.47    4.50
  -5   1 -16   16.68    4.32
  -5  -1  16    8.51    4.69
  -5   1 -16   11.13    5.26
   5   1 -16    9.59    5.96
   5   1 -16   11.25    5.19
  -5  -2  16    8.61    4.54
  -5  -2  16   -5.91    7.36
  -5   2 -16   -3.63    5.27
  -5  -2  16    1.02    4.18
   5   2 -16   11.45    5.66
   5   2 -16    5.01    5.26
  -5  -3  16   -1.31    4.86
  -5  -3  16   -2.01    4.23
  -5   3 -16    3.97    5.17
  -5  -3  16    0.81    7.49
   5   3 -16    0.92    5.16
   5   3 -16   -3.72    5.36
   5   3 -16    7.28    6.47
  -5   4 -16   12.80    4.78
  -5  -4  16    0.02    8.10
  -5   4 -16   15.78    5.88
  -5  -4  16   16.09    4.85
  -5  -4  16   20.47    5.93
   5   4 -16   16.25    6.38
   5   4 -16   12.33    6.42
  -5  -5  16    6.44    5.88
  -5   5 -16    2.27    5.90
  -5  -5  16   -5.10    5.34
  -5   5 -16    8.89    6.31
   5   5 -16   10.65    7.00
  -6  -5 -16    3.58   10.03
  -6   5  16   -6.44    9.53
   6  -5 -16  -12.98    7.59
  -6   4  16    1.54    7.68
  -6  -4 -16    6.54    8.97
  -6   4  16   14.76    6.75
   6   4  16   10.67   13.82
   6  -4 -16   -4.16    7.31
  -6   3  16   12.11    6.79
  -6   3  16  -13.96    9.62
  -6   3  16    8.49    5.70
  -6  -3 -16  -12.10    7.83
   6   3  16   18.55    8.17
   6  -3 -16   -7.77    7.16
  -6   2  16   -2.05    5.28
  -6   2  16    8.29    6.12
  -6  -2 -16   14.15    7.71
   6  -2 -16   19.33    6.72
   6   2  16    7.35    6.57
   6  -2 -16   -2.89    6.03
  -6   1  16    5.11    5.48
  -6   1  16    3.07    4.92
  -6  -1 -16    3.89    4.57
  -6  -1 -16  -11.31    6.26
  -6  -1 -16   -7.75    5.02
   6  -1 -16    5.09    5.52
   6  -1 -16    0.47    4.26
  -6   0 -16   37.45    7.38
  -6   0 -16   37.52    5.50
  -6   0  16   45.39    6.98
  -6   0 -16   56.48    6.24
  -6   0  16   51.80    8.04
   6   0 -16   48.24    6.23
   6   0 -16   54.77    8.21
  -6   1 -16    2.96    6.19
  -6  -1  16    2.30    4.48
  -6  -1  16    2.04    4.77
   6   1 -16    2.34    4.21
  -6  -2  16   10.19    5.04
  -6  -2  16    3.93    5.30
  -6   2 -16   11.08    5.96
   6   2 -16    8.65    5.65
  -6  -3  16    0.14    5.36
  -6   3 -16   -1.46    6.14
  -6  -3  16    3.17    5.08
   6   3 -16    4.77    5.71
  -6   4 -16   -4.85    6.38
  -6  -4  16    7.42    5.96
  -6  -4  16    1.72    5.34
   6   4 -16   12.19    6.52
  -6  -5  16    5.22    6.73
  -6   5 -16    3.53    6.92
  -6   5 -16   -0.18    6.69
  -6  -5  16    5.90    6.10
   6   5 -16  -13.08    7.52
  -7  -4 -16   -4.18    9.88
   7  -4 -16   -1.14    7.56
  -7  -3 -16    0.19    9.52
  -7   3  16   -3.05    6.45
  -7   3  16   -5.36    6.95
   7  -3 -16  -13.02    6.63
  -7   2  16   -1.17    6.80
  -7   2  16   -6.19    5.54
  -7  -2 -16   -3.07    8.32
   7  -2 -16    4.62    7.03
  -7   1  16    9.60    6.28
  -7  -1 -16    6.31    7.93
  -7   1  16   10.78    6.23
   7  -1 -16   12.13    6.79
   7  -1 -16   15.53    5.35
  -7   0 -16   -5.54    5.09
  -7   0  16    0.93    5.90
  -7   0  16   -8.97    5.24
  -7   0 -16   14.78    7.78
   7   0 -16   -0.19    6.17
   7   0 -16   -1.44    5.04
  -7  -1  16    5.43    5.90
  -7   1 -16   -1.84    7.22
  -7  -1  16    8.42    5.88
  -7   1 -16   -3.64    5.04
  -7  -2  16   -4.41    5.75
  -7   2 -16   -3.67    6.87
  -7  -2  16   -0.66    5.78
   7   2 -16    6.22    6.44
   7   2 -16   -6.58    4.93
  -7   3 -16   -9.13    6.54
  -7  -3  16    1.90    6.61
  -7  -3  16   -7.15    6.12
   7   3 -16   -7.32    6.68
  -7   4 -16    0.68    7.56
  -7  -4  16   12.65    6.85
   7   4 -16    0.14    7.25
  -8   2  16    3.64    7.77
  -8  -2 -16  -10.80    9.98
   8  -2 -16  -10.05    7.19
  -8   1  16    1.40    6.94
  -8   1  16   -3.57    7.44
  -8  -1 -16    8.84    9.56
   8  -1 -16   22.20    6.69
   8  -1 -16    8.46    7.78
  -8   0  16   -6.93    6.78
  -8   0  16   -4.03    6.79
  -8   0 -16    4.25    8.67
   8   0 -16   10.66    7.36
   8   0 -16   14.11    6.21
  -8  -1  16    4.82    6.87
  -8   1 -16   19.08    8.25
  -8  -1  16    7.90    7.10
   8   1 -16   19.08    7.00
   8   1 -16    8.57    6.20
  -8  -2  16   -3.23    7.15
  -8   2 -16   -0.08    8.36
  -8  -2  16    1.19    7.17
   8   2 -16   -3.74    6.27
   8   2 -16   -7.20    6.70
   0   6  17   -7.69    8.91
   0  -6 -17    3.94    9.30
   0   6  17    3.86   10.23
   0   5  17   -6.23    7.70
   0   5  17    7.19    7.93
   0   4  17    7.37    6.37
   0  -4 -17   -5.57    7.07
   0  -4 -17    6.23    5.35
   0   4  17   -2.67    6.35
   0   3  17    3.98    6.65
   0  -3 -17   -3.70    6.36
   0  -3 -17    6.34    4.80
   0   3  17    3.11    5.38
   0   3  17    2.42    5.77
   0  -2 -17    2.83    4.35
   0   2  17   -1.54    4.64
   0  -2 -17    3.32    4.96
   0   2  17    2.52    5.45
   0  -1 -17    1.10    5.54
   0  -1 -17   -6.89    4.89
   0   1  17    6.16    5.09
   0   1  17   -2.35    3.95
   0   0  17    0.55    4.54
   0   0 -17    2.77    4.36
   0   0  17    2.66    3.69
   0   0 -17    3.11    4.54
   0   0 -17    2.31    3.79
   0   1 -17   -8.68    4.51
   0   1 -17    2.79    4.32
   0  -1  17    4.69    4.44
   0   1 -17   -3.61    3.68
   0  -1  17    9.64    5.17
   0  -2  17   10.61    4.31
   0  -2  17   -3.11    5.28
   0   2 -17    4.91    5.55
   0   2 -17    0.36    4.05
   0   2 -17    9.02    4.14
   0   3 -17   -5.96    4.46
   0   3 -17    0.96    4.34
   0  -3  17    7.70    4.47
   0   3 -17    1.64    6.06
   0  -3  17    8.61    6.68
   0   3 -17    2.15    4.29
   0  -4  17   -0.49    4.47
   0   4 -17    5.67    4.75
   0   4 -17   -0.16    4.93
   0   4 -17   -9.03    4.65
   0   5 -17   10.63    5.85
   0   5 -17   -7.64    5.50
   0   6 -17   -3.56    6.61
   0   6 -17    5.09    7.09
  -1   6  17  -11.99    9.50
  -1  -6 -17   -3.93    8.52
  -1   6  17    3.85    9.66
   1  -6 -17   -7.70    8.52
   1   6  17   26.08   11.27
   1   6  17    5.52    9.11
  -1   5  17   -8.84    7.39
  -1  -5 -17  -12.11    7.94
   1   5  17  -11.15    6.85
   1   5  17   -5.95    8.48
   1  -5 -17   -2.22    8.48
   1   5  17   17.82    7.45
  -1   4  17   10.65    6.75
  -1  -4 -17   14.38    5.28
  -1  -4 -17   14.92    7.79
  -1   4  17   -5.20    5.33
  -1   4  17    9.42    6.38
   1  -4 -17    5.00    7.93
   1   4  17    5.62    7.01
   1   4  17   15.51    6.32
  -1   3  17    3.30    5.23
  -1  -3 -17    6.48    6.40
  -1   3  17    9.48    5.47
  -1  -3 -17   14.93    4.85
  -1   3  17    1.52    5.69
   1   3  17   12.67    4.97
   1   3  17    0.26    5.82
   1   3  17    9.07    5.04
   1  -3 -17    9.70    4.90
   1  -3 -17   20.63    7.37
  -1   2  17    1.27    5.08
  -1  -2 -17   -1.35    3.96
  -1  -2 -17   10.37    5.86
  -1   2  17   -3.42    4.48
  -1   2  17   -3.65    5.05
   1   2  17   15.74    4.71
   1  -2 -17   -0.12    4.23
   1  -2 -17    6.31    5.48
   1   2  17   -0.33    4.93
   1   2  17   18.69    5.16
  -1   1  17    1.75    4.11
  -1  -1 -17   -2.12    3.60
  -1   1  17   -0.88    4.75
  -1  -1 -17   -2.11    4.94
  -1   1  17    2.77    5.10
  -1  -1 -17   -6.70    4.31
   1   1  17    5.76    4.13
   1   1  17    0.93    4.80
   1  -1 -17   -7.04    5.14
   1   1  17    2.22    4.95
   1  -1 -17   -3.53    3.80
  -1   0 -17   -1.23    4.60
  -1   0  17    0.39    4.34
  -1   0  17    3.08    3.81
  -1   0  17    6.76    5.88
  -1   0  17    0.28    4.05
  -1   0 -17   -0.83    4.46
   1   0 -17    5.76    5.73
   1   0 -17   -0.65    4.61
   1   0 -17   -1.58    4.06
   1   0  17    4.02    4.65
   1   0  17   13.51    4.59
  -1   1 -17   -1.26    4.50
  -1  -1  17   11.36    4.47
  -1  -1  17   12.13    5.69
  -1  -1  17    2.21    4.55
  -1  -1  17   -1.49    3.60
  -1   1 -17    1.64    3.70
   1   1 -17    3.49    4.55
   1  -1  17   -2.33    4.26
   1   1 -17    1.60    4.23
   1   1 -17   -6.55    5.10
  -1   2 -17    4.17    5.08
  -1   2 -17    1.12    4.49
  -1   2 -17   -1.88    6.29
  -1  -2  17   -0.61    5.46
  -1   2 -17   14.69    3.82
  -1  -2  17    5.78    4.39
   1   2 -17    4.45    4.78
   1   2 -17   -2.89    6.61
   1  -2  17    5.62    4.24
   1  -2  17    4.91    5.40
   1   2 -17   -0.53    4.40
   1   2 -17   -1.01    3.98
  -1   3 -17   10.97    4.39
  -1   3 -17   14.78    4.74
  -1  -3  17    4.38    9.45
  -1   3 -17   14.00    4.82
  -1  -3  17   14.35    4.84
   1   3 -17   11.42    4.87
   1  -3  17   11.32    4.37
   1   3 -17    4.72    4.48
   1  -3  17   18.29    6.73
  -1  -4  17   13.43    5.03
  -1   4 -17    7.99    5.62
  -1   4 -17   17.69    7.68
  -1   4 -17    6.65    4.97
  -1   4 -17    8.06    4.41
   1   4 -17    4.76    5.41
   1  -4  17   11.53    4.67
   1   4 -17   14.84    5.23
   1   4 -17   11.22    5.47
   1  -4  17    2.67    7.84
  -1   5 -17   -6.89    5.76
  -1  -5  17   -5.02    5.27
  -1   5 -17    5.66    5.56
   1   5 -17    0.89    6.07
   1   5 -17    2.73    5.75
  -1   6 -17    5.09    6.78
  -1   6 -17   12.26    6.96
   1   6 -17    9.20    7.34
   1   6 -17    4.44    7.05
  -2   6  17   -4.34    9.63
  -2  -6 -17  -12.35    9.15
  -2   6  17  -11.60    9.56
   2   6  17    4.68   10.70
   2  -6 -17   16.69    9.26
   2   6  17   -6.01    8.71
  -2  -5 -17   -2.72    8.34
  -2   5  17    5.68    7.61
  -2   5  17    8.30    7.57
   2   5  17   -4.69    8.99
   2   5  17   -6.84    7.31
   2  -5 -17   -7.69    8.29
  -2  -4 -17  -10.77    6.98
  -2   4  17  -12.38    6.65
  -2  -4 -17   -3.75    5.40
  -2   4  17   -2.95    5.74
   2   4  17   -7.79    6.08
   2   4  17   16.39   13.36
  -2  -3 -17   -4.44    4.58
  -2  -3 -17   -0.69    6.50
  -2   3  17    6.80    5.41
  -2   3  17   -1.11    5.83
  -2   3  17   -7.25    5.66
   2  -3 -17   -2.77    4.83
   2   3  17    5.38    7.46
   2   3  17   -9.09    6.87
  -2  -2 -17    8.91    6.39
  -2   2  17   -4.61    4.43
  -2   2  17    6.31    5.49
  -2  -2 -17    1.08    4.21
  -2   2  17  -10.78    5.26
   2  -2 -17   -1.75    4.19
   2   2  17    0.88    5.36
   2  -2 -17    7.48    5.66
  -2   1  17    0.43    4.46
  -2  -1 -17   -1.90    5.52
  -2   1  17    8.11    4.47
  -2   1  17   13.69    5.69
  -2  -1 -17   -6.93    3.71
   2  -1 -17    4.63    4.51
   2   1  17   -9.79    4.67
   2  -1 -17   -1.82    4.68
  -2   0  17   -3.76    5.54
  -2   0  17    6.70    4.41
  -2   0  17   -1.06    3.78
  -2   0 -17   -1.82    4.31
  -2   0 -17    4.73    4.97
   2   0  17    3.22    4.34
   2   0 -17   -1.19    4.60
   2   0 -17   -7.36    3.98
   2   0  17    5.23    4.33
  -2  -1  17   12.52    5.93
  -2   1 -17   -2.54    4.68
  -2   1 -17   -2.27    4.34
  -2  -1  17   -3.07    6.37
  -2   1 -17   -3.62    3.37
  -2  -1  17   -7.78    4.34
  -2  -1  17   -4.72    4.02
   2   1 -17    4.86    4.31
   2  -1  17    5.84    4.90
   2  -1  17   -3.58    4.08
  -2  -2  17   -3.73    8.26
  -2   2 -17    6.46    3.50
  -2  -2  17    2.12    5.36
  -2   2 -17   -5.23    4.90
  -2  -2  17   -3.38    3.74
  -2  -2  17    3.91    4.60
  -2   2 -17   -3.45    4.67
  -2   2 -17   -0.28    3.80
   2   2 -17    0.37    4.37
   2  -2  17    2.49    4.38
   2   2 -17   -1.30    4.86
   2   2 -17    0.98    4.81
  -2   3 -17   -1.78    3.75
  -2   3 -17    3.17    4.79
  -2   3 -17    2.66    5.05
  -2  -3  17   -2.34    4.54
  -2   3 -17   -3.48    5.56
   2   3 -17    0.78    4.83
   2  -3  17   -9.24    6.21
   2   3 -17   11.08    4.78
   2   3 -17   -0.62    4.96
  -2   4 -17    1.34    6.94
  -2  -4  17   -6.63    4.19
  -2   4 -17   -2.64    4.70
  -2   4 -17    4.22    5.18
  -2   4 -17   -3.29    6.40
   2   4 -17   -6.19    5.41
   2  -4  17   -6.10    7.18
   2   4 -17   -0.16    5.24
   2   4 -17    1.62    5.72
  -2   5 -17    3.16    5.37
  -2  -5  17    3.18    5.15
  -2   5 -17    6.76    6.57
  -2   5 -17   13.64    8.73
  -2   5 -17    5.69    6.72
   2   5 -17    2.05    6.40
   2   5 -17    8.68    6.36
  -2   6 -17   13.31    7.49
  -2   6 -17   -0.72    7.56
   2   6 -17   -9.48    7.53
   2   6 -17    8.63    7.64
  -3  -6 -17   -0.72   11.37
  -3   6  17  -11.61   10.29
   3   6  17   -7.59    9.82
   3  -6 -17   -5.50    8.65
  -3   5  17    2.96    8.58
  -3   5  17   14.26    8.47
  -3  -5 -17   -8.34    8.64
   3  -5 -17    0.08    8.30
   3   5  17   -1.56    8.20
   3   5  17   -1.68    9.26
  -3   4  17   14.09    6.79
  -3   4  17   19.38    7.28
  -3  -4 -17   21.86    9.36
   3   4  17   15.59    7.30
   3   4  17   13.39    8.15
   3  -4 -17    7.87    8.44
  -3  -3 -17   -9.86    4.54
  -3   3  17    5.69    5.70
  -3   3  17    0.35    5.51
  -3  -3 -17   -0.75    7.54
   3  -3 -17    1.02    6.60
   3   3  17    8.94    6.94
  -3  -2 -17    5.73    6.77
  -3   2  17    4.96    5.27
  -3  -2 -17   -1.22    3.83
  -3   2  17    7.00    5.16
   3  -2 -17    7.83    6.47
   3  -2 -17   -2.40    4.91
   3   2  17   -4.21    5.91
  -3  -1 -17    2.09    3.52
  -3  -1 -17   -2.83    4.56
  -3  -1 -17   -6.18    5.68
  -3   1  17   10.40    5.06
  -3   1  17   -6.03    4.28
   3  -1 -17   -6.82    4.66
   3   1  17   -9.39    5.36
   3  -1 -17    5.20    5.44
  -3   0  17    5.59    3.98
  -3   0  17    4.37    6.51
  -3   0 -17    7.74    5.88
  -3   0 -17   -4.78    3.06
  -3   0 -17   -5.80    4.40
   3   0 -17   13.45    5.15
   3   0 -17    0.40    4.56
   3   0  17   -1.25    4.55
  -3  -1  17    3.00    5.52
  -3   1 -17    5.30    3.67
  -3  -1  17    7.41    4.75
  -3   1 -17   -1.66    5.29
  -3  -1  17    2.11    3.74
  -3   1 -17    4.44    4.65
   3   1 -17   16.88    4.97
   3   1 -17    0.05    4.95
   3  -1  17   -5.53    4.43
   3  -1  17    3.23    4.86
  -3   2 -17   13.88    5.95
  -3   2 -17    1.96    3.49
  -3   2 -17   -0.49    5.10
  -3  -2  17   11.84    3.97
  -3   2 -17    3.54    4.04
  -3  -2  17   -4.01    6.60
  -3  -2  17   10.74    5.28
   3   2 -17    7.25    5.51
   3   2 -17   12.15    5.35
   3  -2  17   14.06    5.60
  -3  -3  17   -5.12    4.60
  -3   3 -17    7.45    4.68
  -3   3 -17   -3.05    5.16
  -3   3 -17    4.24    5.67
  -3  -3  17   -4.93    4.07
   3   3 -17    8.34    5.87
   3   3 -17   -0.81    4.72
   3   3 -17    1.87    5.08
  -3  -4  17   16.68    5.15
  -3   4 -17   27.33    6.41
  -3   4 -17   24.26    5.48
   3   4 -17   11.85    6.40
   3   4 -17   22.48    6.08
   3   4 -17   25.97    7.15
  -3   5 -17    9.60    5.88
  -3   5 -17  -10.26    6.17
  -3  -5  17   -3.34    5.89
   3   5 -17    2.73    6.86
   3   5 -17    0.03    6.90
  -3   6 -17   12.94    7.69
  -3   6 -17   -4.94    7.54
   3   6 -17    6.41    8.29
   3   6 -17  -10.60    8.03
  -4   5  17    2.90    7.60
  -4  -5 -17    4.71   10.03
   4  -5 -17   -6.78    8.24
   4   5  17   20.52    9.61
  -4   4  17   -6.63    7.59
  -4   4  17   -1.78    6.88
  -4  -4 -17   -5.47    8.88
  -4  -4 -17   12.23    6.13
   4   4  17   16.66    8.92
  -4   3  17    5.03    7.10
  -4   3  17    7.47    6.24
  -4  -3 -17   14.68    5.40
  -4  -3 -17    7.96    8.30
   4   3  17   21.45    7.65
   4  -3 -17   17.07    7.65
  -4   2  17    3.65    5.53
  -4   2  17    3.35    4.82
  -4  -2 -17    4.20    4.23
   4  -2 -17   -0.58    6.13
   4   2  17    9.79    6.54
  -4   1  17    1.18    5.27
  -4  -1 -17    6.31    5.13
  -4  -1 -17   11.78    6.43
  -4   1  17   -1.46    4.63
  -4  -1 -17    5.94    3.99
   4  -1 -17    9.83    6.79
   4   1  17    5.72    5.66
   4  -1 -17    0.37    6.16
  -4   0  17    0.53    4.99
  -4   0  17   -2.53    4.22
  -4   0 -17    9.80    4.97
  -4   0 -17   -0.32    3.41
  -4   0 -17   -1.90    6.17
  -4   0  17  -10.04    6.70
   4   0  17    2.91    5.22
   4   0 -17   10.40    5.65
   4   0 -17    4.76    5.11
  -4  -1  17   -0.09    6.74
  -4  -1  17   -6.87    5.20
  -4   1 -17   -0.70    4.77
  -4  -1  17    3.35    4.22
  -4   1 -17    8.16    5.73
   4   1 -17   -0.27    5.69
   4   1 -17    1.16    5.43
  -4   2 -17   -9.16    5.17
  -4  -2  17    6.78    4.07
  -4  -2  17    0.90    7.28
  -4   2 -17   -5.20    5.16
  -4  -2  17   -2.45    4.98
   4   2 -17   -7.15    5.25
   4   2 -17   11.88    6.27
  -4  -3  17    8.56    7.51
  -4   3 -17    4.70    5.66
  -4  -3  17   -0.71    5.88
  -4  -3  17   11.68    4.57
  -4   3 -17   -3.43    5.99
  -4   3 -17   13.85    4.87
   4   3 -17   -0.02    5.84
   4   3 -17    0.22    6.88
   4   3 -17    8.64    5.17
  -4   4 -17    6.67    6.14
  -4   4 -17   -1.71    5.21
  -4  -4  17    2.24    5.88
  -4  -4  17   -0.09    4.65
  -4  -4  17   17.51   10.90
   4   4 -17    5.43    7.87
   4   4 -17   -0.88    6.45
   4   4 -17   -3.70    5.96
  -4  -5  17    2.12    6.47
  -4   5 -17    1.35    6.10
  -4  -5  17   -2.87    5.22
  -4   5 -17   10.09    6.81
   4   5 -17    4.14    7.53
   4   5 -17    0.13    7.42
  -5  -5 -17  -11.58   10.00
   5  -5 -17    0.45    8.69
  -5   4  17   -8.72    7.28
  -5  -4 -17    4.29    9.74
  -5   4  17   11.20    8.66
   5  -4 -17   -2.78    7.79
   5   4  17   -1.53    9.14
  -5   3  17   -6.27    6.88
  -5   3  17   10.85    6.49
   5  -3 -17    4.11    7.77
   5   3  17   -5.69    7.89
  -5  -2 -17    9.56    8.10
  -5   2  17   12.20    6.31
  -5   2  17   -6.57    5.22
   5   2  17    2.90    6.90
   5  -2 -17   -5.14    6.12
  -5  -1 -17    6.72    7.05
  -5   1  17    6.83    5.77
  -5   1  17    1.01    4.72
   5   1  17   14.84    7.10
   5  -1 -17   -0.33    6.09
  -5   0  17   -5.95    5.50
  -5   0  17   -1.46    4.73
  -5   0 -17   -9.39    6.27
  -5   0 -17    1.10    5.11
   5   0 -17    3.28    5.41
  -5  -1  17    9.75    4.77
  -5   1 -17   -1.53    5.33
  -5  -1  17    2.48    5.30
  -5   1 -17    1.01    6.36
   5   1 -17   -2.21    3.99
   5   1 -17   -8.48    5.32
  -5   2 -17    1.16    6.11
  -5  -2  17    3.15    4.55
  -5  -2  17    3.89    5.48
  -5   3 -17   -4.18    6.09
   5   3 -17    8.89    5.92
  -5   4 -17   -6.14    6.96
  -5  -4  17   -5.00    6.20
  -5  -4  17    3.66    5.29
   5   4 -17   -7.11    7.06
   5   4 -17   -1.73    6.60
  -5   5 -17    8.01    6.67
  -5   5 -17    6.42    7.16
   5   5 -17   -2.05    7.97
  -6  -4 -17    2.25   10.51
   6  -4 -17  -14.48    7.91
  -6   3  17    7.89    8.00
  -6   3  17    7.94    7.25
  -6  -3 -17   -0.81    9.75
   6  -3 -17   -8.66    8.35
  -6   2  17   -6.98    5.65
  -6  -2 -17    1.82    8.75
  -6   2  17    3.87    6.95
   6  -2 -17    6.42    7.40
   6  -2 -17   -1.90    5.90
  -6   1  17   -8.66    5.89
  -6   1  17   -2.33    5.95
  -6  -1 -17    2.25    7.94
   6  -1 -17    8.21    6.76
   6  -1 -17    6.72    5.02
  -6   0 -17   -3.11    7.18
  -6   0  17    4.09    5.50
  -6   0  17    1.09    6.33
  -6   0 -17   -7.58    5.19
   6   0 -17    9.15    6.13
   6   0 -17   -8.24    4.73
  -6   1 -17    6.83    5.68
  -6  -1  17   -2.45    5.28
  -6   1 -17  -11.76    6.64
  -6  -1  17   -0.89    5.82
   6   1 -17   -6.91    5.85
   6   1 -17    7.59    4.63
  -6  -2  17    6.39    5.56
  -6  -2  17    1.69    5.91
  -6   2 -17    2.06    6.59
   6   2 -17   -4.00    6.43
  -6   3 -17    0.01    7.44
  -6  -3  17   10.27    6.94
  -6  -3  17   -6.72    5.61
   6   3 -17   -0.31    7.11
  -6   4 -17    2.83    7.71
   6   4 -17    5.45    7.14
  -7  -2 -17   -5.63   10.27
  -7   2  17   -9.38    7.43
  -7   2  17   -6.88    8.27
   7  -2 -17    4.14    7.28
   7  -2 -17   -8.36    8.15
  -7   1  17   21.52    7.66
  -7   1  17    5.90    6.59
  -7  -1 -17    1.22    9.31
   7  -1 -17    9.47    6.18
   7  -1 -17    2.55    7.93
  -7   0 -17   -5.00    8.37
  -7   0  17   10.11    6.60
  -7   0  17   -4.74    7.34
   7   0 -17   -8.36    5.81
   7   0 -17   -2.27    7.33
  -7  -1  17   -4.79    6.91
  -7   1 -17    4.36    8.78
  -7  -1  17   19.77    6.94
   7   1 -17    4.05    5.92
   7   1 -17    8.21    6.43
  -7  -2  17   -7.01    6.49
  -7   2 -17   -1.57    8.08
  -7  -2  17    3.90    7.04
   7   2 -17   -6.00    6.07
   7   2 -17  -12.51    7.34
   0  -5 -18  -17.09    8.87
   0   5  18    4.28    8.52
   0   4  18   -5.15    6.95
   0   4  18  -10.72    6.49
   0  -4 -18   -0.92    8.86
   0   4  18   -7.37    7.86
   0  -3 -18    0.02    7.49
   0   3  18   -7.66    6.39
   0  -3 -18   -1.10    5.87
   0   3  18   -0.89    6.19
   0   3  18    2.80    6.39
   0  -2 -18   25.63    7.34
   0  -2 -18   22.17    5.60
   0   2  18   16.32    6.51
   0   2  18    8.49    5.64
   0  -1 -18   -3.58    5.69
   0   1  18    6.68    6.10
   0   1  18    7.89    5.68
   0   1  18   -7.55    8.16
   0  -1 -18   -5.69    4.57
   0   0  18   -1.53    5.00
   0   0 -18   -3.57    4.80
   0   0  18   13.26    6.53
   0   0 -18    7.19    5.29
   0  -1  18    7.09    5.10
   0   1 -18    0.26    4.21
   0   1 -18   -1.19    5.09
   0   2 -18    7.91    5.86
   0  -2  18    5.28    6.53
   0  -2  18   18.96    5.27
   0   2 -18    9.81    5.14
   0   3 -18    2.42    5.21
   0  -3  18   10.48    5.05
   0   3 -18    7.77    8.13
   0   3 -18    8.33    5.69
   0   4 -18    6.48    5.87
   0   4 -18    3.30    5.64
   0   5 -18   -6.27    6.52
   0   5 -18   -8.69    6.64
  -1  -5 -18   -1.43    9.09
  -1   5  18   -1.76    8.83
  -1   5  18  -11.08    8.99
   1  -5 -18   -1.22    9.95
   1   5  18    0.95   10.55
   1   5  18    3.76    8.18
  -1  -4 -18   11.91    7.97
  -1   4  18  -10.92    6.97
  -1   4  18   -3.04    7.44
  -1  -4 -18   -6.26    7.47
   1   4  18   -3.36    7.26
   1  -4 -18  -14.86    7.93
   1   4  18  -15.53    8.79
  -1  -3 -18    1.78    7.58
  -1  -3 -18    8.01    5.58
  -1   3  18    2.88    6.33
  -1   3  18    6.99    5.93
   1  -3 -18    6.49    7.21
   1   3  18    1.11    6.15
   1  -3 -18    9.60    6.17
  -1  -2 -18   10.32    6.27
  -1  -2 -18   10.40    4.92
  -1   2  18    9.42    5.13
  -1   2  18   16.27    6.46
  -1   2  18   14.90    6.76
   1  -2 -18   -0.80    5.15
   1   2  18   -5.88    6.03
   1   2  18    0.38    6.82
   1  -2 -18    6.36    7.03
  -1  -1 -18    3.63    4.63
  -1   1  18   -5.34    5.32
  -1   1  18    5.04    4.77
  -1  -1 -18    5.14    6.10
   1  -1 -18   11.70    6.14
   1   1  18    3.19    5.85
   1  -1 -18   -6.45    4.78
  -1   0  18   10.13    5.34
  -1   0 -18    4.62    4.20
  -1   0 -18   16.01    5.75
   1   0 -18   19.63    6.24
   1   0 -18   18.47    5.47
   1   0  18   13.61    5.55
  -1   1 -18    2.00    5.49
  -1  -1  18    7.04    5.08
   1  -1  18   -3.80    5.74
   1  -1  18    3.66    5.14
   1   1 -18   -2.05    5.57
  -1   2 -18    2.47    5.24
  -1  -2  18   -1.95    5.05
  -1   2 -18   12.16    4.73
   1  -2  18    6.17    6.80
   1  -2  18   -2.69    5.02
   1   2 -18   -9.93    5.03
   1   2 -18   -5.35    5.21
  -1  -3  18    3.93    5.12
  -1   3 -18   14.00    7.99
  -1   3 -18   -1.39    5.56
  -1   3 -18   -0.56    4.94
   1   3 -18   -0.50    5.58
   1   3 -18    4.58    5.39
   1  -3  18    0.72    5.41
   1   3 -18    1.72    5.60
   1  -3  18   11.63    8.17
  -1   4 -18   -4.97    5.61
  -1  -4  18   -2.03    6.05
  -1   4 -18    6.08    5.75
   1   4 -18  -11.42    5.90
   1   4 -18   -0.62    5.95
  -1   5 -18   -5.33    6.74
   1   5 -18   -3.62    6.95
   1   5 -18    2.10    7.19
  -2   5  18   -9.92    8.85
  -2  -5 -18    1.46   10.18
  -2   5  18    3.78    9.25
   2   5  18   14.14   10.52
   2   5  18    5.71    8.97
   2  -5 -18   -3.77    9.82
  -2  -4 -18  -12.82    8.66
  -2  -4 -18   -4.61    6.54
  -2   4  18    0.51    7.93
  -2   4  18    9.01    7.14
   2  -4 -18   -8.98    8.44
   2   4  18   12.98    7.63
   2   4  18   -2.77    8.88
  -2   3  18   32.69    7.68
  -2  -3 -18   36.80    5.98
  -2   3  18   20.97    6.75
  -2  -3 -18   24.06    8.60
   2   3  18    3.30    6.51
   2   3  18    0.51    8.08
   2  -3 -18   18.30    8.27
  -2  -2 -18    6.90    4.96
  -2   2  18    1.81    5.32
  -2   2  18    5.19    6.13
  -2  -2 -18    4.78    7.31
   2  -2 -18   19.98    7.15
   2  -2 -18   -1.46    5.61
   2   2  18   10.97    6.61
  -2   1  18   -0.30    4.63
  -2  -1 -18    1.60    4.47
  -2  -1 -18    1.70    6.27
  -2   1  18    9.30    6.04
   2   1  18  -10.52    5.40
   2  -1 -18   10.29    6.62
   2   1  18    2.46    5.14
  -2   0  18    8.02    5.67
  -2   0  18    0.74    5.79
  -2   0  18   -0.21    4.47
  -2   0 -18   -0.16    6.31
  -2   0 -18   -0.77    6.05
   2   0  18    0.11    5.42
   2   0 -18    3.57    5.03
   2   0 -18   10.56    6.03
   2   0  18   -4.99    5.41
  -2  -1  18    2.42    5.51
  -2   1 -18   -2.90    8.00
  -2   1 -18   -7.21    3.98
  -2  -1  18   -1.62    4.55
  -2   1 -18   -7.63    5.44
   2   1 -18   14.49    5.21
   2   1 -18    4.50    5.47
   2  -1  18    3.06    5.34
  -2  -2  18   10.57    5.27
  -2   2 -18   10.86    4.31
  -2   2 -18    6.28    6.34
  -2  -2  18    5.66    6.46
  -2   2 -18   17.72    6.51
  -2  -2  18    1.05    6.59
   2   2 -18    2.10    5.95
   2  -2  18    0.76    5.32
   2   2 -18    8.04    5.59
   2  -2  18   10.69    6.53
  -2  -3  18   13.35    5.75
  -2   3 -18   12.27    5.33
  -2   3 -18   18.57    6.65
   2  -3  18   16.53    7.92
   2   3 -18   13.73    6.00
   2   3 -18   14.14    6.02
   2   3 -18   22.09    6.68
  -2   4 -18   -1.36    5.91
  -2   4 -18    3.64    5.93
  -2  -4  18    4.30    6.08
   2   4 -18   -2.63    6.62
   2   4 -18   -4.54    6.35
  -2   5 -18  -10.39    8.33
  -2   5 -18   -0.01    6.79
   2   5 -18   18.40    7.69
   2   5 -18    3.71    8.00
  -3   5  18   12.82   10.20
  -3   5  18   11.34    9.21
  -3  -5 -18    3.76   11.82
   3   5  18   15.39    9.82
   3  -5 -18    2.76    9.27
  -3   4  18   -1.08    8.54
  -3   4  18    2.37    7.61
  -3  -4 -18    0.17    9.45
   3  -4 -18  -10.12    8.28
   3   4  18    8.12    7.81
   3   4  18   12.73    9.42
  -3   3  18   -3.60    6.05
  -3   3  18    1.52    7.04
  -3  -3 -18    2.93    8.86
  -3  -3 -18   -3.49    5.45
   3  -3 -18   -5.04    7.86
   3   3  18    2.35    8.19
  -3  -2 -18   -2.10    7.46
  -3   2  18   -4.25    5.92
  -3   2  18   12.81    6.33
  -3  -2 -18   -3.02    5.03
   3  -2 -18   -6.78    6.72
   3   2  18   -7.06    6.94
  -3   1  18    2.33    5.75
  -3  -1 -18    6.40    6.92
  -3  -1 -18   -0.41    4.68
  -3   1  18    3.62    5.54
   3   1  18    1.00    6.49
   3  -1 -18   16.60    7.31
   3  -1 -18   -7.02    5.97
  -3   0  18   -3.37    4.89
  -3   0  18    1.12    5.74
  -3   0 -18    5.40    6.84
  -3   0  18   10.90    6.50
  -3   0 -18   10.51    4.17
   3   0 -18   13.30    6.24
   3   0  18   -5.62    5.95
   3   0 -18    9.89    5.87
  -3   1 -18    1.94    5.81
  -3  -1  18   -2.83    7.54
  -3   1 -18   -3.05    4.66
  -3  -1  18    7.44    7.98
  -3   1 -18    7.26    6.68
  -3  -1  18    6.68    4.63
   3  -1  18   14.61    5.58
   3   1 -18   -7.10    6.03
   3   1 -18   -1.43    5.56
   3  -1  18   22.63    6.52
  -3  -2  18    6.21    7.26
  -3  -2  18    6.56    6.71
  -3  -2  18    9.24    4.65
  -3   2 -18   -3.07    6.19
   3   2 -18   -4.58    5.62
   3   2 -18   20.32    6.73
  -3  -3  18   -1.64    4.71
  -3  -3  18    6.07    5.91
  -3   3 -18    5.66    6.44
  -3   3 -18   -1.53    6.12
   3   3 -18   -8.87    5.68
   3   3 -18    5.26    6.59
   3  -3  18   16.37    7.46
   3   3 -18   19.51    7.48
  -3  -4  18   -3.13    6.18
  -3   4 -18    0.84    6.00
  -3   4 -18    8.79    6.93
  -3   4 -18   16.09    8.75
   3   4 -18   -1.42    6.65
   3   4 -18    3.65    6.66
  -3   5 -18    7.76    7.14
  -3   5 -18   15.79    7.30
   3   5 -18  -14.98    7.79
   3   5 -18   -4.81    8.26
  -4   4  18    5.24    7.98
  -4  -4 -18    4.00   10.50
  -4   4  18   11.38    9.14
   4  -4 -18   -6.86    8.90
  -4   3  18  -10.56    6.85
  -4   3  18  -11.26    7.45
  -4  -3 -18    2.54    9.39
   4   3  18   18.66    9.21
  -4   2  18   -7.80    6.25
  -4  -2 -18   -4.50    8.33
  -4   2  18   -2.86    6.36
   4   2  18   -2.45    7.58
   4  -2 -18   -4.02    7.01
  -4  -1 -18   19.78    7.91
  -4   1  18    4.73    5.81
  -4   1  18   19.14    6.25
   4  -1 -18    1.21    6.98
   4   1  18    9.89   12.19
  -4   0  18   -6.45    5.15
  -4   0  18    4.06    6.07
  -4   0 -18    5.49    7.19
   4   0 -18    5.92    6.38
  -4   1 -18   -3.95    6.35
  -4  -1  18    8.03    6.21
  -4  -1  18   -1.07    4.55
  -4   1 -18    5.82    6.74
   4   1 -18   -1.49   12.26
   4   1 -18    0.89    6.20
  -4  -2  18   -0.32    6.19
  -4  -2  18   -0.19    4.81
  -4  -2  18   -5.32    8.51
  -4   2 -18    1.66    6.42
   4   2 -18  -13.53    7.24
   4   2 -18   -9.56    6.30
  -4   3 -18    5.61    6.92
  -4  -3  18   -5.21    6.04
  -4   3 -18   -0.90    6.36
  -4  -3  18    5.79    5.50
  -4   3 -18   -0.17    7.18
   4   3 -18   11.59    7.12
   4   3 -18   -8.93    8.34
  -4  -4  18   15.94    5.87
  -4   4 -18   -1.61    7.81
  -4   4 -18   -0.02    6.47
  -4  -4  18    2.77    6.78
   4   4 -18  -11.13    7.05
  -5   3  18    7.67    8.65
   5  -3 -18   16.69    9.40
  -5   2  18   10.90    7.66
  -5   2  18   18.86    6.85
  -5  -2 -18   19.42    9.22
   5  -2 -18   15.22    8.22
  -5  -1 -18   12.39    8.13
  -5   1  18    7.01    6.82
  -5   1  18    8.63    5.68
   5  -1 -18    8.93    6.99
  -5   0 -18   -1.30    8.32
  -5   0  18    4.02    5.74
  -5   0  18   -5.74    6.61
   5   0 -18   -4.80    6.55
  -5   1 -18   13.40    8.05
  -5  -1  18    6.53    5.48
  -5  -1  18   10.10    6.84
   5   1 -18   -6.49    5.73
   5   1 -18    6.42    4.69
  -5   2 -18   16.85    7.76
  -5  -2  18   19.58    5.52
  -5   2 -18    4.09    9.89
  -5  -2  18   15.87    7.20
   5   2 -18    6.97    5.18
   5   2 -18   18.19    7.45
  -5  -3  18    8.38    7.11
  -5   3 -18  -10.89    7.39
  -5  -3  18    7.81    5.62
   5   3 -18   -6.21    7.14
  -6   2  18   10.98    7.82
  -6   2  18  -12.51    6.75
  -6  -2 -18   -2.39   10.72
   6  -2 -18   -4.25    8.84
  -6  -1 -18    3.46   10.22
  -6   1  18    9.42    7.72
  -6   1  18    2.96    6.79
  -6   0 -18  100.18   14.34
  -6   0  18   77.11   11.70
  -6   0  18   97.22   12.28
   6   0 -18   69.56   12.57
   6   0 -18  100.69    8.94
  -6  -1  18    7.93    6.83
  -6   1 -18   -1.29    9.17
  -6  -1  18   -1.30    7.65
   6   1 -18    1.82    6.81
   6   1 -18    3.37    5.67
  -6  -2  18    2.07    6.66
  -6  -2  18   -2.99    7.42
  -6   2 -18   -1.42    8.14
   6   2 -18   -1.12    5.86
   0   4  19   29.95    8.77
   0   4  19    5.01    9.09
   0  -4 -19  -10.89   10.12
   0   3  19   21.85   10.72
   0   3  19    7.11    8.10
   0   3  19    4.44    7.26
   0  -3 -19    5.67    8.63
   0  -2 -19   24.61    8.76
   0  -2 -19   -2.36    6.28
   0   2  19    6.97    7.69
   0   2  19    6.11    6.88
   0   2  19   11.73    8.04
   0   1  19    6.01    6.71
   0   1  19    9.74    6.29
   0  -1 -19   -8.24    5.75
   0  -1 -19    4.43    7.51
   0   1  19    3.86    7.86
   0   0 -19   -9.41    5.62
   0   0  19   -4.22    6.12
   0   0 -19   -0.09    6.53
   0  -1  19   -7.94    8.01
   0  -1  19    0.26    6.02
   0   1 -19    2.64    5.86
   0   1 -19   -3.27    6.41
   0   2 -19   11.59    6.71
   0  -2  19   10.92    6.23
   0   3 -19    3.17    6.10
   0   3 -19  -11.05    6.50
   0   4 -19   16.41    7.09
   0   4 -19   11.94    7.20
  -1   4  19    7.22    8.69
  -1   4  19   -8.53    9.38
  -1  -4 -19    7.53    9.92
   1   4  19    3.84    8.36
   1  -4 -19   -6.60   10.38
   1   4  19  -17.03   10.03
  -1  -3 -19   -5.72    8.41
  -1   3  19   -5.33    6.93
  -1   3  19   -2.32    8.35
  -1  -3 -19   -1.71    6.85
   1   3  19    4.09    7.90
   1  -3 -19   18.69    9.23
   1   3  19    1.86    7.70
  -1   2  19   15.22    7.66
  -1  -2 -19    2.46    6.13
  -1   2  19    0.48    6.14
  -1  -2 -19   -0.09    7.71
   1   2  19    4.80   11.49
   1  -2 -19   14.55    8.05
   1   2  19    0.12    6.61
   1   2  19   -7.46    7.12
  -1  -1 -19   13.52    5.75
  -1   1  19   -7.04   10.19
  -1   1  19    0.86    5.73
  -1  -1 -19    3.54    7.26
  -1   1  19   -8.26    6.76
   1   1  19    4.92    6.83
   1  -1 -19    8.00    7.83
   1  -1 -19    2.71    5.95
  -1   0  19    0.26    6.43
  -1   0 -19    6.71    5.55
  -1   0  19   11.14    5.63
  -1   0 -19    5.78    6.73
   1   0 -19    2.11    6.27
   1   0 -19   -7.44    5.84
   1   0  19   -2.38    6.34
  -1   1 -19   -6.75    6.23
  -1  -1  19   -5.63    5.66
   1   1 -19   -5.09    6.70
   1  -1  19    4.87    6.32
  -1   2 -19    3.49    6.82
  -1  -2  19    3.58    5.83
   1   2 -19   -5.38   10.43
   1  -2  19   24.55    8.87
   1   2 -19   -2.22    6.90
  -1   3 -19   -1.79    6.03
  -1   3 -19   -7.74    6.56
   1   3 -19   -6.42    6.19
  -1   4 -19    3.08    7.37
  -1   4 -19   13.94    7.39
   1   4 -19   14.37    7.23
  -2   4  19   10.70    9.64
  -2  -4 -19   -3.45   11.02
  -2   4  19    4.87    8.63
   2   4  19   -6.28    8.61
   2   4  19  -10.74   10.83
   2  -4 -19  -15.37    9.93
  -2  -3 -19   -0.32    8.99
  -2   3  19   -7.58    8.45
  -2   3  19    3.60    7.07
   2  -3 -19   -8.40    9.15
   2   3  19    2.74   13.56
  -2  -2 -19    3.32    8.72
  -2   2  19    7.69    6.36
   2  -2 -19   10.39    7.91
   2   2  19   -8.64    8.06
  -2   1  19    1.08    6.93
  -2   1  19   -1.09    5.65
  -2  -1 -19   -0.88    8.02
   2  -1 -19    7.99    7.10
  -2   0  19    2.53    5.35
  -2   0 -19   -7.83    6.88
  -2   0  19   12.89    7.29
  -2   0  19   -2.98    6.12
   2   0 -19   -3.17    7.03
   2   0  19  -10.17    6.41
   2   0 -19    7.07    6.48
  -2  -1  19    4.28    5.57
  -2  -1  19   26.96    9.70
  -2  -1  19   10.31    6.31
  -2   1 -19    1.97    6.87
   2   1 -19   17.53    6.45
   2  -1  19   -5.19    7.89
   2   1 -19   -9.44    7.07
  -2   2 -19   -3.29    7.18
  -2  -2  19    7.20    6.66
   2   2 -19    7.38    6.83
   2   2 -19    7.05    8.67
  -2   3 -19   -9.05    5.95
  -2   3 -19   -2.01    7.34
  -2  -3  19    0.16    6.72
   2   3 -19    2.64    6.97
  -2   4 -19    2.24    8.06
  -2   4 -19   -6.87    7.06
   2   4 -19    1.53    7.50
   2   4 -19    4.78    7.73
  -3   3  19   24.60    9.23
  -3  -3 -19    7.01   10.86
  -3   3  19    4.31    7.77
   3   3  19   34.54   14.65
   3  -3 -19   19.72   10.46
  -3   2  19   -3.42    6.25
  -3  -2 -19   -5.45    8.82
  -3   2  19  -13.61    7.59
   3  -2 -19   -1.51    8.52
  -3   1  19    8.84    7.23
  -3   1  19    7.20    6.14
  -3  -1 -19   21.83    8.76
   3  -1 -19    5.06    7.39
  -3   0  19   12.66    6.94
  -3   0  19   -2.33    5.57
  -3   0 -19    1.33    8.26
   3   0 -19    4.37    7.56
  -3  -1  19   -0.56    5.78
  -3   1 -19   12.33    8.12
  -3  -1  19    3.16    6.54
  -3  -1  19   22.26    9.05
   3   1 -19    8.86    7.25
  -3  -2  19    3.65    6.54
  -3   2 -19   -6.80    7.51
   3   2 -19    2.48    8.99
   3   2 -19   -3.87    7.35
  -3   3 -19   16.09    8.14
  -3  -3  19    9.26    8.13
  -3   3 -19    0.28    6.14
   3   3 -19   10.96    8.10
  -4  -3 -19   -0.74   11.72
  -4   3  19    2.23    8.42
   4  -3 -19   23.34   10.13
  -4  -2 -19   -2.22    9.85
  -4   2  19   20.01    8.11
   4  -2 -19   -9.32    8.63
  -4  -1 -19    1.32    9.60
  -4   1  19   11.50    7.78
  -4   1  19    5.35    6.56
   4  -1 -19    1.93    7.98
  -4   0 -19    5.95    8.78
  -4   0  19   -8.01    5.83
  -4   0  19   -3.02    7.26
   4   0 -19    3.61    7.33
  -4  -1  19    9.07    5.76
  -4  -1  19    3.21    7.02
  -4   1 -19   10.84    8.24
   4   1 -19   13.96    7.46
  -4  -2  19   -2.92    5.95
  -4   2 -19   -5.75    7.97
  -4  -2  19   -1.31    7.47
   4   2 -19    5.34    7.61
  -4  -3  19   19.30    6.15
  -4   3 -19   25.42    9.10
  -4   3 -19   -7.32    7.16
   4   3 -19    2.16    8.19
  -5   1  19   11.81    7.52
  -5   1  19   27.17    8.35
  -5  -1 -19   11.26   10.56
   5  -1 -19   25.48    8.89
  -5   0  19   -5.48    7.82
  -5   0  19    1.54    6.31
  -5   0 -19   -2.56    9.58
   5   0 -19   -2.67    7.69
  -5  -1  19   18.93    8.07
  -5  -1  19   22.02    6.69
  -5   1 -19   22.19    9.59
   5   1 -19    8.06    7.65
   0  -3 -20   -7.17   11.51
   0   3  20   27.84    8.47
   0  -2 -20   -0.14    9.28
   0   2  20   -1.75    8.76
   0   2  20   13.47    7.73
   0  -1 -20    0.82    8.68
   0   0 -20   -1.09    7.90
   0   0  20   -1.28    8.00
   0   1 -20    7.18    7.44
   0   2 -20   -2.67    7.79
   1  -3 -20   -2.21   11.53
  -1  -2 -20   -4.51    9.15
  -1   2  20  -13.32    8.51
   1  -2 -20   -4.34    9.11
  -1   1  20   -4.10    7.34
  -1  -1 -20   -5.60    8.36
  -1   1  20   16.20    8.40
   1  -1 -20   -2.55    8.81
   1   1  20   -7.11    9.00
  -1   0 -20  -13.24    8.43
  -1   0  20   -6.80   12.01
   1   0 -20   -3.27    8.54
  -1   1 -20   17.41    8.22
  -1  -1  20   -2.12    7.64
   1   1 -20    0.24    7.87
  -1   2 -20   -5.40    7.94
   1   2 -20    8.92    8.57
  -1   3 -20   -3.53    7.14
   1   3 -20   -3.94   11.68
  -2   2  20   11.73    9.22
  -2  -2 -20   -5.48    9.97
  -2   2  20    6.15    7.42
   2  -2 -20    0.39   10.10
  -2  -1 -20    7.85    9.13
  -2   1  20   -7.16    6.90
  -2   1  20   -3.71    7.97
   2  -1 -20    1.33    9.30
  -2   0  20   -5.90    7.55
  -2   0 -20    6.14    8.75
  -2   0  20   -2.15    6.66
   2   0 -20   -2.82    7.94
  -2  -1  20   -9.53    6.27
  -2   1 -20   14.33    8.35
  -2  -1  20    3.73    7.80
   2   1 -20   -1.39    8.16
  -2   2 -20   -8.95    8.11
   2   2 -20   -9.70    8.47
  -3  -1 -20   18.45   10.49
  -3   1  20    8.21    7.05
  -3   1  20   11.02    8.43
   3  -1 -20    4.62    9.74
  -3   0 -20   -5.73   10.77
  -3   0  20    0.19    7.60
  -3   0  20   -4.09    6.82
   3   0 -20    2.19    9.05
  -3  -1  20    4.97    6.66
  -3  -1  20   22.33    8.25
  -3   1 -20   20.20    9.92
   3   1 -20   12.48    8.66
   0   0   0    0.00    0.00
;
_shelx_hkl_checksum              55904
loop_
_space_group_symop_operation_xyz
'x, y, z'
'x+1/2, -y+1/2, -z'
'-x, y+1/2, -z+1/2'
'-x+1/2, -y, z+1/2'
'-x, -y, -z'
'-x-1/2, y-1/2, z'
'x, -y-1/2, z-1/2'
'x-1/2, y, -z-1/2'
loop_
_atom_site_label
_atom_site_type_symbol
_atom_site_fract_x
_atom_site_fract_y
_atom_site_fract_z
_atom_site_U_iso_or_equiv
_atom_site_adp_type
_atom_site_occupancy
_atom_site_site_symmetry_order
_atom_site_calc_flag
F2 F 0.34968(13) 0.99415(17) 0.33988(8) 0.0213(3) Uani 1 1 d
F1 F 0.34137(13) 1.26315(16) 0.44053(9) 0.0204(3) Uani 1 1 d
N1 N 0.3887(2) 0.6728(3) 0.23144(14) 0.0282(5) Uani 1 1 d
N2 N 0.6559(2) 0.4467(3) 0.42763(14) 0.0238(5) Uani 1 1 d
C1 C 0.4446(2) 0.6989(3) 0.30024(16) 0.0190(5) Uani 1 1 d
C3 C 0.5166(2) 0.7150(3) 0.38750(15) 0.0159(5) Uani 1 1 d
C4 C 0.5081(2) 0.8521(3) 0.44267(14) 0.0150(5) Uani 1 1 d
C6 C 0.4200(2) 1.1343(3) 0.47016(15) 0.0158(5) Uani 1 1 d
C5 C 0.4255(2) 0.9975(3) 0.41807(14) 0.0147(5) Uani 1 1 d
C2 C 0.5975(2) 0.5685(3) 0.41154(15) 0.0180(5) Uani 1 1 d
loop_
_atom_site_aniso_label
_atom_site_aniso_U_11
_atom_site_aniso_U_22
_atom_site_aniso_U_33
_atom_site_aniso_U_23
_atom_site_aniso_U_13
_atom_site_aniso_U_12
F2 0.0203(6) 0.0229(7) 0.0205(7) 0.0038(6) -0.0101(5) -0.0010(6)
F1 0.0191(7) 0.0171(7) 0.0251(7) 0.0045(6) -0.0058(6) 0.0051(6)
N1 0.0291(11) 0.0327(13) 0.0229(11) -0.0005(10) -0.0016(9) 0.0025(10)
N2 0.0203(10) 0.0250(11) 0.0261(11) -0.0027(9) -0.0004(9) 0.0017(9)
C1 0.0183(11) 0.0186(12) 0.0200(12) 0.0007(10) 0.0043(9) 0.0005(10)
C3 0.0110(9) 0.0188(12) 0.0179(11) 0.0033(9) 0.0019(8) -0.0014(9)
C4 0.0099(9) 0.0190(12) 0.0160(11) 0.0047(9) 0.0021(8) -0.0012(9)
C6 0.0098(10) 0.0179(12) 0.0198(11) 0.0076(9) -0.0005(8) -0.0002(9)
C5 0.0107(9) 0.0197(12) 0.0137(10) 0.0037(9) -0.0028(8) -0.0022(9)
C2 0.0138(10) 0.0214(13) 0.0187(11) -0.0025(10) 0.0031(9) -0.0015(10)
loop_
_atom_type_symbol
_atom_type_description
_atom_type_scat_dispersion_real
_atom_type_scat_dispersion_imag
_atom_type_scat_source
C C 0.0033 0.0016 'International Tables Vol C Tables 4.2.6.8 and 6.1.1.4'
N N 0.0061 0.0033 'International Tables Vol C Tables 4.2.6.8 and 6.1.1.4'
F F 0.0171 0.0103 'International Tables Vol C Tables 4.2.6.8 and 6.1.1.4'
loop_
_geom_angle_atom_site_label_1
_geom_angle_atom_site_label_2
_geom_angle_atom_site_label_3
_geom_angle
_geom_angle_site_symmetry_1
_geom_angle_site_symmetry_3
N1 C1 C3 174.6(3) . .
C4 C3 C2 123.3(2) . .
C4 C3 C1 124.4(2) . .
C2 C3 C1 112.3(2) . .
C3 C4 C6 123.7(2) . 5_676
C3 C4 C5 122.71(19) . .
C6 C4 C5 113.60(19) 5_676 .
F1 C6 C5 118.47(19) . .
F1 C6 C4 118.4(2) . 5_676
C5 C6 C4 123.2(2) . 5_676
F2 C5 C6 118.7(2) . .
F2 C5 C4 118.1(2) . .
C6 C5 C4 123.21(19) . .
N2 C2 C3 175.9(2) . .
loop_
_geom_bond_atom_site_label_1
_geom_bond_atom_site_label_2
_geom_bond_distance
_geom_bond_site_symmetry_2
F2 C5 1.335(2) .
F1 C6 1.337(2) .
N1 C1 1.146(3) .
N2 C2 1.143(3) .
C1 C3 1.439(3) .
C3 C4 1.368(3) .
C3 C2 1.438(3) .
C4 C6 1.436(3) 5_676
C4 C5 1.441(3) .
C6 C5 1.338(3) .
C6 C4 1.436(3) 5_676
loop_
_geom_torsion_atom_site_label_1
_geom_torsion_atom_site_label_2
_geom_torsion_atom_site_label_3
_geom_torsion_atom_site_label_4
_geom_torsion
_geom_torsion_site_symmetry_1
_geom_torsion_site_symmetry_4
C2 C3 C4 C6 0.7(3) . 5_676
C1 C3 C4 C6 179.6(2) . 5_676
C2 C3 C4 C5 -179.41(19) . .
C1 C3 C4 C5 -0.5(3) . .
F1 C6 C5 F2 -1.5(3) . .
C4 C6 C5 F2 177.06(19) 5_676 .
F1 C6 C5 C4 179.24(18) . .
C4 C6 C5 C4 -2.2(4) 5_676 .
C3 C4 C5 F2 2.8(3) . .
C6 C4 C5 F2 -177.26(18) 5_676 .
C3 C4 C5 C6 -177.9(2) . .
C6 C4 C5 C6 2.0(3) 5_676 .
