#------------------------------------------------------------------------------
#$Date: 2018-07-31 05:13:51 +0300 (Tue, 31 Jul 2018) $
#$Revision: 209309 $
#$URL: file:///home/coder/svn-repositories/cod/cif/2/02/11/2021193.cif $
#------------------------------------------------------------------------------
#
# This file is available in the Crystallography Open Database (COD),
# http://www.crystallography.net/. The original data for this entry
# were provided by IUCr Journals, http://journals.iucr.org/.
#
# The file may be used within the scientific community so long as
# proper attribution is given to the journal article from which the
# data were obtained.
#
data_2021193
loop_
_publ_author_name
'Mao, Yimin'
'Zavalij, Peter Y.'
_publ_section_title
;
 Two furan-2,5-dicarboxylic acid solvates crystallized from
 dimethylformamide and dimethyl sulfoxide
;
_journal_issue                   8
_journal_name_full               'Acta Crystallographica Section C'
_journal_page_first              986
_journal_page_last               990
_journal_paper_doi               10.1107/S2053229618010471
_journal_volume                  74
_journal_year                    2018
_chemical_formula_iupac          'C6 H4 O5, C2 H6 O S'
_chemical_formula_moiety         'C6 H4 O5, C2 H6 O S'
_chemical_formula_sum            'C8 H10 O6 S'
_chemical_formula_weight         234.22
_chemical_name_systematic
;
Furan-2,5-dicarboxylic acid dimethyl sulfoxide monosolvate
;
_space_group_crystal_system      triclinic
_space_group_IT_number           2
_space_group_name_Hall           '-P 1'
_space_group_name_H-M_alt        'P -1'
_symmetry_cell_setting           triclinic
_symmetry_space_group_name_Hall  '-P 1'
_symmetry_space_group_name_H-M   'P -1'
_atom_sites_solution_hydrogens   difmap
_atom_sites_solution_primary     direct
_atom_sites_solution_secondary   difmap
_audit_creation_method           'SHELXL-2015 & ZCIF'
_cell_angle_alpha                80.5164(17)
_cell_angle_beta                 77.3664(17)
_cell_angle_gamma                63.8260(16)
_cell_formula_units_Z            2
_cell_length_a                   6.3129(8)
_cell_length_b                   6.9099(9)
_cell_length_c                   13.0901(17)
_cell_measurement_reflns_used    2660
_cell_measurement_temperature    150(2)
_cell_measurement_theta_max      28.2
_cell_measurement_theta_min      3.2
_cell_volume                     498.53(11)
_computing_cell_refinement
;
APEX2 and SAINT (Bruker, 2010)
;
_computing_data_collection
;
APEX2 (Bruker, 2010)
;
_computing_data_reduction
;
APEX2 and SAINT (Bruker, 2010)
;
_computing_molecular_graphics
;
OLEX2 (Dolomanov <i>et al.</i>,  2009), Mercury (Macrae <i>et al.</i>,
2008)
and Marvin (ChemAxon, 2018)
;
_computing_publication_material
;
APEX2 (Bruker, 2010),
SHELXL2015 (Sheldrick, 2015b),
PLATON (Spek, 2009) and
publCIF (Westrip, 2010)
;
_computing_structure_refinement
;
SHELXL2015 (Sheldrick, 2015b)
;
_computing_structure_solution
;
SHELXS2015 (Sheldrick, 2015a)
;
_diffrn_ambient_temperature      150(2)
_diffrn_measured_fraction_theta_full 0.998
_diffrn_measured_fraction_theta_max 0.996
_diffrn_measurement_device_type  'Bruker SMART APEXII CCD'
_diffrn_measurement_method       '\f and \w scans'
_diffrn_radiation_monochromator  graphite
_diffrn_radiation_type           MoK\a
_diffrn_radiation_wavelength     0.71073
_diffrn_reflns_av_R_equivalents  0.0179
_diffrn_reflns_limit_h_max       7
_diffrn_reflns_limit_h_min       -7
_diffrn_reflns_limit_k_max       8
_diffrn_reflns_limit_k_min       -8
_diffrn_reflns_limit_l_max       16
_diffrn_reflns_limit_l_min       0
_diffrn_reflns_number            2044
_diffrn_reflns_theta_full        25.242
_diffrn_reflns_theta_max         26.490
_diffrn_reflns_theta_min         1.599
_exptl_absorpt_coefficient_mu    0.331
_exptl_absorpt_correction_T_max  0.987
_exptl_absorpt_correction_T_min  0.847
_exptl_absorpt_correction_type   multi-scan
_exptl_absorpt_process_details
;
(TWINABS; Krause <i>et al.</i>,  2015)
;
_exptl_crystal_colour            colourless
_exptl_crystal_density_diffrn    1.560
_exptl_crystal_density_method    'not measured'
_exptl_crystal_description       plate
_exptl_crystal_F_000             244
_exptl_crystal_size_max          0.17
_exptl_crystal_size_mid          0.15
_exptl_crystal_size_min          0.04
_refine_diff_density_max         0.297
_refine_diff_density_min         -0.263
_refine_ls_extinction_method     none
_refine_ls_goodness_of_fit_ref   1.000
_refine_ls_hydrogen_treatment    refall
_refine_ls_matrix_type           full
_refine_ls_number_parameters     177
_refine_ls_number_reflns         2044
_refine_ls_number_restraints     0
_refine_ls_restrained_S_all      1.000
_refine_ls_R_factor_all          0.0267
_refine_ls_R_factor_gt           0.0244
_refine_ls_shift/su_max          0.000
_refine_ls_shift/su_mean         0.000
_refine_ls_structure_factor_coef Fsqd
_refine_ls_weighting_details
'w=1/[\s^2^(Fo^2^)+(0.0057P)^2^+0.3718P] where P=(Fo^2^+2Fc^2^)/3'
_refine_ls_weighting_scheme      calc
_refine_ls_wR_factor_gt          0.0506
_refine_ls_wR_factor_ref         0.0513
_reflns_number_gt                1894
_reflns_number_total             2044
_reflns_threshold_expression     'I > 2\s(I)'
_iucr_refine_instructions_details
;
TITL bt in P-1
CELL 0.71073   6.31290   6.90990  13.09010  80.5164  77.3664  63.8260
ZERR    2.00   0.00080   0.00090   0.00170   0.0017   0.0017   0.0016
LATT  1
SFAC C H O S
UNIT 16 20 12 2
OMIT -2 53
MERG 0
L.S. 9
ACTA
BOND $H
CONF
EQIV $1 x+1, y, z
HTAB O11 O1_$1
EQIV $2 x-1, y+1, z
HTAB O61 O1_$2
TEMP -123.150
SIZE 0.04 0.15 0.17
FMAP 2
PLAN 20
WGHT    0.005700    0.371800
BASF   0.09019
FVAR       0.88229
O1    3    0.089913    0.415774    0.244482    11.00000    0.01469    0.02838 =
         0.01516   -0.00017   -0.00189   -0.00455
S1    4    0.078631    0.450298    0.126670    11.00000    0.01411    0.02032 =
         0.01631    0.00009   -0.00323   -0.00464
C1    1    0.312625    0.214924    0.070232    11.00000    0.01908    0.02112 =
         0.02001   -0.00231   -0.00226   -0.00226
H1A   2    0.460000    0.189166    0.089976    11.00000    0.02750
H1B   2    0.318220    0.243651   -0.003889    11.00000    0.03262
H1C   2    0.269573    0.098476    0.097239    11.00000    0.02845
C2    1    0.199341    0.643118    0.077442    11.00000    0.03153    0.02782 =
         0.02333   -0.00076   -0.00312   -0.01567
H2A   2    0.085574    0.776986    0.104053    11.00000    0.04207
H2B   2    0.218305    0.653571    0.001262    11.00000    0.02978
H2C   2    0.348178    0.595948    0.101740    11.00000    0.03037
MOLE 2
O11   3    0.653614    0.560089    0.352029    11.00000    0.01322    0.02676 =
         0.01895    0.00241   -0.00258   -0.00406
H11   2    0.793902    0.518151    0.317661    11.00000    0.04701
O12   3    0.579095    0.775726    0.203521    11.00000    0.01844    0.02492 =
         0.02095    0.00427   -0.00056   -0.00422
C11   1    0.511220    0.708057    0.289783    11.00000    0.01706    0.01784 =
         0.01853   -0.00168   -0.00402   -0.00520
C12   1    0.256795    0.781797    0.336744    11.00000    0.01699    0.01759 =
         0.01771   -0.00059   -0.00584   -0.00471
O25   3    0.100565    0.934375    0.275912    11.00000    0.01307    0.02093 =
         0.01693    0.00149   -0.00241   -0.00458
C13   1    0.137711    0.730975    0.428510    11.00000    0.01910    0.02507 =
         0.01793    0.00255   -0.00449   -0.00657
H13   2    0.205034    0.634942    0.481126    11.00000    0.02518
C14   1   -0.109204    0.859066    0.425801    11.00000    0.01734    0.02784 =
         0.01776   -0.00012   -0.00090   -0.00835
H14   2   -0.238954    0.860866    0.476335    11.00000    0.02722
C15   1   -0.122366    0.978729    0.332264    11.00000    0.01403    0.02121 =
         0.01797   -0.00329   -0.00084   -0.00683
C16   1   -0.320781    1.137377    0.279252    11.00000    0.01622    0.01986 =
         0.02001   -0.00217   -0.00397   -0.00717
O61   3   -0.532235    1.171450    0.337645    11.00000    0.01268    0.02879 =
         0.02019    0.00216   -0.00318   -0.00372
H61   2   -0.637276    1.247925    0.306445    11.00000    0.04315
O62   3   -0.290028    1.223509    0.192370    11.00000    0.01947    0.02976 =
         0.02092    0.00558   -0.00517   -0.01023
HKLF 5
REM  bt in P-1
REM R1 =  0.0244 for    1894 Fo > 4sig(Fo)  and  0.0267 for all    2044 data
REM    177 parameters refined using      0 restraints
END
WGHT      0.0346      0.1215
REM Highest difference peak  0.297,  deepest hole -0.263,  1-sigma level  0.041
;
_cod_data_source_file            qp3012sup1.cif
_cod_data_source_block           II
_cod_database_code               2021193
_shelx_space_group_comment
;
The symmetry employed for this shelxl refinement is uniquely defined
by the following loop, which should always be used as a source of
symmetry information in preference to the above space-group names.
They are only intended as comments.
;
_shelx_estimated_absorpt_t_min   0.946
_shelx_estimated_absorpt_t_max   0.987
_shelx_hkl_file
;
   1   0   0 162.506 1.20171   1
   2   0   0 8.08899 0.29476   1
   3   0   2 53.0548 1.65768  -2
   3   0   0 53.0548 1.65768   1
   4   0   3 189.677 1.83466  -2
   4   0   0 189.677 1.83466   1
   5   0   4 758.962 10.1269  -2
   5   0   0 758.962 10.1269   1
   6   0   0 85.4673 2.72351   1
   7   0   0 34.9414 1.75040   1
  -5   1   0 33.9499 1.03207   1
  -4   1   0 2.12964 0.46356   1
   3  -1   2 295.733 3.03384  -2
  -3   1   0 295.733 3.03384   1
  -2   1   0 214.495 1.76866   1
  -1   1   0 424.134 2.97285   1
   0   1   0 113.320 0.86931   1
   1   1   1 75.3529 1.08793  -2
   1   1   0 75.3529 1.08793   1
   2   1   2 135.149 2.09161  -2
   2   1   0 135.149 2.09161   1
   3   1   0 1567.93 8.96345   1
   4   1   0 47.5788 0.65309   1
   5   1   4 38.0745 1.03289  -2
   5   1   0 38.0745 1.03289   1
   6   1   0 44.6943 2.13267   1
   7   1   0 106.456 3.36999   1
  -4   2   0 943.003 6.91346   1
  -3   2   0 26.7399 0.71893   1
  -2   2   0 19.5994 0.40705   1
  -1   2   0 857.182 4.99698   1
   0   2   0 196.264 1.54252   1
   1   2   0 3123.12 17.6446   1
   2   2   2 408.477 4.96598  -2
   2   2   0 408.477 4.96598   1
   3   2   3 218.581 2.21403  -2
   3   2   0 218.581 2.21403   1
   4   2   0 29.1093 0.67957   1
   5   2   0 27.7491 0.82899   1
   6   2   0 50.1513 2.14101   1
   7   2   6 216.899 4.91175  -2
   7   2   0 216.899 4.91175   1
  -5   3   0 58.6264 2.59698   1
   4  -3   2 132.718 1.53686  -2
  -4   3   0 132.718 1.53686   1
  -3   3   0 7.95532 0.46779   1
  -2   3   0 134.280 1.37814   1
  -1   3   0 406.384 2.61067   1
   0   3   1 631.657 4.46171  -2
   0   3   0 631.657 4.46171   1
   1   3   0 46.5060 0.54520   1
   2   3   0 577.027 3.54666   1
   3   3   0 415.079 3.15195   1
   4   3   4 385.500 3.07620  -2
   4   3   0 385.500 3.07620   1
   5   3   5 62.6712 2.38800  -2
   5   3   0 62.6712 2.38800   1
   6   3   0 35.5118 1.96977   1
   7   3   0 59.6341 2.65134   1
  -5   4   0 16.0818 1.04070   1
  -4   4   0 62.2716 1.23427   1
   3  -4   1 329.123 2.92492  -2
  -3   4   0 329.123 2.92492   1
  -2   4   0 89.0266 1.23350   1
  -1   4   0 226.439 2.09396   1
   0   4   0 103.010 1.21979   1
   1   4   2 245.177 1.76010  -2
   1   4   0 245.177 1.76010   1
   2   4   0 182.810 1.45596   1
   3   4   0 1089.74 7.59158   1
   4   4   0 85.8877 1.14482   1
   5   4   5 5.70760 0.97009  -2
   5   4   0 5.70760 0.97009   1
   6   4   6 11.8697 2.31142  -2
   6   4   0 11.8697 2.31142   1
   7   4   0 4.94102 1.62498   1
  -4   5   0 47.3337 1.56523   1
  -3   5   0 97.3071 1.56666   1
  -2   5   0 7.00853 1.04681  -2
  -2   5   0 7.00853 1.04681   1
  -1   5   1 20.5009 1.05170  -2
  -1   5   0 20.5009 1.05170   1
   0   5   0 117.476 1.49425   1
   1   5   0 114.146 1.42612   1
   2   5   3 16.7835 0.88703  -2
   2   5   0 16.7835 0.88703   1
   3   5   4 43.9595 1.26898  -2
   3   5   0 43.9595 1.26898   1
   4   5   0 76.8211 1.18064   1
   5   5   0 4.43553 0.77791   1
   6   5   6 172.968 2.84724  -2
   6   5   0 172.968 2.84724   1
   7   5   7 10.2083 2.53488  -2
   7   5   0 10.2083 2.53488   1
  -3   6   0 40.3669 1.93242   1
  -2   6   0 56.8160 1.35681   1
  -1   6   1 91.6212 2.13241  -2
  -1   6   0 91.6212 2.13241   1
   0   6   2 70.1775 1.38669  -2
   0   6   0 70.1775 1.38669   1
   1   6   0 4.35371 0.62997   1
   2   6   0 108.200 1.54997   1
   3   6   0 2.35159 0.73917   1
   4   6   5 231.184 2.92221  -2
   4   6   0 231.184 2.92221   1
   5   6   0 166.592 2.55495   1
   6   6   0 75.9654 1.94164   1
   7   6   0 12.0239 1.96113   1
  -1   7   0 68.4070 1.57639   1
   0   7   0 16.1727 1.00440   1
   1   7   3 13.2241 1.01869  -2
   1   7   0 13.2241 1.01869   1
   2   7   0 15.1477 1.15961   1
   3   7   0 50.7762 1.57160   1
   4   7   0 129.513 2.29165   1
   5   7   6 88.4704 2.94296  -2
   5   7   0 88.4704 2.94296   1
   6   7   7 22.7709 3.18264  -2
   6   7   0 22.7709 3.18264   1
   0   8   0 28.3049 2.26617   1
   1   8   0 11.7567 1.13377   1
   2   8   4 58.7924 2.12747  -2
   2   8   0 58.7924 2.12747   1
   3   8   5 14.2874 1.86085  -2
   3   8   0 14.2874 1.86085   1
   4   8   0 18.2050 2.12661   1
   5   8   0 16.2583 2.00910   1
   6   8   7 62.1302 3.91158  -2
   6   8   0 62.1302 3.91158   1
   3   9   5 8.15510 3.24168  -2
   3   9   0 8.15510 3.24168   1
   6   8   8 19.4113 3.56980  -2
  -6  -8   1 19.4113 3.56980   1
  -5  -8   1 57.1786 2.91326   1
  -4  -8   1 4.20607 1.83539   1
   3   8   6 4.65391 1.81229  -2
  -3  -8   1 4.65391 1.81229   1
   2   8   5 51.1848 2.09495  -2
  -2  -8   1 51.1848 2.09495   1
  -1  -8   1 81.0552 1.80594   1
   0  -8   1 10.5791 1.95683   1
   6   7   8 109.855 4.19133  -2
  -6  -7   1 109.855 4.19133   1
   5   7   7 7.09028 2.08674  -2
  -5  -7   1 7.09028 2.08674   1
  -4  -7   1 6.72414 1.51658   1
  -3  -7   1 1.26470 0.89382   1
   2   7   5 31.7205 2.70736  -2
  -2  -7   1 31.7205 2.70736   1
   1   7   4 15.5465 1.02731  -2
  -1  -7   1 15.5465 1.02731   1
   0  -7   1 4.99200 0.86696   1
   1  -7   1 37.3115 1.32461   1
  -7  -6   1 53.5145 2.89046   1
  -6  -6   1 226.343 3.26607   1
   5   6   7 86.7133 3.49017  -2
  -5  -6   1 86.7133 3.49017   1
   4   6   6 0.97450 1.56850  -2
  -4  -6   1 0.97450 1.56850   1
   3   6   5 1.38745 1.30861  -2
  -3  -6   1 1.38745 1.30861   1
  -2  -6   1 76.9011 1.33984   1
  -1  -6   1 103.163 1.52883   1
   0   6   3 86.9177 1.52791  -2
   0  -6   1 86.9177 1.52791   1
  -1   6   2 42.4997 1.50205  -2
   1  -6   1 42.4997 1.50205   1
   2  -6   1 5.07099 0.84028   1
   3  -6   1 0.28347 1.22450   1
   7   5   8 1.75537 2.52467  -2
  -7  -5   1 1.75537 2.52467   1
   6   5   7 22.9759 1.72691  -2
  -6  -5   1 22.9759 1.72691   1
  -5  -5   1 35.0781 1.27595   1
  -4  -5   1 2.53369 0.51786   1
   3   5   5 65.5848 1.45161  -2
  -3  -5   1 65.5848 1.45161   1
   2   5   4 190.367 2.01668  -2
  -2  -5   1 190.367 2.01668   1
  -1  -5   1 12.8165 0.63518   1
   0  -5   1 0.07782 0.45314   1
  -1   5   2 295.047 2.79909  -2
   1  -5   1 295.047 2.79909   1
  -2   5   1 78.9254 1.46976  -2
   2  -5   1 78.9254 1.46976   1
   3  -5   1 82.9902 1.47471   1
   4  -5   1 0.85020 0.95066   1
  -7  -4   1 11.1460 1.86738   1
   6   4   7 59.9560 2.85727  -2
  -6  -4   1 59.9560 2.85727   1
   5   4   6 253.691 3.15844  -2
  -5  -4   1 253.691 3.15844   1
  -4  -4   1 184.992 1.82577   1
  -3  -4   1 204.562 1.87595   1
  -2  -4   1 0.25203 0.27434   1
   1   4   3 228.648 1.70420  -2
  -1  -4   1 228.648 1.70420   1
   0  -4   1 353.271 2.87380   1
   1  -4   1 199.787 1.94422   1
   2  -4   1 165.969 1.77702   1
  -3   4   0 103.255 1.46147  -2
   3  -4   1 103.255 1.46147   1
   4  -4   1 52.9122 1.33442   1
   5  -4   1 30.9199 1.30774   1
  -7  -3   1 3.63072 1.58319   1
  -6  -3   1 25.3871 1.21976   1
   5   3   6 157.966 3.47586  -2
  -5  -3   1 157.966 3.47586   1
   4   3   5 0.57316 0.51769  -2
  -4  -3   1 0.57316 0.51769   1
   3   3   4 541.189 6.56717  -2
  -3  -3   1 541.189 6.56717   1
  -2  -3   1 32.8800 0.52759   1
  -1  -3   1 150.084 1.16064   1
   0   3   2 65.3106 0.68046  -2
   0  -3   1 65.3106 0.68046   1
   1  -3   1 165.087 1.27932   1
   2  -3   1 404.744 2.76167   1
   3  -3   1 7.14094 0.43224   1
   4  -3   1 65.5105 0.99803  -2
   4  -3   1 65.5105 0.99803   1
   5  -3   1 148.480 1.95212   1
   7   2   7 55.5861 2.99854  -2
  -7  -2   1 55.5861 2.99854   1
  -6  -2   1 21.6703 1.66207   1
  -5  -2   1 221.751 2.80022   1
  -4  -2   1 654.256 4.79090   1
   3   2   4 632.957 5.45674  -2
  -3  -2   1 632.957 5.45674   1
   2   2   3 582.464 6.78782  -2
  -2  -2   1 582.464 6.78782   1
  -1  -2   1 506.572 3.03842   1
   0  -2   1 0.33117 0.13928   1
  -1   2   1 718.960 8.17485  -2
   1  -2   1 718.960 8.17485   1
  -2   2   0 303.167 3.67929  -2
   2  -2   1 303.167 3.67929   1
   3  -2   1 636.269 3.96723   1
   4  -2   1 1.21211 0.54462   1
   5  -2   2 90.7059 2.91992  -2
   5  -2   1 90.7059 2.91992   1
  -7  -1   1 51.1675 2.71949   1
  -6  -1   1 111.916 3.01378   1
   5   1   5 27.4593 1.29909  -2
  -5  -1   1 27.4593 1.29909   1
  -4  -1   1 35.9141 0.59671   1
  -3  -1   1 68.4627 0.69027   1
   2   1   3 1468.81 17.1994  -2
  -2  -1   1 1468.81 17.1994   1
   1   1   2 1413.15 16.2130  -2
  -1  -1   1 1413.15 16.2130   1
   0  -1   1 831.899 4.72038   1
   1  -1   1 29.6058 0.34239   1
   2  -1   1 45.9897 0.65389   1
   3  -1   1 872.931 7.54123  -2
   3  -1   1 872.931 7.54123   1
   4  -1   1 333.116 2.47703   1
   5  -1   1 8.52436 0.86613   1
   6  -1   3 71.2639 3.12729  -2
   6  -1   1 71.2639 3.12729   1
  -7   0   1 85.7462 3.24213   1
  -6   0   1 26.6650 1.96645   1
   5   0   5 171.042 3.77264  -2
  -5   0   1 171.042 3.77264   1
   4   0   4 97.3043 1.24288  -2
  -4   0   1 97.3043 1.24288   1
  -3   0   1 654.074 4.71378   1
  -2   0   1 1606.48 10.6515   1
  -1   0   1 73.5144 0.44882   1
   0   0   1 0.89496 0.05295  -2
   0   0   1 0.89496 0.05295   1
   1   0   1 14.4919 0.24145   1
   2   0   1 2224.15 14.6508   1
   3   0   1 46.8944 1.39684  -2
   3   0   1 46.8944 1.39684   1
   4   0   2 46.7349 0.84744  -2
   4   0   1 46.7349 0.84744   1
   5   0   1 134.210 2.04602   1
   6   0   1 60.1677 1.66552   1
   7   0   1 0.08171 1.73007   1
  -5   1   1 86.9755 1.25089   1
  -4   1   1 12.2567 0.63280   1
   3  -1   3 105.062 1.26187  -2
  -3   1   1 105.062 1.26187   1
  -2   1   1 509.888 3.69292   1
  -1   1   1 880.095 5.91224   1
   0   1   1 466.864 2.68826   1
   1   1   0 418.493 4.90816  -2
   1   1   1 418.493 4.90816   1
   2   1   1 418.675 5.06912  -2
   2   1   1 418.675 5.06912   1
   3   1   1 48.1623 0.56542   1
   4   1   1 21.8084 0.49366   1
   5   1   3 426.886 3.52512  -2
   5   1   1 426.886 3.52512   1
   6   1   1 45.1495 2.11554   1
   7   1   1 8.30471 1.22518   1
   5  -2   4 12.8115 1.55660  -2
  -5   2   1 12.8115 1.55660   1
  -4   2   1 19.0883 0.79279   1
  -3   2   1 49.3555 0.78753   1
  -2   2   1 158.482 1.19741   1
  -1   2   1 2578.49 14.4868   1
   0   2   1 25.9693 0.44984   1
   1   2   1 2047.91 11.5147   1
   2   2   1 1251.38 14.2313  -2
   2   2   1 1251.38 14.2313   1
   3   2   2 426.154 3.82100  -2
   3   2   1 426.154 3.82100   1
   4   2   1 338.055 2.74073   1
   5   2   1 195.086 1.94914   1
   6   2   1 588.199 8.62833   1
   7   2   5 46.3132 2.77891  -2
   7   2   1 46.3132 2.77891   1
  -5   3   1 22.5197 1.89247   1
   4  -3   3 45.6926 0.95039  -2
  -4   3   1 45.6926 0.95039   1
  -3   3   1 1.28913 0.39546   1
  -2   3   1 177.915 1.66795   1
  -1   3   1 145.090 1.13091   1
   0   3   0 167.040 1.51479  -2
   0   3   1 167.040 1.51479   1
   1   3   1 51.4744 0.55592   1
   2   3   1 431.764 2.74199   1
   3   3   1 23.3210 0.57233   1
   4   3   3 68.0151 0.97867  -2
   4   3   1 68.0151 0.97867   1
   5   3   1 33.0362 0.86675   1
   6   3   1 67.8075 2.40215   1
   7   3   1 22.6344 2.01964   1
  -5   4   1 344.800 3.68314   1
  -4   4   1 10.1552 0.74145   1
   3  -4   2 49.2003 1.08860  -2
  -3   4   1 49.2003 1.08860   1
  -2   4   1 61.9207 1.06202   1
  -1   4   1 37.1537 0.81758   1
   0   4   1 656.690 4.79842   1
   1   4   1 346.492 2.78229  -2
   1   4   1 346.492 2.78229   1
   2   4   1 561.391 3.55450   1
   3   4   1 23.3874 0.56589   1
   4   4   1 20.2458 0.65783   1
   5   4   4 251.219 2.39296  -2
   5   4   1 251.219 2.39296   1
   6   4   1 77.5326 2.54983   1
   7   4   1 83.0643 2.97810   1
   8   4   1 35.4512 2.68865   1
  -4   5   1 3.74302 0.88494   1
  -3   5   1 21.6866 0.96874   1
   2  -5   1 53.7604 1.31809  -2
  -2   5   1 53.7604 1.31809   1
  -1   5   0 19.1671 1.03584  -2
  -1   5   1 19.1671 1.03584   1
   0   5   1 46.9344 0.97600   1
   1   5   1 373.854 3.12886   1
   2   5   2 207.005 2.09174  -2
   2   5   1 207.005 2.09174   1
   3   5   3 85.8025 1.65524  -2
   3   5   1 85.8025 1.65524   1
   4   5   1 39.8920 0.91137   1
   5   5   1 83.7809 1.30342   1
   6   5   5 82.2205 2.98280  -2
   6   5   1 82.2205 2.98280   1
   7   5   6 31.7680 2.72299  -2
   7   5   1 31.7680 2.72299   1
  -3   6   1 50.2205 2.10149   1
  -2   6   1 230.502 2.57561   1
  -1   6   0 21.7682 1.34343  -2
  -1   6   1 21.7682 1.34343   1
   0   6   1 22.9597 1.02996  -2
   0   6   1 22.9597 1.02996   1
   1   6   1 163.392 1.90630   1
   2   6   1 355.953 3.18102   1
   3   6   1 113.774 1.91769   1
   4   6   4 25.0699 1.22260  -2
   4   6   1 25.0699 1.22260   1
   5   6   1 18.6211 1.08574   1
   6   6   1 57.3815 2.41442   1
   7   6   1 69.7727 2.96985   1
  -1   7   1 0.90566 0.82716   1
   0   7   1 38.0807 1.27483   1
   1   7   2 28.8352 1.16253  -2
   1   7   1 28.8352 1.16253   1
   2   7   1 29.2385 1.32973   1
   3   7   1 17.6725 1.16153   1
   4   7   1 13.3902 1.13095   1
   5   7   5 68.3685 2.80740  -2
   5   7   1 68.3685 2.80740   1
   6   7   6 23.2652 3.23298  -2
   6   7   1 23.2652 3.23298   1
   0   8   1 3.29946 1.75300   1
   1   8   1 15.3592 1.12264   1
   2   8   3 29.1164 1.79020  -2
   2   8   1 29.1164 1.79020   1
   3   8   4 95.6993 2.55343  -2
   3   8   1 95.6993 2.55343   1
   4   8   1 110.063 2.38318   1
   5   8   1 22.4579 2.23817   1
   6   8   6 3.96797 3.17561  -2
   6   8   1 3.96797 3.17561   1
   3   9   4 14.3580 3.03366  -2
   3   9   1 14.3580 3.03366   1
   4   9   5 40.7719 2.96197  -2
   4   9   1 40.7719 2.96197   1
  -5  -8   2 3.11333 2.02586   1
  -4  -8   2 35.0152 2.44591   1
   3   8   7 153.306 4.41035  -2
  -3  -8   2 153.306 4.41035   1
   2   8   6 15.4389 1.83953  -2
  -2  -8   2 15.4389 1.83953   1
  -1  -8   2 2.41409 1.26149   1
   0  -8   2 -0.6491 1.77404   1
   6   7   9 180.544 5.12966  -2
  -6  -7   2 180.544 5.12966   1
   5   7   8 2.65148 2.09837  -2
  -5  -7   2 2.65148 2.09837   1
  -4  -7   2 0.27986 1.33571   1
  -3  -7   2 32.0723 1.39812   1
   2   7   6 6.97751 2.74957  -2
  -2  -7   2 6.97751 2.74957   1
   1   7   5 193.746 2.36983  -2
  -1  -7   2 193.746 2.36983   1
   0  -7   2 21.5950 1.12459   1
   1  -7   2 3.81082 0.95879   1
   7   6   9 16.5416 3.40694  -2
  -7  -6   2 16.5416 3.40694   1
  -6  -6   2 1.23277 1.05796   1
   5   6   8 5.27271 2.81016  -2
  -5  -6   2 5.27271 2.81016   1
   4   6   7 7.12943 1.68599  -2
  -4  -6   2 7.12943 1.68599   1
   3   6   6 60.0622 1.71742  -2
  -3  -6   2 60.0622 1.71742   1
  -2  -6   2 38.2392 1.30478   1
  -1  -6   2 1.05489 0.61696   1
   0   6   4 15.4104 1.06559  -2
   0  -6   2 15.4104 1.06559   1
  -1   6   3 9.34876 1.33749  -2
   1  -6   2 9.34876 1.33749   1
   2  -6   2 66.9768 1.47813   1
   7   5   9 119.967 4.09175  -2
  -7  -5   2 119.967 4.09175   1
   6   5   8 8.07134 1.67702  -2
  -6  -5   2 8.07134 1.67702   1
  -5  -5   2 416.149 4.58027   1
  -4  -5   2 6.55896 0.76299   1
   3   5   6 112.962 1.51364  -2
  -3  -5   2 112.962 1.51364   1
   2   5   5 36.4773 1.03892  -2
  -2  -5   2 36.4773 1.03892   1
  -1  -5   2 22.9021 0.78424   1
   0  -5   2 312.761 2.81579   1
  -1   5   3 13.9356 1.04168  -2
   1  -5   2 13.9356 1.04168   1
  -2   5   2 0.78338 0.98118  -2
   2  -5   2 0.78338 0.98118   1
   3  -5   2 9.80815 0.83764   1
   4  -5   2 6.42283 1.04067   1
  -7  -4   2 116.939 3.58681   1
   6   4   8 89.4374 3.15926  -2
  -6  -4   2 89.4374 3.15926   1
   5   4   7 17.8529 1.17826  -2
  -5  -4   2 17.8529 1.17826   1
  -4  -4   2 13.3221 0.80562   1
  -3  -4   2 279.081 2.38539   1
  -2  -4   2 41.9454 0.68828   1
   1   4   4 269.159 1.97310  -2
  -1  -4   2 269.159 1.97310   1
   0  -4   2 315.454 2.65430   1
   1  -4   2 4.98898 0.46131   1
  -2   4   2 32.0729 1.66623  -2
   2  -4   2 32.0729 1.66623   1
  -3   4   1 8.26836 0.81845  -2
   3  -4   2 8.26836 0.81845   1
   4  -4   2 1.55009 0.72752   1
   5  -4   2 12.0790 1.02182   1
  -7  -3   2 15.8338 1.97002   1
  -6  -3   2 74.6388 1.80405   1
   5   3   7 35.1816 2.37251  -2
  -5  -3   2 35.1816 2.37251   1
   4   3   6 285.366 3.17531  -2
  -4  -3   2 285.366 3.17531   1
   3   3   5 163.076 2.42578  -2
  -3  -3   2 163.076 2.42578   1
  -2  -3   2 2.90548 0.26623   1
  -1  -3   2 28.1963 0.48799   1
   0   3   3 320.688 2.14660  -2
   0  -3   2 320.688 2.14660   1
   1  -3   2 0.46940 0.22434   1
   2  -3   2 210.532 1.64566   1
   3  -3   2 289.858 2.52428   1
  -4   3   0 16.3867 0.89324  -2
   4  -3   2 16.3867 0.89324   1
   5  -3   1 23.0964 1.29806  -2
   5  -3   2 23.0964 1.29806   1
   7   2   8 34.2484 2.64306  -2
  -7  -2   2 34.2484 2.64306   1
   6   2   7 8.97702 1.55872  -2
  -6  -2   2 8.97702 1.55872   1
  -5  -2   2 234.401 2.93766   1
  -4  -2   2 106.434 1.66208   1
   3   2   5 133.879 1.53045  -2
  -3  -2   2 133.879 1.53045   1
   2   2   4 574.760 4.91732  -2
  -2  -2   2 574.760 4.91732   1
  -1  -2   2 355.667 2.23224   1
   0  -2   2 129.787 0.88465   1
  -1   2   2 342.470 3.10805  -2
   1  -2   2 342.470 3.10805   1
  -2   2   1 61.5223 1.01679  -2
   2  -2   2 61.5223 1.01679   1
   3  -2   2 94.8971 0.94286   1
   4  -2   2 175.347 1.51595   1
   5  -2   1 10.4681 0.90239  -2
   5  -2   2 10.4681 0.90239   1
   6  -2   2 0.60291 2.98656  -2
   6  -2   2 0.60291 2.98656   1
  -7  -1   2 8.53730 1.96991   1
   6   1   7 26.2596 1.73496  -2
  -6  -1   2 26.2596 1.73496   1
   5   1   6 241.842 3.07366  -2
  -5  -1   2 241.842 3.07366   1
  -4  -1   2 733.587 5.34076   1
  -3  -1   2 153.559 1.17929   1
   2   1   4 60.6973 1.50464  -2
  -2  -1   2 60.6973 1.50464   1
   1   1   3 274.225 2.40278  -2
  -1  -1   2 274.225 2.40278   1
   0  -1   2 317.038 1.93036   1
   1  -1   2 1730.67 9.75455   1
  -2   1   1 186.050 2.36194  -2
   2  -1   2 186.050 2.36194   1
  -3   1   0 101.958 0.92886  -2
   3  -1   2 101.958 0.92886   1
   4  -1   2 365.938 3.06967   1
   5  -1   2 26.2824 1.17200   1
   6  -1   2 1.25671 2.52274  -2
   6  -1   2 1.25671 2.52274   1
  -7   0   2 0.90128 2.06669   1
  -6   0   2 83.3928 2.77308   1
   5   0   6 45.0613 2.39012  -2
  -5   0   2 45.0613 2.39012   1
   4   0   5 407.160 2.70624  -2
  -4   0   2 407.160 2.70624   1
   3   0   4 182.799 2.30938  -2
  -3   0   2 182.799 2.30938   1
  -2   0   2 17.3385 0.25241   1
  -1   0   2 963.935 5.38122   1
   0   0   2 2922.21 14.8866  -2
   0   0   2 2922.21 14.8866   1
   1   0   2 73.6548 0.63297   1
   2   0   2 1208.86 6.89126   1
   3   0   0 289.498 2.58076  -2
   3   0   2 289.498 2.58076   1
   4   0   1 282.489 1.78317  -2
   4   0   2 282.489 1.78317   1
   5   0   2 245.916 2.96761   1
   6   0   2 0.22959 0.83859   1
   7   0   2 6.58950 1.77986   1
  -5   1   2 0.27359 0.75642   1
  -4   1   2 36.1599 0.89163   1
   3  -1   4 757.402 6.82391  -2
  -3   1   2 757.402 6.82391   1
  -2   1   2 105.641 1.08392   1
  -1   1   2 575.452 2.98654   1
   0   1   2 1278.46 7.21385   1
  -1  -1   1 192.294 2.50277  -2
   1   1   2 192.294 2.50277   1
   2   1   0 754.041 8.81143  -2
   2   1   2 754.041 8.81143   1
   3   1   2 739.369 4.39705   1
   4   1   2 2.02421 0.27246   1
   5   1   2 519.302 7.00716  -2
   5   1   2 519.302 7.00716   1
   6   1   3 75.2194 2.74794  -2
   6   1   2 75.2194 2.74794   1
   7   1   2 1.94756 1.49984   1
   5  -2   5 9.36611 2.53844  -2
  -5   2   2 9.36611 2.53844   1
  -4   2   2 445.830 4.58918   1
  -3   2   2 308.546 2.65797   1
   2  -2   3 813.896 10.3155  -2
  -2   2   2 813.896 10.3155   1
  -1   2   2 229.125 1.54671   1
   0   2   2 57.7644 0.52831   1
   1   2   2 9999.99 56.2095   1
   2   2   0 41.3125 1.10817  -2
   2   2   2 41.3125 1.10817   1
   3   2   1 236.903 2.33168  -2
   3   2   2 236.903 2.33168   1
   4   2   2 66.0832 0.93099   1
   5   2   2 12.2242 0.76994   1
   6   2   3 29.5224 2.12069  -2
   6   2   2 29.5224 2.12069   1
   7   2   4 12.6554 2.19994  -2
   7   2   2 12.6554 2.19994   1
   5  -3   5 47.4071 3.63283  -2
  -5   3   2 47.4071 3.63283   1
   4  -3   4 18.6418 0.78751  -2
  -4   3   2 18.6418 0.78751   1
  -3   3   2 0.05308 0.38434   1
  -2   3   2 443.701 3.40045   1
  -1   3   2 442.890 2.81811   1
   0  -3   1 33.2093 0.65274  -2
   0   3   2 33.2093 0.65274   1
   1   3   2 186.178 1.33219   1
   2   3   2 402.350 2.57460   1
   3   3   2 -0.0623 0.24378   1
   4   3   2 2022.71 13.5974  -2
   4   3   2 2022.71 13.5974   1
   5   3   2 37.2115 0.89038   1
   6   3   2 215.068 2.83921   1
   7   3   2 69.2390 2.68163   1
   8   3   5 8.48434 2.21677  -2
   8   3   2 8.48434 2.21677   1
  -4   4   2 3.14526 0.68207   1
   3  -4   3 531.154 4.23805  -2
  -3   4   2 531.154 4.23805   1
  -2   4   2 2.91989 0.48597   1
  -1   4   2 48.8440 0.90386   1
   0   4   2 61.4590 0.93662   1
   1   4   0 557.345 4.13885  -2
   1   4   2 557.345 4.13885   1
   2   4   2 229.897 1.70519   1
   3   4   2 11.4766 0.44019   1
   4   4   2 140.230 1.51491   1
   5   4   3 163.759 1.82120  -2
   5   4   2 163.759 1.82120   1
   6   4   2 30.4422 1.89312   1
   7   4   2 47.1059 2.24970   1
   8   4   2 0.53301 1.26329   1
  -4   5   2 33.0853 1.82720   1
  -3   5   2 5.94339 0.77003   1
   2  -5   2 6.55122 1.02483  -2
  -2   5   2 6.55122 1.02483   1
   1  -5   1 116.631 1.64948  -2
  -1   5   2 116.631 1.64948   1
   0   5   2 729.379 5.45608   1
   1   5   2 69.8966 1.10519   1
   2   5   1 59.3469 1.39384  -2
   2   5   2 59.3469 1.39384   1
   3   5   2 3.70234 0.99770  -2
   3   5   2 3.70234 0.99770   1
   4   5   2 17.9283 0.70321   1
   5   5   2 228.083 2.31671   1
   6   5   2 50.2185 2.07045   1
   7   5   5 19.9103 2.66716  -2
   7   5   2 19.9103 2.66716   1
   8   5   2 17.0086 1.59610   1
  -3   6   2 23.4531 1.67842   1
  -2   6   2 104.316 1.71508   1
   1  -6   1 110.986 3.60027  -2
  -1   6   2 110.986 3.60027   1
   0   6   0 183.064 2.13704  -2
   0   6   2 183.064 2.13704   1
   1   6   2 30.0459 0.96843   1
   2   6   2 32.2604 0.97547   1
   3   6   2 1.65612 0.68149   1
   4   6   3 97.2085 1.82025  -2
   4   6   2 97.2085 1.82025   1
   5   6   2 5.43072 0.69572   1
   6   6   2 36.7415 2.14688   1
   7   6   2 46.8059 2.53931   1
  -1   7   2 1.45145 0.85728   1
   0   7   2 37.9002 1.24401   1
   1   7   1 77.7411 1.52007  -2
   1   7   2 77.7411 1.52007   1
   2   7   2 49.8649 1.24987   1
   3   7   2 125.257 2.23087   1
   4   7   2 16.1349 1.17056   1
   5   7   4 5.97229 1.23836  -2
   5   7   2 5.97229 1.23836   1
   0   8   2 31.6053 2.20908   1
   1   8   2 42.3751 1.46162   1
   2   8   2 21.6681 1.70720  -2
   2   8   2 21.6681 1.70720   1
   3   8   3 30.9555 2.01465  -2
   3   8   2 30.9555 2.01465   1
   4   8   2 98.9725 2.29304   1
   5   8   2 13.9711 1.38196   1
   3   9   3 61.0788 3.72655  -2
   3   9   2 61.0788 3.72655   1
   4   9   4 12.5239 1.97205  -2
   4   9   2 12.5239 1.97205   1
  -5  -8   3 10.5389 2.12362   1
  -4  -8   3 15.4730 2.10041   1
   3   8   8 61.7846 3.50424  -2
  -3  -8   3 61.7846 3.50424   1
   2   8   7 31.4058 2.06026  -2
  -2  -8   3 31.4058 2.06026   1
  -1  -8   3 -0.0185 1.30983   1
   6   7  10 17.2460 3.68801  -2
  -6  -7   3 17.2460 3.68801   1
   5   7   9 9.27468 2.29181  -2
  -5  -7   3 9.27468 2.29181   1
   4   7   8 29.5264 3.43599  -2
  -4  -7   3 29.5264 3.43599   1
  -3  -7   3 22.3005 1.92108   1
   2   7   7 104.274 3.80446  -2
  -2  -7   3 104.274 3.80446   1
   1   7   6 13.4694 1.09711  -2
  -1  -7   3 13.4694 1.09711   1
   0  -7   3 50.3877 1.45538   1
   1  -7   3 0.49380 0.95677   1
   7   6  10 58.6791 2.96004  -2
  -7  -6   3 58.6791 2.96004   1
  -6  -6   3 29.7748 1.59579   1
   5   6   9 21.2197 3.13013  -2
  -5  -6   3 21.2197 3.13013   1
   4   6   8 127.336 3.29478  -2
  -4  -6   3 127.336 3.29478   1
   3   6   7 35.9325 2.47357  -2
  -3  -6   3 35.9325 2.47357   1
  -2  -6   3 29.3848 1.21293   1
  -1  -6   3 30.7677 1.03162   1
   0   6   5 35.8076 1.22051  -2
   0  -6   3 35.8076 1.22051   1
  -1   6   4 16.0479 1.38224  -2
   1  -6   3 16.0479 1.38224   1
   2  -6   3 20.6352 1.07779   1
   7   5  10 78.7044 2.55558  -2
  -7  -5   3 78.7044 2.55558   1
   6   5   9 32.7241 1.86830  -2
  -6  -5   3 32.7241 1.86830   1
  -5  -5   3 36.8989 1.38635   1
  -4  -5   3 21.3512 1.05268   1
   3   5   7 44.7397 1.43325  -2
  -3  -5   3 44.7397 1.43325   1
   2   5   6 36.5894 1.06185  -2
  -2  -5   3 36.5894 1.06185   1
  -1  -5   3 86.2444 1.29955   1
   0  -5   3 163.389 1.85242   1
  -1   5   4 36.0588 1.18865  -2
   1  -5   3 36.0588 1.18865   1
  -2   5   3 20.9211 1.12860  -2
   2  -5   3 20.9211 1.12860   1
   3  -5   3 36.8430 1.39339   1
  -7  -4   3 0.59361 1.53741   1
   6   4   9 36.3901 1.95218  -2
  -6  -4   3 36.3901 1.95218   1
   5   4   8 58.8443 1.64399  -2
  -5  -4   3 58.8443 1.64399   1
  -4  -4   3 0.41344 0.59689   1
  -3  -4   3 0.13753 0.37196   1
   2   4   6 149.275 3.06708  -2
  -2  -4   3 149.275 3.06708   1
   1   4   5 123.489 1.19338  -2
  -1  -4   3 123.489 1.19338   1
   0  -4   3 14.1962 0.59701   1
   1  -4   3 11.3588 0.57916   1
  -2   4   3 18.1621 1.57829  -2
   2  -4   3 18.1621 1.57829   1
  -3   4   2 75.1427 1.30573  -2
   3  -4   3 75.1427 1.30573   1
   4  -4   3 0.73720 0.74484   1
  -7  -3   3 2.44922 1.56128   1
  -6  -3   3 153.354 2.51827   1
   5   3   8 51.5930 2.57831  -2
  -5  -3   3 51.5930 2.57831   1
   4   3   7 46.3277 1.21669  -2
  -4  -3   3 46.3277 1.21669   1
   3   3   6 37.2478 0.96124  -2
  -3  -3   3 37.2478 0.96124   1
  -2  -3   3 545.806 3.43537   1
  -1  -3   3 864.042 5.17462   1
   0   3   4 66.9160 0.76656  -2
   0  -3   3 66.9160 0.76656   1
   1  -3   3 686.441 4.25407   1
   2  -3   3 104.948 1.08154   1
   3  -3   3 26.1733 0.79672   1
  -4   3   1 53.8206 1.23393  -2
   4  -3   3 53.8206 1.23393   1
  -5   3   0 32.8056 1.84045  -2
   5  -3   3 32.8056 1.84045   1
   7   2   9 44.4636 3.07749  -2
  -7  -2   3 44.4636 3.07749   1
   6   2   8 131.788 2.60743  -2
  -6  -2   3 131.788 2.60743   1
  -5  -2   3 33.1558 1.23580   1
  -4  -2   3 90.9905 1.58961   1
   3   2   6 38.1158 0.63865  -2
  -3  -2   3 38.1158 0.63865   1
   2   2   5 261.241 2.46567  -2
  -2  -2   3 261.241 2.46567   1
  -1  -2   3 246.302 1.66213   1
   0  -2   3 122.604 0.99290   1
  -1   2   3 172.928 1.32490  -2
   1  -2   3 172.928 1.32490   1
  -2   2   2 143.870 1.42739  -2
   2  -2   3 143.870 1.42739   1
   3  -2   3 35.1671 0.63186   1
   4  -2   3 106.507 1.29078   1
  -5   2   0 77.0327 1.49290  -2
   5  -2   3 77.0327 1.49290   1
   6  -2   1 16.9956 1.30841  -2
   6  -2   3 16.9956 1.30841   1
  -7  -1   3 38.0031 2.69714   1
   6   1   8 54.7383 2.00532  -2
  -6  -1   3 54.7383 2.00532   1
   5   1   7 106.946 2.03843  -2
  -5  -1   3 106.946 2.03843   1
  -4  -1   3 5.83950 0.63554   1
  -3  -1   3 184.556 1.36684   1
   2   1   5 196.391 3.09113  -2
  -2  -1   3 196.391 3.09113   1
   1   1   4 19.5216 0.48002  -2
  -1  -1   3 19.5216 0.48002   1
   0  -1   3 132.833 0.96401   1
   1  -1   3 73.9139 0.66177   1
  -2   1   2 1411.16 15.6186  -2
   2  -1   3 1411.16 15.6186   1
  -3   1   1 12.6862 0.45795  -2
   3  -1   3 12.6862 0.45795   1
   4  -1   3 6.12021 0.41181   1
   5  -1   3 64.6495 1.00902   1
   6  -1   1 182.187 2.35419  -2
   6  -1   3 182.187 2.35419   1
  -7   0   3 39.3811 2.89336   1
  -6   0   3 93.3378 2.12634   1
   5   0   7 16.1955 2.33631  -2
  -5   0   3 16.1955 2.33631   1
   4   0   6 50.4002 1.24174  -2
  -4   0   3 50.4002 1.24174   1
  -3   0   3 108.695 0.74328   1
  -2   0   3 273.548 1.57727   1
  -1   0   3 2.21765 0.14113   1
   0   0   3 296.494 1.62314  -2
   0   0   3 296.494 1.62314   1
   1   0   3 2098.06 11.8321   1
   2   0   3 144.365 1.04061   1
  -3   0   1 64.5325 1.34742  -2
   3   0   3 64.5325 1.34742   1
   4   0   0 39.3387 0.64716  -2
   4   0   3 39.3387 0.64716   1
   5   0   3 31.0513 1.11018   1
   6   0   3 132.308 2.30629   1
   7   0   3 42.6180 2.49112   1
  -5   1   3 213.839 2.99646   1
  -4   1   3 90.7524 1.69219   1
   3  -1   5 396.015 2.27600  -2
  -3   1   3 396.015 2.27600   1
   2  -1   4 740.528 8.31611  -2
  -2   1   3 740.528 8.31611   1
  -1   1   3 1096.00 5.58258   1
   0   1   3 853.608 4.90415   1
  -1  -1   2 2510.87 28.5418  -2
   1   1   3 2510.87 28.5418   1
  -2  -1   1 1038.47 11.9943  -2
   2   1   3 1038.47 11.9943   1
   3   1   3 16.2317 0.37800   1
   4   1   3 70.5139 0.94503   1
   5   1   1 59.7835 1.89650  -2
   5   1   3 59.7835 1.89650   1
   6   1   2 9.03555 2.07378  -2
   6   1   3 9.03555 2.07378   1
   7   1   3 110.171 3.33899   1
  -4   2   3 5.30650 0.80836   1
  -3   2   3 110.477 1.05733   1
   2  -2   4 73.3084 2.09349  -2
  -2   2   3 73.3084 2.09349   1
   1  -2   3 580.236 7.49277  -2
  -1   2   3 580.236 7.49277   1
   0   2   3 31.8405 0.42226   1
   1   2   3 414.064 2.54280   1
  -2  -2   1 646.797 7.81508  -2
   2   2   3 646.797 7.81508   1
   3   2   0 74.1767 1.60646  -2
   3   2   3 74.1767 1.60646   1
   4   2   3 93.7642 0.97789   1
   5   2   3 137.279 1.66078   1
   6   2   2 3.05969 1.77193  -2
   6   2   3 3.05969 1.77193   1
   7   2   3 64.7652 2.87804  -2
   7   2   3 64.7652 2.87804   1
   5  -3   6 30.6516 3.57266  -2
  -5   3   3 30.6516 3.57266   1
   4  -3   5 260.356 2.42150  -2
  -4   3   3 260.356 2.42150   1
  -3   3   3 61.0222 0.98794   1
  -2   3   3 28.8627 0.69935   1
  -1   3   3 61.4671 0.69675   1
   0  -3   2 105.045 0.89766  -2
   0   3   3 105.045 0.89766   1
   1   3   3 43.2113 0.53787   1
   2   3   3 137.456 1.11977   1
   3   3   3 121.337 1.08013   1
   4   3   1 333.525 3.23496  -2
   4   3   3 333.525 3.23496   1
   5   3   3 76.1925 1.48901   1
   6   3   3 40.6478 1.09429   1
   7   3   3 0.64424 1.29516   1
   8   3   4 21.5407 2.42439  -2
   8   3   3 21.5407 2.42439   1
  -4   4   3 28.1689 1.00565   1
   3  -4   4 135.006 1.67872  -2
  -3   4   3 135.006 1.67872   1
  -2   4   3 149.439 1.68193   1
  -1   4   3 93.3741 1.24448   1
   0   4   3 32.4409 0.73891   1
  -1  -4   1 25.4304 0.72442  -2
   1   4   3 25.4304 0.72442   1
   2   4   3 565.094 3.57137   1
   3   4   3 516.702 3.34698   1
   4   4   3 41.6518 0.84594   1
   5   4   2 26.6171 1.41634  -2
   5   4   3 26.6171 1.41634   1
   6   4   3 7.92481 2.10598  -2
   6   4   3 7.92481 2.10598   1
   7   4   3 86.4307 2.02420   1
   8   4   3 1.13944 1.72047   1
  -4   5   3 2.62735 1.49577   1
  -3   5   3 70.1307 1.40772   1
   2  -5   3 164.520 2.03507  -2
  -2   5   3 164.520 2.03507   1
   1  -5   2 3.70280 0.92403  -2
  -1   5   3 3.70280 0.92403   1
   0   5   3 143.582 1.67612   1
   1   5   3 61.6109 1.04827   1
   2   5   0 58.4369 1.41531  -2
   2   5   3 58.4369 1.41531   1
   3   5   1 160.468 2.23181  -2
   3   5   3 160.468 2.23181   1
   4   5   3 9.59321 0.58840   1
   5   5   3 283.622 2.64571   1
   6   5   3 67.3331 2.49416  -2
   6   5   3 67.3331 2.49416   1
   7   5   4 12.3292 2.32574  -2
   7   5   3 12.3292 2.32574   1
   8   5   3 5.38471 1.92256   1
  -3   6   3 -0.1566 1.74332   1
  -2   6   3 137.266 1.94055   1
   1  -6   2 25.8546 2.63197  -2
  -1   6   3 25.8546 2.63197   1
   0  -6   1 35.9292 1.13200  -2
   0   6   3 35.9292 1.13200   1
   1   6   3 0.25545 0.52723   1
   2   6   3 1.28598 0.54135   1
   3   6   3 139.801 2.17886   1
   4   6   2 18.9983 1.16105  -2
   4   6   3 18.9983 1.16105   1
   5   6   3 18.6767 0.87093   1
   6   6   3 19.6306 0.95985   1
   7   6   3 28.1301 2.13048   1
   8   6   5 2.62408 2.30263  -2
   8   6   3 2.62408 2.30263   1
  -1   7   3 136.769 2.06936   1
   0   7   3 32.4336 1.16121   1
   1   7   0 110.697 1.75168  -2
   1   7   3 110.697 1.75168   1
   2   7   3 1.36128 0.70601   1
   3   7   3 0.24562 0.83199   1
   4   7   3 30.7961 1.37735   1
   5   7   3 80.0808 1.93547  -2
   5   7   3 80.0808 1.93547   1
   0   8   3 31.2176 2.18924   1
   1   8   3 19.4441 1.19120   1
   2   8   1 0.82127 1.51365  -2
   2   8   3 0.82127 1.51365   1
   3   8   2 3.24510 1.86398  -2
   3   8   3 3.24510 1.86398   1
   4   8   3 18.6192 1.42181   1
   5   8   3 40.6516 1.75975   1
   4   9   3 7.92057 1.94233  -2
   4   9   3 7.92057 1.94233   1
   5   9   3 1.12100 1.55838   1
  -4  -8   4 19.6145 2.34858   1
   3   8   9 3.58482 2.97338  -2
  -3  -8   4 3.58482 2.97338   1
   2   8   8 57.8707 3.46337  -2
  -2  -8   4 57.8707 3.46337   1
  -1  -8   4 3.68860 1.90348   1
   6   7  11 44.0930 4.17344  -2
  -6  -7   4 44.0930 4.17344   1
   5   7  10 30.8599 2.47948  -2
  -5  -7   4 30.8599 2.47948   1
   4   7   9 162.962 4.67921  -2
  -4  -7   4 162.962 4.67921   1
  -3  -7   4 81.8856 2.93904   1
   2   7   8 18.9312 3.03097  -2
  -2  -7   4 18.9312 3.03097   1
   1   7   7 111.458 2.27185  -2
  -1  -7   4 111.458 2.27185   1
   0   7   6 38.5455 3.22539  -2
   0  -7   4 38.5455 3.22539   1
   1  -7   4 2.66830 1.03360   1
  -6  -6   4 5.20385 1.24539   1
   5   6  10 6.46754 3.22418  -2
  -5  -6   4 6.46754 3.22418   1
   4   6   9 72.3099 2.60542  -2
  -4  -6   4 72.3099 2.60542   1
   3   6   8 54.0434 2.73427  -2
  -3  -6   4 54.0434 2.73427   1
  -2  -6   4 11.4264 0.96541   1
  -1  -6   4 251.802 2.63338   1
   0   6   6 29.4537 1.18913  -2
   0  -6   4 29.4537 1.18913   1
  -1   6   5 1.09604 1.50766  -2
   1  -6   4 1.09604 1.50766   1
   2  -6   4 10.3265 0.94727   1
   7   5  11 3.67702 1.93989  -2
  -7  -5   4 3.67702 1.93989   1
   6   5  10 8.19662 1.73261  -2
  -6  -5   4 8.19662 1.73261   1
  -5  -5   4 280.968 3.61081   1
  -4  -5   4 44.5803 1.38425   1
   3   5   8 36.1200 1.41303  -2
  -3  -5   4 36.1200 1.41303   1
   2   5   7 11.8388 0.90877  -2
  -2  -5   4 11.8388 0.90877   1
  -1  -5   4 218.429 2.22011   1
   0  -5   4 122.769 1.62919   1
  -1   5   5 60.0594 1.40071  -2
   1  -5   4 60.0594 1.40071   1
  -2   5   4 17.4874 1.13717  -2
   2  -5   4 17.4874 1.13717   1
   3  -5   4 31.5072 1.34464   1
  -7  -4   4 0.29795 1.26477   1
   6   4  10 4.35115 1.77032  -2
  -6  -4   4 4.35115 1.77032   1
   5   4   9 80.7635 1.90013  -2
  -5  -4   4 80.7635 1.90013   1
  -4  -4   4 11.4019 0.83985   1
  -3  -4   4 32.7514 1.07231   1
   2   4   7 508.703 7.22527  -2
  -2  -4   4 508.703 7.22527   1
   1   4   6 35.3340 0.73448  -2
  -1  -4   4 35.3340 0.73448   1
   0  -4   4 196.193 1.64641   1
   1  -4   4 3.69485 0.50580   1
  -2   4   4 18.6001 1.35099  -2
   2  -4   4 18.6001 1.35099   1
  -3   4   3 159.775 2.26804  -2
   3  -4   4 159.775 2.26804   1
   4  -4   4 20.7010 0.97647   1
   7   3  10 40.1209 2.56358  -2
  -7  -3   4 40.1209 2.56358   1
  -6  -3   4 15.4927 1.21905   1
   5   3   9 138.617 3.62523  -2
  -5  -3   4 138.617 3.62523   1
   4   3   8 451.236 4.69959  -2
  -4  -3   4 451.236 4.69959   1
   3   3   7 36.3254 1.98133  -2
  -3  -3   4 36.3254 1.98133   1
  -2  -3   4 50.9843 0.68424   1
  -1  -3   4 49.5578 0.68230   1
   0   3   5 17.5209 0.44742  -2
   0  -3   4 17.5209 0.44742   1
  -1   3   4 37.3540 1.56211  -2
   1  -3   4 37.3540 1.56211   1
   2  -3   4 0.24177 0.33744   1
   3  -3   4 25.2862 0.79842   1
  -4   3   2 1.92848 0.81323  -2
   4  -3   4 1.92848 0.81323   1
  -5   3   1 39.3533 2.10469  -2
   5  -3   4 39.3533 2.10469   1
   7   2  10 10.7647 2.82212  -2
  -7  -2   4 10.7647 2.82212   1
   6   2   9 9.09799 1.73212  -2
  -6  -2   4 9.09799 1.73212   1
  -5  -2   4 10.3300 0.88611   1
  -4  -2   4 0.56051 0.53919   1
   3   2   7 84.2418 1.52022  -2
  -3  -2   4 84.2418 1.52022   1
   2   2   6 334.706 2.51641  -2
  -2  -2   4 334.706 2.51641   1
  -1  -2   4 841.982 4.99876   1
   0  -2   4 60.0805 0.67787   1
  -1   2   4 48.4493 0.67921  -2
   1  -2   4 48.4493 0.67921   1
  -2   2   3 282.129 2.34631  -2
   2  -2   4 282.129 2.34631   1
   3  -2   4 69.9195 0.87734   1
   4  -2   4 84.8607 1.20247   1
  -5   2   1 44.9346 1.32561  -2
   5  -2   4 44.9346 1.32561   1
  -6   2   0 57.3865 1.74120  -2
   6  -2   4 57.3865 1.74120   1
  -7  -1   4 2.87093 2.02127   1
   6   1   9 56.3324 2.14091  -2
  -6  -1   4 56.3324 2.14091   1
   5   1   8 15.6163 1.35685  -2
  -5  -1   4 15.6163 1.35685   1
  -4  -1   4 34.3386 1.11875   1
  -3  -1   4 276.360 3.02459   1
   2   1   6 122.884 2.41738  -2
  -2  -1   4 122.884 2.41738   1
   1   1   5 157.357 1.13574  -2
  -1  -1   4 157.357 1.13574   1
   0  -1   4 735.578 4.34549   1
   1  -1   4 83.1461 0.75767   1
  -2   1   3 312.095 3.98517  -2
   2  -1   4 312.095 3.98517   1
  -3   1   2 94.6749 0.96012  -2
   3  -1   4 94.6749 0.96012   1
   4  -1   4 586.791 4.38558   1
   5  -1   4 29.5304 0.83799   1
  -6   1   0 2.02430 1.29481  -2
   6  -1   4 2.02430 1.29481   1
   7  -1   1 20.8091 1.27049  -2
   7  -1   4 20.8091 1.27049   1
  -6   0   4 0.17995 1.08956   1
   5   0   8 149.573 3.81174  -2
  -5   0   4 149.573 3.81174   1
   4   0   7 1.95778 0.54189  -2
  -4   0   4 1.95778 0.54189   1
   3   0   6 68.1718 1.42591  -2
  -3   0   4 68.1718 1.42591   1
  -2   0   4 108.418 0.79557   1
  -1   0   4 277.745 1.79525   1
   0   0   4 288.057 1.63295  -2
   0   0   4 288.057 1.63295   1
  -1   0   3 785.392 8.95310  -2
   1   0   4 785.392 8.95310   1
   2   0   4 69.9098 0.63727   1
  -3   0   2 18.8175 0.85633  -2
   3   0   4 18.8175 0.85633   1
  -4   0   1 23.0714 0.87266  -2
   4   0   4 23.0714 0.87266   1
   5   0   4 55.8689 1.40125   1
   6   0   4 62.0372 1.68174   1
   7   0   4 49.3032 1.21751   1
   6  -1   8 35.2599 3.32974  -2
  -6   1   4 35.2599 3.32974   1
  -5   1   4 7.20967 0.57547   1
  -4   1   4 2.62484 0.39030   1
   3  -1   6 166.348 1.39071  -2
  -3   1   4 166.348 1.39071   1
   2  -1   5 166.078 1.86154  -2
  -2   1   4 166.078 1.86154   1
  -1   1   4 376.034 2.10544   1
   0   1   4 165.940 1.17340   1
  -1  -1   3 135.955 1.15277  -2
   1   1   4 135.955 1.15277   1
  -2  -1   2 171.328 2.61460  -2
   2   1   4 171.328 2.61460   1
   3   1   4 142.072 1.37623   1
   4   1   4 18.4006 0.79617   1
   5   1   0 124.706 2.74098  -2
   5   1   4 124.706 2.74098   1
   6   1   1 31.8453 2.23272  -2
   6   1   4 31.8453 2.23272   1
   7   1   4 71.1241 1.95818   1
   6  -2   8 29.2647 3.30851  -2
  -6   2   4 29.2647 3.30851   1
   5  -2   7 20.9962 1.03420  -2
  -5   2   4 20.9962 1.03420   1
  -4   2   4 15.0669 0.70511   1
  -3   2   4 4.98210 0.37934   1
   2  -2   5 1.58144 1.31793  -2
  -2   2   4 1.58144 1.31793   1
   1  -2   4 139.639 1.72403  -2
  -1   2   4 139.639 1.72403   1
   0   2   4 1068.70 6.20810   1
   1   2   4 1836.79 10.4236   1
  -2  -2   2 543.377 6.75794  -2
   2   2   4 543.377 6.75794   1
  -3  -2   1 69.8235 1.57952  -2
   3   2   4 69.8235 1.57952   1
   4   2   4 34.5386 0.94480   1
   5   2   4 62.0106 1.34594   1
   6   2   1 197.750 3.87820  -2
   6   2   4 197.750 3.87820   1
   7   2   2 99.7652 2.36008  -2
   7   2   4 99.7652 2.36008   1
   5  -3   7 62.7776 4.03367  -2
  -5   3   4 62.7776 4.03367   1
   4  -3   6 156.110 2.04777  -2
  -4   3   4 156.110 2.04777   1
  -3   3   4 231.894 2.17496   1
  -2   3   4 51.4294 0.88520   1
  -1   3   4 155.218 1.27174   1
   0  -3   3 564.259 3.51399  -2
   0   3   4 564.259 3.51399   1
   1   3   4 900.669 5.34939   1
   2   3   4 423.723 2.72921   1
   3   3   4 186.310 1.44669   1
   4   3   0 75.6317 1.00482  -2
   4   3   4 75.6317 1.00482   1
   5   3   4 3.15447 0.61554   1
   6   3   4 258.530 3.21413   1
   7   3   4 122.204 2.33204   1
   8   3   3 40.7639 2.78297  -2
   8   3   4 40.7639 2.78297   1
  -4   4   4 101.606 1.79954   1
   3  -4   5 37.7303 1.09986  -2
  -3   4   4 37.7303 1.09986   1
  -2   4   4 14.0455 0.66844   1
  -1   4   4 34.2242 0.82352   1
   0   4   4 0.54075 0.35926   1
  -1  -4   2 414.017 3.27021  -2
   1   4   4 414.017 3.27021   1
   2   4   4 1220.65 7.21171   1
   3   4   4 143.108 1.28474   1
   4   4   4 94.4453 1.19937   1
   5   4   1 37.9890 1.18456  -2
   5   4   4 37.9890 1.18456   1
   6   4   2 4.83341 1.94461  -2
   6   4   4 4.83341 1.94461   1
   7   4   4 27.1375 2.05649   1
   8   4   4 3.87272 1.80121   1
  -3   5   4 56.6108 1.33691   1
   2  -5   4 136.608 1.89069  -2
  -2   5   4 136.608 1.89069   1
   1  -5   3 23.5496 1.07802  -2
  -1   5   4 23.5496 1.07802   1
   0   5   4 22.0961 0.78486   1
   1   5   4 8.14701 0.57246   1
  -2  -5   1 422.049 4.23485  -2
   2   5   4 422.049 4.23485   1
   3   5   0 312.731 4.92464  -2
   3   5   4 312.731 4.92464   1
   4   5   4 73.5649 1.17413   1
   5   5   4 137.648 2.09168   1
   6   5   2 13.1579 1.76301  -2
   6   5   4 13.1579 1.76301   1
   7   5   3 56.5550 2.87307  -2
   7   5   4 56.5550 2.87307   1
   8   5   4 40.2471 2.68454   1
  -2   6   4 7.60731 0.87556   1
   1  -6   3 99.3676 2.43453  -2
  -1   6   4 99.3676 2.43453   1
   0  -6   2 3.01728 0.84448  -2
   0   6   4 3.01728 0.84448   1
   1   6   4 2.59002 0.60575   1
   2   6   4 207.669 2.23363   1
   3   6   4 13.1509 0.90848   1
   4   6   1 34.5481 1.37244  -2
   4   6   4 34.5481 1.37244   1
   5   6   4 23.4029 1.13907   1
   6   6   4 29.6058 1.34346   1
   7   6   4 -0.5961 1.47126   1
   8   6   4 48.1231 2.92339  -2
   8   6   4 48.1231 2.92339   1
  -1   7   4 179.686 2.39455   1
   0   7   4 2.10229 0.80271   1
  -1  -7   1 139.796 1.99421  -2
   1   7   4 139.796 1.99421   1
   2   7   4 0.15587 0.68167   1
   3   7   4 50.8851 1.57079   1
   4   7   4 91.4156 1.99170   1
   5   7   2 27.8060 1.95162  -2
   5   7   4 27.8060 1.95162   1
   6   7   4 2.79603 1.59131   1
   0   8   4 4.98632 1.73936   1
   1   8   4 2.31413 0.96700   1
   2   8   0 6.95905 1.61209  -2
   2   8   4 6.95905 1.61209   1
   3   8   1 8.90187 1.78757  -2
   3   8   4 8.90187 1.78757   1
   4   8   4 40.1466 1.71366   1
   5   8   4 13.0128 1.36871   1
   6   8   3 18.9485 2.86378  -2
   6   8   4 18.9485 2.86378   1
   4   9   2 37.6033 2.24648  -2
   4   9   4 37.6033 2.24648   1
   5   9   4 49.8253 3.01230   1
   5   7  11 48.5639 2.86765  -2
  -5  -7   5 48.5639 2.86765   1
   4   7  10 16.9007 3.43762  -2
  -4  -7   5 16.9007 3.43762   1
  -3  -7   5 2.58873 1.48746   1
   2   7   9 69.1805 3.57237  -2
  -2  -7   5 69.1805 3.57237   1
   1   7   8 4.96597 1.34763  -2
  -1  -7   5 4.96597 1.34763   1
   0   7   7 54.8495 3.58346  -2
   0  -7   5 54.8495 3.58346   1
   1  -7   5 1.03761 1.03838   1
  -6  -6   5 67.2977 2.24838   1
   5   6  11 136.474 4.61255  -2
  -5  -6   5 136.474 4.61255   1
   4   6  10 6.60705 1.96017  -2
  -4  -6   5 6.60705 1.96017   1
   3   6   9 161.336 4.07821  -2
  -3  -6   5 161.336 4.07821   1
  -2  -6   5 0.16565 1.20027   1
  -1  -6   5 45.4217 1.53250   1
   0   6   7 20.7547 1.17756  -2
   0  -6   5 20.7547 1.17756   1
  -1   6   6 181.724 2.50021  -2
   1  -6   5 181.724 2.50021   1
   2  -6   5 49.6134 1.77172   1
   7   5  12 9.40599 2.79413  -2
  -7  -5   5 9.40599 2.79413   1
   6   5  11 10.4891 1.88999  -2
  -6  -5   5 10.4891 1.88999   1
  -5  -5   5 1.85311 0.95559   1
  -4  -5   5 283.423 3.56951   1
   3   5   9 26.4756 1.39252  -2
  -3  -5   5 26.4756 1.39252   1
   2   5   8 29.5438 1.36341  -2
  -2  -5   5 29.5438 1.36341   1
  -1  -5   5 5.80723 0.64859   1
   0  -5   5 14.1534 0.78382   1
  -1   5   6 377.042 3.44627  -2
   1  -5   5 377.042 3.44627   1
  -2   5   5 53.2850 1.45218  -2
   2  -5   5 53.2850 1.45218   1
   3  -5   5 13.2322 1.13763   1
  -7  -4   5 17.1962 2.26760   1
   6   4  11 71.8269 2.39236  -2
  -6  -4   5 71.8269 2.39236   1
   5   4  10 45.3444 1.61813  -2
  -5  -4   5 45.3444 1.61813   1
   4   4   9 28.9607 2.47841  -2
  -4  -4   5 28.9607 2.47841   1
  -3  -4   5 24.8093 1.03993   1
   2   4   8 43.8978 1.42330  -2
  -2  -4   5 43.8978 1.42330   1
   1   4   7 47.5080 0.85523  -2
  -1  -4   5 47.5080 0.85523   1
   0  -4   5 2.50926 0.41155   1
   1  -4   5 0.13947 0.42703   1
  -2   4   5 147.996 2.33220  -2
   2  -4   5 147.996 2.33220   1
  -3   4   4 4.96231 1.36144  -2
   3  -4   5 4.96231 1.36144   1
   4  -4   5 71.0356 1.74791   1
   7   3  11 23.2938 2.59214  -2
  -7  -3   5 23.2938 2.59214   1
  -6  -3   5 53.4285 1.69444   1
   5   3  10 109.990 3.43681  -2
  -5  -3   5 109.990 3.43681   1
   4   3   9 44.4577 1.30652  -2
  -4  -3   5 44.4577 1.30652   1
   3   3   8 558.152 7.88806  -2
  -3  -3   5 558.152 7.88806   1
  -2  -3   5 141.558 1.40950   1
  -1  -3   5 6.16933 0.37262   1
   0   3   6 8.14539 0.46096  -2
   0  -3   5 8.14539 0.46096   1
  -1   3   5 143.207 2.72195  -2
   1  -3   5 143.207 2.72195   1
   2  -3   5 104.963 1.14310   1
   3  -3   5 86.5950 1.57069   1
  -4   3   3 29.0450 1.11520  -2
   4  -3   5 29.0450 1.11520   1
  -5   3   2 69.0202 2.45990  -2
   5  -3   5 69.0202 2.45990   1
   7   2  11 1.52994 1.83390  -2
  -7  -2   5 1.52994 1.83390   1
   6   2  10 75.4331 2.36709  -2
  -6  -2   5 75.4331 2.36709   1
  -5  -2   5 16.7054 1.05341   1
  -4  -2   5 5.38429 0.70452   1
   3   2   8 113.943 1.81708  -2
  -3  -2   5 113.943 1.81708   1
   2   2   7 421.207 4.18764  -2
  -2  -2   5 421.207 4.18764   1
  -1  -2   5 50.0645 0.53902   1
   0  -2   5 716.955 4.37736   1
  -1   2   5 91.2685 0.96934  -2
   1  -2   5 91.2685 0.96934   1
  -2   2   4 10.0990 0.68889  -2
   2  -2   5 10.0990 0.68889   1
   3  -2   5 117.032 1.37860   1
   4  -2   5 423.129 3.48698   1
  -5   2   2 50.0588 1.44357  -2
   5  -2   5 50.0588 1.44357   1
  -6   2   1 82.0637 1.97754  -2
   6  -2   5 82.0637 1.97754   1
  -7  -1   5 16.8231 2.18767   1
   6   1  10 56.1312 2.17024  -2
  -6  -1   5 56.1312 2.17024   1
   5   1   9 41.6993 1.60581  -2
  -5  -1   5 41.6993 1.60581   1
  -4  -1   5 132.583 2.06694   1
  -3  -1   5 222.184 2.66802   1
   2   1   7 107.155 1.62641  -2
  -2  -1   5 107.155 1.62641   1
   1   1   6 4.45471 0.32831  -2
  -1  -1   5 4.45471 0.32831   1
   0  -1   5 22.0124 0.42955   1
   1  -1   5 47.2980 0.58728   1
  -2   1   4 592.499 5.18464  -2
   2  -1   5 592.499 5.18464   1
  -3   1   3 150.503 1.55890  -2
   3  -1   5 150.503 1.55890   1
   4  -1   5 80.3924 1.15251   1
   5  -1   5 20.7469 0.76140   1
  -6   1   1 3.77007 1.42493  -2
   6  -1   5 3.77007 1.42493   1
  -6   0   5 0.28476 1.16349   1
   5   0   9 32.1586 2.75346  -2
  -5   0   5 32.1586 2.75346   1
   4   0   8 10.1263 0.64789  -2
  -4   0   5 10.1263 0.64789   1
   3   0   7 13.9511 1.15348  -2
  -3   0   5 13.9511 1.15348   1
  -2   0   5 6.87291 0.25395   1
  -1   0   5 3.05274 0.21365   1
   0   0   5 544.306 2.94463  -2
   0   0   5 544.306 2.94463   1
  -1   0   4 580.940 6.88967  -2
   1   0   5 580.940 6.88967   1
   2   0   5 136.283 1.05482   1
   3   0   5 30.7339 0.65543   1
  -4   0   2 53.2278 1.24069  -2
   4   0   5 53.2278 1.24069   1
   5   0   5 564.345 4.37447   1
   6   0   5 2.22228 0.59154   1
   7   0   5 115.930 1.74896   1
   6  -1   9 5.27450 3.62016  -2
  -6   1   5 5.27450 3.62016   1
  -5   1   5 2.13157 0.58937   1
  -4   1   5 -0.1941 0.43215   1
   3  -1   7 16.5489 0.81529  -2
  -3   1   5 16.5489 0.81529   1
   2  -1   6 782.345 6.74100  -2
  -2   1   5 782.345 6.74100   1
  -1   1   5 2.00621 0.22352   1
   0   1   5 148.346 1.00600   1
  -1  -1   4 213.235 1.33064  -2
   1   1   5 213.235 1.33064   1
  -2  -1   3 21.9612 0.99459  -2
   2   1   5 21.9612 0.99459   1
   3   1   5 1036.82 8.89708   1
   4   1   5 1.62604 0.46282   1
  -5  -1   1 25.4849 1.56821  -2
   5   1   5 25.4849 1.56821   1
   6   1   0 78.1481 2.86887  -2
   6   1   5 78.1481 2.86887   1
   7   1   5 8.41873 1.19272   1
   5  -2   8 11.7311 1.14393  -2
  -5   2   5 11.7311 1.14393   1
  -4   2   5 35.7798 0.99947   1
  -3   2   5 29.0101 0.67257   1
   2  -2   6 50.9445 1.30167  -2
  -2   2   5 50.9445 1.30167   1
   1  -2   5 52.8502 0.85317  -2
  -1   2   5 52.8502 0.85317   1
   0   2   5 165.382 1.26481   1
   1   2   5 701.239 3.75326   1
  -2  -2   3 71.5447 1.67136  -2
   2   2   5 71.5447 1.67136   1
  -3  -2   2 357.831 4.91628  -2
   3   2   5 357.831 4.91628   1
   4   2   5 11.3184 0.69971   1
   5   2   5 5.42866 0.67272   1
   6   2   0 214.209 4.13261  -2
   6   2   5 214.209 4.13261   1
   7   2   1 13.9864 1.58369  -2
   7   2   5 13.9864 1.58369   1
   5  -3   8 19.8630 1.70384  -2
  -5   3   5 19.8630 1.70384   1
   4  -3   7 15.4613 0.93657  -2
  -4   3   5 15.4613 0.93657   1
  -3   3   5 39.7009 0.92239   1
  -2   3   5 111.114 1.33273   1
  -1   3   5 549.087 3.51410   1
   0  -3   4 2.88037 0.40982  -2
   0   3   5 2.88037 0.40982   1
   1   3   5 61.8136 0.72799   1
   2   3   5 211.657 1.58528   1
   3   3   5 1.81850 0.29011   1
  -4  -3   1 1.38445 0.58656  -2
   4   3   5 1.38445 0.58656   1
   5   3   5 11.7841 0.83536   1
   6   3   5 0.34303 0.73968   1
   7   3   5 35.7489 1.52005   1
   8   3   2 3.59178 2.16359  -2
   8   3   5 3.59178 2.16359   1
  -4   4   5 32.2835 1.27822   1
   3  -4   6 69.6715 1.33603  -2
  -3   4   5 69.6715 1.33603   1
  -2   4   5 54.3482 1.06841   1
  -1   4   5 8.05811 0.55505   1
   0   4   5 49.6703 0.92907   1
  -1  -4   3 288.112 2.49069  -2
   1   4   5 288.112 2.49069   1
   2   4   5 513.834 3.34327   1
   3   4   5 17.4972 0.52746   1
   4   4   5 144.339 1.55703   1
   5   4   0 58.2604 1.39876  -2
   5   4   5 58.2604 1.39876   1
   6   4   1 223.752 4.38811  -2
   6   4   5 223.752 4.38811   1
   7   4   5 15.2925 1.22704   1
   8   4   5 5.18970 1.87571   1
  -3   5   5 0.22929 0.76402   1
   2  -5   5 5.87179 1.09347  -2
  -2   5   5 5.87179 1.09347   1
   1  -5   4 6.06893 0.98909  -2
  -1   5   5 6.06893 0.98909   1
   0   5   5 13.6280 0.70340   1
   1   5   5 79.3699 1.23589   1
  -2  -5   2 184.420 2.45083  -2
   2   5   5 184.420 2.45083   1
  -3  -5   1 6.25873 1.48978  -2
   3   5   5 6.25873 1.48978   1
   4   5   5 4.32132 0.54147   1
   5   5   5 13.1463 0.91113   1
   6   5   1 53.4464 2.28990  -2
   6   5   5 53.4464 2.28990   1
   7   5   2 6.48681 1.65117  -2
   7   5   5 6.48681 1.65117   1
   8   5   5 30.1685 2.49957   1
  -2   6   5 17.5284 1.02010   1
   1  -6   4 14.6802 1.75485  -2
  -1   6   5 14.6802 1.75485   1
   0  -6   3 82.0637 1.53335  -2
   0   6   5 82.0637 1.53335   1
   1   6   5 2.59888 0.60542   1
   2   6   5 74.9768 1.32713   1
   3   6   5 0.22004 0.67219   1
   4   6   0 41.9788 1.34960  -2
   4   6   5 41.9788 1.34960   1
   5   6   5 3.95959 1.22878   1
   6   6   5 10.6236 1.08765   1
   7   6   2 9.06239 2.44863  -2
   7   6   5 9.06239 2.44863   1
   8   6   3 0.10579 2.55040  -2
   8   6   5 0.10579 2.55040   1
  -1   7   5 3.97702 0.94920   1
   0   7   5 1.32046 0.83653   1
  -1  -7   2 107.144 1.80114  -2
   1   7   5 107.144 1.80114   1
   2   7   5 29.0311 1.12425   1
   3   7   5 28.0606 1.31973   1
   4   7   5 19.9799 1.24431   1
   5   7   1 19.0567 1.99069  -2
   5   7   5 19.0567 1.99069   1
   6   7   5 24.4297 2.10168   1
   1   8   5 8.04057 1.08278   1
  -2  -8   1 10.1066 1.73139  -2
   2   8   5 10.1066 1.73139   1
   3   8   0 12.9915 1.87878  -2
   3   8   5 12.9915 1.87878   1
   4   8   5 16.2173 1.37061   1
   5   8   5 50.6633 2.63660   1
   6   8   2 1.77378 2.46750  -2
   6   8   5 1.77378 2.46750   1
   4   9   1 29.8315 3.25138  -2
   4   9   5 29.8315 3.25138   1
   4   7  11 5.55611 3.89108  -2
  -4  -7   6 5.55611 3.89108   1
  -3  -7   6 18.8573 2.03220   1
   2   7  10 20.1476 3.39054  -2
  -2  -7   6 20.1476 3.39054   1
   1   7   9 66.1803 3.09486  -2
  -1  -7   6 66.1803 3.09486   1
   0   7   8 27.9822 3.97136  -2
   0  -7   6 27.9822 3.97136   1
  -6  -6   6 51.4401 2.15316   1
   5   6  12 136.017 4.88686  -2
  -5  -6   6 136.017 4.88686   1
   4   6  11 15.8651 2.18082  -2
  -4  -6   6 15.8651 2.18082   1
   3   6  10 11.1540 2.41422  -2
  -3  -6   6 11.1540 2.41422   1
  -2  -6   6 -0.1075 1.26049   1
  -1  -6   6 372.576 4.29921   1
   0   6   8 113.958 1.88003  -2
   0  -6   6 113.958 1.88003   1
  -1   6   7 3.73806 1.49094  -2
   1  -6   6 3.73806 1.49094   1
   2  -6   6 38.6198 1.69071   1
   6   5  12 74.8812 2.56823  -2
  -6  -5   6 74.8812 2.56823   1
  -5  -5   6 7.25340 1.15552   1
  -4  -5   6 8.44843 0.99588   1
   3   5  10 98.5098 2.09175  -2
  -3  -5   6 98.5098 2.09175   1
   2   5   9 80.7420 1.85881  -2
  -2  -5   6 80.7420 1.85881   1
  -1  -5   6 58.8269 1.45371   1
   0  -5   6 -0.1610 0.63337   1
  -1   5   7 19.8558 1.24768  -2
   1  -5   6 19.8558 1.24768   1
  -2   5   6 59.5974 1.77127  -2
   2  -5   6 59.5974 1.77127   1
   3  -5   6 4.18653 1.05497   1
   6   4  12 22.3571 1.99523  -2
  -6  -4   6 22.3571 1.99523   1
   5   4  11 110.661 2.34005  -2
  -5  -4   6 110.661 2.34005   1
   4   4  10 278.442 5.46509  -2
  -4  -4   6 278.442 5.46509   1
  -3  -4   6 35.1980 1.23008   1
   2   4   9 23.3357 1.30431  -2
  -2  -4   6 23.3357 1.30431   1
   1   4   8 16.5659 0.69745  -2
  -1  -4   6 16.5659 0.69745   1
   0  -4   6 648.512 4.26116   1
   1  -4   6 520.625 3.60896   1
  -2   4   6 177.111 2.59725  -2
   2  -4   6 177.111 2.59725   1
  -3   4   5 20.5466 1.25882  -2
   3  -4   6 20.5466 1.25882   1
   4  -4   6 -0.2820 0.93865   1
   7   3  12 19.6572 4.31925  -2
  -7  -3   6 19.6572 4.31925   1
  -6  -3   6 -0.4049 1.03555   1
   5   3  11 121.519 3.71339  -2
  -5  -3   6 121.519 3.71339   1
   4   3  10 103.544 1.92519  -2
  -4  -3   6 103.544 1.92519   1
   3   3   9 118.579 3.08553  -2
  -3  -3   6 118.579 3.08553   1
  -2  -3   6 143.831 2.03588   1
   1   3   8 11.3165 1.58383  -2
  -1  -3   6 11.3165 1.58383   1
   0   3   7 332.818 2.38274  -2
   0  -3   6 332.818 2.38274   1
  -1   3   6 86.6245 1.33388  -2
   1  -3   6 86.6245 1.33388   1
   2  -3   6 83.9967 1.05929   1
   3  -3   6 161.088 2.25433   1
  -4   3   4 30.8982 1.18628  -2
   4  -3   6 30.8982 1.18628   1
  -5   3   3 4.89321 2.03727  -2
   5  -3   6 4.89321 2.03727   1
   6   2  11 6.18528 1.89042  -2
  -6  -2   6 6.18528 1.89042   1
  -5  -2   6 105.677 2.10744   1
  -4  -2   6 502.555 5.24348   1
   3   2   9 242.071 2.99675  -2
  -3  -2   6 242.071 2.99675   1
   2   2   8 240.171 2.81451  -2
  -2  -2   6 240.171 2.81451   1
  -1  -2   6 323.895 2.23368   1
   0  -2   6 98.5657 0.99331   1
  -1   2   6 226.956 1.76882  -2
   1  -2   6 226.956 1.76882   1
  -2   2   5 199.367 1.68651  -2
   2  -2   6 199.367 1.68651   1
   3  -2   6 275.211 2.50160   1
   4  -2   6 2.38719 0.56127   1
  -5   2   3 6.93394 1.17883  -2
   5  -2   6 6.93394 1.17883   1
  -6   2   2 1.98305 1.56154  -2
   6  -2   6 1.98305 1.56154   1
   6   1  11 14.6906 2.01513  -2
  -6  -1   6 14.6906 2.01513   1
   5   1  10 1.17489 1.29987  -2
  -5  -1   6 1.17489 1.29987   1
  -4  -1   6 599.741 6.03076   1
  -3  -1   6 127.801 1.96311   1
   2   1   8 44.7821 1.19859  -2
  -2  -1   6 44.7821 1.19859   1
   1   1   7 279.206 1.92524  -2
  -1  -1   6 279.206 1.92524   1
   0  -1   6 36.4632 0.55248   1
   1  -1   6 34.3457 0.55774   1
  -2   1   5 77.8610 1.34622  -2
   2  -1   6 77.8610 1.34622   1
  -3   1   4 189.227 1.86542  -2
   3  -1   6 189.227 1.86542   1
   4  -1   6 122.726 1.49636   1
   5  -1   6 105.806 1.47890   1
  -6   1   2 3.39357 1.45274  -2
   6  -1   6 3.39357 1.45274   1
  -6   0   6 -0.3438 1.23473   1
   5   0  10 5.23518 2.77573  -2
  -5   0   6 5.23518 2.77573   1
   4   0   9 17.7039 1.11255  -2
  -4   0   6 17.7039 1.11255   1
   3   0   8 214.754 3.30830  -2
  -3   0   6 214.754 3.30830   1
  -2   0   6 77.9659 1.03327   1
   1   0   7 1684.75 13.7416  -2
  -1   0   6 1684.75 13.7416   1
   0   0   6 3.57425 0.30111  -2
   0   0   6 3.57425 0.30111   1
  -1   0   5 39.2633 0.85195  -2
   1   0   6 39.2633 0.85195   1
   2   0   6 39.4981 0.54257   1
   3   0   6 584.166 4.33239   1
  -4   0   3 417.369 3.36411  -2
   4   0   6 417.369 3.36411   1
   5   0   6 67.8643 1.13636   1
   6   0   6 2.36838 0.63962   1
   7   0   6 23.0635 1.04964   1
   6  -1  10 8.97839 3.88871  -2
  -6   1   6 8.97839 3.88871   1
  -5   1   6 20.3983 0.87339   1
  -4   1   6 0.72849 0.50339   1
   3  -1   8 84.2569 1.23848  -2
  -3   1   6 84.2569 1.23848   1
   2  -1   7 49.8392 1.17992  -2
  -2   1   6 49.8392 1.17992   1
  -1   1   6 41.5150 0.59504   1
   0   1   6 2.95838 0.23368   1
  -1  -1   5 14.7525 0.40659  -2
   1   1   6 14.7525 0.40659   1
  -2  -1   4 49.5734 0.68320  -2
   2   1   6 49.5734 0.68320   1
   3   1   6 443.879 4.29727   1
   4   1   6 20.6660 0.88512   1
  -5  -1   2 97.6213 2.57542  -2
   5   1   6 97.6213 2.57542   1
  -6  -1   1 128.962 3.51400  -2
   6   1   6 128.962 3.51400   1
   7   1   6 29.7538 1.55031   1
   5  -2   9 17.8734 1.31047  -2
  -5   2   6 17.8734 1.31047   1
  -4   2   6 127.291 1.88263   1
  -3   2   6 5.67368 0.52907   1
   2  -2   7 156.749 2.22410  -2
  -2   2   6 156.749 2.22410   1
   1  -2   6 259.004 2.23981  -2
  -1   2   6 259.004 2.23981   1
   0   2   6 124.227 1.09056   1
   1   2   6 1.10314 0.22327   1
  -2  -2   4 54.3721 1.53580  -2
   2   2   6 54.3721 1.53580   1
  -3  -2   3 4.94043 0.91906  -2
   3   2   6 4.94043 0.91906   1
   4   2   6 74.9306 1.39892   1
   5   2   6 21.5391 0.99255   1
  -6  -2   1 347.955 5.68227  -2
   6   2   6 347.955 5.68227   1
   7   2   0 36.6697 1.81546  -2
   7   2   6 36.6697 1.81546   1
   8   2   6 21.1508 2.38731   1
   4  -3   8 4.07731 0.93149  -2
  -4   3   6 4.07731 0.93149   1
  -3   3   6 36.1237 1.08906   1
  -2   3   6 23.8943 0.75726   1
  -1   3   6 333.467 2.37537   1
   0  -3   5 39.0706 0.66987  -2
   0   3   6 39.0706 0.66987   1
   1   3   6 1.38625 0.25985   1
   2   3   6 29.7079 0.58502   1
   3   3   6 176.136 1.63997   1
  -4  -3   2 196.167 2.40790  -2
   4   3   6 196.167 2.40790   1
   5   3   6 343.340 3.79979   1
   6   3   6 0.38999 0.76618   1
   7   3   0 23.3447 2.70228  -2
   7   3   6 23.3447 2.70228   1
  -4   4   6 12.1486 1.04232   1
   3  -4   7 12.4525 1.18966  -2
  -3   4   6 12.4525 1.18966   1
  -2   4   6 11.6819 0.71423   1
  -1   4   6 7.38309 0.57548   1
   0   4   6 56.5480 1.02480   1
  -1  -4   4 4.25961 0.65987  -2
   1   4   6 4.25961 0.65987   1
   2   4   6 886.813 5.43870   1
   3   4   6 52.7705 0.90456   1
   4   4   6 17.7938 0.86599   1
  -5  -4   1 62.2700 1.46598  -2
   5   4   6 62.2700 1.46598   1
   6   4   0 24.8013 2.09993  -2
   6   4   6 24.8013 2.09993   1
   7   4   6 198.962 3.02815   1
   8   4   6 1.64688 1.61578   1
  -3   5   6 8.06059 1.06935   1
   2  -5   6 161.749 2.16763  -2
  -2   5   6 161.749 2.16763   1
   1  -5   5 42.8940 1.53310  -2
  -1   5   6 42.8940 1.53310   1
   0   5   6 127.807 1.64708   1
   1   5   6 21.5893 0.81061   1
  -2  -5   3 22.2563 1.27056  -2
   2   5   6 22.2563 1.27056   1
  -3  -5   2 124.305 2.96178  -2
   3   5   6 124.305 2.96178   1
   4   5   6 53.8112 1.29067   1
   5   5   6 21.4107 1.05908   1
   6   5   0 83.8454 2.71521  -2
   6   5   6 83.8454 2.71521   1
   7   5   1 8.04868 2.18217  -2
   7   5   6 8.04868 2.18217   1
   8   5   6 5.23357 1.93965   1
  -2   6   6 79.0350 1.65104   1
   1  -6   5 31.4578 1.99802  -2
  -1   6   6 31.4578 1.99802   1
   0  -6   4 29.3057 1.15387  -2
   0   6   6 29.3057 1.15387   1
   1   6   6 70.6307 1.34093   1
   2   6   6 0.54752 0.61979   1
   3   6   6 537.154 5.44408   1
  -4  -6   1 17.3391 1.18989  -2
   4   6   6 17.3391 1.18989   1
   5   6   6 19.3935 1.64661   1
   6   6   6 22.6612 1.24333   1
   7   6   1 72.3560 3.17671  -2
   7   6   6 72.3560 3.17671   1
  -1   7   6 37.1861 1.41739   1
   0   7   6 14.7013 1.04046   1
  -1  -7   3 4.42098 1.05387  -2
   1   7   6 4.42098 1.05387   1
   2   7   6 18.8741 1.01094   1
   3   7   6 0.07295 0.86213   1
   4   7   6 6.25674 1.04319   1
   5   7   0 18.0786 1.91153  -2
   5   7   6 18.0786 1.91153   1
   6   7   6 31.7108 2.24343   1
   7   7   6 39.3475 2.55243   1
   1   8   6 35.8131 1.47153   1
  -2  -8   2 41.9267 2.08314  -2
   2   8   6 41.9267 2.08314   1
  -3  -8   1 0.36468 1.96677  -2
   3   8   6 0.36468 1.96677   1
   4   8   6 45.7142 1.83687   1
   5   8   6 0.91854 1.51448   1
   6   8   1 23.1767 2.77903  -2
   6   8   6 23.1767 2.77903   1
   4   9   0 1.97884 2.87857  -2
   4   9   6 1.97884 2.87857   1
   4   7  12 3.35680 3.87615  -2
  -4  -7   7 3.35680 3.87615   1
  -3  -7   7 65.0835 3.11650   1
   2   7  11 81.6109 4.13708  -2
  -2  -7   7 81.6109 4.13708   1
   1   7  10 45.5063 2.83087  -2
  -1  -7   7 45.5063 2.83087   1
   0   7   9 44.3217 4.46742  -2
   0  -7   7 44.3217 4.46742   1
   5   6  13 14.6631 3.98917  -2
  -5  -6   7 14.6631 3.98917   1
   4   6  12 37.5055 2.46586  -2
  -4  -6   7 37.5055 2.46586   1
   3   6  11 491.532 8.10037  -2
  -3  -6   7 491.532 8.10037   1
  -2  -6   7 34.9537 2.24194   1
   1   6  10 7.10417 3.42964  -2
  -1  -6   7 7.10417 3.42964   1
   0   6   9 16.3191 1.69534  -2
   0  -6   7 16.3191 1.69534   1
  -1   6   8 23.0037 1.69497  -2
   1  -6   7 23.0037 1.69497   1
   2  -6   7 40.8913 1.77250   1
   6   5  13 20.9050 2.16809  -2
  -6  -5   7 20.9050 2.16809   1
  -5  -5   7 8.30181 1.23025   1
  -4  -5   7 26.5249 1.38684   1
   3   5  11 10.1048 1.42382  -2
  -3  -5   7 10.1048 1.42382   1
   2   5  10 57.2165 1.81464  -2
  -2  -5   7 57.2165 1.81464   1
  -1  -5   7 0.70393 1.23427   1
   0  -5   7 542.769 4.50248   1
  -1   5   8 10.5570 1.26618  -2
   1  -5   7 10.5570 1.26618   1
  -2   5   7 10.7536 1.53204  -2
   2  -5   7 10.7536 1.53204   1
   3  -5   7 24.8888 1.40600   1
   6   4  13 23.2896 2.07909  -2
  -6  -4   7 23.2896 2.07909   1
   5   4  12 7.07185 1.39592  -2
  -5  -4   7 7.07185 1.39592   1
   4   4  11 8.17477 2.43945  -2
  -4  -4   7 8.17477 2.43945   1
  -3  -4   7 4.61471 0.80841   1
   2   4  10 560.730 5.67987  -2
  -2  -4   7 560.730 5.67987   1
   1   4   9 180.931 2.50914  -2
  -1  -4   7 180.931 2.50914   1
   0  -4   7 29.1715 0.79288   1
   1  -4   7 185.546 2.06447   1
  -2   4   7 88.8348 2.74353  -2
   2  -4   7 88.8348 2.74353   1
  -3   4   6 39.6927 1.45624  -2
   3  -4   7 39.6927 1.45624   1
   4  -4   7 55.6264 1.78310   1
  -6  -3   7 59.7440 2.02685   1
   5   3  12 39.0758 2.95309  -2
  -5  -3   7 39.0758 2.95309   1
   4   3  11 240.067 3.21518  -2
  -4  -3   7 240.067 3.21518   1
   3   3  10 103.807 2.93534  -2
  -3  -3   7 103.807 2.93534   1
  -2  -3   7 42.0203 1.21231   1
   1   3   9 474.640 6.82260  -2
  -1  -3   7 474.640 6.82260   1
   0   3   8 76.2254 0.99118  -2
   0  -3   7 76.2254 0.99118   1
  -1   3   7 454.291 3.72954  -2
   1  -3   7 454.291 3.72954   1
   2  -3   7 23.2034 0.81578   1
   3  -3   7 6.21325 0.79416   1
  -4   3   5 9.38229 1.06593  -2
   4  -3   7 9.38229 1.06593   1
  -5   3   4 73.1541 2.85437  -2
   5  -3   7 73.1541 2.85437   1
   6   2  12 170.310 3.31358  -2
  -6  -2   7 170.310 3.31358   1
  -5  -2   7 47.0887 1.61795   1
  -4  -2   7 33.7513 1.30161   1
   3   2  10 16.5935 1.07295  -2
  -3  -2   7 16.5935 1.07295   1
   2   2   9 17.1087 1.11419  -2
  -2  -2   7 17.1087 1.11419   1
  -1  -2   7 71.6302 0.85293   1
   0  -2   7 656.189 4.15651   1
  -1   2   7 116.114 1.20698  -2
   1  -2   7 116.114 1.20698   1
  -2   2   6 315.656 2.36154  -2
   2  -2   7 315.656 2.36154   1
   3  -2   7 34.5055 0.93405   1
   4  -2   7 13.3700 0.77649   1
  -5   2   4 129.504 2.27014  -2
   5  -2   7 129.504 2.27014   1
   6   1  12 60.3215 2.49026  -2
  -6  -1   7 60.3215 2.49026   1
   5   1  11 8.64610 1.47533  -2
  -5  -1   7 8.64610 1.47533   1
  -4  -1   7 13.6882 0.98994   1
  -3  -1   7 279.310 3.31480   1
   2   1   9 180.856 2.41462  -2
  -2  -1   7 180.856 2.41462   1
   1   1   8 42.2463 0.70872  -2
  -1  -1   7 42.2463 0.70872   1
   0  -1   7 2.70846 0.30958   1
   1  -1   7 278.260 2.00595   1
  -2   1   6 38.3629 0.88543  -2
   2  -1   7 38.3629 0.88543   1
  -3   1   5 152.418 1.69664  -2
   3  -1   7 152.418 1.69664   1
   4  -1   7 31.9792 0.88246   1
   5  -1   7 3.55506 0.64368   1
  -6   1   3 112.226 2.28855  -2
   6  -1   7 112.226 2.28855   1
  -6   0   7 7.59696 1.44999   1
   5   0  11 124.235 4.02907  -2
  -5   0   7 124.235 4.02907   1
   4   0  10 260.618 3.37472  -2
  -4   0   7 260.618 3.37472   1
   3   0   9 413.851 5.58955  -2
  -3   0   7 413.851 5.58955   1
  -2   0   7 2.97718 0.40351   1
   1   0   8 109.492 1.66751  -2
  -1   0   7 109.492 1.66751   1
   0   0   7 2.29207 0.33469  -2
   0   0   7 2.29207 0.33469   1
  -1   0   6 2079.86 16.7172  -2
   1   0   7 2079.86 16.7172   1
   2   0   7 921.412 5.53121   1
   3   0   7 71.4043 1.05326   1
  -4   0   4 14.6176 0.69987  -2
   4   0   7 14.6176 0.69987   1
   5   0   7 97.6032 1.40818   1
   6   0   7 36.2544 1.09643   1
   7   0   7 115.192 1.87138   1
  -5   1   7 110.901 1.67142   1
  -4   1   7 3.03317 0.59644   1
   3  -1   9 28.4523 0.94609  -2
  -3   1   7 28.4523 0.94609   1
   2  -1   8 81.2408 1.28302  -2
  -2   1   7 81.2408 1.28302   1
  -1   1   7 13.9099 0.40888   1
   0   1   7 22.6101 0.45340   1
  -1  -1   6 31.6012 0.55588  -2
   1   1   7 31.6012 0.55588   1
  -2  -1   5 524.294 3.77495  -2
   2   1   7 524.294 3.77495   1
   3   1   7 22.4469 0.66752   1
   4   1   7 343.790 2.93072   1
  -5  -1   3 55.8816 1.55057  -2
   5   1   7 55.8816 1.55057   1
  -6  -1   2 16.7196 2.28250  -2
   6   1   7 16.7196 2.28250   1
   7   1   7 4.61113 0.81590   1
   5  -2  10 6.54406 1.42636  -2
  -5   2   7 6.54406 1.42636   1
  -4   2   7 7.39177 0.80400   1
  -3   2   7 60.5653 1.11959   1
   2  -2   8 355.205 3.05262  -2
  -2   2   7 355.205 3.05262   1
   1  -2   7 220.340 2.07371  -2
  -1   2   7 220.340 2.07371   1
   0   2   7 0.61668 0.28046   1
   1   2   7 116.327 0.96496   1
  -2  -2   5 138.362 1.83849  -2
   2   2   7 138.362 1.83849   1
  -3  -2   4 576.460 7.52065  -2
   3   2   7 576.460 7.52065   1
   4   2   7 170.711 2.28448   1
   5   2   7 166.448 2.40082   1
  -6  -2   2 75.2230 2.66972  -2
   6   2   7 75.2230 2.66972   1
  -7  -2   1 11.0505 1.58820  -2
   7   2   7 11.0505 1.58820   1
   4  -3   9 16.4500 1.15337  -2
  -4   3   7 16.4500 1.15337   1
  -3   3   7 74.3301 1.51675   1
  -2   3   7 86.7515 1.25962   1
  -1   3   7 32.9868 0.69504   1
   0  -3   6 179.864 1.51936  -2
   0   3   7 179.864 1.51936   1
   1   3   7 17.0690 0.50726   1
   2   3   7 12.7755 0.46426   1
   3   3   7 46.9765 1.03263   1
  -4  -3   3 5.44692 0.76740  -2
   4   3   7 5.44692 0.76740   1
   5   3   7 201.105 2.70410   1
   6   3   7 20.2109 1.17689   1
  -7  -3   1 2.44679 2.59409  -2
   7   3   7 2.44679 2.59409   1
   8   3   0 16.7526 2.31948  -2
   8   3   7 16.7526 2.31948   1
   3  -4   8 213.089 2.89626  -2
  -3   4   7 213.089 2.89626   1
   2  -4   7 144.980 3.88158  -2
  -2   4   7 144.980 3.88158   1
  -1   4   7 90.6146 1.35917   1
   0   4   7 126.125 1.54486   1
  -1  -4   5 7.44565 0.70930  -2
   1   4   7 7.44565 0.70930   1
   2   4   7 452.202 3.07929   1
   3   4   7 0.50321 0.41569   1
   4   4   7 358.893 3.83485   1
  -5  -4   2 130.933 2.09831  -2
   5   4   7 130.933 2.09831   1
  -6  -4   1 34.4034 2.28777  -2
   6   4   7 34.4034 2.28777   1
   7   4   7 43.7280 1.66106   1
   8   4   7 4.95309 2.04537   1
  -3   5   7 8.49102 1.13877   1
   2  -5   7 7.96570 1.21675  -2
  -2   5   7 7.96570 1.21675   1
   1  -5   6 11.0811 1.13164  -2
  -1   5   7 11.0811 1.13164   1
   0   5   7 30.8902 0.99270   1
   1   5   7 172.182 1.95537   1
  -2  -5   4 79.6809 1.75778  -2
   2   5   7 79.6809 1.75778   1
  -3  -5   3 14.4923 1.69073  -2
   3   5   7 14.4923 1.69073   1
   4   5   7 35.1942 1.12337   1
   5   5   7 54.4756 1.47239   1
  -6  -5   1 72.4633 2.63258  -2
   6   5   7 72.4633 2.63258   1
   7   5   0 87.6711 3.22231  -2
   7   5   7 87.6711 3.22231   1
   8   5   7 1.33939 1.86972   1
  -2   6   7 62.2832 2.17015   1
   1  -6   6 20.8555 2.97475  -2
  -1   6   7 20.8555 2.97475   1
   0  -6   5 40.3975 1.29732  -2
   0   6   7 40.3975 1.29732   1
   1   6   7 90.9941 1.53807   1
   2   6   7 0.60831 0.63154   1
   3   6   7 131.504 2.18031   1
  -4  -6   2 4.99703 1.54759  -2
   4   6   7 4.99703 1.54759   1
   5   6   7 81.2598 2.64053   1
   6   6   7 6.07271 1.05077   1
   7   6   0 3.41207 2.77641  -2
   7   6   7 3.41207 2.77641   1
  -1   7   7 5.76962 1.94488   1
   0   7   7 122.942 2.04880   1
  -1  -7   4 23.7708 1.25203  -2
   1   7   7 23.7708 1.25203   1
   2   7   7 0.56487 0.79168   1
   3   7   7 0.84937 0.95190   1
   4   7   7 -0.6455 1.18271   1
  -5  -7   1 41.9717 2.30957  -2
   5   7   7 41.9717 2.30957   1
   6   7   7 7.66327 1.73563   1
   7   7   7 9.94886 2.00520   1
   1   8   7 4.83492 1.13738   1
  -2  -8   3 12.3907 1.81490  -2
   2   8   7 12.3907 1.81490   1
  -3  -8   2 15.0743 1.99976  -2
   3   8   7 15.0743 1.99976   1
   4   8   7 15.5360 2.07140   1
   5   8   7 1.40941 1.69019   1
   6   8   0 54.4308 3.48009  -2
   6   8   7 54.4308 3.48009   1
   2   7  12 24.7650 4.02956  -2
  -2  -7   8 24.7650 4.02956   1
   1   7  11 23.3182 2.70872  -2
  -1  -7   8 23.3182 2.70872   1
  -5  -6   8 35.5698 2.69785   1
   4   6  13 97.5355 3.44869  -2
  -4  -6   8 97.5355 3.44869   1
   3   6  12 14.1507 2.90411  -2
  -3  -6   8 14.1507 2.90411   1
  -2  -6   8 10.5634 1.79916   1
   1   6  11 24.5493 3.60349  -2
  -1  -6   8 24.5493 3.60349   1
   0   6  10 15.2382 2.67328  -2
   0  -6   8 15.2382 2.67328   1
  -1   6   9 21.1563 2.21669  -2
   1  -6   8 21.1563 2.21669   1
  -5  -5   8 17.9224 1.49139   1
  -4  -5   8 152.231 2.71161   1
   3   5  12 98.1416 2.33076  -2
  -3  -5   8 98.1416 2.33076   1
   2   5  11 18.6864 1.57364  -2
  -2  -5   8 18.6864 1.57364   1
  -1  -5   8 47.8444 2.37557   1
   0  -5   8 0.64407 0.92740   1
  -1   5   9 38.8673 1.90869  -2
   1  -5   8 38.8673 1.90869   1
  -2   5   8 196.681 3.07324  -2
   2  -5   8 196.681 3.07324   1
   3  -5   8 8.16687 1.29168   1
   5   4  13 35.1638 1.78674  -2
  -5  -4   8 35.1638 1.78674   1
   4   4  12 179.947 4.75031  -2
  -4  -4   8 179.947 4.75031   1
  -3  -4   8 64.4238 1.67692   1
   2   4  11 192.498 2.87501  -2
  -2  -4   8 192.498 2.87501   1
   1   4  10 234.875 3.00488  -2
  -1  -4   8 234.875 3.00488   1
   0  -4   8 125.241 1.45951   1
   1  -4   8 46.8881 1.16582   1
  -2   4   8 32.7428 1.74283  -2
   2  -4   8 32.7428 1.74283   1
  -3   4   7 239.258 3.23209  -2
   3  -4   8 239.258 3.23209   1
   4  -4   8 53.4391 1.87361   1
  -6  -3   8 1.19910 1.21487   1
   5   3  13 27.3023 3.01407  -2
  -5  -3   8 27.3023 3.01407   1
   4   3  12 11.1128 1.16382  -2
  -4  -3   8 11.1128 1.16382   1
   3   3  11 25.4386 1.52090  -2
  -3  -3   8 25.4386 1.52090   1
  -2  -3   8 45.7550 1.28636   1
   1   3  10 161.919 3.49586  -2
  -1  -3   8 161.919 3.49586   1
   0   3   9 26.6789 0.73355  -2
   0  -3   8 26.6789 0.73355   1
  -1   3   8 139.543 1.83622  -2
   1  -3   8 139.543 1.83622   1
   2  -3   8 17.1221 0.79778   1
   3  -3   8 148.817 2.29782   1
  -4   3   6 44.0729 1.48461  -2
   4  -3   8 44.0729 1.48461   1
   6   2  13 68.5484 2.61676  -2
  -6  -2   8 68.5484 2.61676   1
  -5  -2   8 42.9011 1.65157   1
  -4  -2   8 71.1452 1.73185   1
   3   2  11 382.903 4.32718  -2
  -3  -2   8 382.903 4.32718   1
   2   2  10 201.794 2.73205  -2
  -2  -2   8 201.794 2.73205   1
  -1  -2   8 410.457 4.24253   1
   0  -2   8 446.074 3.04925   1
  -1   2   8 195.811 1.71961  -2
   1  -2   8 195.811 1.71961   1
  -2   2   7 174.817 1.94890  -2
   2  -2   8 174.817 1.94890   1
   3  -2   8 80.5892 1.30858   1
   4  -2   8 133.994 1.80611   1
  -5   2   5 101.911 2.15285  -2
   5  -2   8 101.911 2.15285   1
   6   1  13 7.22872 2.22910  -2
  -6  -1   8 7.22872 2.22910   1
   5   1  12 243.850 3.61085  -2
  -5  -1   8 243.850 3.61085   1
  -4  -1   8 0.63240 0.77432   1
  -3  -1   8 92.1542 1.75845   1
   2   1  10 171.038 2.45080  -2
  -2  -1   8 171.038 2.45080   1
   1   1   9 437.567 4.41544  -2
  -1  -1   8 437.567 4.41544   1
   0  -1   8 568.626 3.67300   1
   1  -1   8 33.6191 0.65317   1
  -2   1   7 466.760 4.51718  -2
   2  -1   8 466.760 4.51718   1
  -3   1   6 7.57654 0.74649  -2
   3  -1   8 7.57654 0.74649   1
   4  -1   8 176.037 1.99131   1
   5  -1   8 269.514 2.73039   1
  -6   1   4 65.6915 2.05107  -2
   6  -1   8 65.6915 2.05107   1
   5   0  12 80.9372 2.66123  -2
  -5   0   8 80.9372 2.66123   1
   4   0  11 11.5324 1.14535  -2
  -4   0   8 11.5324 1.14535   1
   3   0  10 152.182 2.36244  -2
  -3   0   8 152.182 2.36244   1
  -2   0   8 177.991 1.87444   1
   1   0   9 319.631 3.38357  -2
  -1   0   8 319.631 3.38357   1
   0   0   8 17.8066 0.47943  -2
   0   0   8 17.8066 0.47943   1
  -1   0   7 381.097 3.66882  -2
   1   0   8 381.097 3.66882   1
   2   0   8 76.7687 1.08161   1
   3   0   8 22.3255 0.74472   1
  -4   0   5 98.0470 1.36728  -2
   4   0   8 98.0470 1.36728   1
  -5   0   4 14.0690 1.73589  -2
   5   0   8 14.0690 1.73589   1
   6   0   8 118.758 1.76435   1
   7   0   8 58.1565 3.04938   1
  -5   1   8 19.5276 2.17540   1
  -4   1   8 83.9419 1.43277   1
   3  -1  10 76.3890 1.35186  -2
  -3   1   8 76.3890 1.35186   1
   2  -1   9 400.537 3.40863  -2
  -2   1   8 400.537 3.40863   1
  -1   1   8 45.6125 0.73027   1
   0   1   8 439.930 2.93529   1
  -1  -1   7 411.029 2.46967  -2
   1   1   8 411.029 2.46967   1
  -2  -1   6 424.037 2.80795  -2
   2   1   8 424.037 2.80795   1
   3   1   8 165.266 1.72499   1
   4   1   8 36.2645 0.87711   1
  -5  -1   4 8.61223 0.82364  -2
   5   1   8 8.61223 0.82364   1
  -6  -1   3 170.985 2.59348  -2
   6   1   8 170.985 2.59348   1
   7   1   8 140.451 2.01725   1
  -4   2   8 51.8100 1.49458   1
  -3   2   8 97.9830 1.30455   1
   2  -2   9 29.8082 1.09060  -2
  -2   2   8 29.8082 1.09060   1
   1  -2   8 28.4202 0.76594  -2
  -1   2   8 28.4202 0.76594   1
   0   2   8 1292.30 7.67528   1
   1   2   8 71.6420 0.78532   1
  -2  -2   6 277.626 2.98953  -2
   2   2   8 277.626 2.98953   1
  -3  -2   5 216.030 3.63162  -2
   3   2   8 216.030 3.63162   1
   4   2   8 17.8747 0.90457   1
   5   2   8 124.484 2.06517   1
  -6  -2   3 44.9374 2.38129  -2
   6   2   8 44.9374 2.38129   1
  -7  -2   2 66.7691 2.17369  -2
   7   2   8 66.7691 2.17369   1
   4  -3  10 71.1130 2.05640  -2
  -4   3   8 71.1130 2.05640   1
  -3   3   8 99.6129 1.84523   1
  -2   3   8 11.7605 0.83860   1
   1  -3   8 37.0770 1.89292  -2
  -1   3   8 37.0770 1.89292   1
   0  -3   7 32.6867 0.73114  -2
   0   3   8 32.6867 0.73114   1
   1   3   8 104.858 1.11332   1
   2   3   8 62.1374 0.76917   1
   3   3   8 359.506 3.76537   1
  -4  -3   4 84.9774 1.56566  -2
   4   3   8 84.9774 1.56566   1
   5   3   8 14.2872 0.97899   1
   6   3   8 28.3178 1.30278   1
   7   3   8 75.7536 1.93968   1
  -8  -3   1 115.540 3.77165  -2
   8   3   8 115.540 3.77165   1
   3  -4   9 7.83552 1.36451  -2
  -3   4   8 7.83552 1.36451   1
   2  -4   8 29.9727 1.60948  -2
  -2   4   8 29.9727 1.60948   1
  -1   4   8 9.74760 0.69049   1
   0   4   8 2.59983 0.53581   1
  -1  -4   6 17.8749 0.87422  -2
   1   4   8 17.8749 0.87422   1
   2   4   8 147.631 1.41691   1
   3   4   8 42.2659 1.16864   1
   4   4   8 122.348 1.94944   1
  -5  -4   3 85.7547 1.78619  -2
   5   4   8 85.7547 1.78619   1
  -6  -4   2 11.5106 2.02849  -2
   6   4   8 11.5106 2.02849   1
   7   4   8 192.229 3.04345   1
   8   4   8 17.1190 2.39881   1
   2  -5   8 56.7219 1.96805  -2
  -2   5   8 56.7219 1.96805   1
   1  -5   7 101.223 1.78146  -2
  -1   5   8 101.223 1.78146   1
   0   5   8 14.0025 0.81397   1
   1   5   8 2.47126 0.60764   1
  -2  -5   5 28.3159 1.42012  -2
   2   5   8 28.3159 1.42012   1
  -3  -5   4 212.176 4.08999  -2
   3   5   8 212.176 4.08999   1
   4   5   8 192.972 2.58511   1
   5   5   8 6.40028 0.87619   1
  -6  -5   2 13.3285 1.99577  -2
   6   5   8 13.3285 1.99577   1
  -7  -5   1 3.27294 2.25717  -2
   7   5   8 3.27294 2.25717   1
   8   5   8 12.0045 2.15911   1
   1  -6   7 88.5426 3.92630  -2
  -1   6   8 88.5426 3.92630   1
   0  -6   6 36.1749 1.35456  -2
   0   6   8 36.1749 1.35456   1
   1   6   8 6.14622 0.78728   1
   2   6   8 1.93460 0.69766   1
   3   6   8 533.756 5.50802   1
  -4  -6   3 43.7878 2.17048  -2
   4   6   8 43.7878 2.17048   1
   5   6   8 9.08543 1.51112   1
   6   6   8 22.7726 1.34793   1
  -7  -6   1 21.7541 2.83647  -2
   7   6   8 21.7541 2.83647   1
   0   7   8 39.3135 1.44370   1
  -1  -7   5 12.4294 1.22006  -2
   1   7   8 12.4294 1.22006   1
   2   7   8 3.73210 1.08889   1
   3   7   8 13.6633 1.24228   1
   4   7   8 0.96628 1.39830   1
  -5  -7   2 16.3787 1.99953  -2
   5   7   8 16.3787 1.99953   1
   6   7   8 100.719 3.29691   1
   7   7   8 3.56218 1.89637   1
   1   8   8 9.18172 2.12944   1
  -2  -8   4 15.9018 2.00315  -2
   2   8   8 15.9018 2.00315   1
  -3  -8   3 9.20668 1.93841  -2
   3   8   8 9.20668 1.93841   1
   4   8   8 152.337 4.16308   1
   5   8   8 27.8479 2.47878   1
  -6  -8   1 20.0661 2.84851  -2
   6   8   8 20.0661 2.84851   1
   4   6  14 35.7577 2.80317  -2
  -4  -6   9 35.7577 2.80317   1
   3   6  13 23.8408 3.06693  -2
  -3  -6   9 23.8408 3.06693   1
  -2  -6   9 7.07932 1.80890   1
   1   6  12 16.6118 4.14272  -2
  -1  -6   9 16.6118 4.14272   1
   0   6  11 42.9081 3.17520  -2
   0  -6   9 42.9081 3.17520   1
  -1   6  10 49.1713 3.80408  -2
   1  -6   9 49.1713 3.80408   1
  -5  -5   9 18.1858 1.60584   1
  -4  -5   9 48.7534 1.82717   1
   3   5  13 93.5189 2.31469  -2
  -3  -5   9 93.5189 2.31469   1
   2   5  12 29.3531 1.77400  -2
  -2  -5   9 29.3531 1.77400   1
  -1  -5   9 21.0611 1.87327   1
   0  -5   9 88.0121 3.07248   1
  -1   5  10 18.4262 1.79637  -2
   1  -5   9 18.4262 1.79637   1
  -2   5   9 161.421 2.91007  -2
   2  -5   9 161.421 2.91007   1
   5   4  14 77.8473 2.31349  -2
  -5  -4   9 77.8473 2.31349   1
   4   4  13 -0.6116 2.76825  -2
  -4  -4   9 -0.6116 2.76825   1
  -3  -4   9 64.4414 1.78006   1
   2   4  12 233.529 3.29418  -2
  -2  -4   9 233.529 3.29418   1
   1   4  11 6.14301 1.17475  -2
  -1  -4   9 6.14301 1.17475   1
   0  -4   9 4.84142 0.89420   1
   1  -4   9 75.3881 1.75839   1
  -2   4   9 52.6264 1.93532  -2
   2  -4   9 52.6264 1.93532   1
  -3   4   8 5.23873 1.35113  -2
   3  -4   9 5.23873 1.35113   1
   5   3  14 80.0621 4.11955  -2
  -5  -3   9 80.0621 4.11955   1
   4   3  13 145.327 2.57054  -2
  -4  -3   9 145.327 2.57054   1
   3   3  12 25.6868 1.60506  -2
  -3  -3   9 25.6868 1.60506   1
  -2  -3   9 503.081 5.29814   1
   1   3  11 39.5076 2.18949  -2
  -1  -3   9 39.5076 2.18949   1
   0   3  10 18.4530 1.09107  -2
   0  -3   9 18.4530 1.09107   1
  -1   3   9 778.095 5.93115  -2
   1  -3   9 778.095 5.93115   1
   2  -3   9 52.5328 1.19677   1
   3  -3   9 269.810 3.37670   1
  -4   3   7 43.2820 1.56497  -2
   4  -3   9 43.2820 1.56497   1
  -5  -2   9 0.71763 1.02302   1
  -4  -2   9 18.6521 1.21964   1
   3   2  12 82.5589 1.92802  -2
  -3  -2   9 82.5589 1.92802   1
   2   2  11 293.134 3.58560  -2
  -2  -2   9 293.134 3.58560   1
  -1  -2   9 17.3105 0.91323   1
   0  -2   9 27.8498 0.80521   1
  -1   2   9 25.0864 0.82374  -2
   1  -2   9 25.0864 0.82374   1
  -2   2   8 215.272 2.29371  -2
   2  -2   9 215.272 2.29371   1
   3  -2   9 0.01049 0.58234   1
   4  -2   9 135.250 1.88603   1
  -5   2   6 8.97687 1.50712  -2
   5  -2   9 8.97687 1.50712   1
   5   1  13 2.68616 1.67996  -2
  -5  -1   9 2.68616 1.67996   1
  -4  -1   9 43.5885 1.53536   1
  -3  -1   9 953.021 8.97919   1
   2   1  11 16.5282 1.17964  -2
  -2  -1   9 16.5282 1.17964   1
   1   1  10 56.9705 1.37268  -2
  -1  -1   9 56.9705 1.37268   1
   0  -1   9 3.26504 0.44876   1
   1  -1   9 1.76621 0.37466   1
  -2   1   8 490.801 4.79474  -2
   2  -1   9 490.801 4.79474   1
  -3   1   7 3.44135 0.75645  -2
   3  -1   9 3.44135 0.75645   1
   4  -1   9 76.4799 1.36680   1
   5  -1   9 178.950 2.21194   1
  -6   1   5 -0.8867 1.87842  -2
   6  -1   9 -0.8867 1.87842   1
   5   0  13 63.7345 2.72663  -2
  -5   0   9 63.7345 2.72663   1
   4   0  12 13.2783 1.27345  -2
  -4   0   9 13.2783 1.27345   1
   3   0  11 82.0886 1.97567  -2
  -3   0   9 82.0886 1.97567   1
  -2   0   9 214.765 2.20332   1
   1   0  10 129.918 2.08742  -2
  -1   0   9 129.918 2.08742   1
   0   0   9 295.617 2.17965  -2
   0   0   9 295.617 2.17965   1
  -1   0   8 36.9426 0.99205  -2
   1   0   9 36.9426 0.99205   1
   2   0   9 16.2663 0.65163   1
   3   0   9 374.740 3.20152   1
  -4   0   6 148.894 1.80187  -2
   4   0   9 148.894 1.80187   1
  -5   0   5 205.972 3.86418  -2
   5   0   9 205.972 3.86418   1
   6   0   9 17.3599 0.97227   1
  -5   1   9 0.93404 1.70652   1
  -4   1   9 7.19481 0.81405   1
   3  -1  11 13.7034 0.97120  -2
  -3   1   9 13.7034 0.97120   1
   2  -1  10 456.150 3.85153  -2
  -2   1   9 456.150 3.85153   1
  -1   1   9 95.7618 1.33677   1
   0   1   9 340.499 2.44969   1
  -1  -1   8 383.437 2.38871  -2
   1   1   9 383.437 2.38871   1
  -2  -1   7 22.8757 1.06746  -2
   2   1   9 22.8757 1.06746   1
   3   1   9 11.7754 0.60154   1
   4   1   9 354.750 3.13030   1
  -5  -1   5 140.937 1.85751  -2
   5   1   9 140.937 1.85751   1
  -6  -1   4 104.206 2.18147  -2
   6   1   9 104.206 2.18147   1
   7   1   9 22.9301 1.12835   1
  -4   2   9 0.79444 0.88912   1
  -3   2   9 71.1850 1.35871   1
   2  -2  10 161.181 2.01989  -2
  -2   2   9 161.181 2.01989   1
   1  -2   9 173.496 2.32378  -2
  -1   2   9 173.496 2.32378   1
   0   2   9 162.445 1.47186   1
   1   2   9 127.501 1.26002   1
  -2  -2   7 168.533 2.23943  -2
   2   2   9 168.533 2.23943   1
  -3  -2   6 99.1301 1.39917  -2
   3   2   9 99.1301 1.39917   1
   4   2   9 26.7428 0.87067   1
   5   2   9 90.6719 1.44433   1
  -6  -2   4 2.36411 1.93932  -2
   6   2   9 2.36411 1.93932   1
  -7  -2   3 70.7202 1.67864  -2
   7   2   9 70.7202 1.67864   1
   4  -3  11 15.0508 1.50062  -2
  -4   3   9 15.0508 1.50062   1
  -3   3   9 8.80992 0.98142   1
  -2   3   9 16.4734 1.00577   1
  -1   3   9 14.3947 0.88563   1
   0  -3   8 255.270 2.06794  -2
   0   3   9 255.270 2.06794   1
   1   3   9 329.304 2.44080   1
   2   3   9 122.106 1.25831   1
   3   3   9 0.20831 0.44527   1
  -4  -3   5 179.391 2.46159  -2
   4   3   9 179.391 2.46159   1
   5   3   9 233.473 3.10429   1
   6   3   9 231.111 3.19103   1
   7   3   9 96.2954 2.30916   1
   3  -4  10 57.1768 1.83492  -2
  -3   4   9 57.1768 1.83492   1
   2  -4   9 14.0381 1.65706  -2
  -2   4   9 14.0381 1.65706   1
  -1   4   9 143.661 1.82008   1
   0   4   9 97.0754 1.45912   1
  -1  -4   7 198.276 2.13106  -2
   1   4   9 198.276 2.13106   1
  -2  -4   6 72.5590 2.55723  -2
   2   4   9 72.5590 2.55723   1
   3   4   9 74.1995 1.48883   1
   4   4   9 33.2330 1.15084   1
  -5  -4   4 38.1592 1.37866  -2
   5   4   9 38.1592 1.37866   1
  -6  -4   3 240.897 4.92188  -2
   6   4   9 240.897 4.92188   1
   7   4   9 1.05255 1.13411   1
   2  -5   9 26.1326 1.88032  -2
  -2   5   9 26.1326 1.88032   1
   1  -5   8 25.2299 1.40221  -2
  -1   5   9 25.2299 1.40221   1
   0   5   9 17.5020 0.89665   1
   1   5   9 113.005 1.60721   1
  -2  -5   6 209.298 2.93912  -2
   2   5   9 209.298 2.93912   1
  -3  -5   5 161.493 3.60494  -2
   3   5   9 161.493 3.60494   1
   4   5   9 5.18155 0.83328   1
   5   5   9 21.0928 1.17256   1
  -6  -5   3 33.1868 2.34744  -2
   6   5   9 33.1868 2.34744   1
  -7  -5   2 102.011 3.75405  -2
   7   5   9 102.011 3.75405   1
   1  -6   8 4.47540 3.01771  -2
  -1   6   9 4.47540 3.01771   1
   0  -6   7 44.7122 1.46196  -2
   0   6   9 44.7122 1.46196   1
   1   6   9 110.920 1.79664   1
   2   6   9 45.8586 1.30427   1
   3   6   9 6.94751 1.37450   1
  -4  -6   4 90.6758 2.88579  -2
   4   6   9 90.6758 2.88579   1
   5   6   9 32.0963 2.11377   1
   6   6   9 1.61556 1.07327   1
  -7  -6   2 6.23181 2.77391  -2
   7   6   9 6.23181 2.77391   1
   0   7   9 1.66939 1.06478   1
  -1  -7   6 7.06293 1.28891  -2
   1   7   9 7.06293 1.28891   1
   2   7   9 93.1998 2.23616   1
   3   7   9 99.0882 3.19228   1
   4   7   9 144.765 3.77875   1
  -5  -7   3 18.5572 2.09150  -2
   5   7   9 18.5572 2.09150   1
   6   7   9 1.73377 1.69270   1
  -2  -8   5 57.6117 3.60300  -2
   2   8   9 57.6117 3.60300   1
  -3  -8   4 8.37776 3.19402  -2
   3   8   9 8.37776 3.19402   1
   4   8   9 0.72488 1.81817   1
   5   8   9 66.3691 3.24186   1
   3   6  14 12.4965 3.54794  -2
  -3  -6  10 12.4965 3.54794   1
  -2  -6  10 38.3206 2.78317   1
   1   6  13 13.1684 4.04779  -2
  -1  -6  10 13.1684 4.04779   1
  -4  -5  10 1.29006 1.24601   1
   3   5  14 21.6605 1.88296  -2
  -3  -5  10 21.6605 1.88296   1
   2   5  13 31.8243 1.79788  -2
  -2  -5  10 31.8243 1.79788   1
  -1  -5  10 76.8975 2.93703   1
   0  -5  10 5.01926 1.65361   1
  -2   5  10 10.7189 1.89296  -2
   2  -5  10 10.7189 1.89296   1
   5   4  15 17.8597 2.57027  -2
  -5  -4  10 17.8597 2.57027   1
   4   4  14 8.31502 3.18319  -2
  -4  -4  10 8.31502 3.18319   1
  -3  -4  10 0.44160 1.04613   1
   2   4  13 8.40832 1.51978  -2
  -2  -4  10 8.40832 1.51978   1
   1   4  12 100.783 2.13396  -2
  -1  -4  10 100.783 2.13396   1
   0   4  11 -0.1764 2.70632  -2
   0  -4  10 -0.1764 2.70632   1
   1  -4  10 61.7350 1.75288   1
  -2   4  10 117.318 2.59366  -2
   2  -4  10 117.318 2.59366   1
  -3   4   9 8.09842 1.54254  -2
   3  -4  10 8.09842 1.54254   1
   5   3  15 107.823 4.70269  -2
  -5  -3  10 107.823 4.70269   1
   4   3  14 21.5393 1.53626  -2
  -4  -3  10 21.5393 1.53626   1
   3   3  13 10.5174 1.58941  -2
  -3  -3  10 10.5174 1.58941   1
  -2  -3  10 1.11641 0.84057   1
   1   3  12 39.7820 2.36745  -2
  -1  -3  10 39.7820 2.36745   1
   0   3  11 318.037 3.69946  -2
   0  -3  10 318.037 3.69946   1
  -1   3  10 127.170 2.40661  -2
   1  -3  10 127.170 2.40661   1
   2  -3  10 34.8709 1.13383   1
   3  -3  10 12.2194 1.14209   1
  -4   3   8 9.60798 1.35864  -2
   4  -3  10 9.60798 1.35864   1
  -5  -2  10 91.9089 2.35181   1
  -4  -2  10 71.4004 1.93282   1
   3   2  13 12.9633 1.37580  -2
  -3  -2  10 12.9633 1.37580   1
   2   2  12 0.40390 1.12539  -2
  -2  -2  10 0.40390 1.12539   1
  -1  -2  10 43.6988 1.29440   1
   0  -2  10 498.983 5.07621   1
  -1   2  10 11.2746 0.96181  -2
   1  -2  10 11.2746 0.96181   1
  -2   2   9 15.7468 1.04425  -2
   2  -2  10 15.7468 1.04425   1
   3  -2  10 55.9699 1.28008   1
   4  -2  10 2.27846 0.79692   1
  -5   2   7 11.8685 1.67785  -2
   5  -2  10 11.8685 1.67785   1
   5   1  14 22.3820 1.91918  -2
  -5  -1  10 22.3820 1.91918   1
  -4  -1  10 35.9837 1.59424   1
  -3  -1  10 279.055 3.63633   1
   2   1  12 42.7872 1.55230  -2
  -2  -1  10 42.7872 1.55230   1
   1   1  11 4.69015 1.02518  -2
  -1  -1  10 4.69015 1.02518   1
   0  -1  10 15.0508 0.85379   1
   1  -1  10 41.2833 0.84018   1
  -2   1   9 637.644 6.01334  -2
   2  -1  10 637.644 6.01334   1
  -3   1   8 282.605 2.77020  -2
   3  -1  10 282.605 2.77020   1
   4  -1  10 9.57450 0.81659   1
   5  -1  10 14.8867 1.00845   1
   6  -1  10 11.5913 2.04712   1
   5   0  14 99.2552 4.40965  -2
  -5   0  10 99.2552 4.40965   1
   4   0  13 113.656 2.38980  -2
  -4   0  10 113.656 2.38980   1
   3   0  12 21.6542 2.60175  -2
  -3   0  10 21.6542 2.60175   1
  -2   0  10 0.24649 0.51945   1
   1   0  11 8.15755 1.36788  -2
  -1   0  10 8.15755 1.36788   1
   0   0  10 11.6468 0.75557  -2
   0   0  10 11.6468 0.75557   1
  -1   0   9 137.503 2.06604  -2
   1   0  10 137.503 2.06604   1
   2   0  10 3.26116 0.51632   1
   3   0  10 32.7848 0.95486   1
  -4   0   7 37.1150 1.04455  -2
   4   0  10 37.1150 1.04455   1
  -5   0   6 14.2535 2.11495  -2
   5   0  10 14.2535 2.11495   1
   6   0  10 0.84423 0.80277   1
  -4   1  10 324.750 3.26311   1
   3  -1  12 22.8937 1.16748  -2
  -3   1  10 22.8937 1.16748   1
   2  -1  11 596.070 4.84438  -2
  -2   1  10 596.070 4.84438   1
  -1   1  10 90.4549 1.36938   1
   0   1  10 68.3771 0.94809   1
  -1  -1   9 161.538 1.52447  -2
   1   1  10 161.538 1.52447   1
  -2  -1   8 73.7091 1.59382  -2
   2   1  10 73.7091 1.59382   1
   3   1  10 921.996 6.74046   1
   4   1  10 136.340 1.74763   1
  -5  -1   6 4.89615 0.96784  -2
   5   1  10 4.89615 0.96784   1
  -6  -1   5 15.9143 1.56407  -2
   6   1  10 15.9143 1.56407   1
   7   1  10 -0.0231 1.78102   1
  -4   2  10 62.0177 1.84513   1
  -3   2  10 49.5678 1.53845   1
   2  -2  11 3.33367 1.13047  -2
  -2   2  10 3.33367 1.13047   1
   1  -2  10 100.317 1.56414  -2
  -1   2  10 100.317 1.56414   1
   0   2  10 6.64116 0.48076   1
   1   2  10 56.9106 0.89030   1
  -2  -2   8 77.6428 1.66101  -2
   2   2  10 77.6428 1.66101   1
  -3  -2   7 70.5397 1.29166  -2
   3   2  10 70.5397 1.29166   1
   4   2  10 89.4608 1.41423   1
   5   2  10 27.1512 0.99327   1
  -6  -2   5 135.187 2.44862  -2
   6   2  10 135.187 2.44862   1
  -7  -2   4 3.20778 1.26665  -2
   7   2  10 3.20778 1.26665   1
   3  -3  11 111.079 3.22868  -2
  -3   3  10 111.079 3.22868   1
  -2   3  10 9.26444 0.96422   1
  -1   3  10 506.287 5.11868   1
   0  -3   9 163.390 1.60711  -2
   0   3  10 163.390 1.60711   1
   1   3  10 0.16824 0.43109   1
   2   3  10 55.8594 1.31161   1
   3   3  10 97.5114 1.75081   1
  -4  -3   6 176.276 2.04180  -2
   4   3  10 176.276 2.04180   1
   5   3  10 114.403 1.70010   1
   6   3  10 131.344 1.90151   1
   7   3  10 4.62418 1.26681   1
   2  -4  10 189.431 3.09037  -2
  -2   4  10 189.431 3.09037   1
  -1   4  10 77.8310 1.75933   1
   0   4  10 32.3263 1.01978   1
  -1  -4   8 35.7239 1.12613  -2
   1   4  10 35.7239 1.12613   1
   2   4  10 28.4001 0.91727   1
   3   4  10 42.9729 1.27691   1
   4   4  10 67.8161 1.60006   1
  -5  -4   5 35.1489 1.44761  -2
   5   4  10 35.1489 1.44761   1
  -6  -4   4 40.1412 2.74165  -2
   6   4  10 40.1412 2.74165   1
   7   4  10 17.4303 1.48043   1
   2  -5  10 37.3023 2.14375  -2
  -2   5  10 37.3023 2.14375   1
   1  -5   9 95.0415 2.37048  -2
  -1   5  10 95.0415 2.37048   1
   0   5  10 106.400 1.70434   1
   1   5  10 42.8378 1.20151   1
  -2  -5   7 79.0539 1.94661  -2
   2   5  10 79.0539 1.94661   1
  -3  -5   6 10.2828 1.84166  -2
   3   5  10 10.2828 1.84166   1
   4   5  10 137.591 2.32006   1
   5   5  10 55.1028 1.60080   1
  -6  -5   4 48.6349 2.66487  -2
   6   5  10 48.6349 2.66487   1
  -7  -5   3 172.915 3.23795  -2
   7   5  10 172.915 3.23795   1
  -1   6  10 9.26079 1.73799   1
   0  -6   8 42.2815 1.53060  -2
   0   6  10 42.2815 1.53060   1
   1   6  10 45.5818 1.40922   1
   2   6  10 81.9975 1.93036   1
   3   6  10 16.3441 1.68304   1
  -4  -6   5 0.96051 1.68219  -2
   4   6  10 0.96051 1.68219   1
   5   6  10 47.6033 2.39718   1
   6   6  10 65.4578 1.92730   1
  -7  -6   3 67.3182 3.56286  -2
   7   6  10 67.3182 3.56286   1
  -1  -7   7 54.7801 1.74618  -2
   1   7  10 54.7801 1.74618   1
   2   7  10 40.6119 1.79257   1
   3   7  10 14.9983 1.93948   1
   4   7  10 0.71919 1.58407   1
  -5  -7   4 23.6219 2.31016  -2
   5   7  10 23.6219 2.31016   1
   6   7  10 24.4619 2.31678   1
  -1  -6  11 0.13763 2.19986   1
  -4  -5  11 19.0272 2.37180   1
   3   5  15 72.2334 2.49505  -2
  -3  -5  11 72.2334 2.49505   1
   2   5  14 78.3582 2.49613  -2
  -2  -5  11 78.3582 2.49613   1
  -1  -5  11 1.37873 1.82527   1
  -4  -4  11 3.83486 1.32365   1
  -3  -4  11 29.1024 1.61051   1
   2   4  14 0.62657 1.78827  -2
  -2  -4  11 0.62657 1.78827   1
   1   4  13 79.2729 2.06781  -2
  -1  -4  11 79.2729 2.06781   1
   0   4  12 33.5167 3.01107  -2
   0  -4  11 33.5167 3.01107   1
  -2   4  11 4.72562 1.91101  -2
   2  -4  11 4.72562 1.91101   1
  -3   4  10 1.44181 1.66186  -2
   3  -4  11 1.44181 1.66186   1
   4   3  15 22.7931 1.69468  -2
  -4  -3  11 22.7931 1.69468   1
   3   3  14 18.6451 1.88817  -2
  -3  -3  11 18.6451 1.88817   1
  -2  -3  11 137.475 2.48125   1
   1   3  13 44.3272 2.86142  -2
  -1  -3  11 44.3272 2.86142   1
   0   3  12 83.8089 1.87511  -2
   0  -3  11 83.8089 1.87511   1
  -1   3  11 20.5479 2.38199  -2
   1  -3  11 20.5479 2.38199   1
   2  -3  11 30.8770 1.17932   1
   3  -3  11 51.4913 1.76966   1
  -4   3   9 15.6240 1.53989  -2
   4  -3  11 15.6240 1.53989   1
  -4  -2  11 7.43110 1.18222   1
   3   2  14 30.9046 1.67629  -2
  -3  -2  11 30.9046 1.67629   1
   2   2  13 68.3938 1.99663  -2
  -2  -2  11 68.3938 1.99663   1
  -1  -2  11 156.955 2.48805   1
   0  -2  11 96.8487 1.87709   1
  -1   2  11 250.852 4.69217  -2
   1  -2  11 250.852 4.69217   1
  -2   2  10 1.15165 1.11556  -2
   2  -2  11 1.15165 1.11556   1
   3  -2  11 15.4781 0.95698   1
   4  -2  11 14.0852 1.03396   1
  -4  -1  11 21.9412 1.43072   1
  -3  -1  11 19.6654 1.30058   1
   2   1  13 20.6160 1.53354  -2
  -2  -1  11 20.6160 1.53354   1
   1   1  12 484.609 5.13997  -2
  -1  -1  11 484.609 5.13997   1
   0  -1  11 78.0583 1.65831   1
   1  -1  11 280.027 3.26265   1
  -2   1  10 266.530 2.76380  -2
   2  -1  11 266.530 2.76380   1
  -3   1   9 5.53481 0.93280  -2
   3  -1  11 5.53481 0.93280   1
   4  -1  11 37.2918 1.22479   1
   5  -1  11 38.8198 1.36348   1
   4   0  14 62.1415 2.08255  -2
  -4   0  11 62.1415 2.08255   1
   3   0  13 78.7712 3.46808  -2
  -3   0  11 78.7712 3.46808   1
  -2   0  11 0.86410 0.62853   1
   1   0  12 250.297 3.26395  -2
  -1   0  11 250.297 3.26395   1
   0   0  11 0.06396 0.68648  -2
   0   0  11 0.06396 0.68648   1
   1   0  11 13.5450 0.86317   1
   2   0  11 321.248 2.93551   1
   3   0  11 3.43857 0.60251   1
  -4   0   8 21.5618 0.96928  -2
   4   0  11 21.5618 0.96928   1
  -5   0   7 44.9970 2.65196  -2
   5   0  11 44.9970 2.65196   1
   6   0  11 9.23559 1.02095   1
  -4   1  11 39.9397 1.36955   1
   3  -1  13 21.5557 1.22803  -2
  -3   1  11 21.5557 1.22803   1
   2  -1  12 204.067 2.43052  -2
  -2   1  11 204.067 2.43052   1
  -1   1  11 59.2422 1.18683   1
   0   1  11 52.6744 1.12649   1
  -1  -1  10 46.9430 1.06292  -2
   1   1  11 46.9430 1.06292   1
  -2  -1   9 173.809 3.42206  -2
   2   1  11 173.809 3.42206   1
   3   1  11 4.31612 0.62437   1
   4   1  11 82.0859 1.44158   1
  -5  -1   7 5.37247 1.05639  -2
   5   1  11 5.37247 1.05639   1
  -6  -1   6 33.6058 1.88324  -2
   6   1  11 33.6058 1.88324   1
  -3   2  11 32.2530 1.44593   1
   2  -2  12 13.1409 1.23197  -2
  -2   2  11 13.1409 1.23197   1
   1  -2  11 49.2046 1.28767  -2
  -1   2  11 49.2046 1.28767   1
   0   2  11 12.6094 0.73067   1
   1   2  11 408.664 2.98225   1
  -2  -2   9 51.6789 1.50403  -2
   2   2  11 51.6789 1.50403   1
  -3  -2   8 97.2652 1.53995  -2
   3   2  11 97.2652 1.53995   1
   4   2  11 9.44248 0.74669   1
   5   2  11 0.01552 0.67069   1
  -6  -2   6 36.1306 1.79773  -2
   6   2  11 36.1306 1.79773   1
  -7  -2   5 3.29942 2.05862  -2
   7   2  11 3.29942 2.05862   1
   3  -3  12 178.886 4.27203  -2
  -3   3  11 178.886 4.27203   1
  -2   3  11 199.474 2.45494   1
  -1   3  11 15.3045 1.06491   1
   0  -3  10 41.0507 1.10527  -2
   0   3  11 41.0507 1.10527   1
   1   3  11 167.196 1.66282   1
   2   3  11 345.750 3.80161   1
   3   3  11 55.5253 1.39213   1
  -4  -3   7 131.970 1.80079  -2
   4   3  11 131.970 1.80079   1
   5   3  11 3.63581 0.74880   1
   6   3  11 8.92163 0.91242   1
  -7  -3   5 30.3232 3.00824  -2
   7   3  11 30.3232 3.00824   1
   2  -4  11 41.1852 2.11300  -2
  -2   4  11 41.1852 2.11300   1
  -1   4  11 0.03276 0.91301   1
   0   4  11 1.19624 0.85084   1
  -1  -4   9 2.00498 0.98208  -2
   1   4  11 2.00498 0.98208   1
  -2  -4   8 66.7574 2.49294  -2
   2   4  11 66.7574 2.49294   1
   3   4  11 6.11362 0.84644   1
   4   4  11 8.57114 0.97053   1
  -5  -4   6 96.8894 2.10012  -2
   5   4  11 96.8894 2.10012   1
  -6  -4   5 33.0207 2.75826  -2
   6   4  11 33.0207 2.75826   1
   7   4  11 27.0710 1.31052   1
   1  -5  10 59.0602 2.21103  -2
  -1   5  11 59.0602 2.21103   1
   0   5  11 35.4158 1.24908   1
   1   5  11 1.76471 0.76388   1
  -2  -5   8 14.7584 1.97149  -2
   2   5  11 14.7584 1.97149   1
  -3  -5   7 83.9159 2.96770  -2
   3   5  11 83.9159 2.96770   1
   4   5  11 86.4221 1.89756   1
   5   5  11 269.099 3.61275   1
  -6  -5   5 0.77351 1.66685  -2
   6   5  11 0.77351 1.66685   1
  -7  -5   4 10.6337 1.99589  -2
   7   5  11 10.6337 1.99589   1
   0  -6   9 23.0129 1.49970  -2
   0   6  11 23.0129 1.49970   1
   1   6  11 1.41103 0.92479   1
   2   6  11 3.40532 1.47714   1
   3   6  11 2.30422 1.42700   1
  -4  -6   6 145.126 3.74608  -2
   4   6  11 145.126 3.74608   1
   5   6  11 17.1617 1.91624   1
   6   6  11 2.59576 1.72532   1
   7   6  11 0.92996 1.92016   1
  -1  -7   8 159.604 2.58993  -2
   1   7  11 159.604 2.58993   1
   2   7  11 5.88746 1.87065   1
   3   7  11 37.7922 2.49988   1
   4   7  11 45.4339 2.71490   1
  -5  -7   5 29.7038 2.21371  -2
   5   7  11 29.7038 2.21371   1
  -3  -5  12 13.6490 2.38112   1
   2   5  15 8.28363 2.06715  -2
  -2  -5  12 8.28363 2.06715   1
  -1  -5  12 -1.1217 1.98602   1
  -3  -4  12 2.17203 1.35334   1
   2   4  15 43.4762 2.25153  -2
  -2  -4  12 43.4762 2.25153   1
   1   4  14 3.99633 1.48918  -2
  -1  -4  12 3.99633 1.48918   1
   0  -4  12 9.19827 1.76714   1
   4   3  16 27.3080 1.87086  -2
  -4  -3  12 27.3080 1.87086   1
   3   3  15 2.29470 2.05305  -2
  -3  -3  12 2.29470 2.05305   1
  -2  -3  12 -0.3402 0.97485   1
   1   3  14 60.6725 3.30094  -2
  -1  -3  12 60.6725 3.30094   1
   0   3  13 13.9547 2.05459  -2
   0  -3  12 13.9547 2.05459   1
  -1   3  12 26.1790 2.54342  -2
   1  -3  12 26.1790 2.54342   1
   2  -3  12 10.2254 1.19527   1
   3  -3  12 5.97595 1.29603   1
  -4  -2  12 -0.0105 1.24347   1
   3   2  15 15.1726 1.66951  -2
  -3  -2  12 15.1726 1.66951   1
   2   2  14 43.2071 1.93062  -2
  -2  -2  12 43.2071 1.93062   1
  -1  -2  12 201.810 2.97661   1
   0  -2  12 10.4159 1.04527   1
  -1   2  12 59.9076 2.49267  -2
   1  -2  12 59.9076 2.49267   1
  -2   2  11 29.5680 1.74627  -2
   2  -2  12 29.5680 1.74627   1
   3  -2  12 79.9384 1.63519   1
   4  -2  12 2.03454 0.95897   1
  -4  -1  12 1.68496 1.24110   1
  -3  -1  12 12.4308 1.26865   1
   2   1  14 45.2655 1.88689  -2
  -2  -1  12 45.2655 1.88689   1
   1   1  13 50.3872 1.70341  -2
  -1  -1  12 50.3872 1.70341   1
   0  -1  12 13.4014 0.99470   1
   1  -1  12 4.57603 1.25427   1
  -2   1  11 18.6193 1.54077  -2
   2  -1  12 18.6193 1.54077   1
  -3   1  10 23.6243 1.18669  -2
   3  -1  12 23.6243 1.18669   1
   4  -1  12 20.2367 1.08434   1
   5  -1  12 59.9093 1.62947   1
   4   0  15 27.0792 1.88595  -2
  -4   0  12 27.0792 1.88595   1
   3   0  14 10.3570 2.94107  -2
  -3   0  12 10.3570 2.94107   1
  -2   0  12 0.06875 0.86677   1
   1   0  13 61.3767 2.88845  -2
  -1   0  12 61.3767 2.88845   1
   0   0  12 1.23034 0.85442  -2
   0   0  12 1.23034 0.85442   1
   1   0  12 44.3909 1.90742   1
   2   0  12 252.085 3.15688   1
  -3   0  10 49.7770 2.91306  -2
   3   0  12 49.7770 2.91306   1
  -4   0   9 57.3087 1.35710  -2
   4   0  12 57.3087 1.35710   1
  -5   0   8 8.53166 2.68970  -2
   5   0  12 8.53166 2.68970   1
   6   0  12 17.9236 2.34412   1
  -4   1  12 1.77558 1.95596   1
   3  -1  14 2.99509 1.22004  -2
  -3   1  12 2.99509 1.22004   1
   2  -1  13 64.2674 1.62320  -2
  -2   1  12 64.2674 1.62320   1
  -1   1  12 90.3371 1.51813   1
   0   1  12 132.857 1.77529   1
  -1  -1  11 90.6756 2.63474  -2
   1   1  12 90.6756 2.63474   1
  -2  -1  10 79.0581 1.89969  -2
   2   1  12 79.0581 1.89969   1
   3   1  12 62.0200 1.29166   1
   4   1  12 174.428 2.17560   1
  -5  -1   8 51.1431 1.51135  -2
   5   1  12 51.1431 1.51135   1
  -6  -1   7 25.3793 1.97431  -2
   6   1  12 25.3793 1.97431   1
  -3   2  12 0.53119 1.03729   1
   2  -2  13 13.2731 1.36079  -2
  -2   2  12 13.2731 1.36079   1
   1  -2  12 15.5184 1.13389  -2
  -1   2  12 15.5184 1.13389   1
   0   2  12 53.4102 1.25194   1
   1   2  12 158.541 2.28306   1
  -2  -2  10 5.22287 1.29105  -2
   2   2  12 5.22287 1.29105   1
  -3  -2   9 80.1836 1.85262  -2
   3   2  12 80.1836 1.85262   1
   4   2  12 24.0513 1.01328   1
   5   2  12 7.34161 0.85727   1
  -6  -2   7 68.2509 2.19167  -2
   6   2  12 68.2509 2.19167   1
  -2   3  12 2.71511 1.04365   1
  -1   3  12 220.512 3.06719   1
   0  -3  11 58.2531 1.34427  -2
   0   3  12 58.2531 1.34427   1
   1   3  12 17.7332 0.74230   1
   2   3  12 8.11908 0.88033   1
   3   3  12 5.01964 0.84629   1
  -4  -3   8 96.0006 2.01869  -2
   4   3  12 96.0006 2.01869   1
   5   3  12 1.46634 0.75006   1
   6   3  12 -0.7426 0.84911   1
  -7  -3   6 5.02061 3.29379  -2
   7   3  12 5.02061 3.29379   1
   2  -4  12 17.7044 2.80026  -2
  -2   4  12 17.7044 2.80026   1
  -1   4  12 8.72807 1.16545   1
   0   4  12 31.1731 1.41915   1
  -1  -4  10 16.4062 1.13163  -2
   1   4  12 16.4062 1.13163   1
  -2  -4   9 237.108 4.61784  -2
   2   4  12 237.108 4.61784   1
   3   4  12 56.3377 1.55722   1
   4   4  12 15.1905 1.11534   1
  -5  -4   7 8.52377 1.40310  -2
   5   4  12 8.52377 1.40310   1
  -6  -4   6 1.51434 2.96472  -2
   6   4  12 1.51434 2.96472   1
   7   4  12 156.130 3.98914   1
   1  -5  11 27.8456 2.07770  -2
  -1   5  12 27.8456 2.07770   1
   0   5  12 154.738 2.67757   1
   1   5  12 41.9321 1.29261   1
  -2  -5   9 14.0646 2.13380  -2
   2   5  12 14.0646 2.13380   1
  -3  -5   8 65.9084 2.90205  -2
   3   5  12 65.9084 2.90205   1
   4   5  12 30.9704 1.44275   1
   5   5  12 6.62646 1.10338   1
  -6  -5   6 11.7363 1.99226  -2
   6   5  12 11.7363 1.99226   1
   0  -6  10 8.05467 1.86173  -2
   0   6  12 8.05467 1.86173   1
   1   6  12 3.41822 1.02574   1
   2   6  12 1.34240 1.54602   1
   3   6  12 71.6642 2.83641   1
  -4  -6   7 50.6831 2.62105  -2
   4   6  12 50.6831 2.62105   1
   5   6  12 16.2611 1.97667   1
   6   6  12 0.58482 1.76102   1
   2   7  12 28.9055 2.48367   1
   3   7  12 40.2613 2.64646   1
   4   7  12 13.9052 2.11312   1
   2   4  16 28.6727 2.47145  -2
  -2  -4  13 28.6727 2.47145   1
   1   4  15 5.43809 1.76969  -2
  -1  -4  13 5.43809 1.76969   1
   0  -4  13 -0.7210 1.73364   1
   3   3  16 7.77859 2.24045  -2
  -3  -3  13 7.77859 2.24045   1
  -2  -3  13 -0.4583 1.17997   1
   1   3  15 17.2294 3.15450  -2
  -1  -3  13 17.2294 3.15450   1
   0   3  14 23.3722 2.40200  -2
   0  -3  13 23.3722 2.40200   1
  -1   3  13 33.4059 3.14037  -2
   1  -3  13 33.4059 3.14037   1
   2  -3  13 54.4931 2.81721   1
   3  -3  13 7.58513 1.98000   1
   3   2  16 62.1672 2.32492  -2
  -3  -2  13 62.1672 2.32492   1
   2   2  15 17.2105 1.82244  -2
  -2  -2  13 17.2105 1.82244   1
  -1  -2  13 119.310 2.43623   1
   0  -2  13 -0.6602 1.37882   1
  -1   2  13 53.7725 2.69244  -2
   1  -2  13 53.7725 2.69244   1
  -2   2  12 22.3343 2.53644  -2
   2  -2  13 22.3343 2.53644   1
   3  -2  13 0.41998 0.92465   1
   4  -2  13 90.8819 1.96576   1
  -3  -1  13 31.7663 1.74447   1
   2   1  15 70.8966 2.28235  -2
  -2  -1  13 70.8966 2.28235   1
   1   1  14 39.5733 1.75688  -2
  -1  -1  13 39.5733 1.75688   1
   0  -1  13 1.91598 1.33066   1
   1  -1  13 -0.1419 1.24582   1
  -2   1  12 33.8156 2.73594  -2
   2  -1  13 33.8156 2.73594   1
  -3   1  11 80.7680 1.70983  -2
   3  -1  13 80.7680 1.70983   1
   4  -1  13 1.64097 0.94127   1
   5  -1  13 27.4969 1.67413   1
   3   0  15 26.2679 3.42068  -2
  -3   0  13 26.2679 3.42068   1
  -2   0  13 149.596 2.66839   1
   1   0  14 12.9525 2.76818  -2
  -1   0  13 12.9525 2.76818   1
   0   0  13 348.582 4.09338  -2
   0   0  13 348.582 4.09338   1
   1   0  13 11.3504 1.51351   1
   2   0  13 68.3724 1.65630   1
   3   0  13 15.5430 1.17918   1
  -4   0  10 148.256 2.13312  -2
   4   0  13 148.256 2.13312   1
  -5   0   9 97.7025 3.82562  -2
   5   0  13 97.7025 3.82562   1
   3  -1  15 30.2848 1.57821  -2
  -3   1  13 30.2848 1.57821   1
   2  -1  14 35.7382 1.58910  -2
  -2   1  13 35.7382 1.58910   1
  -1   1  13 57.9991 1.36999   1
   0   1  13 15.4027 1.08235   1
  -1  -1  12 6.21592 1.64916  -2
   1   1  13 6.21592 1.64916   1
  -2  -1  11 22.8595 1.59967  -2
   2   1  13 22.8595 1.59967   1
   3   1  13 210.584 2.97506   1
   4   1  13 70.2178 1.49073   1
  -5  -1   9 7.01067 1.29982  -2
   5   1  13 7.01067 1.29982   1
  -6  -1   8 1.53810 2.91946  -2
   6   1  13 1.53810 2.91946   1
   2  -2  14 94.4798 2.01441  -2
  -2   2  13 94.4798 2.01441   1
   1  -2  13 37.1927 1.40498  -2
  -1   2  13 37.1927 1.40498   1
   0   2  13 5.43240 0.77855   1
   1   2  13 75.3832 2.54559   1
  -2  -2  11 10.7477 1.43275  -2
   2   2  13 10.7477 1.43275   1
  -3  -2  10 79.7317 2.00206  -2
   3   2  13 79.7317 2.00206   1
   4   2  13 2.01420 0.90604   1
   5   2  13 79.3981 1.65307   1
  -6  -2   8 7.14927 2.00979  -2
   6   2  13 7.14927 2.00979   1
  -2   3  13 28.9075 1.58832   1
   1  -3  13 61.2870 3.53183  -2
  -1   3  13 61.2870 3.53183   1
   0  -3  12 140.979 1.99003  -2
   0   3  13 140.979 1.99003   1
   1   3  13 73.5574 2.47900   1
   2   3  13 18.7303 1.15445   1
   3   3  13 23.1764 1.23548   1
  -4  -3   9 21.6155 1.39111  -2
   4   3  13 21.6155 1.39111   1
   5   3  13 44.5445 1.73790   1
   6   3  13 47.0320 1.53060   1
  -1   4  13 53.9576 1.62100   1
   0   4  13 69.3543 1.98214   1
  -2  -4  10 1.63866 2.48263  -2
   2   4  13 1.63866 2.48263   1
   3   4  13 21.4603 1.29805   1
   4   4  13 0.95754 0.97159   1
  -5  -4   8 4.97768 1.48572  -2
   5   4  13 4.97768 1.48572   1
  -6  -4   7 16.6809 2.91971  -2
   6   4  13 16.6809 2.91971   1
   0   5  13 9.60747 1.39925   1
  -2  -5  10 2.69279 2.31239  -2
   2   5  13 2.69279 2.31239   1
  -3  -5   9 9.08877 2.32882  -2
   3   5  13 9.08877 2.32882   1
   4   5  13 2.64907 1.53300   1
   5   5  13 40.7712 1.76553   1
  -6  -5   7 4.21698 2.10502  -2
   6   5  13 4.21698 2.10502   1
   2   6  13 41.4995 2.55391   1
  -3  -6   9 20.8510 2.99706  -2
   3   6  13 20.8510 2.99706   1
  -4  -6   8 40.6892 2.75620  -2
   4   6  13 40.6892 2.75620   1
   5   6  13 2.09741 1.80939   1
   1   4  16 69.1653 3.51613  -2
  -1  -4  14 69.1653 3.51613   1
   0  -4  14 34.7495 2.69697   1
  -2  -3  14 6.09893 1.47361   1
  -1  -3  14 2.44878 1.89579   1
   0   3  15 23.2854 2.48892  -2
   0  -3  14 23.2854 2.48892   1
  -1   3  14 54.2904 3.70186  -2
   1  -3  14 54.2904 3.70186   1
   2  -3  14 35.8134 2.67486   1
   2   2  16 70.5577 2.51603  -2
  -2  -2  14 70.5577 2.51603   1
  -1  -2  14 7.19815 1.30901   1
   0  -2  14 -0.5293 1.54763   1
  -1   2  14 109.583 3.61528  -2
   1  -2  14 109.583 3.61528   1
  -2   2  13 61.9305 3.24924  -2
   2  -2  14 61.9305 3.24924   1
   3  -2  14 67.0472 2.20814   1
  -3  -1  14 25.8111 2.43447   1
   2   1  16 90.9362 2.60572  -2
  -2  -1  14 90.9362 2.60572   1
   1   1  15 23.0157 1.78814  -2
  -1  -1  14 23.0157 1.78814   1
   0  -1  14 8.87967 1.75850   1
   1  -1  14 1.24454 1.30123   1
  -2   1  13 116.224 3.92226  -2
   2  -1  14 116.224 3.92226   1
  -3   1  12 31.4698 1.87398  -2
   3  -1  14 31.4698 1.87398   1
   4  -1  14 51.0933 1.62807   1
   3   0  16 20.7760 3.77193  -2
  -3   0  14 20.7760 3.77193   1
  -2   0  14 52.2379 1.93477   1
   1   0  15 3.65104 3.18678  -2
  -1   0  14 3.65104 3.18678   1
   0   0  14 120.140 3.38523  -2
   0   0  14 120.140 3.38523   1
   1   0  14 5.66885 1.49258   1
   2   0  14 54.0358 2.56818   1
   3   0  14 48.5624 1.71263   1
  -4   0  11 8.01434 1.42899  -2
   4   0  14 8.01434 1.42899   1
  -5   0  10 31.9648 3.65975  -2
   5   0  14 31.9648 3.65975   1
   2  -1  15 12.0626 1.75011  -2
  -2   1  14 12.0626 1.75011   1
  -1   1  14 18.1707 1.07619   1
   0   1  14 6.27885 1.63403   1
  -1  -1  13 4.96231 1.80325  -2
   1   1  14 4.96231 1.80325   1
  -2  -1  12 7.60858 2.40818  -2
   2   1  14 7.60858 2.40818   1
   3   1  14 24.7116 1.37720   1
   4   1  14 43.1782 1.69003   1
  -5  -1  10 114.537 2.17059  -2
   5   1  14 114.537 2.17059   1
   2  -2  15 4.01650 1.65511  -2
  -2   2  14 4.01650 1.65511   1
   1  -2  14 54.3751 1.66876  -2
  -1   2  14 54.3751 1.66876   1
   0   2  14 63.0412 1.82297   1
   1   2  14 22.6524 1.88759   1
  -2  -2  12 15.4449 2.30113  -2
   2   2  14 15.4449 2.30113   1
  -3  -2  11 152.510 2.74018  -2
   3   2  14 152.510 2.74018   1
   4   2  14 123.467 2.41235   1
   5   2  14 22.9655 1.55542   1
  -6  -2   9 40.1507 3.39781  -2
   6   2  14 40.1507 3.39781   1
   1  -3  14 5.80075 3.65779  -2
  -1   3  14 5.80075 3.65779   1
   0  -3  13 2.55681 1.14750  -2
   0   3  14 2.55681 1.14750   1
   1   3  14 4.29846 1.61512   1
   2   3  14 7.76494 1.07937   1
   3   3  14 56.2787 1.68121   1
  -4  -3  10 30.9740 1.61522  -2
   4   3  14 30.9740 1.61522   1
   5   3  14 7.27486 1.24829   1
  -1   4  14 125.803 3.60682   1
   0   4  14 38.9168 1.73825   1
  -2  -4  11 2.65085 1.80954  -2
   2   4  14 2.65085 1.80954   1
   3   4  14 0.84842 1.02788   1
   4   4  14 64.8374 1.91123   1
  -5  -4   9 48.2483 1.99904  -2
   5   4  14 48.2483 1.99904   1
   6   4  14 38.7217 2.79074   1
   0   5  14 7.40523 1.48936   1
  -2  -5  11 26.7499 2.75853  -2
   2   5  14 26.7499 2.75853   1
  -3  -5  10 35.7644 2.86991  -2
   3   5  14 35.7644 2.86991   1
   4   5  14 3.68553 1.69656   1
   5   5  14 2.42453 1.30009   1
   6   5  14 26.6945 2.63658   1
   2   6  14 15.9331 2.18804   1
  -3  -6  10 11.3428 3.09281  -2
   3   6  14 11.3428 3.09281   1
  -4  -6   9 6.16902 2.48378  -2
   4   6  14 6.16902 2.48378   1
   0   3  16 99.6077 3.82632  -2
   0  -3  15 99.6077 3.82632   1
  -1   3  15 55.9890 3.88340  -2
   1  -3  15 55.9890 3.88340   1
   2   2  17 69.8046 4.21258  -2
  -2  -2  15 69.8046 4.21258   1
  -1  -2  15 35.2369 2.72742   1
   0  -2  15 61.3504 3.07014   1
  -1   2  15 127.628 3.97687  -2
   1  -2  15 127.628 3.97687   1
  -2   2  14 4.98975 2.87130  -2
   2  -2  15 4.98975 2.87130   1
   2   1  17 6.65629 3.47366  -2
  -2  -1  15 6.65629 3.47366   1
   1   1  16 13.8865 2.59788  -2
  -1  -1  15 13.8865 2.59788   1
   0  -1  15 41.4959 2.66597   1
   1  -1  15 130.766 3.78452   1
  -2   1  14 56.9262 3.45828  -2
   2  -1  15 56.9262 3.45828   1
  -3   1  13 2.92422 2.68942  -2
   3  -1  15 2.92422 2.68942   1
  -2   0  15 -0.1049 1.32305   1
   1   0  16 6.57434 2.47523  -2
  -1   0  15 6.57434 2.47523   1
   0   0  15 173.975 4.28235  -2
   0   0  15 173.975 4.28235   1
   1   0  15 10.3651 1.64400   1
   2   0  15 0.99430 1.53895   1
   3   0  15 100.574 3.50263   1
  -4   0  12 50.2419 2.08060  -2
   4   0  15 50.2419 2.08060   1
   2  -1  16 3.68138 2.38887  -2
  -2   1  15 3.68138 2.38887   1
  -1   1  15 2.45180 1.26427   1
   0   1  15 52.0894 2.70958   1
  -1  -1  14 27.3139 2.52497  -2
   1   1  15 27.3139 2.52497   1
  -2  -1  13 28.6841 2.75658  -2
   2   1  15 28.6841 2.75658   1
   3   1  15 289.053 3.85633   1
   4   1  15 26.0120 1.62499   1
  -5  -1  11 26.2674 2.96957  -2
   5   1  15 26.2674 2.96957   1
   1  -2  15 21.3355 2.08128  -2
  -1   2  15 21.3355 2.08128   1
   0   2  15 21.1690 2.16255   1
   1   2  15 234.146 4.87003   1
  -2  -2  13 110.284 3.78264  -2
   2   2  15 110.284 3.78264   1
  -3  -2  12 4.10850 1.61768  -2
   3   2  15 4.10850 1.61768   1
   4   2  15 24.0287 1.54937   1
   5   2  15 -0.2027 1.29876   1
   1  -3  15 114.170 3.21367  -2
  -1   3  15 114.170 3.21367   1
   1   3  15 28.8301 2.29524   1
   2   3  15 27.0056 2.20501   1
   3   3  15 10.8348 1.24986   1
  -4  -3  11 246.220 3.68479  -2
   4   3  15 246.220 3.68479   1
   5   3  15 10.6941 1.46130   1
   3   4  15 30.5772 1.59032   1
   4   4  15 0.08857 1.18315   1
  -5  -4  10 21.8409 2.06264  -2
   5   4  15 21.8409 2.06264   1
  -3  -5  11 12.1583 2.65467  -2
   3   5  15 12.1583 2.65467   1
   4   5  15 15.3005 2.08084   1
   5   5  15 74.1920 3.30233   1
   0  -1  16 48.4436 3.01713   1
   1  -1  16 24.6022 2.45179   1
   0   0  16 21.6817 2.32282  -2
   0   0  16 21.6817 2.32282   1
   1   0  16 57.7170 2.96805   1
   2   0  16 5.68822 1.93746   1
   3   0  16 7.76328 2.20892   1
  -1   1  16 37.0061 2.80159   1
   0   1  16 125.474 3.91990   1
  -1  -1  15 62.9387 3.13552  -2
   1   1  16 62.9387 3.13552   1
  -2  -1  14 98.1732 3.89652  -2
   2   1  16 98.1732 3.89652   1
   3   1  16 0.32308 1.85222   1
   4   1  16 0.69984 1.78181   1
   0   2  16 4.83162 2.02260   1
   1   2  16 1.49842 1.80158   1
  -2  -2  14 131.361 4.20905  -2
   2   2  16 131.361 4.20905   1
  -3  -2  13 11.5902 2.76982  -2
   3   2  16 11.5902 2.76982   1
   4   2  16 5.10341 1.36234   1
   1   3  16 24.6437 2.46649   1
   2   3  16 73.0899 3.12299   1
   3   3  16 64.7565 3.10581   1
  -4  -3  12 4.74667 1.67409  -2
   4   3  16 4.74667 1.67409   1
   3   4  16 121.512 3.82677   1
   4   4  16 0.66613 1.31814   1
   1   2  17 3.42921 2.05633   1
   2   3  17 48.5295 2.96872   1
   0   0   0    0.00    0.00   0
;
_shelx_hkl_checksum              3451
_shelx_res_file
;
TITL bt in P-1
    bt.res
    created by SHELXL-2017/1 at 13:27:14 on 24-Apr-2018
CELL 0.71073   6.31290   6.90990  13.09010  80.5164  77.3664  63.8260
ZERR    2.00   0.00080   0.00090   0.00170   0.0017   0.0017   0.0016
LATT  1
SFAC C H O S
UNIT 16 20 12 2
OMIT -2 53
MERG 0
L.S. 9
ACTA
BOND $H
CONF
EQIV $1 x+1, y, z
HTAB O11 O1_$1
EQIV $2 x-1, y+1, z
HTAB O61 O1_$2
TEMP -123.150
SIZE 0.04 0.15 0.17
FMAP 2
PLAN 20
WGHT    0.005700    0.371800
BASF   0.09019
FVAR       0.88229
O1    3    0.089913    0.415774    0.244482    11.00000    0.01469    0.02838 =
         0.01516   -0.00017   -0.00189   -0.00455
S1    4    0.078631    0.450298    0.126670    11.00000    0.01411    0.02032 =
         0.01631    0.00009   -0.00323   -0.00464
C1    1    0.312625    0.214924    0.070232    11.00000    0.01908    0.02112 =
         0.02001   -0.00231   -0.00226   -0.00226
H1A   2    0.460000    0.189166    0.089976    11.00000    0.02750
H1B   2    0.318220    0.243651   -0.003889    11.00000    0.03262
H1C   2    0.269573    0.098476    0.097239    11.00000    0.02845
C2    1    0.199341    0.643118    0.077442    11.00000    0.03153    0.02782 =
         0.02333   -0.00076   -0.00312   -0.01567
H2A   2    0.085574    0.776986    0.104053    11.00000    0.04207
H2B   2    0.218305    0.653571    0.001262    11.00000    0.02978
H2C   2    0.348178    0.595948    0.101740    11.00000    0.03037
MOLE 2
O11   3    0.653614    0.560089    0.352029    11.00000    0.01322    0.02676 =
         0.01895    0.00241   -0.00258   -0.00406
H11   2    0.793902    0.518151    0.317661    11.00000    0.04701
O12   3    0.579095    0.775726    0.203521    11.00000    0.01844    0.02492 =
         0.02095    0.00427   -0.00056   -0.00422
C11   1    0.511220    0.708057    0.289783    11.00000    0.01706    0.01784 =
         0.01853   -0.00168   -0.00402   -0.00520
C12   1    0.256795    0.781797    0.336744    11.00000    0.01699    0.01759 =
         0.01771   -0.00059   -0.00584   -0.00471
O25   3    0.100565    0.934375    0.275912    11.00000    0.01307    0.02093 =
         0.01693    0.00149   -0.00241   -0.00458
C13   1    0.137711    0.730975    0.428510    11.00000    0.01910    0.02507 =
         0.01793    0.00255   -0.00449   -0.00657
H13   2    0.205034    0.634942    0.481126    11.00000    0.02518
C14   1   -0.109204    0.859066    0.425801    11.00000    0.01734    0.02784 =
         0.01776   -0.00012   -0.00090   -0.00835
H14   2   -0.238954    0.860866    0.476335    11.00000    0.02722
C15   1   -0.122366    0.978729    0.332264    11.00000    0.01403    0.02121 =
         0.01797   -0.00329   -0.00084   -0.00683
C16   1   -0.320781    1.137377    0.279252    11.00000    0.01622    0.01986 =
         0.02001   -0.00217   -0.00397   -0.00717
O61   3   -0.532235    1.171450    0.337645    11.00000    0.01268    0.02879 =
         0.02019    0.00216   -0.00318   -0.00372
H61   2   -0.637276    1.247925    0.306445    11.00000    0.04315
O62   3   -0.290028    1.223509    0.192370    11.00000    0.01947    0.02976 =
         0.02092    0.00558   -0.00517   -0.01023
HKLF 5
REM  bt in P-1
REM R1 =  0.0244 for    1894 Fo > 4sig(Fo)  and  0.0267 for all    2044 data
REM    177 parameters refined using      0 restraints
END
WGHT      0.0346      0.1215
REM Highest difference peak  0.297,  deepest hole -0.263,  1-sigma level  0.041
Q1    1   0.1336  0.5617  0.1036  11.00000  0.05    0.30
Q2    1   0.3744  0.7426  0.3165  11.00000  0.05    0.26
Q3    1  -0.2147  1.0457  0.3061  11.00000  0.05    0.25
Q4    1   0.2112  0.3262  0.0996  11.00000  0.05    0.23
Q5    1   0.2156  0.6982  0.3675  11.00000  0.05    0.20
Q6    1   0.2184  0.8056  0.3951  11.00000  0.05    0.20
Q7    1  -0.1365  0.9563  0.3858  11.00000  0.05    0.19
Q8    1   0.1976  0.8499  0.3101  11.00000  0.05    0.19
Q9    1  -0.0203  0.9579  0.3080  11.00000  0.05    0.18
Q10   1  -0.0670  0.4811  0.1058  11.00000  0.05    0.18
Q11   1  -0.1305  0.8824  0.3656  11.00000  0.05    0.17
Q12   1   0.0070  0.7841  0.4339  11.00000  0.05    0.17
Q13   1   0.0696  0.4817  0.2006  11.00000  0.05    0.16
Q14   1   0.5393  0.6891  0.2244  11.00000  0.05    0.13
Q15   1  -0.0421  0.4705  0.2615  11.00000  0.05    0.13
Q16   1  -0.4111  1.2800  0.1609  11.00000  0.05    0.12
Q17   1   0.2195  0.3067  0.2353  11.00000  0.05    0.12
Q18   1  -0.2782  1.1057  0.1809  11.00000  0.05    0.12
Q19   1   0.6906  0.7306  0.1793  11.00000  0.05    0.11
Q20   1   0.5579  0.7948  0.2523  11.00000  0.05    0.11
;
_shelx_res_checksum              9240
loop_
_space_group_symop_operation_xyz
'x, y, z'
'-x, -y, -z'
loop_
_atom_site_type_symbol
_atom_site_label
_atom_site_fract_x
_atom_site_fract_y
_atom_site_fract_z
_atom_site_U_iso_or_equiv
_atom_site_adp_type
_atom_site_calc_flag
_atom_site_occupancy
O O1 0.08991(17) 0.41577(17) 0.24448(8) 0.0214(2) Uani d 1
S S1 0.07863(6) 0.45030(6) 0.12667(3) 0.01795(9) Uani d 1
C C1 0.3126(3) 0.2149(3) 0.07023(13) 0.0224(3) Uani d 1
H H1A 0.460(3) 0.189(3) 0.0900(14) 0.028(5) Uiso d 1
H H1B 0.318(3) 0.244(3) -0.0039(15) 0.033(5) Uiso d 1
H H1C 0.270(3) 0.098(3) 0.0972(14) 0.028(5) Uiso d 1
C C2 0.1993(3) 0.6431(3) 0.07744(14) 0.0268(3) Uani d 1
H H2A 0.086(4) 0.777(3) 0.1041(16) 0.042(6) Uiso d 1
H H2B 0.218(3) 0.654(3) 0.0013(15) 0.030(5) Uiso d 1
H H2C 0.348(3) 0.596(3) 0.1017(14) 0.030(5) Uiso d 1
O O11 0.65361(18) 0.56009(17) 0.35203(8) 0.0218(2) Uani d 1
H H11 0.794(4) 0.518(3) 0.3177(17) 0.047(6) Uiso d 1
O O12 0.57910(18) 0.77573(17) 0.20352(8) 0.0245(2) Uani d 1
C C11 0.5112(2) 0.7081(2) 0.28978(11) 0.0184(3) Uani d 1
C C12 0.2568(2) 0.7818(2) 0.33674(11) 0.0180(3) Uani d 1
O O25 0.10056(17) 0.93437(16) 0.27591(8) 0.0183(2) Uani d 1
C C13 0.1377(3) 0.7310(2) 0.42851(12) 0.0220(3) Uani d 1
H H13 0.205(3) 0.635(3) 0.4811(14) 0.025(4) Uiso d 1
C C14 -0.1092(3) 0.8591(2) 0.42580(12) 0.0220(3) Uani d 1
H H14 -0.239(3) 0.861(3) 0.4763(14) 0.027(5) Uiso d 1
C C15 -0.1224(2) 0.9787(2) 0.33226(11) 0.0180(3) Uani d 1
C C16 -0.3208(2) 1.1374(2) 0.27925(11) 0.0186(3) Uani d 1
O O61 -0.53223(18) 1.17145(18) 0.33764(8) 0.0228(2) Uani d 1
H H61 -0.637(4) 1.248(3) 0.3064(16) 0.043(6) Uiso d 1
O O62 -0.29003(18) 1.22351(17) 0.19237(8) 0.0241(2) Uani d 1
loop_
_atom_site_aniso_label
_atom_site_aniso_U_11
_atom_site_aniso_U_22
_atom_site_aniso_U_33
_atom_site_aniso_U_12
_atom_site_aniso_U_13
_atom_site_aniso_U_23
O1 0.0147(5) 0.0284(6) 0.0152(5) -0.0045(4) -0.0019(4) -0.0002(4)
S1 0.01411(17) 0.02032(17) 0.01631(17) -0.00464(13) -0.00323(13) 0.00009(13)
C1 0.0191(8) 0.0211(8) 0.0200(8) -0.0023(6) -0.0023(6) -0.0023(6)
C2 0.0315(9) 0.0278(9) 0.0233(9) -0.0157(7) -0.0031(7) -0.0008(7)
O11 0.0132(5) 0.0268(6) 0.0189(5) -0.0041(4) -0.0026(4) 0.0024(4)
O12 0.0184(5) 0.0249(5) 0.0210(6) -0.0042(4) -0.0006(4) 0.0043(4)
C11 0.0171(7) 0.0178(7) 0.0185(7) -0.0052(6) -0.0040(5) -0.0017(6)
C12 0.0170(7) 0.0176(7) 0.0177(7) -0.0047(6) -0.0058(5) -0.0006(5)
O25 0.0131(5) 0.0209(5) 0.0169(5) -0.0046(4) -0.0024(4) 0.0015(4)
C13 0.0191(7) 0.0251(8) 0.0179(7) -0.0066(6) -0.0045(6) 0.0026(6)
C14 0.0173(7) 0.0278(8) 0.0178(7) -0.0084(6) -0.0009(6) -0.0001(6)
C15 0.0140(7) 0.0212(7) 0.0180(7) -0.0068(6) -0.0008(5) -0.0033(6)
C16 0.0162(7) 0.0199(7) 0.0200(7) -0.0072(6) -0.0040(5) -0.0022(6)
O61 0.0127(5) 0.0288(6) 0.0202(6) -0.0037(4) -0.0032(4) 0.0022(5)
O62 0.0195(5) 0.0298(6) 0.0209(6) -0.0102(5) -0.0052(4) 0.0056(5)
loop_
_atom_type_symbol
_atom_type_description
_atom_type_scat_dispersion_real
_atom_type_scat_dispersion_imag
_atom_type_scat_source
C C 0.0033 0.0016 'International Tables Vol C Tables 4.2.6.8 and 6.1.1.4'
H H 0.0000 0.0000 'International Tables Vol C Tables 4.2.6.8 and 6.1.1.4'
O O 0.0106 0.0060 'International Tables Vol C Tables 4.2.6.8 and 6.1.1.4'
S S 0.1246 0.1234 'International Tables Vol C Tables 4.2.6.8 and 6.1.1.4'
loop_
_geom_angle_atom_site_label_1
_geom_angle_atom_site_label_2
_geom_angle_atom_site_label_3
_geom_angle
O1 S1 C2 104.53(7)
O1 S1 C1 105.94(7)
C2 S1 C1 100.26(8)
S1 C1 H1A 109.8(10)
S1 C1 H1B 105.9(11)
H1A C1 H1B 111.5(15)
S1 C1 H1C 106.4(10)
H1A C1 H1C 110.4(14)
H1B C1 H1C 112.6(15)
S1 C2 H2A 106.7(12)
S1 C2 H2B 107.3(10)
H2A C2 H2B 110.4(15)
S1 C2 H2C 108.6(11)
H2A C2 H2C 111.1(16)
H2B C2 H2C 112.4(15)
C11 O11 H11 106.5(14)
O12 C11 O11 124.71(13)
O12 C11 C12 123.03(13)
O11 C11 C12 112.26(12)
C13 C12 O25 110.77(12)
C13 C12 C11 134.23(13)
O25 C12 C11 115.00(12)
C15 O25 C12 105.88(11)
C12 C13 C14 106.34(13)
C12 C13 H13 126.0(11)
C14 C13 H13 127.6(11)
C15 C14 C13 106.26(13)
C15 C14 H14 125.7(11)
C13 C14 H14 128.1(11)
C14 C15 O25 110.75(12)
C14 C15 C16 134.29(13)
O25 C15 C16 114.93(12)
O62 C16 O61 125.09(13)
O62 C16 C15 123.00(13)
O61 C16 C15 111.90(12)
C16 O61 H61 111.1(15)
loop_
_geom_bond_atom_site_label_1
_geom_bond_atom_site_label_2
_geom_bond_distance
O1 S1 1.5336(10)
S1 C2 1.7802(17)
S1 C1 1.7811(15)
C1 H1A 0.953(18)
C1 H1B 0.954(19)
C1 H1C 0.951(19)
C2 H2A 0.95(2)
C2 H2B 0.972(19)
C2 H2C 0.957(19)
O11 C11 1.3238(17)
O11 H11 0.84(2)
O12 C11 1.2118(17)
C11 C12 1.472(2)
C12 C13 1.353(2)
C12 O25 1.3667(16)
O25 C15 1.3633(17)
C13 C14 1.418(2)
C13 H13 0.908(17)
C14 C15 1.356(2)
C14 H14 0.930(18)
C15 C16 1.4732(19)
C16 O62 1.2115(18)
C16 O61 1.3256(17)
O61 H61 0.79(2)
loop_
_geom_hbond_atom_site_label_D
_geom_hbond_atom_site_label_H
_geom_hbond_atom_site_label_A
_geom_hbond_site_symmetry_A
_geom_hbond_distance_DH
_geom_hbond_distance_HA
_geom_hbond_distance_DA
_geom_hbond_angle_DHA
_geom_hbond_publ_flag
O11 H11 O1 1_655 0.84(2) 1.78(2) 2.6279(14) 177(2) yes
O61 H61 O1 1_465 0.79(2) 1.87(2) 2.6587(15) 173(2) yes
loop_
_geom_torsion_atom_site_label_1
_geom_torsion_atom_site_label_2
_geom_torsion_atom_site_label_3
_geom_torsion_atom_site_label_4
_geom_torsion
O12 C11 C12 C13 179.01(16)
O11 C11 C12 C13 -0.5(2)
O12 C11 C12 O25 -0.3(2)
O11 C11 C12 O25 -179.78(12)
C13 C12 O25 C15 -0.05(16)
C11 C12 O25 C15 179.44(12)
O25 C12 C13 C14 0.00(17)
C11 C12 C13 C14 -179.34(16)
C12 C13 C14 C15 0.04(18)
C13 C14 C15 O25 -0.07(17)
C13 C14 C15 C16 178.07(16)
C12 O25 C15 C14 0.07(16)
C12 O25 C15 C16 -178.46(12)
C14 C15 C16 O62 -178.39(16)
O25 C15 C16 O62 -0.3(2)
C14 C15 C16 O61 1.2(2)
O25 C15 C16 O61 179.33(12)

_cod_database_fobs_code 2021193
