#------------------------------------------------------------------------------
#$Date: 2019-02-14 05:36:51 +0200 (Thu, 14 Feb 2019) $
#$Revision: 213640 $
#$URL: file:///home/coder/svn-repositories/cod/cif/2/02/14/2021498.cif $
#------------------------------------------------------------------------------
#
# This file is available in the Crystallography Open Database (COD),
# http://www.crystallography.net/. The original data for this entry
# were provided by IUCr Journals, http://journals.iucr.org/.
#
# The file may be used within the scientific community so long as
# proper attribution is given to the journal article from which the
# data were obtained.
#
data_2021498
loop_
_publ_author_name
'Losev, Evgeniy A.'
'Boldyreva, Elena'
_publ_section_title
;
 Concomitant cocrystal and salt: no interconversion in the solid state
;
_journal_coeditor_code           KU3233
_journal_issue                   3
_journal_name_full               'Acta Crystallographica Section C'
_journal_page_first
;
;
_journal_paper_doi               10.1107/S2053229619001372
_journal_volume                  75
_journal_year                    2019
_chemical_formula_iupac          'C3 H7.5 N O2 +, C4 H5.5 O6 -'
_chemical_formula_moiety         'C3 H7.5 N O2 +, C4 H5.5 O6 -'
_chemical_formula_sum            'C7 H13 N O8'
_chemical_formula_weight         239.18
_chemical_name_common            '\b-Alanine--<i>DL</i>-tartaric acid (1/1)'
_chemical_name_systematic        '\b-Alaninium <i>DL</i>-tartarate'
_space_group_crystal_system      triclinic
_space_group_IT_number           2
_space_group_name_Hall           '-P 1'
_space_group_name_H-M_alt        'P -1'
_symmetry_space_group_name_Hall  '-P 1'
_symmetry_space_group_name_H-M   'P -1'
_atom_sites_solution_hydrogens   mixed
_audit_creation_method
;
Olex2 1.2
(compiled 2018.05.29 svn.r3508 for OlexSys, GUI svn.r5506)
;
_cell_angle_alpha                108.606(8)
_cell_angle_beta                 97.351(9)
_cell_angle_gamma                92.714(8)
_cell_formula_units_Z            2
_cell_length_a                   4.9271(5)
_cell_length_b                   8.6022(8)
_cell_length_c                   12.1449(11)
_cell_measurement_reflns_used    2281
_cell_measurement_temperature    293
_cell_measurement_theta_max      29.4660
_cell_measurement_theta_min      2.5100
_cell_volume                     481.70(8)
_computing_cell_refinement
;
CrysAlis PRO (Agilent, 2014)
;
_computing_data_collection
;
CrysAlis PRO (Agilent, 2014)
;
_computing_data_reduction
;
CrysAlis PRO (Agilent, 2014)
;
_computing_molecular_graphics
;
OLEX2 (Dolomanov <i>et al.</i>,  2009)
;
_computing_publication_material
;
OLEX2 (Dolomanov <i>et al.</i>,  2009)
;
_computing_structure_refinement
;
SHELXL2018 (Sheldrick, 2015b)
;
_computing_structure_solution
;
olex2.solve (Bourhis <i>et al.</i>,  2015)
;
_diffrn_ambient_temperature      293
_diffrn_detector                 'CCD plate'
_diffrn_measured_fraction_theta_full 0.999
_diffrn_measured_fraction_theta_max 0.999
_diffrn_measurement_device_type  'Stoe IPDS'
_diffrn_measurement_method       '\w scans'
_diffrn_radiation_monochromator  graphite
_diffrn_radiation_probe          x-ray
_diffrn_radiation_type           MoK\a
_diffrn_radiation_wavelength     0.71073
_diffrn_reflns_av_R_equivalents  0.0505
_diffrn_reflns_av_unetI/netI     0.0547
_diffrn_reflns_limit_h_max       5
_diffrn_reflns_limit_h_min       -6
_diffrn_reflns_limit_k_max       10
_diffrn_reflns_limit_k_min       -10
_diffrn_reflns_limit_l_max       15
_diffrn_reflns_limit_l_min       -15
_diffrn_reflns_number            6011
_diffrn_reflns_theta_full        25.242
_diffrn_reflns_theta_max         26.370
_diffrn_reflns_theta_min         2.509
_diffrn_source                   'Enhance (Mo) X-ray Source'
_exptl_absorpt_coefficient_mu    0.153
_exptl_absorpt_correction_T_max  0.995
_exptl_absorpt_correction_T_min  0.963
_exptl_absorpt_correction_type   gaussian
_exptl_absorpt_process_details
;
(CrysAlis PRO; Agilent, 2014)
;
_exptl_crystal_colour            colourless
_exptl_crystal_density_diffrn    1.649
_exptl_crystal_description       ' '
_exptl_crystal_F_000             252
_exptl_crystal_size_max          0.4344
_exptl_crystal_size_mid          0.071
_exptl_crystal_size_min          0.034
_refine_diff_density_max         0.236
_refine_diff_density_min         -0.243
_refine_ls_extinction_method     none
_refine_ls_goodness_of_fit_ref   1.026
_refine_ls_hydrogen_treatment    mixed
_refine_ls_matrix_type           full
_refine_ls_number_parameters     154
_refine_ls_number_reflns         1970
_refine_ls_number_restraints     0
_refine_ls_restrained_S_all      1.026
_refine_ls_R_factor_all          0.0808
_refine_ls_R_factor_gt           0.0432
_refine_ls_shift/su_max          0.000
_refine_ls_shift/su_mean         0.000
_refine_ls_structure_factor_coef Fsqd
_refine_ls_weighting_details
'w=1/[\s^2^(Fo^2^)+(0.0395P)^2^+0.1166P] where P=(Fo^2^+2Fc^2^)/3'
_refine_ls_weighting_scheme      calc
_refine_ls_wR_factor_gt          0.0868
_refine_ls_wR_factor_ref         0.0993
_reflns_number_gt                1299
_reflns_number_total             1970
_reflns_threshold_expression     'I > 2\s(I)'
_cod_data_source_file            ku3233sup1.cif
_cod_data_source_block           RT_salt_heating
_cod_database_code               2021498
_shelx_space_group_comment
;
The symmetry employed for this shelxl refinement is uniquely defined
by the following loop, which should always be used as a source of
symmetry information in preference to the above space-group names.
They are only intended as comments.
;
_shelx_estimated_absorpt_t_min   0.937
_shelx_estimated_absorpt_t_max   0.995
_shelx_hkl_file
;
   0   0   2 71.0852 2.28925   1
   0   0  -2 70.2954 2.29352   1
   0   0   3 116.576 3.55761   1
   0   0  -3 108.474 3.45815   1
   0   0  -4 64.7423 3.19933   1
   0   0   4 58.0652 2.99891   1
   0   0  -5 291.191 7.23321   1
   0   0   5 311.831 7.33886   1
   0   0   6 106.652 4.90179   1
   0   0  -6 111.806 5.12166   1
   0   0  -7 34.6619 3.52296   1
   0   0   7 28.7376 3.26533   1
   0   0   8 46.6521 4.22588   1
   0   0  -8 48.4279 4.39755   1
   0   0  -9 85.7557 5.99193   1
   0   0   9 75.5630 5.50888   1
   0   0 -10-2.94286 3.39797   1
   0   0  10 2.46216 3.01953   1
   0   0 -11 36.9440 5.34993   1
   0   0  11 35.3640 5.09396   1
   0   0  12-0.98555 4.29615   1
   0   0 -12 3.46992 4.43870   2
   0   0 -12 7.13911 4.54440   1
   0   0 -13 6.10751 5.52685   1
   0   0  13 9.60899 5.03150   1
   0   0 -13 1.84579 5.34713   2
   0   0 -14 16.5781 6.58915   1
   0   0 -14 5.98710 7.03251   2
   0   0  14 8.28926 6.26225   1
   0   0  15 4.95743 7.03096   1
   0   0 -15-3.35375 8.67992   2
   0   0 -15 11.6663 7.19987   1
   0  -1  16-3.97027 7.28561   1
   0   1 -16 10.1405 8.54673   2
   0  -1  16-3.32092 6.75330   1
   0   1 -15 13.0748 6.43278   1
   0   1 -15 6.87017 7.36291   2
   0  -1  15 1.91239 5.92846   1
   0   1 -14 12.5480 6.26170   2
   0  -1  14 10.1171 4.97566   1
   0   1 -14 4.57613 5.01953   1
   0  -1  13 55.5754 6.40794   1
   0   1 -13 50.0627 7.30274   2
   0   1 -13 68.0542 7.18461   1
   0   1 -12 14.1385 4.35697   1
   0   1 -12 28.4307 5.57337   2
   0  -1  12 33.2154 4.97226   1
   0   1 -11 13.1365 3.99727   2
   0  -1  11 13.0879 3.34351   1
   0   1 -11 12.5459 3.83360   1
   0   1 -10 34.0727 4.24849   1
   0  -1  10 27.2874 3.80861   1
   0   1 -10 25.9846 4.39593   2
   0   1  -9 4.61611 2.63361   1
   0   1  -9 0.90852 2.89747   2
   0  -1   9 2.53990 2.18093   1
   0   1  -8 16.3588 3.29340   2
   0   1  -8 9.71907 2.47648   1
   0  -1   8 17.1475 2.70980   1
   0  -1   7 21.8021 2.63667   1
   0   1  -7 21.0358 2.68660   1
   0   1  -7 22.3406 3.15004   2
   0   1  -6 6.54664 2.22843   2
   0   1  -6 6.29831 1.80734   1
   0  -1   6 7.44984 1.76424   1
   0  -1   5 23.9651 2.06766   1
   0   1  -5 20.8524 2.02089   1
   0   1  -5 26.2183 2.69603   2
   0  -1   4 2.18755 1.11599   1
   0   1  -4 2.93446 1.09854   1
   0   1  -4 5.54490 1.65931   2
   0  -1   3 2165.07 12.2916   1
   0  -1   3 2148.24 15.2796   2
   0   1  -3 2149.12 15.2254   2
   0   1  -3 2161.96 12.4289   1
   0  -1   2 284.024 3.58333   1
   0  -1   2 279.792 4.81031   2
   0   1  -2 292.422 3.64525   1
   0   1  -2 285.176 4.81642   2
   0  -1   1 9.03515 1.09958   2
   0  -1   1 6.94166 0.82013   1
   0   1  -1 9.36654 1.00122   2
   0   1  -1 8.14135 0.87587   1
   0   1   0 211.162 3.67578   1
   0  -1   0 214.251 3.68925   1
   0   1   0 203.905 3.57606   2
   0  -1   0 215.023 3.65490   2
   0  -1  -1 101.504 3.21930   1
   0  -1  -1 100.647 3.04900   2
   0   1   1 99.8033 3.17740   1
   0   1   1 101.825 3.01369   2
   0   1   2 44.5506 2.62469   1
   0  -1  -2 41.9895 2.37033   2
   0  -1  -2 39.6954 2.56421   1
   0  -1  -3 231.224 6.05288   1
   0   1   3 228.343 5.98934   1
   0  -1  -4 103.446 4.60639   1
   0   1   4 104.576 4.70619   1
   0  -1  -5 19.0970 2.70899   1
   0   1   5 17.7649 2.59421   1
   0  -1  -6 212.807 7.67206   1
   0   1   6 212.454 7.65235   1
   0   1   7 848.727 16.0367   1
   0  -1  -7 872.414 16.3997   1
   0   1   8 4.05831 2.85191   1
   0  -1  -8 4.40228 2.89786   1
   0   1   9 4.19701 3.41349   1
   0  -1  -9 5.37177 3.54097   1
   0  -1 -10-4.39487 3.68506   1
   0   1  10-0.89212 3.54423   1
   0   1  11 7.25280 4.51284   1
   0  -1 -11 10.2301 4.46333   1
   0   1  12 5.38108 4.86204   1
   0  -1 -12-4.03619 4.86927   1
   0  -1 -13 18.4165 6.52830   1
   0   1  13 12.1851 5.89613   1
   0  -1 -13 15.4257 6.33792   2
   0   1  14 0.76577 6.49674   1
   0  -1 -14-2.92703 7.49801   2
   0  -1 -14 10.0484 7.63263   2
   0  -1 -14-3.64253 6.89859   1
   0  -1 -15 4.95058 8.62110   1
   0  -1 -15-3.54261 8.79273   2
   0   1  15 9.34315 8.18053   1
   0  -1 -15 2.99084 8.73389   2
   0   2 -16 49.9029 10.0476   2
   0  -2  16 49.7512 7.49059   1
   0  -2  16 62.9259 8.22232   1
   0   2 -15 40.7267 8.58770   2
   0  -2  15 22.7977 6.07267   1
   0  -2  15 27.1432 5.96835   1
   0   2 -14 11.5003 6.09961   2
   0  -2  14 5.99489 4.60635   1
   0  -2  14 10.6149 4.46162   1
   0  -2  13 24.1736 4.65310   1
   0   2 -13 17.9998 5.84480   2
   0  -2  13 29.4766 4.90754   1
   0  -2  12 5.47320 3.29638   1
   0   2 -12 5.91424 4.49228   2
   0  -2  12 2.57273 3.20247   1
   0   2 -11 114.653 7.88666   2
   0  -2  11 109.197 6.21643   1
   0   2 -10 52.1956 5.32465   2
   0  -2  10 49.9873 4.15061   1
   0   2  -9 0.57557 2.45586   2
   0  -2   9 2.41154 2.03887   1
   0   2  -8 87.7237 5.65399   2
   0  -2   8 81.4701 4.29460   1
   0  -2   8 79.7203 4.24302   1
   0  -2   7 31.4019 2.65215   1
   0   2  -7 28.4743 3.26367   2
   0  -2   7 27.2022 2.49739   1
   0  -2   6 125.076 4.32927   1
   0  -2   6 121.802 4.14876   1
   0   2  -6 118.276 5.46333   2
   0  -2   5 111.895 3.73583   1
   0   2  -5 114.727 4.95108   2
   0  -2   5 112.116 4.93350   2
   0  -2   5 116.166 3.63715   1
   0   2  -4 35.5240 2.75255   2
   0  -2   4 30.5543 2.71440   2
   0  -2   4 34.1984 1.95299   1
   0  -2   3 82.8539 2.73088   1
   0   2  -3 74.7711 3.47233   2
   0   2  -3 76.9051 2.60342   1
   0  -2   3 81.1008 3.60319   2
   0  -2   2 2748.98 15.2987   1
   0   2  -2 2800.62 18.2029   2
   0   2  -2 2781.78 15.2931   1
   0  -2   2 2788.47 18.3627   2
   0   2  -1 6.89648 1.22601   1
   0   2  -1 6.89803 1.61582   2
   0  -2   1 5.90321 1.38976   2
   0  -2   1 5.05899 1.34010   1
   0  -2   0 17.5131 1.98999   2
   0  -2   0 17.7234 2.02435   1
   0   2   0 19.4007 2.11437   2
   0   2   0 17.8421 1.91088   1
   0   2   1 170.732 5.06488   2
   0   2   1 169.722 5.18594   1
   0  -2  -1 181.130 5.38051   1
   0  -2  -1 174.893 5.02544   2
   0  -2  -2 80.5352 3.94040   2
   0  -2  -2 84.9316 4.10868   1
   0   2   2 83.5340 4.25906   1
   0   2   2 84.7034 3.90719   2
   0  -2  -3 411.907 9.47552   1
   0  -2  -3 402.279 8.84120   2
   0   2   3 401.689 9.40442   1
   0   2   4 921.113 15.2491   1
   0  -2  -4 933.630 14.5125   2
   0  -2  -4 949.187 15.3575   1
   0  -2  -5 0.32003 2.21183   1
   0   2   5 1.18349 2.28642   1
   0  -2  -5-4.46709 2.46244   2
   0  -2  -6 105.954 6.37205   1
   0   2   6 101.106 6.30033   1
   0  -2  -6 106.957 6.03578   2
   0  -2  -7 3.16679 2.92804   1
   0   2   7 0.41352 2.91780   1
   0  -2  -7-0.19379 2.84359   2
   0   2   8 43.4511 5.39384   1
   0  -2  -8 40.0221 4.97444   2
   0  -2  -8 35.6242 4.84118   1
   0   2   9 52.1486 5.92453   1
   0  -2  -9 55.5098 5.99810   2
   0  -2  -9 46.3985 5.97757   1
   0  -2 -10 45.7535 6.27870   2
   0  -2 -10 49.0884 6.36148   1
   0   2  10 44.7802 6.44696   1
   0  -2 -11 32.6582 6.32443   2
   0   2  11 39.8723 6.65652   1
   0  -2 -11 34.4111 6.39259   1
   0  -2 -12 8.09120 5.69853   2
   0   2  12 14.8493 5.86537   1
   0  -2 -13-0.45402 7.17589   1
   0  -2 -13 14.5987 7.65332   2
   0   2  13 2.28406 6.89391   1
   0   2  14 27.7453 8.73909   1
   0  -2 -14 13.6826 8.34968   2
   0  -2 -14 40.0722 9.23508   1
   0  -3  16-0.54475 5.17119   1
   0  -3  16 3.00830 5.77325   1
   0   3 -16 3.85518 8.46766   2
   0   3 -15 39.6891 8.51901   2
   0  -3  15 40.8644 6.06043   1
   0  -3  15 35.9109 5.66286   1
   0  -3  14 4.52280 3.72404   1
   0  -3  14 5.87115 3.62596   1
   0   3 -14 13.7289 5.83911   2
   0  -3  13 57.0161 5.26909   1
   0  -3  13 57.7413 5.26332   1
   0   3 -13 62.2567 7.68208   2
   0  -3  12 15.3712 3.35718   1
   0   3 -12 11.9455 4.50540   2
   0  -3  12 13.9383 3.32290   1
   0   3 -11 1.63629 3.37512   2
   0  -3  11 3.12287 2.44988   1
   0  -3  11 2.89120 2.41094   1
   0   3 -10 16.6594 3.94600   2
   0  -3  10 16.3016 2.72197   1
   0  -3  10 17.0073 2.78566   1
   0   3  -9 36.5223 4.47501   2
   0  -3   9 36.3986 3.13521   1
   0  -3   9 34.5492 3.19442   1
   0  -3   8 11.6406 2.14701   1
   0  -3   8 11.9907 2.04674   1
   0   3  -8 12.0256 3.10988   2
   0   3  -7 429.013 11.0148   2
   0  -3   7 414.182 8.19903   1
   0  -3   7 435.896 11.2560   2
   0  -3   7 403.825 7.89017   1
   0   3  -6 12.1930 2.40206   2
   0  -3   6 13.8412 1.87248   1
   0  -3   6 13.6871 1.82900   1
   0  -3   6 14.4115 2.76886   2
   0  -3   5 81.4016 3.36936   1
   0   3  -5 85.8081 3.40722   1
   0  -3   5 83.9814 4.61926   2
   0   3  -5 80.8126 4.58430   2
   0   3  -4 154.617 4.45397   1
   0  -3   4 159.312 4.50447   1
   0   3  -4 157.388 5.81883   2
   0  -3   4 152.966 5.74902   2
   0   3  -3 222.487 6.55340   2
   0  -3   3 229.264 5.53540   1
   0  -3   3 224.901 6.65323   2
   0   3  -3 231.850 5.55049   1
   0  -3   2 3.78253 1.50066   1
   0   3  -2 3.71372 1.39254   1
   0   3  -2 3.28254 1.70214   2
   0  -3   2 2.83391 1.79389   2
   0  -3   1 68.6354 3.66695   1
   0   3  -1 68.3188 3.70629   2
   0   3  -1 67.7086 3.63340   1
   0  -3   1 67.3214 3.79382   2
   0   3   0 15.9068 2.43087   1
   0  -3   0 21.0868 2.65243   1
   0   3   0 13.2654 2.10326   2
   0  -3   0 14.8030 2.33946   2
   0   3   1 1120.60 15.1082   2
   0  -3  -1 1116.91 15.0303   2
   0  -3  -1 1194.88 16.0926   1
   0   3   1 1169.96 15.8252   1
   0   3   2 616.543 11.8408   2
   0  -3  -2 605.877 11.7489   2
   0  -3  -2 583.836 12.1743   1
   0   3   2 625.072 12.5421   1
   0  -3  -3 7.08907 2.41498   2
   0   3   3 4.57172 1.96519   1
   0  -3  -3 3.52490 2.52681   1
   0   3   3 3.71489 1.97905   2
   0   3   4 18.5332 3.50369   1
   0  -3  -4 22.2980 3.45109   1
   0  -3  -4 23.9757 3.49046   2
   0  -3  -5 26.9469 3.91332   2
   0   3   5 26.2693 3.89058   1
   0  -3  -5 30.2565 4.18292   1
   0   3   6 33.6468 4.64058   1
   0  -3  -6 32.4448 4.45376   2
   0  -3  -6 33.3565 4.67985   1
   0  -3  -7 47.6077 5.46390   1
   0   3   7 43.5073 5.68723   1
   0  -3  -7 45.0588 5.34326   2
   0  -3  -8 120.052 8.50017   1
   0  -3  -8 122.421 8.03731   2
   0   3   8 113.715 8.42878   1
   0  -3  -9-6.73576 4.90660   1
   0  -3  -9-1.74405 3.91794   2
   0  -3 -10 5.32956 5.36930   1
   0   3  10 11.9803 5.13765   1
   0  -3 -10 8.68170 5.15351   2
   0   3  11 6.31414 6.03125   1
   0  -3 -11 8.91340 5.75394   2
   0  -3 -11 10.1504 6.45753   1
   0  -3 -12 10.3594 6.81210   2
   0  -3 -12-1.13903 6.98099   1
   0   3  12 12.4515 7.20776   1
   0  -3 -13 22.8261 8.55697   2
   0  -3 -13 23.7609 8.86259   1
   0  -3 -14 15.1732 6.63278   2
   0   3  14 9.53680 5.96198   1
   0  -3 -14 11.1758 6.39034   1
   0  -4  16-1.23411 4.58995   1
   0  -4  16 5.05494 4.70839   1
   0   4 -16-3.10279 8.28690   2
   0  -4  15 23.3638 4.74744   1
   0   4 -15 26.4531 7.95371   2
   0  -4  15 29.9620 5.04180   1
   0   4 -14-0.39607 5.61385   2
   0  -4  14 1.16511 3.44521   1
   0  -4  14 0.55116 3.46861   1
   0  -4  13-3.93514 2.82939   1
   0  -4  13-0.87314 2.87612   1
   0   4 -13-2.94464 4.57381   2
   0   4 -12 0.18827 4.03226   2
   0  -4  12 7.96922 2.89355   1
   0  -4  12 4.56117 2.76190   1
   0  -4  11 36.0262 3.52375   1
   0   4 -11 35.1848 5.62185   2
   0  -4  11 31.2697 3.42027   1
   0  -4  10 4.82794 2.11796   1
   0  -4  10 5.21713 2.24170   1
   0   4 -10 3.82579 3.34279   2
   0   4  -9 25.5053 4.34429   2
   0  -4   9 26.4328 2.89249   1
   0  -4   9 23.9833 2.70396   1
   0  -4   8 0.66631 1.55201   1
   0  -4   8 2.17077 1.76130   1
   0   4  -7 7.54065 2.92451   2
   0  -4   7 10.0720 2.01771   1
   0  -4   7 10.6157 1.92594   1
   0  -4   7 12.8055 2.96559   2
   0   4  -6 393.470 8.04291   1
   0  -4   6 431.089 8.44613   1
   0   4  -6 408.214 10.9199   2
   0  -4   6 420.761 11.1905   2
   0  -4   5 156.574 6.64457   2
   0   4  -5 160.993 6.82191   2
   0   4  -5 164.685 5.36099   1
   0  -4   5 161.488 5.33940   1
   0  -4   4-0.79940 1.50148   1
   0  -4   4-0.47322 1.83665   2
   0   4  -4 2.11796 1.70749   2
   0   4  -4-0.22736 1.42057   1
   0   4  -3 92.5764 5.02889   2
   0  -4   3 90.4511 4.38351   1
   0  -4   3 87.7934 4.83503   2
   0   4  -3 89.4564 4.31823   1
   0  -4   2 31.5798 3.39259   2
   0  -4   2 31.4755 3.03712   1
   0   4  -2 35.0666 3.57553   2
   0   4  -2 35.5133 3.18839   1
   0  -4   1 252.284 7.90614   1
   0   4  -1 250.768 8.08857   2
   0  -4   1 237.020 7.73953   2
   0   4  -1 253.444 7.72325   1
   0  -4   0 17.7320 2.66105   1
   0   4   0 13.3626 2.59317   1
   0   4   0 15.0493 2.90732   2
   0  -4   0 13.2642 2.63318   2
   0   4   1 417.188 10.9611   1
   0   4   1 400.180 10.6243   2
   0  -4  -1 389.994 10.6734   1
   0  -4  -1 383.918 10.2486   2
   0  -4  -2 81.6441 5.59111   1
   0   4   2 84.7233 5.50251   2
   0  -4  -2 80.3730 5.27656   2
   0   4   2 78.2347 5.34490   1
   0  -4  -3 185.609 8.06927   2
   0   4   3 190.364 8.03370   2
   0   4   3 186.294 8.33880   1
   0  -4  -3 182.738 8.34065   1
   0  -4  -4 191.378 8.46963   2
   0  -4  -4 183.268 8.87575   1
   0   4   4 190.867 9.01154   1
   0   4   5 276.632 11.1097   1
   0  -4  -5 256.987 10.7892   1
   0  -4  -5 225.123 9.77166   2
   0  -4  -6 0.61721 3.42100   1
   0  -4  -6 8.34302 3.95472   2
   0   4   6 7.44157 3.45026   1
   0  -4  -7 110.805 8.59637   1
   0  -4  -7 121.394 8.37097   2
   0   4   7 117.834 8.64802   1
   0  -4  -8 8.90770 4.60205   1
   0  -4  -8 11.4736 4.74398   2
   0   4   8 11.5951 5.01681   1
   0   4   9-3.73096 5.46349   1
   0  -4  -9-2.57044 5.34331   2
   0  -4  -9 3.09667 5.46675   1
   0  -4 -10 8.01949 6.23657   1
   0  -4 -10 0.91961 5.97935   2
   0   4  10 5.36050 5.61197   1
   0  -4 -11 8.59167 7.35867   1
   0   4  11-9.60451 6.63537   1
   0  -4 -11 10.1123 6.53932   2
   0  -4 -12 7.32261 8.15806   2
   0   4  12-0.07313 8.10703   1
   0  -4 -12-10.9995 9.42660   1
   0   4  13-8.35380 9.99679   1
   0  -4 -13 16.3504 9.80510   2
   0  -4 -13 8.76444 9.39958   1
   0  -5  16 1.43656 3.54110   1
   0  -5  16-0.53595 3.64782   1
   0  -5  15-1.12517 3.37105   1
   0   5 -15-1.53967 7.30887   2
   0  -5  15 9.04328 3.61281   1
   0  -5  14 1.61007 3.24119   1
   0  -5  14-0.11763 2.94953   1
   0   5 -14-6.79981 6.69656   2
   0   5 -13-4.24365 5.01873   2
   0  -5  13 0.73355 2.74306   1
   0  -5  13 0.34115 2.81519   1
   0   5 -12 12.8605 5.52446   2
   0  -5  12 20.3099 3.32563   1
   0  -5  12 18.5414 3.15172   1
   0  -5  11 0.94113 2.32697   1
   0  -5  11 0.99136 2.33441   1
   0   5 -11 7.17592 4.62050   2
   0  -5  10 3.57412 2.20033   1
   0   5 -10 1.01842 3.78497   2
   0  -5  10 5.35638 2.38387   1
   0  -5   9 60.7048 5.99594   2
   0  -5   9 54.4737 3.96862   1
   0   5  -9 69.5149 6.39179   2
   0  -5   9 63.9545 4.05879   1
   0   5  -8 217.288 9.58671   2
   0  -5   8 226.459 6.97970   1
   0  -5   8 229.612 9.72989   2
   0   5  -7 33.0200 4.08744   2
   0  -5   7 32.1972 3.06896   1
   0  -5   7 42.3210 4.77763   2
   0   5  -7 40.5634 3.30447   1
   0  -5   6 60.0659 5.09961   2
   0   5  -6 55.9316 5.08198   2
   0  -5   6 63.5419 4.04889   1
   0   5  -6 60.5460 3.92006   1
   0   5  -5 16.1684 3.34512   2
   0  -5   5 17.8796 3.46386   2
   0  -5   5 15.0987 2.45575   1
   0   5  -5 19.3796 2.70999   1
   0   5  -4 150.274 7.21755   2
   0   5  -4 153.853 6.23006   1
   0  -5   4 138.856 7.00849   2
   0  -5   4 144.663 6.07203   1
   0   5  -3 41.5199 4.38620   2
   0  -5   3 37.6089 4.00907   2
   0  -5   3 45.9372 3.96145   1
   0   5  -3 44.7350 3.89300   1
   0  -5   2 32.5012 3.76343   1
   0  -5   2 27.8463 3.84394   2
   0   5  -2 36.8234 4.20799   2
   0   5  -2 34.5135 3.67503   1
   0   5  -1 76.9433 5.31762   2
   0  -5   1 70.9041 5.17002   1
   0   5  -1 78.5571 5.37259   1
   0  -5   1 72.3525 5.38295   2
   0   5   0 611.350 14.2743   2
   0  -5   0 549.587 13.6424   1
   0   5   0 599.500 14.0887   1
   0  -5   0 557.261 13.6250   2
   0   5   1 223.567 9.16973   2
   0  -5  -1 225.939 9.31212   1
   0   5   1 216.825 9.18981   1
   0  -5  -1 219.719 8.84837   2
   0  -5  -2 11.8338 3.55068   2
   0   5   2 13.7906 3.72318   2
   0  -5  -2 12.1185 3.53778   1
   0   5   2 17.0024 3.66243   1
   0  -5  -3-4.39086 3.66488   2
   0   5   3 4.62898 2.84352   2
   0   5   3-1.34984 2.88213   1
   0  -5  -3 3.58101 3.61681   1
   0  -5  -4 3.15202 3.63633   2
   0   5   4 11.0523 3.59314   1
   0  -5  -4 2.66635 3.68639   1
   0  -5  -5 314.218 13.0076   1
   0   5   5 342.409 13.6159   1
   0  -5  -5 329.981 12.6608   2
   0  -5  -6 59.5114 6.86240   2
   0  -5  -6 54.3867 7.00339   1
   0   5   6 55.9441 6.76319   1
   0   5   7 16.2880 5.83708   1
   0  -5  -7 2.96640 4.33454   2
   0  -5  -7 12.4073 5.47834   1
   0  -5  -8 42.4958 7.49903   1
   0  -5  -8 51.2023 7.36375   2
   0   5   8 55.8409 7.67777   1
   0  -5  -9 30.9723 6.85807   2
   0  -5  -9 21.1502 7.73658   1
   0   5   9 20.4133 7.02429   1
   0  -5 -10 20.0070 7.72417   2
   0  -5 -10 4.44976 7.01744   1
   0   5  10 13.3895 8.08890   1
   0  -5 -11 9.51264 8.36136   2
   0  -5 -11-21.1133 9.16646   1
   0   5  11-10.8448 8.98905   1
   0   5  12 22.0331 10.3663   1
   0  -5 -12 37.9253 10.1173   2
   0  -6  16 0.16910 2.52586   1
   0   6 -16 0.71421 9.02704   2
   0   6 -15 10.7549 7.67183   2
   0  -6  15 2.29339 2.72793   1
   0   6 -14-1.04799 6.51091   2
   0  -6  14 1.50685 2.78098   1
   0  -6  14 3.06148 2.97774   1
   0  -6  13 6.59731 2.76456   1
   0  -6  13 1.73699 2.79113   1
   0  -6  12 25.2300 3.49121   1
   0  -6  12 24.0552 3.51947   1
   0   6 -12 31.1387 6.42953   2
   0  -6  11 77.6540 4.90570   1
   0  -6  11 72.8688 4.89903   1
   0  -6  11 58.7370 7.31782   2
   0   6 -11 66.1256 7.29381   2
   0  -6  10 2.83562 2.37165   1
   0  -6  10-5.65177 4.53450   2
   0  -6  10 6.04988 2.62777   1
   0   6 -10 1.19019 3.72604   2
   0   6  -9 114.023 8.10784   2
   0  -6   9 109.296 5.58073   1
   0  -6   9 111.218 7.82202   2
   0  -6   8 35.4373 4.93371   2
   0   6  -8 31.7177 3.46728   1
   0   6  -8 36.0190 5.26560   2
   0  -6   8 41.2475 3.83359   1
   0  -6   7 146.277 6.43769   1
   0   6  -7 142.590 8.22862   2
   0  -6   7 120.494 7.63519   2
   0   6  -7 137.922 6.18236   1
   0   6  -6 4.71095 3.41832   2
   0  -6   6-0.40310 2.12818   1
   0  -6   6 2.84341 3.52407   2
   0   6  -6 1.13360 2.24550   1
   0  -6   5 111.237 7.03183   2
   0  -6   5 125.547 6.34264   1
   0   6  -5 114.890 7.29009   2
   0   6  -5 120.215 6.19914   1
   0   6  -4 4.40850 3.34046   2
   0   6  -4 3.21109 2.46776   1
   0  -6   4 0.82933 2.44604   1
   0  -6   4 1.34661 3.03287   2
   0   6  -3 44.9319 5.09982   2
   0  -6   3 41.9108 4.39600   1
   0   6  -3 44.9595 4.46801   1
   0  -6   3 43.1685 4.91092   2
   0   6  -2 68.9338 5.92444   2
   0  -6   2 69.3160 5.48283   1
   0  -6   2 73.2023 6.08822   2
   0   6  -2 68.3715 5.47590   1
   0  -6   1 249.471 9.98668   2
   0  -6   1 250.761 10.1329   1
   0   6  -1 257.118 10.1198   1
   0   6  -1 259.707 10.4748   2
   0  -6   0 53.8254 5.67330   1
   0   6   0 61.0827 5.86813   1
   0  -6   0 63.9416 5.56008   2
   0   6   0 64.9096 5.86851   2
   0   6   1 15.7380 4.25041   1
   0   6   1 14.3811 3.49857   2
   0  -6  -1 12.6513 3.95823   2
   0  -6  -1 18.6053 3.95875   1
   0   6   2 3.40640 3.31107   2
   0   6   2 4.91821 3.94174   1
   0  -6  -2 6.47254 3.79206   2
   0  -6  -2 8.53996 4.22790   1
   0  -6  -3 64.2960 6.82406   1
   0   6   3 69.5009 6.49024   2
   0  -6  -3 70.6273 6.85595   2
   0   6   3 60.8697 6.39391   1
   0  -6  -4 46.1108 6.52791   1
   0  -6  -4 41.9928 5.89221   2
   0   6   4 43.9302 6.06033   1
   0  -6  -5 70.0556 7.45582   2
   0  -6  -5 61.2258 7.78233   1
   0   6   5 65.0799 7.79420   1
   0  -6  -6 16.9373 6.02768   2
   0   6   6 21.1085 6.13825   1
   0  -6  -6 23.3308 6.33953   1
   0  -6  -7 66.5961 8.74619   1
   0   6   7 63.4232 8.95778   1
   0  -6  -7 61.0465 7.86728   2
   0  -6  -8 12.9850 6.89561   1
   0  -6  -8-0.62681 6.53455   2
   0   6   8 14.9664 7.07219   1
   0   6   9 22.6987 9.14979   1
   0  -6  -9 4.86662 8.57891   1
   0  -6  -9-2.16119 7.07870   2
   0  -6 -10-24.0472 10.7669   1
   0  -6 -10-3.92697 8.87928   2
   0   6  10-11.2076 9.72033   1
   0  -6 -11 21.4076 7.32621   1
   0   6  11 20.5971 7.50896   1
   0  -6 -11 14.5428 6.35079   2
   0   7 -16 2.61078 8.92867   2
   0   7 -15 5.58858 8.54420   2
   0  -7  15-0.12034 2.51155   1
   0  -7  15 0.12250 2.57909   1
   0   7 -14 11.6398 7.80064   2
   0  -7  14 3.32439 2.99251   1
   0  -7  14 1.95550 2.83842   1
   0  -7  13 8.85775 3.22662   1
   0  -7  13 10.5046 3.15184   1
   0   7 -12 10.2806 6.45429   2
   0  -7  12 12.7073 3.15261   1
   0  -7  12 2.31606 5.94738   2
   0  -7  12 18.7447 3.73616   1
   0  -7  11 70.4355 5.25122   1
   0  -7  11 75.5814 5.24361   1
   0  -7  11 83.4551 8.44204   2
   0   7 -11 75.1199 7.84692   2
   0  -7  10 299.582 13.4982   2
   0  -7  10 309.810 9.70315   1
   0   7 -10 309.069 13.6559   2
   0  -7  10 301.438 9.91855   1
   0  -7   9 7.19207 4.91690   2
   0  -7   9 4.51073 3.01429   1
   0   7  -9 7.07499 4.51824   2
   0   7  -9 7.23198 3.04398   1
   0  -7   8 5.69379 3.99832   2
   0   7  -8-2.60011 2.66839   1
   0   7  -8-3.87497 4.09163   2
   0  -7   8 0.11427 2.57881   1
   0  -7   7 1.17019 2.82161   1
   0  -7   7-0.36205 4.27861   2
   0   7  -7-1.72894 2.82655   1
   0   7  -7-2.79884 3.78356   2
   0   7  -6 6.67315 2.97978   1
   0   7  -6 14.5354 4.53581   2
   0  -7   6 2.70262 2.89945   1
   0  -7   6 6.92736 4.24834   2
   0  -7   5 60.0692 5.51705   1
   0   7  -5 63.6680 6.64734   2
   0  -7   5 62.0416 6.14737   2
   0   7  -5 57.5972 5.34058   1
   0   7  -4 45.6689 5.10111   1
   0  -7   4 43.5476 5.04535   1
   0   7  -4 41.2057 5.69068   2
   0  -7   4 46.1391 5.73387   2
   0  -7   3 2.81172 3.68221   2
   0  -7   3 3.89414 3.37164   1
   0   7  -3-0.64590 3.66590   2
   0   7  -3 0.63008 2.85049   1
   0  -7   2 47.2562 5.39158   1
   0   7  -2 49.1353 6.10739   2
   0   7  -2 55.6239 5.79457   1
   0  -7   2 46.6627 6.02092   2
   0  -7   1-4.40004 3.22867   1
   0   7  -1 4.88417 3.80333   1
   0  -7   1-2.91806 3.37591   2
   0   7  -1 0.93336 3.10799   2
   0  -7   0 1.70807 3.51249   1
   0   7   0-1.41596 3.75314   1
   0  -7   0-4.27998 4.19731   2
   0   7   0 9.59527 4.49584   2
   0  -7  -1 5.61310 4.22118   1
   0   7   1 19.1182 4.64155   2
   0  -7  -1 12.0086 4.16674   2
   0   7   1 20.2280 4.95157   1
   0   7   2-4.32292 4.68181   2
   0   7   2 4.44459 3.90870   1
   0  -7  -2-2.86255 4.35043   2
   0  -7  -2 4.50821 4.89795   1
   0   7   3 24.5623 6.20094   1
   0  -7  -3 22.6428 5.36148   2
   0   7   3 18.3885 5.83849   2
   0  -7  -3 24.1344 6.08542   1
   0   7   4 3.01084 5.52264   1
   0  -7  -4 5.04472 5.13739   2
   0  -7  -4 6.07951 5.83496   1
   0  -7  -5 13.9357 7.08089   1
   0  -7  -5 18.2191 5.90124   2
   0   7   5 19.3419 6.37577   1
   0  -7  -6 5.34927 6.86713   2
   0   7   6 12.9290 6.32359   1
   0  -7  -6 2.67566 7.06021   1
   0  -7  -7 42.9261 9.33478   1
   0   7   7 28.6020 8.25588   1
   0   7   8 3.12723 8.82776   1
   0  -7  -8 18.3606 9.62237   1
   0  -7  -8 8.18802 8.24354   2
   0   7   9-7.39835 9.05921   1
   0  -7  -9 10.3008 9.72043   2
   0  -7  -9 8.47229 10.4502   1
   0   8 -15-3.76231 9.22705   2
   0  -8  15 1.30909 2.14824   1
   0   8 -14 5.26160 8.03681   2
   0  -8  14 8.36461 3.06870   1
   0  -8  13 55.9222 5.25829   1
   0   8 -13 68.1546 10.0698   2
   0  -8  13 66.9807 5.24587   1
   0  -8  12 21.3033 6.73787   2
   0  -8  12 6.32314 3.81924   1
   0  -8  12 8.05303 3.56091   1
   0   8 -12 12.5438 7.48085   2
   0  -8  11 14.2528 6.70857   2
   0  -8  11 3.48003 3.62434   1
   0   8 -11-0.06051 6.15034   2
   0  -8  11 0.41499 3.37583   1
   0   8 -10 30.9536 7.20332   2
   0  -8  10 25.7863 6.54676   2
   0  -8  10 18.5510 4.07031   1
   0   8 -10 23.3830 4.35061   1
   0   8  -9 24.6122 4.44979   1
   0   8  -9 32.0026 6.17048   2
   0  -8   9 32.0232 4.75450   1
   0  -8   9 30.7190 6.27898   2
   0  -8   8 7.99478 3.76534   1
   0  -8   8 4.25476 4.70067   2
   0   8  -8-3.89217 4.25176   2
   0   8  -8 3.89194 3.40063   1
   0   8  -7 24.0494 5.91165   2
   0   8  -7 21.4726 4.33166   1
   0  -8   7 17.4311 4.16358   1
   0  -8   7 20.7150 5.09403   2
   0  -8   6-2.17082 3.63294   2
   0  -8   6-4.37891 3.82387   1
   0   8  -6 0.05128 3.83640   2
   0   8  -6-0.11462 3.53862   1
   0   8  -5 68.9160 7.06337   2
   0  -8   5 74.2089 6.67644   1
   0  -8   5 72.2376 7.39308   2
   0   8  -5 68.1012 6.42733   1
   0  -8   4 8.76479 4.19767   1
   0   8  -4 3.28181 3.83482   1
   0  -8   4 5.24074 4.53246   2
   0   8  -4 2.49893 4.69024   2
   0  -8   3 168.754 9.97478   2
   0   8  -3 170.768 10.3654   2
   0  -8   3 153.641 9.34133   1
   0   8  -3 160.718 9.42450   1
   0   8  -2 57.4290 7.32803   2
   0  -8   2 47.8878 6.47120   1
   0   8  -2 67.1359 6.93528   1
   0  -8   2 59.0020 6.98418   2
   0  -8   1 5.88159 4.40239   1
   0   8  -1-4.19668 5.23401   2
   0   8  -1 4.54917 4.79176   1
   0  -8   1 2.69816 3.96505   2
   0  -8   0 16.1107 5.57141   2
   0  -8   0 19.0719 5.48104   1
   0   8   0 17.7196 5.63791   2
   0   8   0 27.5648 5.77523   1
   0   8   1 2.86528 4.75131   2
   0   8   1-1.10022 4.40358   1
   0  -8  -1 1.46129 5.49953   1
   0  -8  -1-8.89831 5.14264   2
   0   8   2 1.84790 5.75887   1
   0  -8  -2 4.28963 6.08032   1
   0   8   2 7.28400 5.06380   2
   0  -8  -2 3.78425 5.77567   2
   0  -8  -3 4.29900 6.51572   1
   0   8   3-0.92882 5.50982   2
   0  -8  -3-2.62788 5.72043   2
   0   8   3 14.8533 6.32242   1
   0   8   4 17.8873 7.33840   1
   0  -8  -4 0.64099 6.16470   2
   0  -8  -4 10.9644 6.25455   1
   0  -8  -5 6.79290 7.43473   2
   0  -8  -5 1.81902 6.56070   1
   0   8   5 7.72337 7.21767   1
   0   8   6-11.0638 8.73487   1
   0  -8  -6-4.05774 7.99598   1
   0  -8  -6 9.76742 8.76805   2
   0  -8  -7 4.78614 10.0727   2
   0   8   7-4.02837 10.1798   1
   0  -8  -7 8.01248 9.81766   1
   0   8   8 39.0133 11.0281   1
   0  -8  -8 42.5649 12.2635   1
   0   9 -14-13.6761 9.41035   2
   0  -9  14-2.47658 3.57034   1
   0   9 -13 15.3527 8.28447   2
   0  -9  13 8.09041 4.31745   1
   0  -9  13 14.0702 9.07442   2
   0  -9  13 3.80441 4.49972   1
   0  -9  12 5.70009 4.78542   1
   0   9 -12-4.96564 8.29628   2
   0  -9  12-6.40847 6.97463   2
   0  -9  12-1.01413 4.41324   1
   0  -9  11-0.68794 7.61906   2
   0   9 -11-5.59022 7.05804   2
   0   9 -11 5.98952 4.56327   1
   0  -9  11-4.35765 4.69028   1
   0   9 -10 14.8754 6.99564   2
   0   9 -10 6.98673 4.29676   1
   0  -9  10 1.30036 4.16549   1
   0  -9  10 9.52264 6.79151   2
   0   9  -9 2.00675 4.06874   1
   0  -9   9 20.7136 6.60204   2
   0   9  -9 14.0985 6.05928   2
   0  -9   9 6.30544 4.59195   1
   0   9  -8 4.42674 4.25658   1
   0  -9   8 5.02359 4.32855   1
   0   9  -8 1.36221 5.92589   2
   0  -9   8-3.15125 5.99044   2
   0   9  -7 33.8929 5.66653   1
   0  -9   7 24.7133 5.39763   1
   0  -9   7 27.6727 6.89244   2
   0   9  -7 29.5945 6.51613   2
   0   9  -6 128.061 8.90794   1
   0   9  -6 110.391 9.90189   2
   0  -9   6 112.839 8.63416   1
   0  -9   6 115.019 10.2469   2
   0   9  -5-1.73482 4.82358   2
   0   9  -5 10.5737 4.97061   1
   0  -9   5 0.77372 4.72683   2
   0  -9   5 7.04785 4.89175   1
   0   9  -4 34.5153 6.73902   2
   0  -9   4 23.8310 5.69340   2
   0  -9   4 26.4414 5.98283   1
   0   9  -4 24.5596 5.71762   1
   0   9  -3 1.97895 5.32501   1
   0   9  -3 0.48153 4.66905   2
   0  -9   3 13.3263 5.48378   2
   0  -9   3 4.25064 5.04824   1
   0  -9   2 68.1973 8.50666   2
   0  -9   2 90.1860 8.69580   1
   0   9  -2 88.1552 8.39542   1
   0   9  -2 75.8735 8.50422   2
   0  -9   1-6.17453 6.34618   1
   0   9  -1 13.1203 6.43873   2
   0   9  -1-2.69633 5.62945   1
   0  -9   1 10.3664 5.50908   2
   0  -9   0 10.3130 6.17179   1
   0  -9   0 4.89459 5.66816   2
   0   9   0 5.17525 5.75448   2
   0   9   0-1.14925 5.70675   1
   0  -9  -1-4.73238 6.67394   2
   0   9   1 9.43545 6.00853   1
   0  -9  -1 0.68175 6.47077   1
   0   9   1-6.34658 6.66508   2
   0   9   2 5.31321 6.01114   2
   0  -9  -2 10.9621 6.33526   2
   0   9   2 5.76040 7.45842   1
   0  -9  -2 2.81343 7.13161   1
   0   9   3-4.81326 8.14506   1
   0  -9  -3 13.7292 8.73812   1
   0   9   3 13.4149 8.55039   2
   0  -9  -3 5.66264 6.73369   2
   0  -9  -4 2.23122 8.52085   2
   0   9   4-7.15152 8.42565   1
   0  -9  -4 6.70304 7.98731   1
   0   9   5 0.60444 10.3891   1
   0  -9  -5-4.38034 8.97544   2
   0   9   6 1.65436 10.7975   1
   0  -9  -6 14.3373 9.70343   2
   0 -10  13 6.14689 5.20301   1
   0  10 -13-7.75297 10.9354   2
   0 -10  13-7.24875 9.38920   2
   0 -10  13 11.9639 5.88501   1
   0 -10  12 0.39784 5.68399   1
   0  10 -12-10.7926 8.19655   2
   0 -10  12-12.2964 5.87385   1
   0 -10  12 0.95949 10.5615   2
   0 -10  11 0.20795 5.18761   1
   0  10 -11 7.49845 5.07530   1
   0  10 -11 0.53684 8.41241   2
   0 -10  11 2.54146 8.60194   2
   0  10 -10 2.33067 5.37307   1
   0 -10  10-9.38832 5.05181   1
   0  10 -10-0.07424 7.39915   2
   0 -10  10 4.45902 7.22005   2
   0  10  -9 11.4432 8.39898   2
   0  10  -9 10.9556 5.79161   1
   0 -10   9 2.13486 5.55813   1
   0  10  -8 2.33345 6.30223   2
   0 -10   8 7.66256 5.33377   1
   0  10  -8-3.43644 5.72113   1
   0  10  -7 2.63756 5.39922   1
   0 -10   7 11.8003 5.62883   1
   0  10  -7 13.2513 6.66600   2
   0 -10   7 14.3042 7.58513   2
   0 -10   6-3.39906 7.71577   2
   0  10  -6-1.11341 6.40916   2
   0  10  -6 10.9025 5.72019   1
   0 -10   6-1.70923 5.79142   1
   0  10  -5 22.8623 7.99116   2
   0 -10   5 0.41435 7.62417   2
   0 -10   5 14.5357 6.09465   1
   0  10  -5 9.64126 5.79162   1
   0 -10   4 97.2559 9.95675   1
   0 -10   4 92.0293 9.75923   2
   0  10  -4 110.402 9.91790   1
   0  10  -4 94.7142 10.2258   2
   0 -10   3 0.77102 6.50539   1
   0  10  -3-1.83152 7.08345   2
   0 -10   3 16.0003 7.34548   2
   0  10  -3 15.6360 6.78336   1
   0 -10   2 22.6346 8.67155   2
   0  10  -2 13.4637 6.98992   1
   0  10  -2 30.7679 8.31469   2
   0 -10   2 22.2959 7.41686   1
   0 -10   1-11.3493 8.30484   2
   0  10  -1-4.57621 8.15747   2
   0 -10   1 6.39310 7.50513   1
   0  10  -1 10.0746 7.13392   1
   0 -10   0 5.59657 8.57835   1
   0  10   0 9.86457 8.07025   1
   0  10   0 16.6697 8.22001   2
   0 -10   0 16.7109 7.65266   2
   0 -10  -1 10.5553 8.81414   2
   0  10   1 21.8975 8.64550   1
   0 -10  -1 21.6585 8.48986   1
   0  10   1 22.1379 8.31798   2
   0 -10  -2 5.75072 8.85988   1
   0 -10  -2-8.82832 9.45687   2
   0  10   2 16.1011 8.42487   2
   0  10   2-10.9558 9.22242   1
   0  10   3 6.52823 9.99275   1
   0 -10  -3 7.42709 11.0284   1
   0 -10  -3 9.49153 9.82607   2
   0 -10  -4 9.18194 9.83544   2
   0 -11  11 1.77675 6.65831   1
   0  11 -11 3.02862 6.34129   1
   0 -11  11-0.68993 9.41327   2
   0  11 -11 0.68397 9.82615   2
   0  11 -10 4.52185 6.71147   1
   0 -11  10-0.77648 6.58249   1
   0  11 -10 10.4493 9.48663   2
   0 -11  10-6.02868 8.70489   2
   0  11  -9 19.1305 6.78312   1
   0 -11   9 11.2677 8.48428   2
   0 -11   9 17.3566 7.20897   1
   0  11  -9 11.3532 10.4899   2
   0  11  -8 10.1176 7.08837   1
   0 -11   8 23.5797 7.13396   1
   0 -11   8-6.76085 9.28871   2
   0  11  -8 8.62524 9.04541   2
   0  11  -7 20.0990 9.89190   2
   0  11  -7-6.89145 6.79742   1
   0 -11   7 13.8529 7.18434   1
   0 -11   7 18.7738 10.3677   2
   0 -11   6 18.1890 8.08210   1
   0  11  -6 7.34212 9.77984   2
   0 -11   6 19.8574 8.61421   2
   0  11  -6 28.5555 7.82998   1
   0  11  -5 20.9563 10.3933   2
   0  11  -5 31.5671 8.40957   1
   0 -11   5 19.7461 8.59348   1
   0 -11   5 49.4166 10.9222   2
   0 -11   4 13.1534 8.80295   2
   0 -11   4 20.0340 8.53860   1
   0  11  -4 9.33444 7.83617   1
   0  11  -4 4.27410 7.90590   2
   0  11  -3 16.5262 10.0190   2
   0 -11   3-1.50978 9.73870   2
   0  11  -3-8.78492 8.59418   1
   0 -11   3-6.32158 7.94041   1
   0  11  -2 25.3848 8.95612   2
   0 -11   2 61.6414 10.8846   1
   0 -11   2 44.5008 10.5369   2
   0  11  -2 56.7942 10.0939   1
   0 -11   1 1.47517 8.88572   2
   0  11  -1-11.5034 9.99920   1
   0 -11   1-12.5076 10.6443   1
   0  11  -1 9.29379 9.51832   2
   0  11   0 1.09854 10.2293   1
   0 -11   0-15.1007 9.53074   2
   0 -11   0-6.18787 10.3193   1
   0  11   0 7.05743 10.7478   2
   0  11   1 20.6933 10.5260   1
   0  11   1 27.2361 11.4594   2
   0 -11  -1 37.1623 11.1393   2
   0 -11  -1 39.9725 11.9288   1
   0  12  -6 12.3554 6.05678   1
   0 -12   6 8.99795 5.73933   1
   0  12  -5 32.0064 7.22520   1
   0 -12   5 17.2154 6.51526   1
   1 -11  -1 31.4898 12.3884   1
  -1  11   1 31.4142 10.7350   1
  -1  11   1-25.4743 11.2989   2
   1 -11  -1-4.31349 9.68918   2
  -1  11   0-18.7449 10.1496   1
  -1  11   0-9.96273 10.5507   2
   1 -11   0 0.40522 9.25180   2
   1 -11   0-18.2766 10.4165   1
  -1  11  -1 32.5326 10.6515   2
  -1  11  -1 44.5822 10.3164   1
   1 -11   1 19.4002 9.19643   1
  -1  11  -2-20.4239 10.8818   2
  -1  11  -2-4.97065 8.87538   1
   1 -11   2 1.45028 8.03011   2
   1 -11   2 3.67213 8.27145   1
  -1  11  -3 19.6554 9.80706   2
   1 -11   3 4.21691 7.72508   1
   1 -11   3 20.0642 8.77544   2
  -1  11  -3-4.26707 8.49509   1
   1 -11   4-9.03486 7.30225   1
  -1  11  -4 10.5907 7.19482   1
   1 -11   4-9.49809 9.56684   2
  -1  11  -4 6.30912 8.89862   2
  -1  11  -5 4.56970 8.85217   2
   1 -11   5 7.61220 7.38146   1
   1 -11   5 20.9772 8.98858   2
  -1  11  -5 5.28437 6.77766   1
  -1  11  -6 10.5758 6.67522   1
   1 -11   6 21.4885 7.58524   1
  -1  11  -6 13.9196 9.32939   2
   1 -11   6 17.7790 8.84787   2
  -1  11  -7-0.77995 6.62190   1
   1 -11   7-6.40903 10.4365   2
  -1  11  -7 1.46884 10.0857   2
   1 -11   7 9.90347 6.33308   1
  -1  11  -8-11.6478 9.70117   2
  -1  11  -8-3.68085 5.99981   1
   1 -11   8 1.97726 6.40537   1
   1 -11   8 10.4242 8.40217   2
   1 -11   9 5.61501 10.7830   2
  -1  11  -9 19.1820 11.0728   2
  -1  11  -9 4.97575 5.76971   1
   1 -11   9-1.42763 6.27441   1
  -1  11 -10-1.04463 9.60808   2
   1 -11  10 10.0795 11.4506   2
  -1  11 -10-7.10554 5.37846   1
   1 -11  10-0.22396 5.62256   1
   1 -10  -4-7.96208 10.7815   1
  -1  10   4 5.70660 11.1101   1
   1 -10  -4 6.89914 9.74927   2
  -1  10   3 4.68693 8.85871   1
   1 -10  -3 9.63045 9.32957   2
   1 -10  -3 2.68621 9.68593   1
  -1  10   3 12.0175 9.94477   2
  -1  10   2 30.2894 9.63793   1
  -1  10   2 40.4473 9.40608   2
   1 -10  -2 45.3026 10.8483   1
   1 -10  -1 0.15240 8.71257   1
  -1  10   1 5.12624 7.59180   1
   1 -10  -1-0.64640 8.32652   2
   1 -10   0 18.7498 7.51295   2
  -1  10   0 8.31638 8.14556   1
   1 -10   0 22.1911 8.76694   1
  -1  10   0 12.8995 7.66978   2
   1 -10   1 23.2290 8.69382   2
   1 -10   1 35.3390 7.75796   1
  -1  10  -1 15.1898 7.97353   2
  -1  10  -1 34.5684 7.95762   1
   1 -10   2-1.51404 6.70705   1
  -1  10  -2 6.08375 7.51915   2
  -1  10  -2-1.94180 6.52481   1
   1 -10   2 1.38308 7.44503   2
  -1  10  -3-1.04868 6.34431   1
  -1  10  -3-6.93460 8.05022   2
   1 -10   3-0.27711 7.45990   2
   1 -10   4-2.35864 6.43595   2
   1 -10   4-0.33209 5.53613   1
  -1  10  -4-7.61694 5.92387   1
  -1  10  -5 11.2293 5.47302   1
   1 -10   5 11.8821 5.58848   1
   1 -10   5 14.4156 7.65879   2
  -1  10  -5 22.6888 7.14237   2
   1 -10   6 11.0113 6.79581   2
  -1  10  -6-4.20521 7.98827   2
  -1  10  -6 4.17321 5.23246   1
   1 -10   6-4.22203 5.59302   1
  -1  10  -7 6.92945 4.73258   1
  -1  10  -7 13.4125 7.56183   2
   1 -10   7 7.49350 6.27132   2
   1 -10   7 7.29035 4.97337   1
   1 -10   8 29.7700 8.76452   2
  -1  10  -8 38.5001 5.88458   1
   1 -10   8 31.8174 5.73878   1
  -1  10  -8 31.4015 8.95765   2
  -1  10  -9 5.80916 7.55479   2
  -1  10  -9 5.23270 4.49608   1
   1 -10   9 22.2285 9.03745   2
   1 -10   9 7.03409 4.69442   1
   1 -10  10-0.78535 8.86951   2
   1 -10  10 3.35680 4.40852   1
  -1  10 -10-10.5341 9.13695   2
  -1  10 -10 4.33722 4.13672   1
   1 -10  11 8.01619 3.45442   1
   1 -10  11 5.77647 3.29226   1
   1 -10  11 13.0054 9.88596   2
  -1  10 -11 4.03899 9.59747   2
  -1  10 -12 9.65462 9.96448   2
   1 -10  12 9.82568 11.4184   2
   1  -9  -6 1.39085 11.2364   1
  -1   9   6-0.09020 9.37948   1
   1  -9  -6 21.1674 10.2006   2
   1  -9  -5-17.8375 9.18686   1
  -1   9   5-3.37776 9.23379   1
   1  -9  -5 1.28790 8.05774   2
   1  -9  -4 28.2868 9.45721   2
   1  -9  -4 34.1794 9.84922   1
  -1   9   4 29.8724 9.20345   1
  -1   9   4 41.5223 9.23081   2
  -1   9   3-4.17964 7.19719   2
  -1   9   3-5.39928 7.96104   1
   1  -9  -3 18.1398 8.27709   1
   1  -9  -3 5.41097 7.41769   2
  -1   9   2 2.98496 6.81341   2
  -1   9   2 8.23683 6.81641   1
   1  -9  -2 6.36523 6.87796   2
   1  -9  -2-6.74674 7.46656   1
   1  -9  -1-1.57745 6.46629   1
  -1   9   1-6.02774 6.02373   1
  -1   9   1-2.02199 6.57854   2
   1  -9  -1 3.20684 5.95893   2
   1  -9   0 2.22761 5.17376   2
  -1   9   0 4.00970 5.48171   1
  -1   9   0-0.55715 6.11006   2
   1  -9   0 3.43905 5.96016   1
   1  -9   1 39.3556 6.96054   2
  -1   9  -1 37.7214 6.71548   1
   1  -9   1 53.3439 7.32135   1
  -1   9  -1 54.9366 7.89639   2
   1  -9   2 17.8089 6.79226   2
   1  -9   2 17.4606 5.72447   1
  -1   9  -2 10.1239 6.22043   2
  -1   9  -2 20.4328 5.57706   1
   1  -9   3 1.09932 4.64219   1
  -1   9  -3-4.24761 5.48253   2
  -1   9  -3-1.98048 4.64472   1
   1  -9   3 3.45936 4.68483   2
   1  -9   4 13.1277 4.99114   1
  -1   9  -4 27.9293 6.75002   2
  -1   9  -4 24.3317 5.25875   1
   1  -9   4 23.7332 6.26203   2
  -1   9  -5 20.0439 6.28398   2
   1  -9   5 23.7118 5.16681   1
  -1   9  -5 21.6544 4.85074   1
   1  -9   5 32.4215 6.93150   2
   1  -9   6 5.34299 3.89587   1
  -1   9  -6 3.80151 3.81110   1
  -1   9  -6-2.75790 5.36764   2
   1  -9   6 1.65415 5.69675   2
   1  -9   7 1.45413 3.96380   1
  -1   9  -7-1.53456 4.07929   1
   1  -9   7-2.82031 5.33671   2
  -1   9  -7 3.70829 6.23156   2
   1  -9   8 40.5042 7.90826   2
   1  -9   8 48.9716 5.49417   1
  -1   9  -8 42.5793 5.17708   1
  -1   9  -8 57.2124 8.58563   2
  -1   9  -9 38.2714 8.02572   2
  -1   9  -9 33.2380 4.46865   1
   1  -9   9 18.8569 7.81814   2
   1  -9   9 35.6978 4.51590   1
   1  -9  10 17.7343 3.53988   1
  -1   9 -10 1.80254 6.43126   2
  -1   9 -10 7.71745 3.03961   1
   1  -9  10 15.5885 7.65192   2
   1  -9  11 30.3846 2.93042   1
   1  -9  11 29.7401 9.00662   2
  -1   9 -11 31.7871 8.36442   2
   1  -9  11 22.8046 2.72061   1
  -1   9 -12 12.3061 8.55839   2
   1  -9  12 21.7483 8.84387   2
  -1   9 -13-1.91979 8.31946   2
  -1   9 -14 27.5818 9.53145   2
   1  -8  -8 17.4385 11.5267   1
   1  -8  -8 0.43803 9.32005   2
  -1   8   8 19.7318 11.8595   1
   1  -8  -7-17.4900 9.20049   2
   1  -8  -7 9.51192 9.86913   1
  -1   8   7-9.50234 9.34629   1
   1  -8  -6 44.7536 10.5821   1
   1  -8  -6 38.9536 8.98866   2
  -1   8   6 40.7370 10.5104   1
  -1   8   5 17.8355 7.81737   1
   1  -8  -5 8.53458 7.02954   1
   1  -8  -5 13.6489 6.86057   2
  -1   8   4 8.44229 6.36144   1
   1  -8  -4 1.77112 5.62972   2
   1  -8  -4 3.78348 7.41337   1
  -1   8   4 1.14486 6.09928   2
   1  -8  -3 15.1987 6.05548   2
  -1   8   3 28.5126 6.67266   2
  -1   8   3 22.9408 7.42784   1
   1  -8  -3 12.8686 6.53197   1
  -1   8   2-2.31984 5.72105   1
   1  -8  -2-3.44477 5.46486   1
  -1   8   2 3.25155 5.18235   2
   1  -8  -2 0.81371 4.56064   2
  -1   8   1 117.730 9.43230   1
   1  -8  -1 114.520 9.06499   2
  -1   8   1 120.651 9.78827   2
   1  -8  -1 131.100 9.87039   1
   1  -8   0 4.13466 4.67354   2
  -1   8   0 1.75079 4.14329   1
   1  -8   0 0.36522 4.17318   1
  -1   8   0 4.20459 4.47201   2
  -1   8  -1 19.1419 5.25846   2
  -1   8  -1 25.6211 5.63114   1
   1  -8   1 24.0496 5.42186   2
   1  -8   1 20.0082 5.31196   1
   1  -8   2 80.3509 7.93182   2
  -1   8  -2 84.8884 8.09773   2
   1  -8   2 82.9241 7.27994   1
  -1   8  -2 86.5274 7.33299   1
   1  -8   3 287.175 11.8323   1
  -1   8  -3 309.760 12.2131   1
  -1   8  -3 294.399 13.0932   2
   1  -8   3 281.434 12.8467   2
   1  -8   4 0.46335 4.39818   2
  -1   8  -4 2.26782 3.44717   1
  -1   8  -4 10.3585 4.74792   2
   1  -8   4 14.9104 4.07909   1
   1  -8   5 16.6125 5.41912   2
   1  -8   5 5.03480 3.55345   1
  -1   8  -5 10.1501 3.57165   1
  -1   8  -5 7.01301 4.08069   2
   1  -8   6 155.135 10.2749   2
  -1   8  -6 165.994 10.5140   2
  -1   8  -6 146.999 7.56493   1
   1  -8   6 167.223 8.20755   1
   1  -8   7 2.20032 2.96429   1
  -1   8  -7 4.82659 5.27340   2
  -1   8  -7 1.30374 2.92418   1
   1  -8   7 8.76425 5.21606   2
   1  -8   8 0.17737 2.77542   1
  -1   8  -8-2.44911 2.72865   1
   1  -8   8 7.77452 5.41353   2
  -1   8  -8-4.81604 5.59407   2
   1  -8   9 2.29430 4.87008   2
   1  -8   9 4.62917 2.60496   1
  -1   8  -9 3.14356 2.44687   1
  -1   8  -9 2.48931 4.66391   2
  -1   8 -10 25.0326 7.27869   2
   1  -8  10 20.1202 2.69466   1
   1  -8  10 23.8593 7.60315   2
   1  -8  10 25.3777 2.81332   1
   1  -8  11 17.1722 6.60653   2
  -1   8 -11 7.46901 6.24111   2
  -1   8 -12-1.86564 7.41665   2
  -1   8 -13 22.1542 8.89864   2
  -1   8 -14 16.6874 9.69383   2
  -1   8 -15 3.23455 7.29246   2
   1  -7  -9-7.39621 11.3729   1
  -1   7   9 7.94637 9.37229   1
   1  -7  -9 15.9432 8.44390   2
   1  -7  -8 18.5254 8.19547   2
   1  -7  -8 34.8098 10.3221   1
  -1   7   8 22.8134 8.43079   1
   1  -7  -7 58.0754 9.62817   1
  -1   7   7 48.5228 9.31621   1
   1  -7  -7 48.7492 8.07672   2
   1  -7  -6 34.0970 8.66565   1
  -1   7   6 40.7167 7.70947   1
   1  -7  -6 27.4723 7.28074   2
   1  -7  -5 11.1575 5.45535   2
  -1   7   5 18.5484 6.21450   1
   1  -7  -5 15.5760 6.58788   1
   1  -7  -4 7.90732 5.15173   1
  -1   7   4 4.53876 4.39056   2
  -1   7   4 2.55607 5.20349   1
   1  -7  -4 1.45889 4.99021   2
   1  -7  -3-3.58303 4.57729   2
  -1   7   3 7.59518 4.53739   2
   1  -7  -3 0.55808 5.13345   1
  -1   7   3 3.07758 4.87037   1
  -1   7   2 21.2529 5.05555   2
   1  -7  -2 14.2651 4.96742   2
   1  -7  -2 22.4232 5.35748   1
  -1   7   2 26.8670 5.32489   1
  -1   7   1 230.447 11.3631   1
  -1   7   1 242.934 11.3895   2
   1  -7  -1 240.504 11.4621   1
   1  -7  -1 234.621 10.9775   2
  -1   7   0 14.8693 4.42627   2
  -1   7   0 23.6398 4.86036   1
   1  -7   0 14.1979 4.13857   2
   1  -7   0 21.3479 4.40292   1
   1  -7   1 39.7560 5.11361   1
   1  -7   1 46.4501 5.49110   2
  -1   7  -1 46.0126 5.64730   1
  -1   7  -1 48.4912 6.06437   2
  -1   7  -2 2.89111 3.38445   1
  -1   7  -2 2.56764 3.66241   2
   1  -7   2-0.33407 2.98867   1
   1  -7   2-0.21223 3.80729   2
   1  -7   3-1.94354 3.89900   2
  -1   7  -3-2.75845 2.84978   1
   1  -7   3 0.44336 2.99368   1
  -1   7  -3-2.44966 3.65476   2
  -1   7  -4 38.2508 4.41710   1
  -1   7  -4 30.7035 5.19752   2
   1  -7   4 27.4352 5.17538   2
   1  -7   4 34.8781 4.34468   1
  -1   7  -5 3.88486 3.98986   2
   1  -7   5 3.90081 4.21327   2
  -1   7  -5 3.48613 2.53357   1
   1  -7   5 3.60567 2.52897   1
   1  -7   6 127.906 8.86797   2
  -1   7  -6 112.384 8.42613   2
  -1   7  -6 139.980 6.42128   1
   1  -7   6 145.261 6.62567   1
   1  -7   7 0.19814 2.24425   1
   1  -7   7-2.57522 4.45033   2
  -1   7  -7 1.83858 2.21564   1
  -1   7  -7 5.75123 3.96483   2
  -1   7  -8 12.5503 4.76948   2
  -1   7  -8 19.1766 2.69510   1
   1  -7   8 17.4538 2.70157   1
   1  -7   8 26.6597 5.82256   2
  -1   7  -9 0.26445 4.74267   2
   1  -7   9 1.63162 1.70006   1
  -1   7 -10 139.403 10.1575   2
   1  -7  10 143.942 3.27806   1
   1  -7  10 149.491 10.8548   2
   1  -7  11-5.68267 5.66919   2
  -1   7 -11 2.15066 5.87943   2
  -1   7 -12 11.9755 6.09222   2
  -1   7 -13-11.9980 7.73515   2
  -1   7 -14-21.9058 8.96798   2
  -1   7 -15-19.3532 9.53276   2
   1  -6 -11 1.02151 10.0249   1
  -1   6  11 5.59278 9.23673   1
   1  -6 -11-6.82475 8.82310   2
   1  -6 -10-7.12539 7.32522   2
  -1   6  10-12.8099 10.4423   1
   1  -6  -9 23.7154 9.23743   1
  -1   6   9 41.7004 10.2642   1
   1  -6  -9 19.8587 7.33322   2
  -1   6   8 20.0631 7.79255   1
   1  -6  -8 30.1941 7.62193   1
   1  -6  -8 28.6917 6.62105   2
   1  -6  -7 36.7520 7.60829   1
   1  -6  -7 44.9612 7.03323   2
  -1   6   7 33.5007 7.67003   1
   1  -6  -6 5.23315 5.93249   1
  -1   6   6-2.87218 5.52317   1
   1  -6  -6-5.42137 4.34991   2
  -1   6   5 2.30808 4.16652   1
   1  -6  -5 4.12459 4.94502   1
   1  -6  -5 1.65291 3.89011   2
  -1   6   4 61.0677 6.37673   2
   1  -6  -4 61.2182 6.34845   2
  -1   6   4 61.4201 7.11306   1
   1  -6  -4 61.6063 7.18975   1
   1  -6  -3 0.90208 4.10764   1
   1  -6  -3 9.00647 3.70141   2
  -1   6   3 5.13564 3.93655   2
  -1   6   3 5.06628 3.77412   1
   1  -6  -2 57.2128 5.67941   2
  -1   6   2 79.9726 6.40988   2
  -1   6   2 71.0310 6.49281   1
   1  -6  -2 69.4145 6.36038   1
  -1   6   1 73.9156 5.98752   2
  -1   6   1 69.3175 6.24930   1
   1  -6  -1 74.2925 6.54842   1
   1  -6  -1 70.8421 5.91170   2
  -1   6   0 3.90713 3.17255   2
   1  -6   0 10.1274 3.26249   2
  -1   6   0 8.54976 3.18556   1
   1  -6   0 4.13433 3.28345   1
   1  -6   1 270.199 10.2985   2
  -1   6  -1 255.681 10.2958   2
   1  -6   1 257.551 9.80154   1
  -1   6  -1 264.587 9.85393   1
  -1   6  -2 3.49293 2.57746   1
   1  -6   2 8.29667 3.58019   2
  -1   6  -2 3.58885 2.89885   2
   1  -6   2 5.18262 2.69525   1
  -1   6  -3 19.6664 4.04836   2
  -1   6  -3 24.2206 3.39824   1
   1  -6   3 17.1953 3.83055   2
   1  -6   3 17.1810 3.11373   1
  -1   6  -4 3.78406 3.05295   2
  -1   6  -4 10.1185 2.56473   1
   1  -6   4 9.92371 3.19195   2
   1  -6   4 14.1751 2.79532   1
   1  -6   5 84.1639 4.81083   1
  -1   6  -5 82.9667 4.62019   1
  -1   6  -5 85.8202 6.58379   2
   1  -6   5 84.9793 6.69273   2
  -1   6  -6 259.074 10.7827   2
   1  -6   6 229.158 10.4499   2
  -1   6  -6 248.987 7.04114   1
   1  -6   6 243.512 7.10346   1
   1  -6   7 33.1129 5.19570   2
  -1   6  -7 33.9928 2.71498   1
   1  -6   7 34.2671 2.85988   1
  -1   6  -7 34.5687 5.31421   2
   1  -6   8 33.2193 2.31675   1
  -1   6  -8 31.8585 5.45370   2
   1  -6   8 39.1811 5.51219   2
   1  -6   9 14.4854 4.69350   2
   1  -6   9 12.0177 1.11567   1
  -1   6  -9 15.8926 4.86401   2
   1  -6   9 15.2882 1.19971   1
  -1   6 -10 8.73178 4.47069   2
  -1   6 -11 1.91811 5.38769   2
  -1   6 -12 2.73565 6.24717   2
  -1   6 -13 39.4686 7.98339   2
  -1   6 -14 17.6939 9.06569   2
  -1   6 -15-1.60242 9.96730   2
  -1   6 -16 15.7650 7.90777   2
  -1   5  12-5.15149 10.0525   1
   1  -5 -12 26.9323 12.6581   1
   1  -5 -12 3.83335 8.84762   2
   1  -5 -11 3.79108 7.13343   2
   1  -5 -11-9.23793 9.70751   1
  -1   5  11 5.42600 9.16138   1
   1  -5 -10 45.7099 9.01889   1
   1  -5 -10 61.0752 8.16962   2
  -1   5  10 56.7136 9.63004   1
   1  -5  -9 31.7951 6.49218   2
  -1   5   9 31.3644 7.95292   1
   1  -5  -9 28.2131 8.19671   1
  -1   5   8 11.8191 6.11226   1
   1  -5  -8 12.1733 5.01728   2
   1  -5  -8 23.0190 6.81115   1
  -1   5   7 4.16616 5.08428   1
   1  -5  -7 1.74152 4.28377   1
   1  -5  -6 12.9085 5.47563   1
   1  -5  -6 7.77292 3.97023   2
  -1   5   6 3.38858 3.79447   1
   1  -5  -5 10.2068 3.82861   2
  -1   5   5 8.27782 4.22446   1
   1  -5  -5 9.98946 4.00699   1
   1  -5  -4 49.9070 5.15148   2
  -1   5   4 47.0263 5.86878   1
  -1   5   4 41.1672 4.80976   2
   1  -5  -4 46.8266 5.98587   1
  -1   5   3 4.98290 3.12640   2
   1  -5  -3 1.27883 2.69907   1
   1  -5  -3 1.20064 2.92498   2
  -1   5   3-2.08866 3.00467   1
   1  -5  -2 124.582 6.89058   2
  -1   5   2 114.628 6.68739   2
   1  -5  -2 111.225 7.13266   1
  -1   5   2 124.936 7.44032   1
  -1   5   1 86.1583 5.79158   2
   1  -5  -1 83.4642 5.64833   2
   1  -5  -1 76.7673 5.56556   1
  -1   5   1 86.3723 5.98890   1
  -1   5   0 8.61152 2.99411   1
   1  -5   0 14.7361 3.19709   2
  -1   5   0 10.2397 3.08442   2
   1  -5   0 15.4661 3.30721   1
  -1   5  -1 9.85346 3.00752   2
  -1   5  -1 7.23913 2.53430   1
   1  -5   1 5.85695 2.52367   1
   1  -5   1 9.81223 2.76976   2
   1  -5   2 16.9724 3.32704   2
  -1   5  -2 13.6281 2.94667   2
   1  -5   2 16.8806 2.76364   1
  -1   5  -2 13.6500 2.56637   1
   1  -5   3 174.995 6.38851   1
   1  -5   3 161.214 7.62178   2
  -1   5  -3 174.427 7.62672   2
  -1   5  -3 171.501 6.22813   1
  -1   5  -4 93.6089 6.00399   2
  -1   5  -4 94.3339 4.37554   1
   1  -5   4 85.0168 5.82896   2
   1  -5   4 91.8109 4.40932   1
   1  -5   5 69.9985 5.71457   2
  -1   5  -5 75.4757 5.84397   2
  -1   5  -5 69.6700 3.46239   1
   1  -5   5 75.6720 3.68622   1
   1  -5   6 20.3819 1.92799   1
  -1   5  -6 20.6520 1.89546   1
   1  -5   6 23.4888 4.11880   2
  -1   5  -6 19.1540 4.06462   2
   1  -5   7 7.80102 3.67970   2
  -1   5  -7 0.88076 3.19410   2
   1  -5   7 4.72231 1.05224   1
  -1   5  -8 167.343 8.97561   2
   1  -5   8 179.346 9.36128   2
  -1   5  -9 2.37724 3.61144   2
  -1   5 -10 27.7893 5.85076   2
  -1   5 -11 93.7701 8.68522   2
  -1   5 -12 21.8280 6.64460   2
  -1   5 -13 87.4276 9.70464   2
  -1   5 -14-2.30277 7.38783   2
  -1   5 -15-8.38521 9.04795   2
  -1   5 -16 3.90140 9.92549   2
   1  -4 -13-8.21481 10.7598   1
   1  -4 -13-5.76061 7.85072   2
  -1   4  13-6.00645 8.96859   1
   1  -4 -12-3.00381 6.73281   2
   1  -4 -12 9.89597 9.07051   1
  -1   4  12-7.16794 8.24423   1
  -1   4  11 12.6362 7.26792   1
   1  -4 -11 0.84824 6.32847   2
   1  -4 -11 1.46342 7.29533   1
   1  -4 -10 3.15150 4.84415   2
  -1   4  10-0.32711 6.54392   1
   1  -4 -10 9.78521 7.16344   1
  -1   4   9 8.44586 5.62251   1
   1  -4  -9 4.51057 4.26330   2
   1  -4  -9 7.74464 5.67758   1
   1  -4  -8 69.5473 6.49707   2
  -1   4   8 75.1068 7.96965   1
   1  -4  -8 52.7111 7.47671   1
  -1   4   7 9.05721 4.56616   1
   1  -4  -7 4.31753 3.50562   2
   1  -4  -7 5.46606 4.55679   1
   1  -4  -6 14.3878 3.66869   2
  -1   4   6 18.6544 4.78017   1
   1  -4  -6 23.9631 4.87015   1
   1  -4  -5 78.2473 5.59192   2
   1  -4  -5 86.7829 7.04289   1
  -1   4   5 79.1649 6.78459   1
  -1   4   4-3.89924 3.23149   1
  -1   4   4 1.00697 2.34074   2
   1  -4  -4-2.81530 2.47431   2
   1  -4  -4 4.60313 3.08270   1
  -1   4   3 513.737 13.6860   1
  -1   4   3 545.206 12.3509   2
   1  -4  -3 565.229 14.3127   1
  -1   4   2 196.923 7.36728   2
   1  -4  -2 180.397 7.00582   2
  -1   4   2 198.923 8.24804   1
   1  -4  -2 192.792 8.11927   1
  -1   4   1 109.052 5.78098   1
  -1   4   1 114.342 5.57863   2
   1  -4  -1 108.204 5.35891   2
   1  -4  -1 99.7260 5.54310   1
   1  -4   0 50.2917 3.89606   2
  -1   4   0 46.9499 3.86763   2
   1  -4   0 47.8507 3.93501   1
  -1   4   0 48.4265 3.92136   1
  -1   4  -1 109.412 5.06950   1
   1  -4   1 107.882 5.29265   2
   1  -4   1 106.270 5.00100   1
  -1   4  -1 105.818 5.26510   2
   1  -4   2 187.998 7.07784   2
  -1   4  -2 190.214 5.93812   1
   1  -4   2 180.708 5.80513   1
  -1   4  -2 177.251 6.76038   2
   1  -4   3 123.872 4.42338   1
   1  -4   3 131.561 6.13345   2
  -1   4  -3 119.169 5.87560   2
  -1   4  -3 123.994 4.38021   1
  -1   4  -4 54.8428 2.68003   1
  -1   4  -4 57.9019 4.61196   2
   1  -4   4 56.4990 4.62903   2
   1  -4   4 55.0037 2.72395   1
   1  -4   5 28.1674 1.71105   1
  -1   4  -5 32.5447 1.79684   1
  -1   4  -5 27.5193 3.92329   2
   1  -4   5 33.5488 4.05722   2
  -1   4  -6 165.787 7.91036   2
   1  -4   6 164.140 2.73721   1
   1  -4   6 172.790 7.84515   2
   1  -4   6 172.969 2.77805   1
   1  -4   7 21.7570 3.88603   2
  -1   4  -7 23.4610 3.97623   2
  -1   4  -8 77.4159 6.12589   2
  -1   4  -9 17.5498 4.45226   2
  -1   4 -10 6.98545 4.29819   2
  -1   4 -11 40.3502 6.42074   2
  -1   4 -12-7.74548 5.75948   2
  -1   4 -13-6.97828 5.97591   2
  -1   4 -14 1.18303 6.67541   2
  -1   4 -15 12.6211 7.39258   2
  -1   4 -16 21.4371 9.55184   2
   1  -3 -14-9.87556 10.1776   1
  -1   3  14-3.50437 9.13511   1
   1  -3 -14-9.56815 8.09762   2
   1  -3 -13 12.7004 7.30541   2
   1  -3 -13 14.5774 8.49879   1
  -1   3  13 8.01197 8.43088   1
   1  -3 -12 14.9561 6.27393   2
  -1   3  12 22.5267 8.01724   1
   1  -3 -12 1.86305 7.11106   1
   1  -3 -11 6.29441 7.08711   1
   1  -3 -11 4.27663 5.05830   2
  -1   3  11-6.47526 5.50122   1
   1  -3 -10 15.4153 4.86996   2
   1  -3 -10 9.88320 5.38718   1
  -1   3  10 6.70383 5.15747   1
  -1   3   9 65.4293 7.32913   1
   1  -3  -9 77.2004 6.52670   2
   1  -3  -9 71.7007 7.87556   1
  -1   3   8 10.8249 4.75902   1
   1  -3  -8 8.49660 4.03344   1
   1  -3  -8 2.39462 3.19970   2
   1  -3  -7-2.99386 4.04002   1
   1  -3  -7-2.19752 2.72821   2
  -1   3   7 1.53914 3.08155   1
   1  -3  -6 11.3141 2.95544   2
  -1   3   6 14.1899 4.00712   1
   1  -3  -6 13.3164 3.81096   1
   1  -3  -5 206.555 7.52918   2
   1  -3  -5 209.604 9.19430   1
  -1   3   5 201.783 9.07362   1
   1  -3  -4 131.195 7.08295   1
  -1   3   4 147.125 6.06716   2
   1  -3  -4 134.904 5.85448   2
  -1   3   4 144.617 7.22893   1
  -1   3   3 79.6281 4.40739   2
   1  -3  -3 86.2533 4.50252   2
   1  -3  -3 85.3723 5.51312   1
  -1   3   3 80.4093 5.35593   1
  -1   3   2 37.7850 3.15337   2
   1  -3  -2 40.5425 3.75449   1
   1  -3  -2 41.7744 3.16722   2
  -1   3   2 37.9612 3.69241   1
  -1   3   1 123.557 4.94651   2
   1  -3  -1 113.230 4.71949   2
   1  -3  -1 126.965 5.51031   1
  -1   3   1 126.322 5.47401   1
  -1   3   0 94.2208 4.38984   1
  -1   3   0 94.5024 4.26963   2
   1  -3   0 88.8489 4.29758   1
   1  -3   0 88.9825 4.21035   2
   1  -3   1 277.775 7.21681   2
  -1   3  -1 263.462 6.34220   1
  -1   3  -1 259.759 7.01835   2
   1  -3   1 268.964 6.39311   1
   1  -3   2 2185.73 20.6610   2
   1  -3   2 2163.46 15.6613   1
  -1   3  -2 2274.19 20.8844   2
  -1   3  -3 30.1407 3.27045   2
  -1   3  -3 32.3905 1.79308   1
   1  -3   3 31.6109 3.22665   2
   1  -3   3 33.0367 1.81350   1
  -1   3  -4 111.266 2.19033   1
   1  -3   4 106.689 5.50370   2
   1  -3   4 110.703 2.20455   1
  -1   3  -4 121.722 5.62902   2
   1  -3   5 30.2350 3.67504   2
  -1   3  -5 28.1614 3.52232   2
  -1   3  -6 38.7810 3.87997   2
  -1   3  -7 49.1013 4.94606   2
  -1   3  -8 59.9666 5.44286   2
  -1   3  -9 79.2839 6.69172   2
   1  -3   9 80.0083 2.46071   1
  -1   3 -10 11.2815 3.97379   2
   1  -3  10 5.63350 1.23209   1
   1  -3  10 6.31840 1.30056   1
   1  -3  11 112.937 3.93748   1
   1  -3  11 118.751 4.04923   1
  -1   3 -11 124.292 8.82589   2
   1  -3  12 0.78824 1.67036   1
  -1   3 -12 3.31030 5.16431   2
   1  -3  12 2.58537 1.71768   1
   1  -3  13-0.35802 2.03368   1
  -1   3 -13 4.64923 5.92005   2
   1  -3  13 0.27970 1.93515   1
   1  -3  14-0.73338 2.37233   1
  -1   3 -14 9.02159 7.06041   2
   1  -3  15 60.3898 4.17449   1
   1  -3  15 53.8128 3.82507   1
  -1   3 -15 56.4345 10.3368   2
   1  -3  16-4.67084 2.47057   1
  -1   3 -16-2.71716 9.45901   2
   1  -2 -14 14.6957 7.12320   2
  -1   2  14 13.6249 8.34751   1
   1  -2 -14 6.36179 8.71283   1
   1  -2 -13 14.9341 6.46129   2
   1  -2 -13 10.5850 7.29708   1
  -1   2  13 0.33269 6.55953   1
   1  -2 -12 3.73942 4.67045   2
  -1   2  12-6.60346 5.88644   1
  -1   2  11 23.0866 5.85567   1
   1  -2 -11 18.3618 5.74339   1
   1  -2 -11 21.6030 5.01239   2
   1  -2 -10 29.8411 6.04241   1
   1  -2 -10 27.7943 4.85033   2
  -1   2  10 38.1631 6.20503   1
   1  -2  -9 127.130 8.87744   1
   1  -2  -9 115.707 6.99280   2
  -1   2   9 130.903 8.72754   1
   1  -2  -8 23.0084 3.68579   2
   1  -2  -8 20.8794 4.20940   1
  -1   2   8 19.9311 4.07743   1
   1  -2  -7 43.9155 4.93490   1
  -1   2   7 41.6740 4.71270   1
   1  -2  -7 44.9038 4.08032   2
   1  -2  -6 26.9505 3.11588   2
   1  -2  -6 23.3898 3.80394   1
  -1   2   6 21.7165 3.48305   1
   1  -2  -5 680.321 11.6357   2
   1  -2  -5 700.387 14.9839   1
  -1   2   5 694.285 14.6509   1
  -1   2   4 147.951 6.65716   1
   1  -2  -4 142.590 6.63137   1
   1  -2  -4 136.373 4.95871   2
   1  -2  -3 258.816 6.15304   2
  -1   2   3 248.509 6.02426   2
   1  -2  -3 244.858 7.77602   1
  -1   2   3 242.347 7.58384   1
   1  -2  -2 2463.36 22.0721   1
  -1   2   2 2355.89 17.0801   2
   1  -2  -2 2329.45 16.8994   2
  -1   2   2 2344.24 21.3479   1
  -1   2   1 1061.71 11.0526   2
   1  -2  -1 1019.14 10.7969   2
   1  -2  -1 1032.15 13.0053   1
  -1   2   1 1036.53 12.9547   1
   1  -2   0 730.566 9.41150   2
  -1   2   0 791.716 10.0291   1
  -1   2   0 795.488 9.72180   2
   1  -2   0 804.563 10.2103   1
   1  -2   1 377.213 6.05465   1
   1  -2   1 405.949 7.45652   2
  -1   2  -1 411.261 7.52887   2
  -1   2  -1 397.653 6.11893   1
   1  -2   2 1092.97 13.1322   2
  -1   2  -2 1088.26 7.97068   1
  -1   2  -2 1091.90 13.0745   2
   1  -2   2 1117.04 8.20649   1
  -1   2  -3 669.436 11.1484   2
   1  -2   3 658.692 11.1556   2
  -1   2  -4 689.086 12.3117   2
  -1   2  -5 5.35692 2.45346   2
   1  -2   6 0.98639 0.49058   1
  -1   2  -6 1.77408 2.57855   2
   1  -2   6 0.97743 0.50192   1
   1  -2   7 11.9018 1.25836   1
  -1   2  -7 13.9301 1.38250   1
  -1   2  -7 10.4975 3.29941   2
  -1   2  -8 275.699 10.4442   2
  -1   2  -8 273.121 5.87972   1
   1  -2   8 267.770 5.66742   1
   1  -2   9 0.26718 1.49778   1
  -1   2  -9-0.70438 1.62725   1
  -1   2  -9 1.98178 3.30324   2
   1  -2  10 7.42417 2.15086   1
  -1   2 -10 7.92129 2.21856   1
  -1   2 -10 0.57571 3.90997   2
   1  -2  11 20.0122 2.93663   1
  -1   2 -11 18.0407 5.36951   2
  -1   2 -11 16.5314 3.02714   1
   1  -2  12 50.9499 4.22419   1
  -1   2 -12 53.1624 7.29995   2
   1  -2  13 14.6928 3.44726   1
  -1   2 -13 19.9860 6.32036   2
   1  -2  13 17.9154 3.71123   1
   1  -2  14 4.50859 3.72883   1
   1  -2  14 3.24941 3.61808   1
  -1   2 -14-0.26485 7.25537   2
   1  -2  15 7.55647 4.22222   1
   1  -2  15 8.04646 4.51002   1
  -1   2 -15 5.22280 8.03749   2
   1  -2  16 13.6238 4.47872   1
   1  -2  16 3.02409 4.14019   1
   1  -1 -15 5.11384 7.31597   2
  -1   1  15 10.4277 9.02365   1
   1  -1 -15 24.5517 7.62031   2
   1  -1 -15-3.09785 9.85976   1
   1  -1 -14 9.91097 8.03563   1
  -1   1  14 17.7880 7.94321   1
   1  -1 -14 24.8985 6.95159   2
   1  -1 -14 11.0971 6.65779   2
   1  -1 -13 1.54724 5.05342   2
   1  -1 -13 5.14185 5.22360   2
  -1   1  13-4.67629 6.40116   1
   1  -1 -13 1.37135 6.14319   1
   1  -1 -12 20.9751 5.05400   2
   1  -1 -12 21.8836 6.04680   1
  -1   1  12 23.6504 6.26864   1
   1  -1 -11 19.4801 5.32855   1
  -1   1  11 25.0486 5.76093   1
   1  -1 -11 25.7642 4.77409   2
   1  -1 -10 14.6712 4.83151   1
   1  -1 -10 7.97724 3.54065   2
  -1   1  10 7.53771 4.17441   1
   1  -1  -9 9.28117 3.10739   2
   1  -1  -9 10.8952 4.04391   1
  -1   1   9 11.6017 4.06486   1
  -1   1   8 14.4583 3.77167   1
   1  -1  -8 17.8718 3.18503   2
   1  -1  -8 23.2909 4.05889   1
  -1   1   7 238.161 9.25906   1
   1  -1  -7 248.604 9.77743   1
   1  -1  -7 260.189 7.80669   2
   1  -1  -6 10.7018 2.80296   1
   1  -1  -6 7.04963 1.94100   2
  -1   1   6 9.33631 2.88621   1
   1  -1  -5 197.512 5.50383   2
   1  -1  -5 201.394 7.60260   1
  -1   1   5 189.952 7.30772   1
   1  -1  -4 122.732 5.66085   1
   1  -1  -4 121.280 3.81989   2
  -1   1   4 119.101 5.42009   1
   1  -1  -3 187.084 6.15936   1
  -1   1   3 180.979 6.08387   1
   1  -1  -3 195.903 4.08284   2
   1  -1  -2 951.052 7.56838   2
  -1   1   2 936.482 7.56804   2
   1  -1  -2 871.472 11.9089   1
  -1   1   2 889.079 11.8444   1
   1  -1  -1 1849.08 15.3181   1
  -1   1   1 1886.33 10.3894   2
  -1   1   1 1853.39 15.1861   1
   1  -1  -1 1869.48 10.4120   2
  -1   1   0 3.81868 1.24724   1
   1  -1   0 4.76655 1.21450   1
  -1   1   0 2.21535 0.92077   2
   1  -1   0 3.64324 1.02996   2
   1  -1   1 128.963 3.81562   2
  -1   1  -1 121.207 2.89322   1
  -1   1  -1 122.139 2.77870   1
  -1   1  -1 126.596 3.79499   2
  -1   1  -2 67.8485 3.22277   2
   1  -1   2 66.2369 1.68595   1
  -1   1  -2 67.9150 1.70197   1
   1  -1   3 0.09909 0.46231   1
  -1   1  -3 2.04855 1.47880   2
  -1   1  -3 0.55125 0.48731   1
   1  -1   4 15.3940 1.13373   1
  -1   1  -4 16.0169 1.15794   1
   1  -1   5 629.797 7.43624   1
  -1   1  -5 619.695 7.42053   1
   1  -1   6 335.002 6.38904   1
  -1   1  -6 328.562 6.37477   1
  -1   1  -7 111.423 4.37823   1
   1  -1   7 107.097 4.24401   1
   1  -1   8 5.75717 1.95261   1
  -1   1  -8 5.39214 2.00481   1
   1  -1   9 62.2701 4.21632   1
  -1   1  -9 64.6826 4.33341   1
  -1   1  -9 68.2211 6.50982   2
   1  -1  10 5.87560 2.63357   1
  -1   1 -10 3.41676 2.61226   1
  -1   1 -10-0.90801 3.48105   2
  -1   1 -11 27.1758 6.11825   2
  -1   1 -11 27.8232 3.99800   1
   1  -1  11 24.3699 3.76069   1
  -1   1 -12 11.0267 3.82919   1
  -1   1 -12 12.4456 5.76226   2
   1  -1  12 7.41085 3.58629   1
   1  -1  13 56.2541 5.61911   1
  -1   1 -13 66.5124 6.49732   1
  -1   1 -13 66.6441 8.44092   2
  -1   1 -14-4.28856 6.99884   2
  -1   1 -14 12.9400 5.48429   1
   1  -1  14-0.76089 4.31129   1
   1  -1  15 15.9849 5.76422   1
  -1   1 -15 31.2863 9.71582   2
  -1   1 -15 19.6937 6.22446   1
   1   0 -16-4.53161 7.89854   1
  -1   0  16-11.4958 7.96884   1
   1   0 -16-3.46424 6.71421   2
   1   0 -16 5.84343 6.90493   2
  -1   0  15 14.0400 7.49367   1
   1   0 -15-11.0345 7.43438   2
   1   0 -15 4.83085 6.77475   2
   1   0 -15-12.0209 8.38612   1
  -1   0  14-4.81500 6.79009   1
   1   0 -14 0.43102 6.38001   1
   1   0 -14 7.11745 5.89085   2
   1   0 -14-7.16238 6.04052   2
   1   0 -13 13.8542 5.28400   2
   1   0 -13 20.0865 6.40303   1
  -1   0  13 19.1896 5.73217   1
   1   0 -12 20.0594 4.65954   2
  -1   0  12 25.5741 5.45554   1
   1   0 -12 21.1819 5.84080   1
  -1   0  11 236.707 11.0566   1
   1   0 -11 236.688 9.80231   2
   1   0 -11 225.311 11.2465   1
   1   0 -10 27.3233 3.93956   2
  -1   0  10 21.9135 4.50284   1
   1   0 -10 29.3337 5.13461   1
   1   0  -9-0.59531 2.96731   1
  -1   0   9 3.76424 2.99487   1
   1   0  -8 52.9198 5.03998   1
  -1   0   8 51.7127 4.75796   1
  -1   0   7-2.75816 2.40312   1
   1   0  -7 5.86178 2.80723   1
   1   0  -6 79.8737 5.15962   1
  -1   0   6 72.4406 4.75742   1
  -1   0   5 32.7011 3.22341   1
   1   0  -5 36.8593 3.54403   1
   1   0  -4 494.392 10.0022   1
  -1   0   4 510.580 10.0946   1
   1   0  -3 633.869 10.3681   1
  -1   0   3 627.507 10.3014   1
  -1   0   2 95.2323 3.88032   1
   1   0  -2 96.7218 3.82576   1
  -1   0   1 25.8837 2.17177   1
  -1   0   1 24.8959 2.03245   1
   1   0   0 1510.72 11.3985   1
  -1   0   0 1554.72 11.5074   1
  -1   0  -1 3.82589 1.02989   1
   1   0   1 4.11284 1.04877   1
  -1   0  -2 297.136 5.10752   1
   1   0   2 306.399 5.16967   1
   1   0   3 13.0358 1.50602   1
  -1   0  -3 13.6755 1.60254   1
   1   0   4 691.828 9.37994   1
  -1   0  -4 688.333 9.40306   1
   1   0   5 14.4587 2.01419   1
  -1   0  -5 16.0399 2.05067   1
  -1   0  -6 24.7861 2.61188   1
   1   0   6 20.7845 2.51991   1
   1   0   7 78.3219 4.46863   1
  -1   0  -7 75.9683 4.48200   1
  -1   0  -8 6.99693 2.48768   1
   1   0   8 10.0763 2.57815   1
  -1   0  -9 14.0234 3.24972   1
   1   0   9 16.6257 3.16176   1
   1   0  10 57.1520 5.07445   1
  -1   0 -10 59.8766 5.39040   1
   1   0  11 32.6752 4.79239   1
  -1   0 -11 35.6083 4.92027   1
   1   0  12 53.8588 5.96501   1
  -1   0 -12 50.1878 6.14093   1
   1   0  13 47.9857 6.53754   1
  -1   0 -13 36.5018 6.38646   1
  -1   0 -13 47.7010 8.99477   2
  -1   0 -14 3.70917 6.22373   1
   1   0  14 3.77077 5.56104   1
  -1   0 -14-5.68310 7.57341   2
   1   0  15 3.94534 6.67030   1
  -1   0 -15 11.2494 7.55469   1
  -1   0 -15 15.2946 10.6516   2
   1   1 -16-3.82734 7.54474   2
  -1  -1  16 10.1430 7.79792   1
  -1  -1  16 4.85669 8.36585   1
   1   1 -15 13.6622 6.85156   2
  -1  -1  15 12.9547 6.70514   1
   1   1 -14 15.3750 5.48105   2
  -1  -1  14 28.6837 6.47423   1
  -1  -1  13-4.24196 4.53825   1
   1   1 -13 0.37613 4.24753   2
   1   1 -13 0.20610 5.01650   1
   1   1 -12 77.1110 6.56795   2
   1   1 -12 66.7157 7.14018   1
  -1  -1  12 69.8247 6.83942   1
   1   1 -11 31.1531 4.50136   2
   1   1 -11 26.5248 5.09048   1
  -1  -1  11 30.9016 4.97969   1
   1   1 -10 37.3610 4.22277   2
  -1  -1  10 36.8499 4.74758   1
   1   1 -10 36.2726 4.94966   1
   1   1  -9-0.61335 2.22812   2
  -1  -1   9-0.76574 2.55304   1
   1   1  -9 3.27411 2.99806   1
   1   1  -8 26.0024 3.64491   1
  -1  -1   8 22.4573 3.45903   1
   1   1  -8 25.2992 3.00088   2
   1   1  -7 30.1970 2.77596   2
   1   1  -7 30.9399 3.56935   1
  -1  -1   7 32.2039 3.52919   1
   1   1  -6 148.215 4.79878   2
  -1  -1   6 144.136 6.19561   1
   1   1  -6 155.698 6.50817   1
   1   1  -5 664.498 8.58137   2
  -1  -1   5 639.514 11.7060   1
   1   1  -4 3061.44 15.7613   2
  -1  -1   4 3049.41 15.8098   2
  -1  -1   4 3063.21 22.8518   1
  -1  -1   4 3082.70 23.7604   1
   1   1  -3 3883.99 15.2657   2
  -1  -1   3 3924.43 25.3126   1
  -1  -1   3 4005.35 24.3141   1
  -1  -1   3 3862.65 15.2624   2
   1   1  -2 1.25790 1.43189   1
   1   1  -2 0.55815 0.78778   2
  -1  -1   2 0.57700 1.21710   1
  -1  -1   2 0.08323 0.74079   2
   1   1  -1 4.46499 1.10305   2
  -1  -1   1 5.66988 1.49253   1
  -1  -1   1 5.56244 1.12520   2
   1   1  -1 6.52234 1.33532   1
  -1  -1   0 46.8977 2.67392   1
   1   1   0 49.9329 2.62963   1
  -1  -1   0 46.3007 2.49080   2
  -1  -1  -1 254.517 5.85344   1
   1   1   1 246.035 5.75948   1
   1   1   2 350.119 7.20937   1
  -1  -1  -2 350.600 7.20683   1
   1   1   3 10.0505 1.93161   1
  -1  -1  -3 8.33854 1.90209   1
  -1  -1  -4 545.670 10.3657   1
   1   1   4 527.744 10.1740   1
   1   1   5 26.8020 2.99285   1
  -1  -1  -5 24.9784 2.97464   1
   1   1   6 102.034 5.46146   1
  -1  -1  -6 102.026 5.44595   1
   1   1   7 10.8597 2.91516   1
  -1  -1  -7 10.1718 2.84280   1
   1   1   8 104.264 6.34256   1
  -1  -1  -8 105.157 6.39768   1
   1   1   9 35.1365 4.65161   1
  -1  -1  -9 42.3868 4.98196   1
   1   1  10 39.8593 5.26217   1
  -1  -1 -10 52.7968 5.72113   1
   1   1  11 12.5609 4.70017   1
  -1  -1 -11 3.41979 4.25487   1
   1   1  12 0.91442 4.50036   1
  -1  -1 -12-4.03783 4.86564   1
  -1  -1 -13 12.3952 6.26853   1
   1   1  13 11.9901 5.83524   1
  -1  -1 -14-3.60394 9.68746   2
   1   1  14 8.75058 6.58941   1
  -1  -1 -14 19.5138 7.55728   1
  -1  -2  16 11.1751 6.99031   1
  -1  -2  16 0.27330 7.11640   1
   1   2 -16 2.81626 7.26575   2
  -1  -2  15 3.25158 5.81862   1
  -1  -2  15-3.82996 5.57635   1
   1   2 -15 6.28273 5.95779   2
  -1  -2  14 0.93668 4.84549   1
  -1  -2  14 7.68453 4.90789   1
   1   2 -14 3.50007 4.96407   2
  -1  -2  13 0.47834 4.23320   1
   1   2 -13 1.59290 4.06934   2
  -1  -2  13 3.26320 4.19190   1
  -1  -2  12 0.15883 3.64270   1
   1   2 -12 0.03646 3.42034   2
  -1  -2  12-5.90840 4.00102   1
  -1  -2  11-0.03631 3.14190   1
  -1  -2  11-2.34119 3.21319   1
   1   2 -11-2.03378 3.16057   2
  -1  -2  10 1.95270 2.83015   1
  -1  -2  10 7.99002 3.17274   1
   1   2 -10 1.64418 2.50646   2
  -1  -2   9-2.32950 2.56376   1
  -1  -2   9-1.71992 2.51526   1
   1   2  -9 0.56702 2.26048   2
  -1  -2   8 5.30059 2.40738   1
   1   2  -8 2.29699 2.01012   2
  -1  -2   8 1.58301 2.28286   1
  -1  -2   7 55.1541 4.14307   1
   1   2  -7 59.8075 3.76599   2
  -1  -2   7 59.4946 4.40369   1
  -1  -2   6 125.933 4.77940   2
  -1  -2   6 118.143 5.37277   1
   1   2  -6 116.899 4.58210   2
  -1  -2   6 103.112 5.26289   1
   1   2  -5 49.6137 2.87960   2
  -1  -2   5 51.7727 2.96960   2
  -1  -2   5 48.6038 3.58677   1
  -1  -2   5 52.3364 3.60589   1
  -1  -2   4 148.705 5.37372   1
   1   2  -4 152.817 4.44857   2
   1   2  -4 147.789 5.34509   1
  -1  -2   4 145.239 4.36735   2
  -1  -2   3 197.980 5.94763   1
   1   2  -3 200.941 5.95840   1
  -1  -2   3 198.898 4.87424   2
   1   2  -3 204.114 4.99728   2
   1   2  -2 6.50667 1.50116   2
  -1  -2   2 3.90627 1.76262   1
   1   2  -2 3.97920 1.51168   1
  -1  -2   2 6.25334 1.51831   2
   1   2  -1 323.319 6.76008   2
  -1  -2   1 312.815 6.61553   2
   1   2  -1 325.072 7.37345   1
  -1  -2   1 322.891 7.33986   1
   1   2   0 3.26688 1.77031   2
  -1  -2   0-2.14368 1.74053   1
  -1  -2   0 0.04522 1.43543   2
   1   2   0 2.35546 1.78816   1
   1   2   1 1321.15 15.7101   1
  -1  -2  -1 1327.27 15.7596   1
  -1  -2  -1 1345.78 15.8563   2
   1   2   2 2774.07 24.0585   1
  -1  -2  -2 2804.38 24.1398   1
  -1  -2  -2 2834.93 24.8906   2
  -1  -2  -3 666.570 13.2026   2
   1   2   3 685.109 12.7294   1
  -1  -2  -3 706.053 13.0349   1
  -1  -2  -4 28.1254 3.21322   1
   1   2   4 31.5176 3.33939   1
  -1  -2  -4 24.7544 3.59353   2
   1   2   5 8.08764 2.62742   1
  -1  -2  -5 8.92316 2.88480   1
  -1  -2  -5 7.20553 3.06423   2
  -1  -2  -6 3.49032 2.76408   1
   1   2   6 9.31700 3.04597   1
   1   2   7 23.4092 3.93498   1
  -1  -2  -7 21.2810 3.80172   1
   1   2   8 15.2063 3.93944   1
  -1  -2  -8 16.8841 4.83906   2
  -1  -2  -8 16.3816 3.94921   1
  -1  -2  -9 62.9613 6.94529   2
  -1  -2  -9 64.3305 6.52697   1
   1   2   9 72.9391 6.55991   1
   1   2  10 4.04572 4.20411   1
  -1  -2 -10 0.38535 4.90637   2
  -1  -2 -10 1.01751 4.27204   1
   1   2  11 1.34117 4.73660   1
  -1  -2 -11-2.24866 6.23705   2
  -1  -2 -11 1.79607 5.18629   1
  -1  -2 -12 1.60195 6.88757   2
  -1  -2 -12 1.63039 5.98327   1
   1   2  12-0.10810 5.69789   1
  -1  -2 -13-0.24364 7.00065   1
   1   2  13 8.77077 6.87873   1
  -1  -2 -13 12.2618 8.75434   2
  -1  -2 -14-0.73176 8.50187   1
  -1  -2 -14 1.35130 9.31437   2
   1   2  14-2.76964 8.29012   1
  -1  -3  16-1.01712 6.61704   1
   1   3 -16-2.72740 6.53900   2
  -1  -3  16 12.2954 6.44493   1
  -1  -3  15 3.02595 5.54050   1
   1   3 -15 7.21606 5.91173   2
  -1  -3  15 1.65119 5.64569   1
  -1  -3  14 2.71887 4.50338   1
   1   3 -14-1.38575 5.39186   2
  -1  -3  14 3.15225 4.81410   1
  -1  -3  13 9.14497 4.45881   1
  -1  -3  13 13.5365 4.55749   1
   1   3 -13 18.1292 5.05234   2
  -1  -3  12 14.8972 4.28188   1
  -1  -3  12 13.1513 4.20642   1
   1   3 -12 13.3469 4.17303   2
   1   3 -11 95.5682 6.55832   2
  -1  -3  11 90.5079 6.38376   1
  -1  -3  11 95.4709 6.65591   1
   1   3 -10-1.71947 2.70205   2
  -1  -3  10 3.93294 3.06593   1
  -1  -3  10-0.18241 2.59903   1
  -1  -3   9 250.263 8.85012   1
  -1  -3   9 254.042 9.26899   1
   1   3  -9 256.156 8.84453   2
  -1  -3   8 9.31754 2.76845   1
  -1  -3   8 8.99504 2.63005   1
   1   3  -8 12.2726 2.74706   2
  -1  -3   7 3.87735 2.02401   2
   1   3  -7 7.27065 2.27203   2
  -1  -3   7 4.19547 2.39282   1
  -1  -3   7 4.81519 2.17321   1
  -1  -3   6 53.7744 3.68338   2
  -1  -3   6 55.5650 4.02634   1
   1   3  -6 52.5710 3.83900   1
   1   3  -6 54.6196 3.67460   2
   1   3  -5 233.928 6.74558   2
   1   3  -5 239.446 7.32934   1
  -1  -3   5 253.407 7.04441   2
  -1  -3   5 238.898 7.41098   1
  -1  -3   4 191.782 5.99801   2
   1   3  -4 198.954 6.14634   2
  -1  -3   4 205.507 6.76777   1
   1   3  -4 203.516 6.60870   1
  -1  -3   3 359.931 8.05728   2
   1   3  -3 357.852 8.09176   2
  -1  -3   3 341.389 8.54506   1
   1   3  -3 339.911 8.56417   1
   1   3  -2 514.035 9.89339   2
  -1  -3   2 477.492 9.51104   2
  -1  -3   2 513.241 10.3878   1
   1   3  -2 490.937 10.2776   1
  -1  -3   1 10.5764 2.33558   2
  -1  -3   1 13.9042 2.61855   1
   1   3  -1 13.2256 2.46155   2
   1   3  -1 11.0960 2.47104   1
   1   3   0 980.972 14.8014   2
  -1  -3   0 1044.72 15.5933   1
   1   3   0 1027.04 15.4059   1
  -1  -3   0 995.081 14.8461   2
  -1  -3  -1 268.482 8.42522   1
   1   3   1 274.477 8.43838   1
  -1  -3  -1 263.733 8.30695   2
   1   3   1 267.955 8.40684   2
  -1  -3  -2 1.40252 2.43451   2
   1   3   2 5.61366 2.52840   1
  -1  -3  -2 10.1362 2.37070   1
   1   3   3 9.79468 2.65729   1
  -1  -3  -3 8.07172 2.88584   1
  -1  -3  -3 13.1101 2.96007   2
  -1  -3  -4 27.0029 3.75429   1
  -1  -3  -4 28.5566 4.16644   2
   1   3   4 24.4523 3.79959   1
   1   3   5 53.8561 5.20184   1
  -1  -3  -5 56.9359 5.45361   2
  -1  -3  -5 56.8875 5.40017   1
   1   3   6 399.654 12.9655   1
  -1  -3  -6 424.349 13.7491   2
  -1  -3  -6 418.701 13.2668   1
   1   3   7 10.1362 3.79525   1
  -1  -3  -7 8.77321 3.80473   1
  -1  -3  -7 11.3241 4.61147   2
  -1  -3  -8 361.188 14.4708   2
   1   3   8 399.624 14.3007   1
  -1  -3  -8 383.558 14.1715   1
  -1  -3  -9 29.4266 6.04845   2
  -1  -3  -9 22.3743 5.49782   1
   1   3   9 21.9174 5.62559   1
  -1  -3 -10 23.1845 7.26498   2
   1   3  10 19.0401 6.03401   1
  -1  -3 -11-2.37358 7.75160   2
  -1  -3 -11-15.3223 6.94901   1
   1   3  11 2.09536 6.26670   1
  -1  -3 -12 1.58455 8.29092   2
   1   3  12 5.03916 6.89525   1
  -1  -3 -12 2.55305 7.53041   1
   1   3  13 18.3927 9.09255   1
  -1  -3 -13 1.48280 8.95274   1
  -1  -3 -13-10.2708 8.50307   2
  -1  -4  16 6.14318 5.90385   1
   1   4 -16 9.75943 7.21307   2
  -1  -4  16-0.88232 6.24148   1
  -1  -4  15 10.1926 5.45706   1
   1   4 -15 7.24072 6.52714   2
  -1  -4  15-2.05029 5.40003   1
   1   4 -14 19.4107 5.84156   2
  -1  -4  14 20.7684 5.00684   1
  -1  -4  14 8.59482 4.61858   1
  -1  -4  13 6.75642 3.99298   1
  -1  -4  13 6.29817 3.90819   1
   1   4 -13 13.9043 4.75591   2
  -1  -4  12 8.72140 3.95136   1
   1   4 -12 12.1065 4.30499   2
  -1  -4  12 0.17661 3.50763   1
   1   4 -11 75.3206 6.25824   2
  -1  -4  11 78.0204 6.08026   1
  -1  -4  11 63.0120 5.72223   1
  -1  -4  10 29.9549 4.04446   1
   1   4 -10 25.6019 4.06087   2
  -1  -4  10 22.5479 4.03415   1
  -1  -4   9 60.4241 5.11798   1
  -1  -4   9 66.0720 5.26549   2
   1   4  -9 71.2384 5.32229   2
  -1  -4   9 65.6261 5.02357   1
  -1  -4   8 62.4052 4.87524   2
   1   4  -8 61.2016 4.79516   2
  -1  -4   8 66.3369 5.08523   1
  -1  -4   8 65.8336 4.86115   1
   1   4  -7 122.821 6.13847   2
  -1  -4   7 129.097 6.24939   2
   1   4  -7 116.875 5.94986   1
  -1  -4   7 128.198 6.20356   1
  -1  -4   6 42.6222 3.87318   2
   1   4  -6 37.0202 3.58986   1
   1   4  -6 31.0744 3.48384   2
  -1  -4   6 37.1574 3.68435   1
   1   4  -5 27.1263 3.19025   1
   1   4  -5 28.5119 3.28679   2
  -1  -4   5 23.8602 3.16861   2
  -1  -4   5 25.5099 3.22828   1
  -1  -4   4 1.26702 1.70348   2
   1   4  -4 2.83480 2.05838   1
   1   4  -4 0.27092 1.99127   2
  -1  -4   4 0.21268 2.09193   1
  -1  -4   3 53.3585 4.10917   1
   1   4  -3 51.7732 4.08116   2
   1   4  -3 53.6671 4.14879   1
  -1  -4   3 48.0427 3.76050   2
   1   4  -2 699.292 13.4386   2
  -1  -4   2 686.428 13.2184   2
   1   4  -2 702.406 13.7671   1
  -1  -4   2 708.574 13.8567   1
  -1  -4   1 12.1713 2.69521   2
   1   4  -1 16.6625 3.13858   1
  -1  -4   1 21.9610 3.32953   1
   1   4  -1 11.8435 2.94847   2
   1   4   0 51.3235 4.34573   2
  -1  -4   0 42.1543 4.20306   1
   1   4   0 45.1516 4.13063   1
  -1  -4   0 43.4830 3.97426   2
  -1  -4  -1 23.3717 3.71529   2
  -1  -4  -1 16.2578 3.19173   1
   1   4   1 14.5540 3.37897   2
   1   4   1 23.7791 3.77364   1
  -1  -4  -2-3.23498 2.94214   2
   1   4   2-3.24921 2.75542   1
  -1  -4  -2-4.68717 2.91461   1
   1   4   3 10.4804 3.10744   1
  -1  -4  -3 9.39607 2.98190   2
  -1  -4  -3 5.87487 3.16863   1
  -1  -4  -4-0.19306 3.34921   2
   1   4   4-1.22793 2.77786   1
  -1  -4  -4-2.32153 3.25260   1
   1   4   5 169.027 9.21823   1
  -1  -4  -5 168.815 9.33839   1
  -1  -4  -5 169.506 9.27307   2
   1   4   6 24.8126 4.82400   1
  -1  -4  -6 18.0898 4.50533   1
  -1  -4  -6 21.8790 5.17410   2
  -1  -4  -7 2.64730 4.10539   2
   1   4   7 9.76947 4.63624   1
  -1  -4  -7 0.24674 4.54100   1
   1   4   8 7.93901 5.00295   1
  -1  -4  -8 6.61015 5.01527   1
  -1  -4  -8 7.97626 5.34745   2
   1   4   9 6.29527 5.61451   1
  -1  -4  -9 7.23640 5.65271   1
  -1  -4  -9 6.77376 5.52048   2
  -1  -4 -10 15.9961 7.28147   2
  -1  -4 -10 9.41432 6.40759   1
   1   4  10 2.00109 6.27389   1
  -1  -4 -11 11.2692 8.06467   2
  -1  -4 -11 9.50947 8.00894   1
   1   4  11-2.56680 7.06570   1
   1   4  12-6.32752 8.64575   1
  -1  -4 -12-9.01773 8.96797   2
  -1  -4 -12-9.10176 9.91373   1
  -1  -5  16 10.0440 5.82841   1
   1   5 -16-2.96459 7.89038   2
  -1  -5  16-1.30498 5.88991   1
  -1  -5  15 4.42748 5.08825   1
  -1  -5  15 7.13366 5.21136   1
   1   5 -15 6.46106 6.67715   2
  -1  -5  14 8.54998 4.71938   1
   1   5 -14 13.5340 5.67502   2
  -1  -5  14 10.9451 4.43265   1
   1   5 -13 68.4535 7.40425   2
  -1  -5  13 66.7323 6.50004   1
  -1  -5  13 61.5270 6.47700   1
  -1  -5  12 19.2370 4.52893   1
   1   5 -12 15.2041 4.93936   2
  -1  -5  12 24.9602 4.56545   1
   1   5 -11 67.6344 6.28073   2
  -1  -5  11 63.1010 5.95281   1
  -1  -5  11 70.3664 5.77288   1
  -1  -5  10 105.193 7.19368   2
  -1  -5  10 102.308 6.51543   1
   1   5 -10 89.5967 6.72994   2
  -1  -5  10 93.3681 6.43748   1
   1   5  -9 4.19540 3.14339   2
  -1  -5   9 0.58025 2.65561   1
  -1  -5   9 1.63560 2.84497   2
  -1  -5   9 1.67402 2.84416   1
   1   5  -8 80.5871 5.51164   1
   1   5  -8 87.5902 6.06073   2
  -1  -5   8 77.9824 5.88148   2
  -1  -5   8 88.4555 5.75659   1
   1   5  -7 32.3871 4.04921   2
   1   5  -7 26.6461 3.65845   1
  -1  -5   7 21.4347 3.77095   2
  -1  -5   7 26.4300 3.61015   1
   1   5  -6 84.6624 5.65317   2
  -1  -5   6 78.5591 5.35367   1
  -1  -5   6 77.3597 5.48395   2
   1   5  -6 79.0382 5.32286   1
   1   5  -5 62.2036 4.93265   1
  -1  -5   5 67.3301 4.96010   1
  -1  -5   5 67.8117 5.09753   2
   1   5  -5 64.6181 5.03677   2
   1   5  -4 3.23301 2.18769   2
  -1  -5   4-0.28435 2.44571   2
  -1  -5   4 1.51484 2.38612   1
   1   5  -4 1.47364 2.54938   1
   1   5  -3 327.247 10.4609   2
  -1  -5   3 338.987 10.4276   2
  -1  -5   3 326.536 10.4555   1
   1   5  -3 346.253 10.7358   1
  -1  -5   2 24.1014 3.67330   1
  -1  -5   2 19.4565 3.53727   2
   1   5  -2 24.6080 3.66595   1
   1   5  -2 24.8064 3.51446   2
  -1  -5   1 6.74668 3.03548   2
   1   5  -1 8.11184 3.30464   2
   1   5  -1 7.04479 2.82624   1
  -1  -5   1 9.03478 2.73708   1
   1   5   0 2.59472 2.90926   2
  -1  -5   0-2.91281 2.58683   2
  -1  -5   0-1.26022 2.91160   1
   1   5   0 0.83155 2.90630   1
  -1  -5  -1 98.4540 6.88845   2
   1   5   1 96.7124 6.83408   1
   1   5   1 93.8178 6.71612   2
  -1  -5  -1 101.035 7.02651   1
  -1  -5  -2 405.960 13.3166   2
  -1  -5  -2 417.547 13.6130   1
   1   5   2 405.622 13.3724   1
   1   5   2 391.986 13.0720   2
  -1  -5  -3 63.2418 6.27600   2
   1   5   3 64.8269 6.39731   1
  -1  -5  -3 70.1010 6.64773   1
   1   5   4 174.769 9.87025   1
  -1  -5  -4 165.069 9.71777   2
  -1  -5  -4 167.855 9.85677   1
   1   5   5 37.3818 5.66402   1
  -1  -5  -5 27.6810 5.57964   2
  -1  -5  -5 39.6139 6.16466   1
  -1  -5  -6 15.7964 5.91581   2
   1   5   6 8.83672 5.40413   1
  -1  -5  -6 13.0294 5.06404   1
  -1  -5  -7 12.1024 5.61479   2
  -1  -5  -7 4.87501 4.86137   1
   1   5   7 3.69760 5.22821   1
   1   5   8 5.91915 5.89853   1
  -1  -5  -8 7.58337 6.97248   2
  -1  -5  -8 1.75813 5.36162   1
  -1  -5  -9 41.2329 8.65425   2
   1   5   9 39.7222 8.46254   1
  -1  -5  -9 34.9086 8.35660   1
  -1  -5 -10 17.7845 9.06204   2
  -1  -5 -10 5.21642 7.98209   1
   1   5  10-6.65331 8.47024   1
  -1  -5 -11 15.1453 10.5994   2
   1   5  11 41.4722 11.2601   1
  -1  -5 -11 38.0894 10.9835   1
  -1  -6  16-0.53801 6.01460   1
  -1  -6  16 5.67341 5.95718   1
  -1  -6  15 14.2834 5.52215   1
  -1  -6  15 0.16206 4.93950   1
   1   6 -15 21.4017 7.65900   2
   1   6 -14 4.14342 5.92247   2
  -1  -6  14-7.16261 4.98876   1
  -1  -6  14 5.38438 4.50886   1
  -1  -6  13 9.60072 4.50013   1
   1   6 -13-4.77880 5.15446   2
  -1  -6  13 3.71602 4.26238   1
  -1  -6  12 6.85074 3.88957   1
   1   6 -12 10.3122 5.10741   2
  -1  -6  12 5.23364 4.07603   1
  -1  -6  11 69.0050 6.33589   1
  -1  -6  11 81.7834 6.59762   1
   1   6 -11 69.6662 6.93804   2
  -1  -6  11 75.6851 7.28987   2
   1   6 -10 34.9586 5.19808   2
  -1  -6  10 34.9383 4.83161   1
  -1  -6  10 29.6794 4.55403   1
  -1  -6  10 43.4890 5.60752   2
   1   6  -9 14.4853 3.77633   1
  -1  -6   9 8.06141 3.97136   2
  -1  -6   9 15.6444 3.86584   1
   1   6  -9 20.1856 4.49107   2
   1   6  -8-1.98514 3.63891   2
   1   6  -8 6.61048 3.17148   1
  -1  -6   8-1.75194 3.33259   2
  -1  -6   8-2.58340 2.98039   1
   1   6  -7 76.9014 6.36735   2
   1   6  -7 75.5526 5.82236   1
  -1  -6   7 75.1513 6.29728   2
  -1  -6   7 72.9692 5.80485   1
  -1  -6   6 0.14481 3.18533   2
   1   6  -6-0.21645 2.72461   2
  -1  -6   6 1.38024 2.87526   1
   1   6  -6 4.53158 2.97807   1
  -1  -6   5 148.922 7.97756   2
   1   6  -5 159.844 8.28243   2
  -1  -6   5 167.340 8.24009   1
   1   6  -5 168.470 8.25291   1
   1   6  -4 124.053 7.59867   2
   1   6  -4 120.780 7.20458   1
  -1  -6   4 122.243 7.15031   2
  -1  -6   4 114.104 7.12050   1
   1   6  -3-0.93981 2.57169   1
  -1  -6   3 3.94348 2.78198   1
  -1  -6   3-0.97253 3.04575   2
   1   6  -3 2.16845 2.93726   2
  -1  -6   2-0.79511 2.97616   1
   1   6  -2 4.55649 3.58565   2
  -1  -6   2 0.41010 2.78772   2
   1   6  -2-3.40135 3.00748   1
  -1  -6   1 2.60811 3.32012   2
   1   6  -1 1.96727 3.04921   2
   1   6  -1 5.53963 3.51689   1
  -1  -6   1 2.89490 3.66688   1
   1   6   0 15.2276 4.33813   2
  -1  -6   0 13.1900 3.99106   2
   1   6   0 11.8113 3.78794   1
  -1  -6   0 10.3534 3.74529   1
   1   6   1 102.879 7.86889   2
  -1  -6  -1 107.390 7.89585   1
   1   6   1 97.4674 7.52105   1
  -1  -6  -1 91.1548 7.46990   2
   1   6   2 57.2186 6.54315   2
  -1  -6  -2 54.5040 6.19862   2
  -1  -6  -2 47.7068 6.28198   1
   1   6   2 54.0893 6.50021   1
   1   6   3-0.76872 4.24678   1
  -1  -6  -3 5.38337 4.92921   2
  -1  -6  -3 0.36037 4.49293   1
  -1  -6  -4 18.7998 5.73346   1
   1   6   4 23.3676 6.01702   1
  -1  -6  -4 19.7405 5.78522   2
  -1  -6  -5 21.2578 6.17269   2
  -1  -6  -5 15.6432 5.95479   1
   1   6   5 18.3523 6.05129   1
   1   6   6-1.06723 4.93468   1
  -1  -6  -6 3.11750 6.18232   2
  -1  -6  -6-0.56678 5.24769   1
  -1  -6  -7 5.01044 6.16677   2
   1   6   7 9.42965 5.94433   1
  -1  -6  -7 4.19065 5.93625   1
  -1  -6  -8 24.2528 8.81824   2
  -1  -6  -8 29.8838 8.89497   1
   1   6   8 28.6853 8.36160   1
   1   6   9 1.31680 9.35307   1
  -1  -6  -9 4.21635 9.14315   2
  -1  -6 -10 5.77938 10.7163   2
  -1  -6 -10 17.7661 10.6395   1
   1   6  10-5.89781 9.63298   1
  -1  -7  16 0.40022 5.87166   1
  -1  -7  16 0.36588 5.97634   1
   1   7 -16 2.79251 8.83248   2
  -1  -7  15 27.5555 6.24744   1
   1   7 -15 23.2314 8.06128   2
  -1  -7  15 25.9280 5.96871   1
   1   7 -14 12.2749 7.02697   2
  -1  -7  14 14.9422 5.75171   1
  -1  -7  14 19.6892 5.77704   1
  -1  -7  13 16.6668 4.93092   1
  -1  -7  13 12.1178 5.16754   1
   1   7 -13 18.8138 6.08208   2
   1   7 -12 0.89457 5.61671   2
  -1  -7  12 11.6380 4.65943   1
  -1  -7  12 2.86254 4.29987   1
   1   7 -11 13.4253 5.23168   2
  -1  -7  11 4.79384 3.78398   1
  -1  -7  11 4.73299 4.87484   2
  -1  -7  11 5.43741 4.05181   1
   1   7 -10 0.72202 4.20755   2
  -1  -7  10 6.44365 4.68335   2
  -1  -7  10 0.03855 3.53141   1
   1   7 -10 3.30098 3.57930   1
  -1  -7   9 8.86087 4.38671   2
   1   7  -9 6.54726 4.35248   2
  -1  -7   9-1.54004 3.53159   1
   1   7  -9 3.84270 3.54647   1
  -1  -7   8 13.6802 4.42338   2
   1   7  -8 12.7748 4.74323   2
   1   7  -8 16.5100 4.08646   1
  -1  -7   8 13.4140 4.09034   1
   1   7  -7 33.9953 5.01336   1
  -1  -7   7 36.0415 5.02561   1
   1   7  -7 29.8382 5.15759   2
  -1  -7   7 37.0608 5.51366   2
  -1  -7   6 13.5824 4.52203   2
   1   7  -6 9.31413 3.92019   1
   1   7  -6 8.75497 4.22016   2
  -1  -7   6 0.03943 3.42267   1
  -1  -7   5 54.2625 5.61929   1
  -1  -7   5 54.2457 5.81881   2
   1   7  -5 57.4785 6.24404   2
   1   7  -5 66.1720 6.25830   1
   1   7  -4 64.2199 6.62056   2
  -1  -7   4 77.8642 6.85897   1
  -1  -7   4 67.8837 6.59684   2
   1   7  -4 70.1408 6.39181   1
  -1  -7   3 38.7744 5.22722   2
   1   7  -3 43.7982 5.51171   2
  -1  -7   3 41.6028 5.34748   1
   1   7  -3 39.5128 5.39738   1
  -1  -7   2 4.63995 4.14858   1
   1   7  -2 12.8776 4.26490   2
  -1  -7   2 9.25210 4.07588   2
   1   7  -2 3.30349 3.90038   1
   1   7  -1 0.56690 4.17935   2
   1   7  -1 6.96714 3.80964   1
  -1  -7   1 5.42605 3.90181   2
  -1  -7   1 5.72903 4.44457   1
   1   7   0 46.4938 6.63053   2
  -1  -7   0 48.9700 6.10964   2
   1   7   0 51.1777 6.31309   1
  -1  -7   0 50.2519 6.38008   1
   1   7   1 31.8710 6.30104   2
  -1  -7  -1 40.0874 6.36308   2
   1   7   1 37.4630 6.48733   1
  -1  -7  -1 25.9851 5.85997   1
  -1  -7  -2 148.081 10.6248   1
  -1  -7  -2 153.696 10.0742   2
   1   7   2 170.984 11.2142   1
   1   7   2 150.541 10.1092   2
  -1  -7  -3 20.2595 5.87142   1
  -1  -7  -3 19.4244 6.66852   2
   1   7   3 29.5655 6.04787   1
  -1  -7  -4 5.88084 5.85465   2
   1   7   4 4.68443 5.66293   1
  -1  -7  -4-0.32280 6.24578   1
  -1  -7  -5 13.8572 7.09416   1
  -1  -7  -5 4.53178 6.65687   2
   1   7   5 8.89144 6.33467   1
  -1  -7  -6 5.62196 7.53203   1
   1   7   6-3.06638 7.80067   1
  -1  -7  -7 82.5628 11.8929   2
   1   7   7 89.6587 11.9643   1
  -1  -7  -7 83.0205 11.5263   1
  -1  -7  -8-4.93110 10.2168   1
   1   7   8-18.8961 9.16106   1
  -1  -7  -8-6.99196 9.33270   2
  -1  -7  -9 27.3399 8.32589   1
  -1  -7  -9-14.8854 8.47568   2
  -1  -8  15 0.81618 6.38323   1
  -1  -8  15 19.9619 6.84193   1
  -1  -8  14 9.33072 6.31177   1
  -1  -8  14 15.3442 5.98120   1
   1   8 -14 4.11617 7.84814   2
  -1  -8  13 46.7774 9.07608   2
  -1  -8  13 55.4012 7.17774   1
   1   8 -13 33.5695 8.34454   2
  -1  -8  13 40.3512 6.89711   1
   1   8 -12-1.85113 6.50322   2
  -1  -8  12 8.79426 6.12332   2
  -1  -8  12 0.12911 5.03572   1
  -1  -8  12 1.78364 5.09509   1
  -1  -8  11-9.24496 4.70763   1
   1   8 -11 1.66439 5.88483   2
  -1  -8  11 10.4239 6.17919   2
   1   8 -10-2.52220 4.18375   1
   1   8 -10 3.26612 5.11972   2
  -1  -8  10 2.82154 4.43242   1
  -1  -8  10-1.04921 5.21418   2
  -1  -8   9 1.83764 4.14633   1
  -1  -8   9 2.93406 4.91646   2
   1   8  -9 0.86244 4.08830   1
   1   8  -9 0.58844 5.38714   2
  -1  -8   8 16.9837 4.62320   1
  -1  -8   8 17.6509 5.93230   2
   1   8  -8 12.7057 4.75424   1
   1   8  -8 18.5509 5.51030   2
   1   8  -7 61.4229 7.35628   2
  -1  -8   7 60.1175 6.55860   1
   1   8  -7 57.0409 6.54595   1
  -1  -8   7 65.7325 7.66337   2
  -1  -8   6 114.349 8.59061   1
   1   8  -6 118.067 8.50777   1
   1   8  -6 127.300 9.27497   2
  -1  -8   6 118.824 8.89213   2
   1   8  -5-1.33947 4.60260   2
  -1  -8   5-2.56102 3.76284   2
  -1  -8   5 0.14325 4.18371   1
   1   8  -5 3.99222 4.08643   1
  -1  -8   4 12.9342 4.89929   1
  -1  -8   4 9.07104 4.60405   2
   1   8  -4 24.7593 5.64643   2
   1   8  -4 23.4602 5.07144   1
  -1  -8   3 40.1378 6.43183   2
   1   8  -3 42.1199 6.18229   2
  -1  -8   3 41.8238 6.59221   1
   1   8  -3 49.1535 6.59278   1
   1   8  -2 81.4410 8.32013   2
  -1  -8   2 87.4050 8.45448   2
  -1  -8   2 79.4966 8.35333   1
   1   8  -2 83.9976 8.12841   1
  -1  -8   1-3.64351 4.16925   2
   1   8  -1 0.39082 4.71068   2
  -1  -8   1 5.61013 5.36581   1
   1   8  -1-1.73668 4.15853   1
   1   8   0-5.40608 5.10980   2
  -1  -8   0-3.77972 4.50083   1
  -1  -8   0 4.49385 5.82849   2
   1   8   0-5.55979 5.54756   1
  -1  -8  -1 5.72507 5.41054   2
   1   8   1 6.96517 6.06505   2
  -1  -8  -1 2.77141 5.62640   1
   1   8   1 13.8500 6.15468   1
  -1  -8  -2 3.06339 6.38495   1
   1   8   2 3.47170 6.64253   1
   1   8   2-0.89879 5.35258   2
  -1  -8  -2-1.70680 6.15588   2
  -1  -8  -3 2.72543 6.48570   2
  -1  -8  -3-9.12346 6.38374   1
   1   8   3 3.41753 6.64823   1
  -1  -8  -4 15.7152 7.75674   2
  -1  -8  -4 1.94339 6.55220   1
   1   8   4-0.29692 7.99779   1
  -1  -8  -5 2.31152 8.40005   2
  -1  -8  -5-8.93531 8.68907   1
   1   8   5-11.1172 7.81478   1
  -1  -8  -6 20.6024 9.71066   1
   1   8   6 2.52428 10.0293   1
  -1  -8  -7-3.03604 10.4877   2
   1   8   7-14.1358 10.6555   1
  -1  -8  -7 12.1899 9.96596   1
  -1  -9  14 1.40698 6.47486   1
   1   9 -14-0.72766 9.07839   2
  -1  -9  14-3.39621 7.00541   1
  -1  -9  14-10.9037 8.73983   2
   1   9 -13-0.97554 8.20520   2
  -1  -9  13 8.62466 6.08938   1
  -1  -9  13 16.6881 8.27100   2
  -1  -9  13 13.8166 6.43994   1
  -1  -9  12 8.84835 5.42786   1
   1   9 -12 25.0092 8.31819   2
  -1  -9  12 17.8539 8.56794   2
  -1  -9  12 6.99141 6.08058   1
   1   9 -11-12.3930 7.18306   2
  -1  -9  11 2.67014 7.27255   2
   1   9 -11 4.72878 5.70521   1
  -1  -9  11 5.27798 5.43715   1
  -1  -9  10 10.4377 5.38852   1
  -1  -9  10 19.6763 7.36768   2
   1   9 -10 11.8380 6.45392   2
   1   9 -10 5.82527 5.05246   1
   1   9  -9 91.7657 9.70237   2
  -1  -9   9 87.0796 9.97692   2
   1   9  -9 97.1607 8.53989   1
  -1  -9   9 86.8994 8.25854   1
   1   9  -8 13.7460 5.69929   1
  -1  -9   8 17.8091 5.94644   1
   1   9  -8 28.4599 7.41218   2
  -1  -9   8 19.2000 7.15480   2
  -1  -9   7 27.1410 6.03541   1
   1   9  -7 28.4084 7.16172   2
  -1  -9   7 11.5673 6.49757   2
   1   9  -7 18.9215 5.71674   1
  -1  -9   6 20.4805 6.02020   1
   1   9  -6 24.1021 5.96923   1
   1   9  -6 16.2709 5.97418   2
  -1  -9   6 24.5868 6.37359   2
   1   9  -5 49.6926 7.99001   2
  -1  -9   5 56.9077 7.52562   1
  -1  -9   5 43.6991 7.64445   2
   1   9  -5 61.7543 7.56773   1
  -1  -9   4 37.9819 7.66682   2
  -1  -9   4 53.4420 7.88032   1
   1   9  -4 38.9232 7.35326   2
   1   9  -4 51.3259 7.22433   1
   1   9  -3-3.89423 5.90552   1
   1   9  -3 5.62106 5.42538   2
  -1  -9   3 6.87408 5.95168   2
  -1  -9   3 4.11564 5.59942   1
   1   9  -2 5.31447 6.01824   1
   1   9  -2-1.91247 5.28636   2
  -1  -9   2-2.24858 5.86714   2
  -1  -9   2 6.00767 5.70995   1
   1   9  -1 13.8323 6.68397   2
  -1  -9   1 22.5776 6.62837   2
  -1  -9   1 16.9769 6.58101   1
   1   9  -1 18.4726 7.25746   1
   1   9   0 12.7870 6.58062   2
  -1  -9   0 4.29153 6.35209   2
  -1  -9   0 3.27491 6.72993   1
   1   9   0 25.4688 7.38105   1
  -1  -9  -1 12.4564 7.79629   2
   1   9   1 15.8135 7.21598   2
  -1  -9  -1 10.7909 7.72161   1
   1   9   1 8.82140 7.20869   1
   1   9   2 10.4355 7.50613   1
  -1  -9  -2-4.33233 8.40034   2
   1   9   3 0.63960 8.50756   1
  -1  -9  -3 2.15523 8.58207   2
  -1  -9  -3 8.06145 9.02621   1
  -1  -9  -4-8.05971 9.98312   1
  -1  -9  -4-11.5930 10.1191   2
   1   9   4-2.45694 8.83719   1
  -1  -9  -5 44.4470 13.2493   1
   1   9   5 66.6974 13.6456   1
  -1 -10  13 5.31145 6.88923   1
   1  10 -13-12.4330 9.91382   2
  -1 -10  13 19.6310 10.0711   2
  -1 -10  13 9.45076 7.51383   1
  -1 -10  12 9.97480 7.02702   1
   1  10 -12-4.22813 9.27195   2
  -1 -10  12 6.23156 9.41368   2
   1  10 -12-0.47228 7.02203   1
   1  10 -11 2.95121 9.26387   2
   1  10 -11 4.68701 6.63520   1
  -1 -10  11-8.17324 9.39775   2
   1  10 -10 26.8146 8.41213   2
  -1 -10  10 19.9750 7.31976   1
  -1 -10  10 34.5391 9.02546   2
   1  10 -10 21.1730 7.38573   1
  -1 -10   9 22.2069 8.84043   2
  -1 -10   9 19.1257 7.01318   1
   1  10  -9 4.42935 8.09545   2
   1  10  -9 10.3144 6.68463   1
  -1 -10   8 3.64236 6.79733   2
   1  10  -8-0.28208 6.88538   2
   1  10  -8 2.16163 6.19929   1
  -1 -10   8 21.6879 7.27882   1
   1  10  -7-5.53269 7.29570   2
  -1 -10   7 6.13830 7.32579   2
   1  10  -7-0.97202 6.56743   1
  -1 -10   7 0.68474 6.65065   1
  -1 -10   6 11.7947 7.61961   2
   1  10  -6 3.36768 6.30248   2
   1  10  -6 9.76500 6.70092   1
  -1 -10   6 1.54386 6.59972   1
   1  10  -5 27.1153 7.78239   2
   1  10  -5 28.6571 7.48434   1
  -1 -10   5 25.2388 8.19867   2
  -1 -10   5 40.4561 7.91546   1
  -1 -10   4 46.1197 9.05826   2
   1  10  -4 38.9499 8.32781   1
   1  10  -4 54.5594 9.42323   2
  -1 -10   4 52.3795 8.90136   1
   1  10  -3 50.8860 9.05714   1
  -1 -10   3 38.7048 8.36029   2
   1  10  -3 45.3078 9.01803   2
  -1 -10   3 30.2991 8.06658   1
   1  10  -2 45.4156 9.09169   2
  -1 -10   2 45.8121 9.24111   2
  -1 -10   2 34.0653 9.16972   1
   1  10  -2 62.5224 10.0815   1
   1  10  -1-7.85440 8.61182   2
  -1 -10   1 3.44009 7.05330   2
  -1 -10   1-2.61569 7.81445   1
   1  10  -1-17.6652 8.27715   1
   1  10   0-10.8532 8.51925   2
  -1 -10   0-6.64320 8.93497   2
  -1 -10   0-0.88782 9.28507   1
   1  10   0 8.02362 8.71146   1
   1  10   1-2.14113 8.17465   2
  -1 -10  -1 0.48328 9.49010   2
  -1 -10  -1-3.30528 8.19073   1
   1  10   1 4.49489 9.62988   1
  -1 -10  -2 15.6436 10.3661   2
  -1 -10  -2 5.14729 10.4311   1
   1  10   2 8.09993 10.7270   1
  -1 -10  -3 26.5259 12.7338   1
  -1 -10  -3 45.7560 11.7537   2
   1  10   3 36.7837 12.4366   1
   1  11 -11 8.48809 5.55387   1
   1  11 -11 25.3716 7.67109   2
  -1 -11  11 18.0535 7.92847   2
  -1 -11  11 23.3679 6.71900   1
   1  11 -10 1.73294 10.4697   2
   1  11 -10-10.7759 7.81512   1
  -1 -11  10-3.46504 8.32942   1
  -1 -11  10 12.2160 11.3301   2
   1  11  -9 0.32180 7.66893   1
  -1 -11   9-7.16403 9.76626   2
  -1 -11   9-10.4835 9.24389   1
   1  11  -9-13.1777 11.0251   2
  -1 -11   8-1.76685 9.67158   2
   1  11  -8-7.04493 8.93348   1
  -1 -11   8 22.3429 8.14955   1
   1  11  -8 8.48425 9.10545   2
   1  11  -7 51.5795 10.6457   2
  -1 -11   7 22.9470 9.79656   2
   1  11  -7 26.2448 8.43969   1
  -1 -11   7 27.4293 9.06078   1
   1  11  -6 2.30793 7.92684   1
   1  11  -6-1.21685 10.1241   2
  -1 -11   6 7.55157 9.11182   2
  -1 -11   6-0.88223 8.45501   1
   1  11  -5 17.7891 9.16302   2
  -1 -11   5 12.1603 9.21021   2
   1  11  -5 10.7860 7.92974   1
  -1 -11   5 10.5462 7.79881   1
  -1 -11   4-4.89431 8.86458   2
   1  11  -4-3.46294 8.90201   2
   1  11  -4 12.6612 8.19568   1
  -1 -11   4 8.92429 8.06478   1
   1  11  -3 12.1147 9.58112   2
  -1 -11   3-0.81707 9.22396   2
  -1 -11   3 3.58241 9.11549   1
   1  11  -3 6.42691 8.12445   1
   1  11  -2 10.9255 10.1491   1
   1  11  -2 1.11300 11.2420   2
  -1 -11   2 20.9390 9.77007   1
  -1 -11   2-1.75600 11.0419   2
   1  11  -1 16.3521 11.3473   1
  -1 -11   1 24.0175 10.1229   2
  -1 -11   1-1.50924 10.5492   1
   1  11  -1-3.52725 9.66930   2
   1  11   0-10.2831 10.3621   1
  -1 -11   0 11.4750 8.95957   1
  -2  11   0 19.2563 10.9931   2
  -2  11   0-9.77982 9.51782   1
   2 -11   0 4.81470 9.81686   2
   2 -11   0 9.30616 9.93340   1
  -2  11  -1-15.0508 9.27419   2
  -2  11  -1 6.10011 9.58237   1
   2 -11   1 1.78081 9.99262   2
   2 -11   1 13.5804 9.77115   1
   2 -11   2 15.1465 9.40505   1
  -2  11  -2 9.29673 9.02050   1
   2 -11   2-14.0009 8.49095   2
  -2  11  -2 15.6738 9.28723   2
   2 -11   3-3.45185 10.6141   2
   2 -11   3-0.53714 7.86758   1
  -2  11  -3 6.71019 8.15178   1
  -2  11  -3-15.8928 10.7458   2
  -2  11  -4 1.95155 10.5705   2
   2 -11   4 2.79697 8.20304   1
   2 -11   4-3.54953 9.87346   2
  -2  11  -4 9.49175 7.39789   1
   2 -11   5 23.3801 7.48380   1
  -2  11  -5 10.2569 9.54981   2
  -2  11  -5 29.4454 7.30222   1
   2 -11   6 4.30710 10.7156   2
   2 -11   6-0.51561 7.06667   1
  -2  11  -6-3.30998 8.50071   2
  -2  11  -6 2.23589 6.67424   1
   2 -11   7 4.90300 6.62711   1
  -2  11  -7-1.51443 9.16239   2
   2 -11   7 13.4211 11.0012   2
  -2  11  -7-4.56480 6.48750   1
   2 -11   8 18.6766 10.6660   2
  -2  11  -8 17.7607 11.7858   2
  -2  11  -8 23.9233 6.04750   1
   2 -11   8 26.2344 6.72066   1
  -2  11  -9 23.5460 4.79565   1
   2 -11   9 34.4419 5.59648   1
   2 -10  -4 11.5910 5.33444   2
   2 -10  -4 6.06161 5.80176   1
  -2  10   4 3.69800 4.52802   2
  -2  10   4 19.4746 6.43366   1
   2 -10  -3 42.8149 10.6613   2
  -2  10   3 53.0401 12.6218   1
  -2  10   3 56.2785 11.1515   2
   2 -10  -3 33.0939 11.0167   1
   2 -10  -2 25.9719 9.78004   1
  -2  10   2 31.6640 9.04610   2
  -2  10   2 37.5826 10.2989   1
   2 -10  -2 6.48417 8.15455   2
  -2  10   1-10.9282 8.34326   2
   2 -10  -1 7.67709 8.48183   1
  -2  10   1-8.40231 8.26403   1
   2 -10  -1 14.7105 7.77678   2
  -2  10   0-20.7707 8.60035   2
   2 -10   0 8.97109 8.21183   1
   2 -10   0-3.67779 7.97390   2
  -2  10   0 6.25162 8.04705   1
   2 -10   1-3.34484 7.10268   1
  -2  10  -1 0.42238 6.92137   2
  -2  10  -1 10.1854 7.42324   1
   2 -10   1 0.35135 7.68310   2
  -2  10  -2 13.0510 7.77699   2
  -2  10  -2 7.79694 6.61149   1
   2 -10   2 4.62691 7.02498   2
   2 -10   2 9.46998 6.87258   1
  -2  10  -3-7.05563 7.64113   2
  -2  10  -3 7.46467 6.35019   1
   2 -10   3-8.33145 7.38407   2
  -2  10  -4 3.60787 7.91081   2
   2 -10   4-1.43367 6.22077   1
   2 -10   4-7.48535 7.57263   2
  -2  10  -4-3.53961 5.24881   1
   2 -10   5 6.90157 5.69250   1
  -2  10  -5 6.50214 7.60970   2
   2 -10   5-5.43904 8.07862   2
  -2  10  -5 1.66406 5.35118   1
  -2  10  -6 13.6853 8.80535   2
   2 -10   6 14.9579 7.71824   2
   2 -10   6 19.2203 6.11981   1
  -2  10  -6 12.9266 5.35076   1
  -2  10  -7-3.15378 4.42595   1
   2 -10   7-0.81493 4.52881   1
  -2  10  -7 1.57855 8.84348   2
   2 -10   7-1.73658 8.25909   2
   2 -10   8-1.92490 4.09906   1
  -2  10  -8-0.14566 4.12152   1
   2 -10   8 5.22878 7.63677   2
  -2  10  -8-0.77534 8.50175   2
  -2  10  -9 8.71392 8.92357   2
  -2  10  -9 1.82446 2.81753   1
   2 -10   9-4.53350 10.0408   2
   2 -10   9-1.94778 3.02457   1
   2 -10  10-8.18622 9.51427   2
  -2  10 -10 10.5305 9.32571   2
   2 -10  11 27.6628 12.3208   2
  -2  10 -11 4.21865 11.1387   2
  -2   9   6 16.9133 11.1479   1
   2  -9  -6 39.1704 11.8098   1
   2  -9  -6 14.4746 8.95282   2
   2  -9  -5-0.98505 11.2248   1
  -2   9   5 10.3375 10.3023   1
   2  -9  -5 0.59790 8.33711   2
  -2   9   4 13.8001 8.95351   1
   2  -9  -4 8.12194 7.09546   2
  -2   9   4 3.18241 7.72504   2
   2  -9  -4 6.67301 9.15033   1
   2  -9  -3 40.1329 8.30765   2
  -2   9   3 42.3548 8.54969   2
  -2   9   3 34.8108 9.11059   1
   2  -9  -3 42.7955 9.63724   1
   2  -9  -2-4.40626 6.17959   2
  -2   9   2 1.87026 7.21809   1
   2  -9  -2-0.35831 7.12459   1
  -2   9   2-7.90180 7.01706   2
  -2   9   1 2.19195 6.01727   1
  -2   9   1-6.99031 6.90132   2
   2  -9  -1-0.48854 6.79951   2
   2  -9  -1 6.41044 6.76395   1
   2  -9   0 14.9622 6.86712   1
   2  -9   0 7.48894 6.29251   2
  -2   9   0 24.9268 7.36162   2
  -2   9   0 14.8566 6.74787   1
   2  -9   1 37.2207 7.30650   1
  -2   9  -1 31.4238 7.67223   2
  -2   9  -1 37.5950 7.06299   1
   2  -9   1 28.8708 7.37254   2
  -2   9  -2 4.97945 5.96052   2
   2  -9   2 0.37393 5.17066   1
  -2   9  -2 6.93027 4.91863   1
   2  -9   2 3.14821 5.44938   2
  -2   9  -3 10.3065 6.09700   2
  -2   9  -3 13.1762 5.31232   1
   2  -9   3 10.8695 5.45315   1
   2  -9   3 11.2351 6.61557   2
   2  -9   4 17.1094 5.16607   1
  -2   9  -4 28.3691 6.58330   2
  -2   9  -4 24.5786 5.42116   1
   2  -9   4 11.5129 6.51095   2
   2  -9   5 31.3826 5.35361   1
   2  -9   5 33.2703 7.84453   2
  -2   9  -5 49.7717 7.96978   2
  -2   9  -5 35.2040 5.50395   1
   2  -9   6 2.91546 3.68155   1
  -2   9  -6 1.94012 6.38253   2
   2  -9   6-3.69377 6.17168   2
  -2   9  -6 2.11199 3.87731   1
   2  -9   7-1.83223 3.80194   1
  -2   9  -7-2.99365 3.48212   1
   2  -9   7 1.68114 5.63434   2
  -2   9  -7-7.30899 7.13298   2
  -2   9  -8 26.6279 3.47844   1
  -2   9  -8 18.1524 7.42807   2
   2  -9   8 39.4622 8.38261   2
   2  -9   8 32.1837 3.89666   1
   2  -9   9 3.18338 1.33836   1
  -2   9  -9 4.79868 7.89398   2
  -2   9  -9-0.82147 1.18055   1
  -2   9 -10 5.69947 7.89670   2
   2  -9  10 1.38174 8.87555   2
  -2   9 -11 9.67470 9.35384   2
   2  -9  11-7.60927 7.90904   2
  -2   9 -12 17.9640 9.97508   2
  -2   9 -13 6.72100 8.30636   2
   2  -8  -8 26.5965 8.59032   2
   2  -8  -7-0.63796 11.1946   1
   2  -8  -7 29.8370 8.52695   2
  -2   8   7 11.8792 8.72627   1
   2  -8  -6 28.8519 10.6694   1
   2  -8  -6 10.2845 7.61891   2
  -2   8   6 13.6978 9.21840   1
   2  -8  -5 26.9550 7.99737   1
   2  -8  -5 38.3990 7.86970   2
  -2   8   5 47.0050 8.43771   2
  -2   8   5 47.8608 10.0649   1
  -2   8   4 8.81123 7.09047   1
   2  -8  -4 0.79900 7.50645   1
   2  -8  -4 0.16485 5.65279   2
  -2   8   4 0.39354 6.20291   2
  -2   8   3 4.56754 6.01491   2
  -2   8   3 6.92000 6.33090   1
   2  -8  -3 1.01273 4.94968   2
   2  -8  -3-4.28250 5.99018   1
  -2   8   2 29.8370 6.85664   1
   2  -8  -2 32.2911 7.25448   1
   2  -8  -2 22.9044 6.32885   2
  -2   8   2 35.8976 6.92689   2
  -2   8   1 70.2255 7.80435   2
   2  -8  -1 61.7232 7.38589   2
  -2   8   1 72.2542 8.05848   1
   2  -8  -1 74.0579 8.42973   1
   2  -8   0 2.53940 4.29804   2
  -2   8   0 6.41898 4.75090   2
   2  -8   0 0.37383 4.95475   1
  -2   8   0 4.82710 4.91169   1
  -2   8  -1 16.7323 5.68037   2
   2  -8   1 3.34843 4.71793   1
   2  -8   1 14.5220 5.40970   2
  -2   8  -1 17.5831 5.02196   1
  -2   8  -2 7.63484 4.19829   1
   2  -8   2 0.58485 4.10209   1
   2  -8   2 6.96140 4.97749   2
   2  -8   3 13.1133 4.39888   1
  -2   8  -3 9.74902 3.86036   1
  -2   8  -3 4.92317 5.15857   2
   2  -8   3 20.5959 5.59385   2
   2  -8   4 13.4684 4.21688   1
  -2   8  -4 15.5468 5.21862   2
  -2   8  -4 14.1815 4.21966   1
   2  -8   4 16.7392 5.35855   2
   2  -8   5 16.4221 5.66630   2
  -2   8  -5 12.7891 4.95647   2
  -2   8  -5 10.9909 3.73173   1
   2  -8   5 21.6820 3.99801   1
   2  -8   6 5.50764 5.23761   2
   2  -8   6 6.86454 3.07028   1
  -2   8  -6 3.21750 5.24392   2
  -2   8  -6 7.96231 3.17246   1
  -2   8  -7 18.9464 5.37702   2
   2  -8   7 26.4848 6.74212   2
   2  -8   7 26.6899 3.37039   1
  -2   8  -7 27.5915 3.32178   1
   2  -8   8 2.40100 1.59636   1
  -2   8  -8 1.96548 1.43781   1
  -2   8  -8 0.06154 5.97332   2
  -2   8  -9 4.71410 5.41598   2
   2  -8   9 1.85748 6.62594   2
  -2   8 -10-0.81712 5.75683   2
   2  -8  10-0.07029 7.18094   2
  -2   8 -11 10.0955 8.01996   2
  -2   8 -12-2.75623 8.67515   2
  -2   8 -13 17.6533 9.93258   2
  -2   8 -14-3.29001 9.42440   2
   2  -7  -9 1.06149 7.46370   2
   2  -7  -9 6.09032 11.5424   1
  -2   7   9 11.2313 10.6457   1
   2  -7  -8 34.1433 11.1666   1
   2  -7  -8 37.6103 7.66107   2
  -2   7   8 40.8568 10.4372   1
   2  -7  -7-14.9089 9.23676   1
   2  -7  -7 0.89934 5.85933   2
  -2   7   7-7.96774 6.74831   1
   2  -7  -6-6.10419 5.55270   2
  -2   7   6-8.16455 7.51012   1
   2  -7  -5 5.83618 5.18873   2
   2  -7  -5-0.41432 6.10087   1
  -2   7   5 0.09882 4.95832   2
  -2   7   5 0.20244 5.40564   1
  -2   7   4 35.7306 5.98083   2
   2  -7  -4 36.0756 7.38795   1
   2  -7  -4 27.1258 5.48935   2
  -2   7   4 44.0438 7.08665   1
  -2   7   3 1.28049 4.11265   2
   2  -7  -3 0.57944 4.55632   1
   2  -7  -3 1.51722 4.07808   2
  -2   7   3-2.18845 4.98899   1
  -2   7   2-7.12201 4.22915   2
   2  -7  -2 1.97961 4.56801   1
   2  -7  -2 4.36363 4.41416   2
  -2   7   2-2.39455 4.44360   1
   2  -7  -1 207.226 10.3607   2
  -2   7   1 211.817 10.6490   2
  -2   7   1 218.171 11.2169   1
   2  -7  -1 222.416 11.5079   1
  -2   7   0 101.725 7.93997   2
   2  -7   0 103.216 7.74331   2
  -2   7   0 112.652 8.11061   1
   2  -7   0 101.653 7.81532   1
   2  -7   1 22.0375 4.93195   2
  -2   7  -1 17.2188 4.59556   2
  -2   7  -1 22.6929 4.68701   1
   2  -7   1 24.6586 4.93500   1
  -2   7  -2 1.14404 3.29256   1
   2  -7   2-1.54894 3.11610   1
   2  -7   2-0.13265 4.07925   2
  -2   7  -2-2.95501 4.26620   2
   2  -7   3 137.162 8.76718   2
  -2   7  -3 135.897 7.31994   1
  -2   7  -3 140.715 8.96942   2
   2  -7   3 132.552 7.44010   1
   2  -7   4 20.9612 5.40906   2
  -2   7  -4 21.1151 3.57169   1
   2  -7   4 22.5117 3.77387   1
  -2   7  -4 23.4021 5.46582   2
  -2   7  -5 17.8729 4.52772   2
  -2   7  -5 16.0231 3.17340   1
   2  -7   5 13.8130 4.40212   2
   2  -7   5 13.5066 2.96600   1
   2  -7   6 61.8869 7.15216   2
  -2   7  -6 72.8900 7.42344   2
  -2   7  -6 68.8127 4.17275   1
   2  -7   6 66.8200 4.28338   1
  -2   7  -7 19.2954 2.02789   1
  -2   7  -7 18.6505 5.11747   2
   2  -7   7 18.7076 6.01062   2
   2  -7   7 21.0291 2.17939   1
  -2   7  -8 63.0370 7.90844   2
   2  -7   8 68.6835 7.92991   2
  -2   7  -9 5.58204 5.74186   2
   2  -7   9 6.43884 4.83467   2
  -2   7 -10 4.99960 6.64411   2
  -2   7 -11 36.9125 7.71202   2
  -2   7 -12 5.90441 6.91581   2
  -2   7 -13 23.2811 10.3184   2
  -2   7 -14-0.08397 8.86222   2
   2  -6 -11 25.7307 9.47697   1
   2  -6 -11 12.1016 5.56330   2
   2  -6 -10 33.4251 11.4245   1
  -2   6  10 28.7689 9.80108   1
   2  -6  -9 1.41657 9.18085   1
   2  -6  -9-1.47328 5.71296   2
  -2   6   9-7.44156 7.87738   1
   2  -6  -8 4.30605 7.79036   1
   2  -6  -8 4.09730 5.30817   2
  -2   6   8 7.46594 7.60713   1
   2  -6  -7 1.16538 4.50256   2
   2  -6  -7 0.42586 6.97248   1
  -2   6   7 5.23895 6.96022   1
   2  -6  -6 6.68035 4.24937   2
   2  -6  -6 4.12800 6.50430   1
  -2   6   6 3.17776 5.56472   1
   2  -6  -5 4.33746 4.59238   1
   2  -6  -5 0.80048 3.80896   2
  -2   6   5 3.19491 4.00561   2
  -2   6   5 4.26544 5.26513   1
  -2   6   4 37.3172 5.87140   1
   2  -6  -4 18.0266 5.78674   1
   2  -6  -4 33.9598 5.11744   2
  -2   6   4 40.1409 5.33766   2
  -2   6   3 44.7482 6.14435   1
   2  -6  -3 42.8502 5.22978   2
   2  -6  -3 50.1455 6.58551   1
  -2   6   3 47.0278 5.50173   2
  -2   6   2 1.54442 3.22315   2
   2  -6  -2-5.46072 3.81720   1
   2  -6  -2 4.84281 3.32856   2
  -2   6   2 1.21656 3.73625   1
   2  -6  -1-1.32689 3.34479   1
  -2   6   1-0.10880 3.16191   2
   2  -6  -1-0.78304 3.32055   2
  -2   6   1 0.65638 3.34982   1
  -2   6   0 40.3182 4.80593   2
  -2   6   0 30.5157 4.71934   1
   2  -6   0 34.0829 4.65048   2
   2  -6   0 35.6349 4.87072   1
  -2   6  -1 128.375 7.29119   1
   2  -6   1 107.409 6.99544   2
  -2   6  -1 128.753 7.55769   2
   2  -6   1 123.504 7.20459   1
  -2   6  -2 17.1089 4.09263   2
   2  -6   2 20.2416 3.86854   2
   2  -6   2 20.0313 3.67709   1
  -2   6  -2 14.1163 3.21369   1
  -2   6  -3 183.749 9.13488   2
  -2   6  -3 187.311 7.36180   1
   2  -6   3 182.672 9.03461   2
   2  -6   3 183.475 7.40837   1
  -2   6  -4 5.88306 2.22737   1
  -2   6  -4 0.31886 3.56697   2
   2  -6   4 5.01685 3.16529   2
   2  -6   4 10.7696 2.63955   1
  -2   6  -5 39.2593 5.48038   2
   2  -6   5 39.3916 5.27658   2
  -2   6  -5 32.9196 2.99836   1
   2  -6   5 41.8076 3.35196   1
  -2   6  -6 11.4891 4.61444   2
   2  -6   6 8.64032 4.42067   2
  -2   6  -6 9.67880 1.53026   1
   2  -6   6 10.2032 1.68404   1
   2  -6   7 29.0268 5.03016   2
  -2   6  -7 32.5007 5.96315   2
  -2   6  -8 19.0875 4.93076   2
   2  -6   8 17.1742 5.56883   2
  -2   6  -9 6.98422 4.69485   2
  -2   6 -10-7.81374 6.14656   2
  -2   6 -11-0.64250 6.92400   2
  -2   6 -12 2.07718 6.86895   2
  -2   6 -13-1.64258 8.53870   2
  -2   6 -14-4.10385 9.99629   2
  -2   6 -15 29.2905 11.6567   2
   2  -5 -12 45.7214 12.2204   1
  -2   5  12-28.7041 11.9480   1
   2  -5 -11-7.59764 10.2814   1
   2  -5 -11 0.64445 6.09063   2
  -2   5  11 9.34974 9.14780   1
   2  -5 -10 30.1974 9.60109   1
   2  -5 -10 29.3604 6.92388   2
  -2   5  10 27.8214 8.70814   1
   2  -5  -9 0.55878 4.75491   2
   2  -5  -9 0.37506 7.61558   1
  -2   5   9 2.85899 7.13097   1
   2  -5  -8 4.93796 4.09505   2
   2  -5  -8 3.13723 6.34572   1
  -2   5   8-2.22932 5.31089   1
   2  -5  -7 4.06420 4.91793   1
   2  -5  -7-0.11155 3.64949   2
  -2   5   7 5.48719 5.46223   1
   2  -5  -6 103.668 6.86727   2
  -2   5   6 91.9045 8.57432   1
   2  -5  -6 86.4823 8.81308   1
  -2   5   5 41.5102 6.04047   1
   2  -5  -5 45.7780 4.95290   2
  -2   5   5 50.0479 5.16095   2
   2  -5  -5 43.5106 6.36202   1
   2  -5  -4 6.16762 4.58285   1
   2  -5  -4 2.86416 2.89270   2
  -2   5   4 5.13500 3.02925   2
  -2   5   4 4.15892 4.11181   1
   2  -5  -3 158.025 7.44880   2
  -2   5   3 153.168 8.87729   1
   2  -5  -3 130.860 8.53924   1
  -2   5   3 160.601 7.63890   2
   2  -5  -2 7.12842 3.67466   1
  -2   5   2 8.42569 3.00794   2
   2  -5  -2 13.0391 3.17152   2
  -2   5   2 10.3466 3.75276   1
   2  -5  -1 19.0961 3.39696   2
  -2   5   1 22.1192 3.48726   2
  -2   5   1 23.5712 3.86516   1
   2  -5  -1 18.4926 3.65114   1
  -2   5   0 493.788 12.8719   1
  -2   5   0 485.859 12.5641   2
   2  -5   0 497.977 12.6986   2
   2  -5   0 477.799 12.8228   1
  -2   5  -1 89.6459 5.95768   2
   2  -5   1 88.7910 5.97330   2
  -2   5  -1 96.9076 5.70227   1
   2  -5   1 96.7622 5.79515   1
  -2   5  -2 196.118 7.23010   1
  -2   5  -2 175.243 8.00847   2
   2  -5   2 189.661 7.26337   1
   2  -5   2 182.214 8.17493   2
  -2   5  -3 31.4525 4.16064   2
   2  -5   3 34.3620 4.31723   2
   2  -5   3 36.8008 3.37889   1
  -2   5  -3 34.2605 3.17129   1
  -2   5  -4 29.1690 4.07918   2
   2  -5   4 33.5402 4.55323   2
  -2   5  -4 26.1834 2.52786   1
   2  -5   4 29.6090 2.71056   1
  -2   5  -5 90.4989 3.25886   1
  -2   5  -5 86.5616 6.73507   2
   2  -5   5 95.0954 3.43905   1
   2  -5   5 91.9961 6.79187   2
  -2   5  -6 7.80903 3.32464   2
   2  -5   6 8.97135 3.45373   2
  -2   5  -7 23.9181 5.07520   2
   2  -5   7 16.6505 4.75423   2
  -2   5  -8 6.25686 4.15422   2
  -2   5  -9 55.4288 7.13035   2
  -2   5 -10 98.7034 9.17219   2
  -2   5 -11 68.7337 8.78414   2
  -2   5 -12 8.56366 7.07407   2
  -2   5 -13-7.57404 7.77215   2
  -2   5 -14-0.85278 9.35420   2
  -2   5 -15 15.3516 9.32918   2
   2  -4 -13 20.7758 10.8313   1
   2  -4 -13 28.2187 7.98488   2
  -2   4  12 5.39157 9.00905   1
   2  -4 -12 22.3786 7.06833   2
   2  -4 -12 24.7974 10.5743   1
   2  -4 -11 1.90003 8.75607   1
   2  -4 -11-0.38236 5.64440   2
  -2   4  11 11.3234 8.38867   1
   2  -4 -10 8.39093 7.61257   1
   2  -4 -10 6.97457 4.74192   2
  -2   4  10-1.24407 6.57952   1
   2  -4  -9 2.60521 6.16590   1
  -2   4   9 4.88715 5.51091   1
   2  -4  -9 5.09328 3.85679   2
   2  -4  -8 10.2750 5.18660   1
  -2   4   8 4.55447 4.69811   1
   2  -4  -8 5.31996 3.73160   2
   2  -4  -7 14.0783 3.40983   2
  -2   4   7 11.2512 5.03409   1
   2  -4  -6 1.60871 3.43681   1
   2  -4  -6 0.71786 2.56692   2
  -2   4   6-0.82535 3.38300   1
   2  -4  -5 37.6113 3.92947   2
   2  -4  -5 38.1773 5.62334   1
  -2   4   5 34.9184 5.09794   1
  -2   4   5 34.9466 3.87124   2
   2  -4  -4 1.65288 3.41749   1
  -2   4   4 4.38392 2.29200   2
   2  -4  -4 0.95287 2.31006   2
  -2   4   4-0.79743 3.00245   1
  -2   4   3 91.1789 5.13757   2
   2  -4  -3 90.1679 5.09997   2
   2  -4  -3 95.1677 6.57100   1
  -2   4   3 94.6296 6.49396   1
  -2   4   2 65.6328 4.43843   2
   2  -4  -2 62.3807 4.32396   2
   2  -4  -2 65.3749 5.52534   1
  -2   4   2 63.5567 5.22187   1
  -2   4   1 259.204 8.11875   2
   2  -4  -1 276.051 9.55768   1
   2  -4  -1 264.853 8.24075   2
  -2   4   1 258.520 9.03880   1
  -2   4   0 71.9564 4.66517   2
   2  -4   0 65.3572 4.52748   2
   2  -4   0 74.9571 5.04836   1
  -2   4   0 73.6650 4.81726   1
   2  -4   1 520.879 11.8372   2
  -2   4  -1 550.019 12.0446   2
   2  -4   1 534.448 11.3543   1
  -2   4  -1 550.630 11.3251   1
  -2   4  -2-1.22123 2.27239   2
   2  -4   2 0.60105 1.76144   1
   2  -4   2-1.48238 2.24552   2
  -2   4  -2-1.95204 1.70283   1
  -2   4  -3 184.754 7.79047   2
  -2   4  -3 183.571 5.38578   1
   2  -4   3 187.833 5.60398   1
   2  -4   3 184.375 7.83875   2
  -2   4  -4 153.274 4.06428   1
  -2   4  -4 158.172 7.69692   2
   2  -4   4 157.366 7.68614   2
   2  -4   4 155.066 4.20593   1
  -2   4  -5 51.2743 5.11390   2
   2  -4   5 56.4551 5.43792   2
  -2   4  -6 57.8673 5.75354   2
  -2   4  -7 389.425 13.3995   2
  -2   4  -8 0.76081 3.84174   2
  -2   4  -9 3.48047 4.42463   2
  -2   4 -10 36.9275 6.10088   2
  -2   4 -11-2.05402 5.73421   2
  -2   4 -12 3.14020 5.53449   2
  -2   4 -13 5.17111 7.69955   2
  -2   4 -14 6.99557 7.22987   2
  -2   4 -15-8.50850 9.50885   2
   2  -3 -14-8.05829 6.12952   2
   2  -3 -14-13.9111 9.79513   1
   2  -3 -13 11.4333 9.81806   1
   2  -3 -13 1.93563 6.24461   2
  -2   3  13 11.0692 8.33682   1
   2  -3 -12 11.3552 5.39745   2
   2  -3 -12 21.9159 8.95661   1
  -2   3  12 1.10153 7.95027   1
   2  -3 -11-0.71195 7.20465   1
   2  -3 -11 1.64549 4.42354   2
  -2   3  11 0.40678 6.19258   1
   2  -3 -10 1.18862 3.53968   2
  -2   3  10-0.31045 5.13282   1
   2  -3  -9 2.51024 5.17279   1
  -2   3   9 8.55509 5.19850   1
   2  -3  -9 4.85720 3.33933   2
   2  -3  -8 36.0920 4.10890   2
   2  -3  -8 44.9742 6.86957   1
  -2   3   8 44.7513 6.55818   1
   2  -3  -7 64.3557 4.57972   2
   2  -3  -7 59.9288 6.56104   1
  -2   3   7 55.9548 6.47783   1
   2  -3  -6 130.850 8.56169   1
   2  -3  -6 120.530 5.50740   2
  -2   3   6 127.027 8.28881   1
  -2   3   5 0.95772 2.99338   1
   2  -3  -5 1.01188 2.72362   1
   2  -3  -5 0.33897 1.78282   2
  -2   3   4 27.3662 2.80991   2
   2  -3  -4 29.2572 2.81507   2
   2  -3  -4 26.6522 4.45639   1
  -2   3   4 28.2532 3.95154   1
   2  -3  -3 3.09323 2.94773   1
  -2   3   3 10.5434 2.07087   2
   2  -3  -3 4.84581 1.79093   2
  -2   3   3 5.90775 2.98761   1
  -2   3   2 15.7828 2.19948   2
   2  -3  -2 17.1530 2.98350   1
  -2   3   2 16.0143 3.16999   1
   2  -3  -2 14.2145 2.17087   2
   2  -3  -1 47.3451 3.29859   2
   2  -3  -1 40.1128 3.95436   1
  -2   3   1 44.5029 3.92812   1
  -2   3   1 39.9681 3.10909   2
  -2   3   0 14.5207 2.26320   2
   2  -3   0 15.6019 2.38067   2
   2  -3   0 15.2134 2.56035   1
  -2   3   0 19.3637 2.62431   1
   2  -3   1 42.9107 3.26750   1
   2  -3   1 41.0426 3.38591   2
  -2   3  -1 46.9798 3.55109   2
  -2   3  -1 42.1762 3.12894   1
  -2   3  -2 24.3397 3.11393   2
   2  -3   2 20.6721 3.06282   2
   2  -3   2 27.4327 2.48962   1
  -2   3  -2 21.6210 2.16817   1
   2  -3   3 182.818 7.38828   2
  -2   3  -3 184.878 7.37644   2
  -2   3  -3 190.349 4.53005   1
  -2   3  -3 196.793 4.66192   1
  -2   3  -4 642.986 5.96935   1
  -2   3  -4 680.549 14.3209   2
  -2   3  -4 660.301 6.16211   1
  -2   3  -5 3.34606 2.81428   2
  -2   3  -6 1.94159 3.15736   2
  -2   3  -7 159.545 8.59913   2
  -2   3  -8 10.4531 3.65753   2
  -2   3  -9 15.4970 5.11672   2
  -2   3 -10 44.3467 7.07083   2
  -2   3 -11 22.2244 5.67305   2
  -2   3 -12 2.17599 6.63039   2
  -2   3 -13-6.02287 7.82746   2
  -2   3 -14 37.0301 9.98277   2
  -2   3 -15 25.7142 10.5717   2
   2  -2 -14 17.6564 6.43187   2
   2  -2 -14 17.9676 6.34143   2
   2  -2 -14 21.8817 10.3219   1
   2  -2 -13 17.6237 5.66722   2
  -2   2  13 20.1267 8.20062   1
   2  -2 -13 21.0640 5.78329   2
   2  -2 -13 20.9307 9.03447   1
   2  -2 -12 5.32627 4.01946   2
   2  -2 -12 3.37279 6.90940   1
  -2   2  12-0.93257 6.55737   1
   2  -2 -11 6.95413 5.70378   1
  -2   2  11 7.72755 6.36971   1
   2  -2 -11 11.7101 3.89820   2
   2  -2 -10 51.5566 4.78720   2
   2  -2 -10 45.2279 7.48410   1
  -2   2  10 43.4933 7.05317   1
   2  -2  -9 78.7190 5.07708   2
   2  -2  -9 88.9243 8.11569   1
  -2   2   9 75.1814 7.33702   1
   2  -2  -8-3.99663 3.53369   1
   2  -2  -8 2.26683 2.12326   2
  -2   2   8 5.57195 4.09407   1
   2  -2  -7 4.32703 3.17228   1
   2  -2  -7 2.82464 1.86976   2
  -2   2   7 3.04905 3.66916   1
   2  -2  -6 6.05357 3.71122   1
   2  -2  -6 0.21899 1.52906   2
  -2   2   6-0.33978 2.55292   1
   2  -2  -5 151.451 4.63465   2
   2  -2  -5 166.657 8.43435   1
  -2   2   5 165.842 8.21127   1
  -2   2   4 5.49091 2.66353   1
   2  -2  -4 2.47316 1.21809   2
   2  -2  -4 4.43622 3.02220   1
  -2   2   4 3.03450 1.28625   2
   2  -2  -3 3.70235 2.76812   1
  -2   2   3 0.99295 1.12321   2
  -2   2   3-0.94817 1.99700   1
   2  -2  -3 0.36143 1.10189   2
   2  -2  -2 59.9628 2.82190   2
  -2   2   2 58.4701 2.82863   2
   2  -2  -2 63.7775 4.66949   1
  -2   2   2 65.0511 4.60371   1
   2  -2  -1 612.413 8.99050   2
  -2   2   1 615.235 8.94186   2
   2  -2  -1 628.990 12.0784   1
  -2   2   1 591.798 11.5896   1
  -2   2   0 46.5041 3.00035   2
   2  -2   0 46.6461 2.99651   2
   2  -2   0 49.4546 3.44622   1
  -2   2   0 47.8314 3.36680   1
   2  -2   1 233.033 6.71518   2
  -2   2  -1 233.093 6.66342   2
   2  -2   1 214.554 6.08522   1
  -2   2  -1 223.481 6.08182   1
  -2   2  -2 9.81891 1.55535   1
  -2   2  -2 8.81200 2.07358   2
  -2   2  -2 8.06468 1.59882   1
  -2   2  -3 49.8550 2.33106   1
  -2   2  -3 45.2846 3.89296   2
  -2   2  -3 50.5612 2.43975   1
  -2   2  -4 341.782 10.0269   2
  -2   2  -4 323.284 4.63118   1
  -2   2  -4 316.728 4.77581   1
  -2   2  -5 5.95686 0.65282   1
  -2   2  -5 2.14219 2.48247   2
  -2   2  -5 3.66115 0.60293   1
  -2   2  -6 2.31626 2.29709   2
  -2   2  -7 1.97980 3.65209   2
  -2   2  -8 252.079 11.4522   2
  -2   2  -8 234.889 3.53759   1
   2  -2   9 17.2560 1.32529   1
  -2   2  -9 18.5798 5.00506   2
  -2   2  -9 16.1144 1.32303   1
   2  -2  10 0.96930 1.00805   1
  -2   2 -10 3.03784 5.33308   2
  -2   2 -10-0.41268 1.12593   1
  -2   2 -11 84.0968 9.08117   2
   2  -2  11 73.0439 2.96173   1
  -2   2 -12 64.9780 9.01812   2
   2  -2  12 36.1665 2.53198   1
   2  -2  13 1.97664 1.54352   1
   2  -2  13 0.01041 1.54035   1
  -2   2 -13 7.29971 7.96284   2
   2  -2  14 2.78405 1.45000   1
  -2   2 -14 21.3728 9.13183   2
  -2   2 -15 3.03940 9.66708   2
   2  -1 -15-1.48017 6.25491   2
   2  -1 -15 14.8771 6.87301   2
  -2   1  15 3.19044 9.29665   1
   2  -1 -15-1.57503 10.2554   1
  -2   1  14 3.02248 7.63165   1
   2  -1 -14-0.15426 5.10498   2
   2  -1 -14 5.47424 5.35478   2
   2  -1 -14-4.27413 8.68722   1
   2  -1 -13-2.16200 4.65357   2
  -2   1  13 8.10835 7.26247   1
   2  -1 -13 1.49553 4.08430   2
   2  -1 -13-1.47303 6.81669   1
   2  -1 -12 99.5547 6.77322   2
   2  -1 -12 99.4768 6.66714   2
   2  -1 -12 128.776 10.7881   1
  -2   1  12 119.428 10.5549   1
   2  -1 -11 0.53924 2.88556   2
  -2   1  11-9.99436 5.22688   1
   2  -1 -11-0.75708 3.03496   2
   2  -1 -11-3.69085 5.39806   1
   2  -1 -10-2.61731 2.63131   2
  -2   1  10 2.12081 3.78358   1
   2  -1 -10 4.54467 5.24382   1
   2  -1  -9 72.1094 4.31376   2
   2  -1  -9 80.7632 7.68152   1
  -2   1   9 73.0402 6.96009   1
   2  -1  -8 163.997 9.32497   1
  -2   1   8 155.795 9.00687   1
   2  -1  -8 163.274 5.47930   2
   2  -1  -7 127.171 4.27870   2
   2  -1  -7 134.194 8.23414   1
  -2   1   7 128.892 7.57959   1
   2  -1  -6 141.886 3.80840   2
   2  -1  -6 148.812 8.00886   1
  -2   1   6 156.913 8.07977   1
   2  -1  -5 146.388 3.09907   2
   2  -1  -5 151.519 7.67405   1
  -2   1   5 155.453 7.63228   1
   2  -1  -4 61.9856 4.73132   1
  -2   1   4 59.6474 4.78423   1
   2  -1  -4 61.9221 1.64676   2
   2  -1  -3 60.5426 1.66067   2
   2  -1  -3 70.1830 4.90161   1
  -2   1   3 61.6150 1.69244   2
  -2   1   3 67.4645 4.80843   1
  -2   1   2 164.151 3.34010   2
   2  -1  -2 169.170 6.66648   1
  -2   1   2 180.874 6.76214   1
  -2   1   1 2.27230 1.93487   1
  -2   1   1 1.94498 1.08493   2
  -2   1   1-1.34878 1.65828   1
  -2   1   0 208.686 5.35853   2
  -2   1   0 204.430 5.96850   1
  -2   1   0 197.969 6.15066   1
  -2   1  -1 7.45720 1.58002   1
  -2   1  -1 6.48347 1.76557   2
  -2   1  -1 6.40434 1.64863   1
  -2   1  -2 1.11365 1.17573   1
   2  -1   2 0.27629 1.14895   1
  -2   1  -2 0.34984 1.82873   2
   2  -1   3 143.210 4.22272   1
  -2   1  -3 122.125 3.91991   1
   2  -1   4 791.742 9.48112   1
  -2   1  -4 770.177 9.41741   1
  -2   1  -5 69.5846 3.13852   1
   2  -1   5 70.1976 3.09384   1
   2  -1   6 82.6931 3.53088   1
  -2   1  -6 80.3616 3.50957   1
   2  -1   7 18.0169 2.17370   1
  -2   1  -7 17.3094 2.19562   1
   2  -1   8 75.8140 3.92865   1
  -2   1  -8 77.8085 4.01315   1
  -2   1  -9 3.80990 2.14224   1
  -2   1  -9 9.09207 4.89658   2
   2  -1   9 5.12325 2.10864   1
  -2   1 -10 101.784 9.12755   2
   2  -1  10 96.7728 5.09276   1
  -2   1 -10 112.132 5.49587   1
  -2   1 -11-0.09467 2.94605   1
  -2   1 -11 1.75348 5.92473   2
   2  -1  11-1.87804 2.59530   1
  -2   1 -12-0.59295 3.22472   1
  -2   1 -12-7.77515 6.62138   2
   2  -1  12-3.59472 3.28004   1
  -2   1 -13 11.9477 8.52282   2
   2  -1  13 1.83386 3.76152   1
  -2   1 -13 2.30918 4.00077   1
  -2   1 -14-1.99200 9.97046   2
  -2   1 -14 2.96799 4.50672   1
   2  -1  14 3.97136 4.05580   1
   2   0 -15-10.4076 5.97826   2
   2   0 -15-4.59150 5.74654   2
  -2   0  15 0.21472 7.84926   1
  -2   0  14-16.1747 6.94870   1
   2   0 -14 5.68380 4.76202   2
   2   0 -14-5.12472 7.69726   1
   2   0 -14-6.89801 4.34056   2
   2   0 -13 0.38199 3.77973   2
  -2   0  13-5.98624 5.82698   1
   2   0 -13 2.92199 3.73050   2
   2   0 -13 8.29015 6.34361   1
   2   0 -12 2.64976 3.17642   2
  -2   0  12-0.94572 5.37315   1
   2   0 -12-3.14799 3.34145   2
   2   0 -12 3.22603 5.47359   1
   2   0 -11 26.2744 3.67704   2
   2   0 -11 30.5284 3.70947   2
  -2   0  11 28.0857 6.08236   1
   2   0 -11 25.4526 6.32858   1
   2   0 -10 28.6804 3.22238   2
   2   0 -10 26.2492 5.36780   1
  -2   0  10 25.8528 5.24503   1
   2   0 -10 28.3593 3.35450   2
   2   0  -9 1.83439 1.75846   2
   2   0  -9 1.52696 1.81536   2
  -2   0   9-1.79641 3.41145   1
   2   0  -9 0.27021 3.81582   1
   2   0  -8 100.229 3.88254   2
   2   0  -8 110.048 7.73166   1
  -2   0   8 99.7337 7.18386   1
   2   0  -8 103.842 3.97845   2
   2   0  -7 283.204 5.22585   2
   2   0  -7 274.798 5.13732   2
   2   0  -7 277.194 10.7157   1
  -2   0   7 284.787 10.8008   1
   2   0  -6 19.8917 1.12175   2
   2   0  -6 18.8984 1.09759   2
   2   0  -6 20.4741 3.65789   1
  -2   0   6 17.1943 3.56180   1
   2   0  -5 589.700 13.8965   1
  -2   0   5 574.617 13.5905   1
  -2   0   4 11.7210 2.93950   1
  -2   0   4 6.90344 2.06219   1
  -2   0   3 6.15234 2.53140   1
  -2   0   3 5.38500 2.14077   1
  -2   0   2 117.473 2.66986   2
  -2   0   2 125.208 5.33010   1
  -2   0   2 130.094 5.75547   1
  -2   0   1 137.341 5.25852   1
  -2   0   0 1392.32 15.6645   1
   2   0   0 1358.43 15.4547   1
   2   0   1 1035.29 13.0991   1
  -2   0  -1 1036.34 13.1490   1
   2   0   2 65.3784 3.50687   1
  -2   0  -2 62.5774 3.44321   1
   2   0   3 207.446 6.01706   1
  -2   0  -3 215.064 6.11462   1
  -2   0  -4 287.837 7.19459   1
   2   0   4 286.241 7.14982   1
   2   0   5-1.09603 1.71290   1
  -2   0  -5-0.72599 1.74649   1
  -2   0  -6 56.1987 3.88863   1
   2   0   6 47.5282 3.55443   1
   2   0   7 32.7708 3.39800   1
  -2   0  -7 33.9982 3.46647   1
  -2   0  -8 8.93200 2.58063   1
   2   0   8 8.14445 2.62112   1
  -2   0  -9 8.30769 3.10009   1
   2   0   9 6.96554 2.93791   1
   2   0  10 164.769 7.62672   1
  -2   0 -10 154.190 7.57386   1
  -2   0 -11 23.5115 4.62706   1
   2   0  11 22.8990 4.31793   1
  -2   0 -12 2.91021 4.35365   1
   2   0  12-0.30859 3.85906   1
  -2   0 -13-3.12771 5.02684   1
  -2   0 -13 0.07608 7.33717   2
   2   0  13 4.07306 4.59342   1
  -2   0 -14-2.67121 5.92439   1
  -2   0 -14 5.72809 9.29102   2
   2   0  14 12.8623 6.14126   1
   2   1 -16-1.83741 6.16510   2
   2   1 -16-1.95812 5.91131   2
  -2  -1  16-1.35846 8.84620   1
  -2  -1  16 0.28078 8.65554   1
   2   1 -15 8.93160 5.54599   2
  -2  -1  15 18.8234 7.91310   1
   2   1 -15 2.19793 5.16472   2
  -2  -1  15 8.41559 7.75410   1
   2   1 -14 30.6788 5.45301   2
  -2  -1  14 18.8177 6.87996   1
   2   1 -14 22.4168 4.84741   2
  -2  -1  14 35.2885 7.88184   1
  -2  -1  13 23.0863 6.40087   1
   2   1 -13 23.3118 4.18549   2
  -2  -1  13 31.6397 6.72087   1
  -2  -1  12 10.1028 5.01062   1
   2   1 -12 12.2058 3.27146   2
  -2  -1  12 12.4603 5.17996   1
  -2  -1  11 12.9379 4.71279   1
  -2  -1  11 2.61929 4.16669   1
   2   1 -11 3.40162 2.60327   2
   2   1 -10 25.4861 2.97388   2
  -2  -1  10 22.0482 4.76930   1
  -2  -1  10 19.6864 4.46101   1
   2   1  -9 93.3533 4.23716   2
  -2  -1   9 90.9700 6.85563   1
  -2  -1   9 91.6122 7.17098   1
  -2  -1   8 1.16145 3.18384   1
  -2  -1   8-0.17755 2.99140   1
   2   1  -8-0.17116 1.32569   2
  -2  -1   7 185.356 8.21864   1
   2   1  -7 169.437 4.05807   2
  -2  -1   7 175.728 8.40579   1
   2   1  -6 143.077 3.06149   2
  -2  -1   6 139.746 7.00449   1
  -2  -1   6 150.018 7.58049   1
  -2  -1   5 109.476 6.01947   1
  -2  -1   5 120.358 6.53359   1
   2   1  -5 113.976 2.21096   2
  -2  -1   4 2.17856 0.54280   2
  -2  -1   4 0.14672 2.11227   1
  -2  -1   3 230.087 4.01915   2
  -2  -1   3 243.214 7.80417   1
   2   1  -3 235.783 7.75189   1
  -2  -1   2 182.627 6.61798   1
   2   1  -2 182.970 6.57120   1
  -2  -1   2 167.895 4.21304   2
  -2  -1   1 1242.82 16.3152   1
   2   1  -1 1243.34 16.2365   1
  -2  -1   1 1226.68 12.8937   2
   2   1   0 53.7271 3.75876   1
  -2  -1   0 50.2119 3.66242   1
   2   1   1 972.729 14.2357   1
  -2  -1  -1 958.417 14.0940   1
  -2  -1  -2 21.4194 2.77396   1
   2   1   2 22.9711 2.76387   1
  -2  -1  -3 37.6166 3.37798   1
   2   1   3 35.8085 3.29474   1
  -2  -1  -4 150.542 6.27021   1
   2   1   4 159.621 6.38794   1
  -2  -1  -5 3.71410 2.33445   1
   2   1   5 3.82666 2.23618   1
  -2  -1  -6 120.427 6.26426   1
   2   1   6 107.238 5.86737   1
   2   1   7 158.554 7.32022   1
  -2  -1  -7 149.651 7.25857   1
   2   1   8 501.427 13.3063   1
  -2  -1  -8 463.543 12.8041   1
   2   1   9 23.0854 4.21163   1
  -2  -1  -9 25.2569 4.37951   1
  -2  -1 -10 0.26779 3.86361   1
   2   1  10 1.29069 3.84769   1
  -2  -1 -11-1.03981 4.31006   1
   2   1  11 11.1196 4.54399   1
  -2  -1 -12 17.3004 5.85905   1
   2   1  12 5.37409 5.17911   1
  -2  -1 -13 4.44681 6.17209   1
   2   1  13-7.36010 6.96820   1
   2   2 -16 19.1439 6.58167   2
  -2  -2  16 25.3002 9.19172   1
  -2  -2  16 18.4399 8.87637   1
  -2  -2  15 0.55009 6.54984   1
  -2  -2  15 2.60691 6.76604   1
   2   2 -15 1.60007 5.23987   2
  -2  -2  14 0.92313 6.26672   1
   2   2 -14 1.37588 4.28264   2
  -2  -2  14 0.96232 5.76501   1
   2   2 -13 0.95145 3.50905   2
  -2  -2  13 1.98838 4.87777   1
  -2  -2  13-1.82880 5.06616   1
  -2  -2  12 2.83372 4.50538   1
  -2  -2  12 1.59143 4.45964   1
   2   2 -12-1.00128 2.97043   2
  -2  -2  11 31.2814 5.20943   1
  -2  -2  11 31.4005 5.39339   1
   2   2 -11 41.5757 3.94575   2
   2   2 -10 109.066 5.19913   2
  -2  -2  10 112.765 7.76570   1
  -2  -2  10 111.154 7.88662   1
   2   2  -9 141.161 5.28209   2
  -2  -2   9 141.131 8.05260   1
  -2  -2   9 143.214 8.48923   1
  -2  -2   8 107.137 6.72443   1
  -2  -2   8 114.769 7.35000   1
   2   2  -8 102.518 4.21208   2
   2   2  -7 161.266 4.74583   2
  -2  -2   7 149.307 7.56439   1
  -2  -2   7 155.435 7.96683   1
   2   2  -6 483.320 7.56621   2
  -2  -2   6 435.440 11.8627   1
  -2  -2   6 485.384 13.0131   1
  -2  -2   6 474.031 7.49177   2
   2   2  -5 113.346 3.71398   2
  -2  -2   5 114.670 6.18680   1
  -2  -2   5 118.429 3.75775   2
  -2  -2   5 126.269 6.80088   1
  -2  -2   4 107.673 3.66663   2
   2   2  -4 104.932 3.70698   2
  -2  -2   4 103.817 5.80100   1
   2   2  -4 104.301 5.62526   1
  -2  -2   3-0.23809 1.30891   2
  -2  -2   3 1.60568 2.24471   1
   2   2  -3 1.66375 2.22417   1
   2   2  -3 0.88549 1.33200   2
  -2  -2   2 110.445 4.38984   2
   2   2  -2 116.077 5.56792   1
  -2  -2   2 111.087 5.65192   1
  -2  -2   1 61.6401 3.75737   2
   2   2  -1 66.9357 4.58208   1
  -2  -2   1 62.6482 4.43208   1
  -2  -2   0 70.4163 4.20134   2
  -2  -2   0 74.0254 4.67486   1
   2   2   0 62.9168 4.50479   1
  -2  -2  -1 333.810 9.31321   2
  -2  -2  -1 343.396 9.56998   1
   2   2   1 340.997 9.49080   1
  -2  -2  -2 20.9935 3.17531   1
   2   2   2 22.1739 3.24318   1
  -2  -2  -2 16.0826 3.25963   2
  -2  -2  -3 4.36749 2.32298   1
   2   2   3 7.07331 2.60856   1
  -2  -2  -3 4.77886 2.92011   2
  -2  -2  -4 33.9164 3.98773   1
   2   2   4 28.0279 3.61661   1
  -2  -2  -5 114.249 6.73431   1
   2   2   5 123.110 6.78542   1
   2   2   6 226.541 9.40713   1
  -2  -2  -6 213.821 9.21061   1
   2   2   7 34.0782 4.83799   1
  -2  -2  -7 31.3746 4.60768   1
  -2  -2  -8 1.66820 3.63553   1
   2   2   8 4.75853 3.90979   1
  -2  -2  -9 5.08478 4.34117   1
   2   2   9 9.87211 4.31451   1
  -2  -2  -9 13.2762 5.86140   2
  -2  -2 -10-2.34670 6.44250   2
  -2  -2 -10 6.77544 5.00939   1
   2   2  10 10.0769 4.72260   1
  -2  -2 -11 5.07499 7.80127   2
  -2  -2 -11 8.83160 5.94621   1
   2   2  11 13.8067 6.08208   1
  -2  -2 -12 0.46864 7.75121   2
  -2  -2 -12 8.62657 6.89122   1
   2   2  12 2.31566 6.41176   1
  -2  -2 -13-3.14904 10.7021   2
  -2  -2 -13-1.95619 7.71546   1
   2   2  13-0.11413 7.09908   1
  -2  -3  16-0.24748 7.89883   1
  -2  -3  16 5.49256 8.10925   1
   2   3 -16-8.61289 6.54024   2
  -2  -3  15 1.71598 6.76366   1
   2   3 -15-2.08621 4.78378   2
  -2  -3  14-0.16696 6.08222   1
  -2  -3  14 0.05394 5.70279   1
   2   3 -14-1.02014 4.30220   2
  -2  -3  13 8.09504 5.26879   1
  -2  -3  13 7.63396 5.05778   1
   2   3 -13 8.09083 3.98295   2
   2   3 -12 19.9196 3.84457   2
  -2  -3  12 19.4946 5.41144   1
  -2  -3  12 20.1295 5.42568   1
   2   3 -11 90.1966 5.49977   2
  -2  -3  11 90.1579 7.31731   1
  -2  -3  11 89.8215 7.77767   1
  -2  -3  10 9.47147 3.71247   1
   2   3 -10 6.06399 2.60493   2
   2   3  -9 98.0999 5.04103   2
  -2  -3   9 87.2105 6.52159   1
  -2  -3   9 91.4999 7.09606   1
   2   3  -8 105.346 4.90563   2
  -2  -3   8 111.721 5.09142   2
  -2  -3   8 107.553 6.78303   1
  -2  -3   8 111.188 7.31714   1
   2   3  -7-0.27959 1.65429   2
  -2  -3   7 3.25780 1.71051   2
  -2  -3   7 0.21355 2.82019   1
  -2  -3   7 1.73383 2.36216   1
   2   3  -6 36.9789 3.04227   2
  -2  -3   6 45.0932 4.61865   1
  -2  -3   6 40.1375 3.05648   2
   2   3  -6 42.1197 4.21027   1
   2   3  -5 478.139 9.37116   2
  -2  -3   5 463.521 12.2583   1
   2   3  -5 479.221 12.3490   1
  -2  -3   5 458.812 9.03034   2
  -2  -3   4 63.1700 3.72697   2
   2   3  -4 65.4158 3.84288   2
   2   3  -4 64.4722 4.96030   1
  -2  -3   4 66.6147 5.05840   1
   2   3  -3 1201.07 15.5401   2
  -2  -3   3 1226.22 15.6404   2
   2   3  -3 1184.32 18.6981   1
  -2  -3   3 1157.65 18.6175   1
   2   3  -2 66.6814 4.20608   2
  -2  -3   2 65.2112 4.22670   2
   2   3  -2 55.0280 4.61748   1
  -2  -3   2 56.5815 4.66364   1
  -2  -3   1 113.429 5.56315   2
  -2  -3   1 109.417 6.15053   1
   2   3  -1 114.807 6.33489   1
  -2  -3   0 176.347 7.34272   2
  -2  -3   0 166.495 7.49837   1
   2   3   0 160.469 7.36518   1
  -2  -3  -1 1.87697 2.54175   2
   2   3   1 2.53565 2.67075   1
  -2  -3  -1-0.62723 2.18333   1
   2   3   2 5.01812 2.65306   1
  -2  -3  -2 2.11697 2.71273   2
  -2  -3  -2 3.60403 2.29806   1
  -2  -3  -3 35.2581 4.65044   2
  -2  -3  -3 34.5364 4.31809   1
   2   3   3 34.1541 4.41695   1
  -2  -3  -4 50.8787 5.48748   1
  -2  -3  -4 49.6430 5.31747   2
   2   3   4 41.7196 4.81039   1
  -2  -3  -5 51.3455 5.86891   2
  -2  -3  -5 60.9709 5.92261   1
   2   3   5 55.6509 5.61751   1
  -2  -3  -6 94.0239 8.22509   2
   2   3   6 101.118 7.42423   1
  -2  -3  -6 97.7243 7.48172   1
  -2  -3  -7-1.55266 4.99014   2
  -2  -3  -7 8.29982 4.41930   1
   2   3   7 3.50360 4.08117   1
  -2  -3  -8 3.87355 5.52918   2
  -2  -3  -8 7.24274 4.84914   1
   2   3   8-0.53403 4.57759   1
   2   3   9 43.0606 6.76804   1
  -2  -3  -9 48.5215 7.24956   1
  -2  -3  -9 36.4845 7.88560   2
  -2  -3 -10-2.67419 6.85943   2
  -2  -3 -10-3.40207 6.24351   1
   2   3  10 16.9970 6.74257   1
  -2  -3 -11 9.44460 7.48071   2
  -2  -3 -11 5.72186 7.25859   1
   2   3  11 13.0224 6.93708   1
  -2  -3 -12-5.18645 9.85806   2
   2   3  12-2.40727 7.89534   1
  -2  -3 -12-1.54945 8.12528   1
  -2  -4  16 15.4574 8.17787   1
   2   4 -16 27.1043 6.68104   2
  -2  -4  16 4.61123 7.96091   1
  -2  -4  15 13.4493 6.86381   1
   2   4 -15 17.9773 5.77375   2
  -2  -4  14 4.50973 5.77595   1
   2   4 -14 4.30495 4.44976   2
  -2  -4  14 3.59083 5.64013   1
  -2  -4  13 0.93390 5.29658   1
   2   4 -13-4.09933 3.80965   2
  -2  -4  13-2.91938 4.63286   1
  -2  -4  12 12.0519 5.20806   1
   2   4 -12 17.3157 4.00084   2
  -2  -4  12 12.1255 4.67894   1
  -2  -4  11-0.27899 4.05092   1
   2   4 -11 2.52566 3.04226   2
  -2  -4  11 3.71600 4.00442   1
   2   4 -10 7.47117 3.12900   2
  -2  -4  10-1.05111 3.70561   1
  -2  -4  10 10.9555 4.06738   1
   2   4  -9 12.7102 2.85535   2
  -2  -4   9 11.9053 3.83548   1
  -2  -4   9 13.0215 2.96110   2
  -2  -4   9 13.4384 4.27117   1
   2   4  -8-2.60167 2.31149   2
  -2  -4   8-1.66003 2.69295   1
  -2  -4   8-1.63638 2.30749   2
  -2  -4   8 1.83524 3.27581   1
   2   4  -7 65.1886 4.47720   2
  -2  -4   7 67.7462 4.52622   2
   2   4  -7 67.0655 5.58452   1
  -2  -4   7 62.3326 5.58841   1
   2   4  -6 288.863 8.65717   2
  -2  -4   6 282.880 8.48734   2
   2   4  -6 288.290 10.4475   1
  -2  -4   6 276.013 10.2301   1
   2   4  -5 22.9940 3.18375   2
  -2  -4   5 23.5828 3.09931   2
   2   4  -5 27.4578 4.18081   1
  -2  -4   5 25.6993 4.12303   1
   2   4  -4 77.4276 4.93824   2
   2   4  -4 78.7437 5.69303   1
  -2  -4   4 76.1291 4.80520   2
  -2  -4   4 73.5948 5.74058   1
  -2  -4   3 49.2677 4.12474   2
   2   4  -3 49.7750 4.24150   2
  -2  -4   3 55.3338 4.98238   1
   2   4  -3 56.1548 5.20203   1
   2   4  -2 75.3310 5.07845   2
  -2  -4   2 69.4432 4.97558   2
  -2  -4   2 70.9855 5.68604   1
   2   4  -2 66.5781 5.56628   1
   2   4  -1 1.15273 2.58073   2
  -2  -4   1-1.29052 2.15007   2
   2   4  -1 2.20780 2.72837   1
  -2  -4   1 4.31343 3.08187   1
  -2  -4   0 101.273 6.43976   2
  -2  -4   0 113.884 7.06931   1
   2   4   0 106.367 6.92072   1
  -2  -4  -1 89.8113 6.48234   2
  -2  -4  -1 88.7637 6.47578   1
   2   4   1 89.5092 6.59148   1
  -2  -4  -2 182.337 9.05260   1
   2   4   2 185.764 9.02107   1
  -2  -4  -2 181.298 8.99884   2
  -2  -4  -3 14.8460 4.43883   2
   2   4   3 15.7738 4.08606   1
  -2  -4  -3 16.0292 3.79357   1
  -2  -4  -4 377.771 13.9669   2
  -2  -4  -4 396.085 14.0445   1
   2   4   4 372.537 13.3145   1
  -2  -4  -5 14.7836 5.29096   2
  -2  -4  -5 8.19112 3.91817   1
   2   4   5 8.19988 4.32658   1
  -2  -4  -6 7.90465 4.78689   2
  -2  -4  -6 2.68327 4.37576   1
   2   4   6 10.1549 4.97391   1
  -2  -4  -7 4.10180 5.80263   2
  -2  -4  -7 8.90201 5.44758   1
   2   4   7 13.7295 5.33269   1
  -2  -4  -8 3.31273 6.67545   2
  -2  -4  -8 0.17035 5.49966   1
   2   4   8 13.6769 5.94699   1
  -2  -4  -9 37.0508 7.34627   1
  -2  -4  -9 48.0549 8.38439   2
   2   4   9 51.9637 8.57478   1
  -2  -4 -10 1.70039 7.34210   1
  -2  -4 -10 6.77527 9.21993   2
   2   4  10 19.5568 7.73654   1
  -2  -4 -11-8.62403 9.88897   2
  -2  -4 -11 11.8674 8.48814   1
   2   4  11 13.6409 8.87528   1
  -2  -5  16 23.5775 8.40217   1
   2   5 -16 23.8539 7.75144   2
  -2  -5  16 26.9212 8.86004   1
  -2  -5  15 9.03388 6.72651   1
   2   5 -15 5.32810 5.48849   2
  -2  -5  15 8.94090 6.49832   1
  -2  -5  14 2.14228 5.94768   1
   2   5 -14-2.13289 4.58975   2
  -2  -5  14 2.11915 5.97491   1
  -2  -5  13 4.07333 5.47892   1
   2   5 -13 8.45613 4.60003   2
  -2  -5  13 6.72398 5.05543   1
  -2  -5  12-3.62470 5.06023   1
   2   5 -12 3.11421 3.87944   2
  -2  -5  12-0.57026 4.45230   1
  -2  -5  11-5.36600 4.55612   1
   2   5 -11 1.06914 3.27657   2
  -2  -5  11-5.09636 4.19475   1
  -2  -5  11-0.73655 3.51371   2
  -2  -5  10 2.65881 3.78478   1
  -2  -5  10 2.99359 3.30369   2
  -2  -5  10 3.07971 4.10117   1
   2   5 -10 3.99841 3.05544   2
   2   5  -9 3.03498 3.04277   2
  -2  -5   9 0.94576 3.57199   1
  -2  -5   9 3.75613 3.93683   1
  -2  -5   9-0.34339 2.83922   2
   2   5  -8 10.2551 3.26382   2
  -2  -5   8 13.6499 4.01494   1
  -2  -5   8 7.94643 3.10946   2
   2   5  -8 10.4836 3.72851   1
   2   5  -7 155.901 7.48116   2
  -2  -5   7 142.201 7.11907   2
   2   5  -7 147.201 8.15677   1
  -2  -5   7 159.687 8.62953   1
  -2  -5   6 4.90221 3.44144   1
   2   5  -6 6.80558 2.79769   2
   2   5  -6 3.61894 3.23312   1
  -2  -5   6 6.03633 2.78713   2
  -2  -5   5 41.9701 4.36823   2
   2   5  -5 47.7765 5.07903   1
   2   5  -5 49.3691 4.78442   2
  -2  -5   5 49.8641 5.47428   1
   2   5  -4 2.89238 2.57148   2
  -2  -5   4-0.36346 2.70999   2
   2   5  -4-1.98424 3.06610   1
  -2  -5   4-2.30391 2.61460   1
   2   5  -3 31.9891 4.34423   2
  -2  -5   3 32.1464 4.02643   2
  -2  -5   3 33.3148 4.78636   1
   2   5  -3 31.9798 4.70653   1
   2   5  -2 224.679 9.31909   2
  -2  -5   2 206.340 9.02198   2
  -2  -5   2 206.662 9.70507   1
   2   5  -2 208.930 9.72791   1
   2   5  -1 6.94677 2.97356   2
  -2  -5   1 11.2931 3.28732   2
  -2  -5   1 13.9771 4.09979   1
   2   5  -1 13.8836 3.95090   1
   2   5   0 2.76342 3.53071   1
  -2  -5   0 4.04020 3.43571   1
  -2  -5   0-0.38672 3.42725   2
   2   5   0 4.28957 3.30822   2
  -2  -5  -1 66.4898 6.37281   1
   2   5   1 66.8903 6.18814   1
  -2  -5  -1 74.4000 6.75904   2
  -2  -5  -2 5.94323 3.94849   1
  -2  -5  -2 12.7911 4.63249   2
   2   5   2 7.66008 3.89927   1
  -2  -5  -3 11.4016 5.03518   2
   2   5   3 17.2286 4.51885   1
  -2  -5  -3 8.99760 4.40062   1
  -2  -5  -4 16.9369 5.66436   2
  -2  -5  -4 9.90996 4.79278   1
   2   5   4 9.68443 4.56266   1
  -2  -5  -5 4.91581 5.77331   2
  -2  -5  -5-1.53659 5.08301   1
   2   5   5-2.27955 4.46006   1
  -2  -5  -6 6.75259 6.22630   2
  -2  -5  -6-2.87849 5.24178   1
   2   5   6-3.47537 5.12336   1
  -2  -5  -7 6.85021 5.93235   2
  -2  -5  -7 1.37209 6.33491   1
   2   5   7-2.59946 6.04884   1
  -2  -5  -8 45.6319 8.54604   2
  -2  -5  -8 47.9659 8.24305   1
   2   5   8 37.2358 8.29688   1
   2   5   9 59.0186 9.98526   1
  -2  -5  -9 68.2462 10.5491   2
  -2  -5  -9 67.9513 10.4831   1
  -2  -5 -10 3.92062 11.5008   2
  -2  -5 -10 8.93599 9.52104   1
   2   5  10-6.20949 8.61288   1
  -2  -6  16-7.95952 7.69826   1
  -2  -6  16-5.28659 7.22594   1
  -2  -6  15-0.72643 6.81204   1
   2   6 -15 4.32766 6.46543   2
  -2  -6  15 3.71048 6.83774   1
  -2  -6  14 2.99765 6.18843   1
  -2  -6  14 2.25291 5.85934   1
   2   6 -14-5.27366 5.43078   2
  -2  -6  13-8.55175 5.85925   1
  -2  -6  13-6.58375 5.80496   1
   2   6 -13-5.05151 5.37708   2
  -2  -6  12 2.02606 4.70186   1
   2   6 -12 2.67790 4.47614   2
  -2  -6  12-4.80841 4.34917   2
  -2  -6  12-4.61185 4.94051   1
  -2  -6  11-4.03448 4.73279   1
   2   6 -11-1.41423 4.02268   2
  -2  -6  11 8.38008 4.20187   2
  -2  -6  11-0.71110 5.09689   1
   2   6 -10 12.7162 4.26454   2
  -2  -6  10 23.8453 4.86885   2
  -2  -6  10 15.5298 4.83748   1
  -2  -6  10 22.2424 5.53459   1
   2   6  -9 12.2827 3.87206   2
   2   6  -9 10.3376 4.21900   1
  -2  -6   9 10.0718 4.05690   1
  -2  -6   9 6.04224 3.73786   2
   2   6  -8 24.6758 4.56753   2
  -2  -6   8 20.4966 4.39887   2
   2   6  -8 19.7023 4.72933   1
  -2  -6   8 16.4117 4.31460   1
   2   6  -7 45.8589 5.29790   2
  -2  -6   7 46.7994 5.17171   2
   2   6  -7 49.3088 5.68930   1
  -2  -6   7 54.8668 5.82717   1
   2   6  -6 4.37268 3.60408   1
   2   6  -6 0.33128 3.25726   2
  -2  -6   6 1.53426 3.12855   2
  -2  -6   6 7.30695 3.85582   1
   2   6  -5 50.8504 5.48129   2
  -2  -6   5 52.5684 5.35672   2
   2   6  -5 47.9218 5.86511   1
  -2  -6   5 50.2195 5.66768   1
   2   6  -4 72.2075 6.74143   1
  -2  -6   4 66.0766 6.11818   2
   2   6  -4 72.5171 6.38457   2
  -2  -6   4 71.8350 6.47051   1
  -2  -6   3 82.9628 6.77273   2
  -2  -6   3 94.0615 7.40982   1
   2   6  -3 85.5073 6.95314   2
   2   6  -3 82.0572 7.21683   1
   2   6  -2 157.040 8.80186   2
  -2  -6   2 146.189 9.16803   1
  -2  -6   2 154.617 8.72859   2
   2   6  -2 134.624 8.91467   1
  -2  -6   1 203.691 10.3908   2
  -2  -6   1 209.439 10.7718   1
   2   6  -1 184.766 10.0962   2
   2   6  -1 198.250 10.6071   1
  -2  -6   0 216.104 11.0208   2
  -2  -6   0 215.235 11.1456   1
   2   6   0 226.853 11.4746   1
   2   6   0 211.360 10.7268   2
  -2  -6  -1 25.6230 5.85490   1
  -2  -6  -1 41.9782 6.02340   2
   2   6   1 34.6727 6.22481   1
  -2  -6  -2 37.6146 6.62583   2
  -2  -6  -2 48.4176 6.53005   1
   2   6   2 42.0149 6.40805   1
  -2  -6  -3 1.01012 4.97341   2
  -2  -6  -3 1.38243 5.38692   1
   2   6   3 7.69273 5.38163   1
  -2  -6  -4 1.20657 5.96511   2
  -2  -6  -4 13.1775 5.94043   1
   2   6   4 3.10585 4.57446   1
  -2  -6  -5 42.0954 7.54499   1
  -2  -6  -5 42.8418 8.52520   2
   2   6   5 35.2001 7.12493   1
  -2  -6  -6 92.7720 10.8310   2
   2   6   6 79.5421 9.60833   1
  -2  -6  -6 82.2654 9.93449   1
  -2  -6  -7 1.80665 7.28459   2
  -2  -6  -7 13.7310 8.16122   1
   2   6   7-1.49796 6.63655   1
  -2  -6  -8 40.5319 9.78756   1
  -2  -6  -8 46.5259 10.5152   2
  -2  -6  -9 0.26170 9.41718   2
  -2  -6  -9 7.67019 10.3003   1
   2   6   9-10.9575 9.46146   1
  -2  -7  15 19.8149 7.92336   1
   2   7 -15 23.6586 8.15833   2
  -2  -7  15 18.3959 7.47936   1
  -2  -7  14 1.70012 7.17040   1
   2   7 -14-1.17194 6.18953   2
  -2  -7  14 18.2708 6.75255   1
  -2  -7  13 7.42485 6.30229   1
   2   7 -13 13.6195 6.34327   2
  -2  -7  13 0.25754 5.90473   2
  -2  -7  13 13.2929 6.58380   1
   2   7 -12-3.37389 5.54219   2
  -2  -7  12-1.17893 5.43731   2
  -2  -7  12-9.15919 5.55516   1
  -2  -7  12-2.17596 5.75106   1
   2   7 -11 13.5270 5.26845   2
  -2  -7  11 22.6659 5.92059   2
  -2  -7  11 15.9028 5.96243   1
  -2  -7  11 19.5782 5.91763   1
   2   7 -10 4.52648 4.37823   2
  -2  -7  10 3.14076 4.39232   2
  -2  -7  10 9.97240 4.91390   1
   2   7 -10-0.59436 4.85611   1
   2   7  -9 50.6903 6.38829   2
  -2  -7   9 43.3959 6.22053   2
  -2  -7   9 37.4688 6.14986   1
   2   7  -9 42.9897 6.28742   1
   2   7  -8 0.40072 4.06131   2
  -2  -7   8 4.01807 4.36737   2
  -2  -7   8-5.01338 4.32623   1
   2   7  -8-3.76034 4.44105   1
  -2  -7   7 28.9116 5.41144   2
   2   7  -7 19.4262 4.85813   2
   2   7  -7 30.8340 5.28407   1
  -2  -7   7 23.6632 5.42793   1
   2   7  -6 15.2100 4.51478   2
  -2  -7   6 6.96094 4.13026   2
  -2  -7   6 17.2663 4.99778   1
   2   7  -6 9.30922 4.67229   1
   2   7  -5 8.07817 4.24082   2
  -2  -7   5-1.48084 4.41060   1
  -2  -7   5 13.7339 4.83231   2
   2   7  -5 0.69094 4.47760   1
   2   7  -4 34.1031 5.95983   2
  -2  -7   4 23.0121 5.01394   2
  -2  -7   4 30.2302 5.28990   1
   2   7  -4 25.5410 5.19430   1
   2   7  -3-2.80460 4.29863   2
  -2  -7   3 4.35430 4.39680   1
   2   7  -3-2.15088 3.70973   1
  -2  -7   3-0.93813 3.96372   2
   2   7  -2 13.4752 4.98236   1
  -2  -7   2 6.28458 4.65911   2
   2   7  -2 3.61421 4.35879   2
  -2  -7   2 17.2554 5.35433   1
   2   7  -1 177.035 10.6400   2
  -2  -7   1 170.889 10.5557   2
  -2  -7   1 186.301 11.2533   1
   2   7  -1 186.580 11.0109   1
  -2  -7   0 38.3028 6.12284   2
   2   7   0 28.7037 6.11243   1
  -2  -7   0 31.3638 6.14604   1
   2   7   0 25.3460 5.74713   2
   2   7   1 12.4698 5.80455   1
  -2  -7  -1 14.2432 5.36032   2
  -2  -7  -1 20.0497 5.78184   1
  -2  -7  -2-0.60854 5.93357   2
  -2  -7  -2 0.25496 5.28970   1
   2   7   2 2.50833 5.09624   1
  -2  -7  -3 14.7366 7.16949   2
  -2  -7  -3 12.3541 6.77301   1
   2   7   3 10.6783 6.99458   1
  -2  -7  -4 1.65988 6.23381   2
  -2  -7  -4 6.39670 6.84475   1
   2   7   4 15.7496 6.83549   1
  -2  -7  -5 46.3853 8.96267   2
   2   7   5 61.9068 10.2814   1
  -2  -7  -5 57.7801 9.90077   1
  -2  -7  -6 98.8093 11.6985   2
  -2  -7  -6 71.6853 12.0905   1
  -2  -7  -7 61.6678 12.6337   2
  -2  -7  -7 44.6932 10.8767   1
  -2  -8  15 2.94040 6.91962   1
   2   8 -15 2.36951 6.36709   2
  -2  -8  15-1.70206 6.12707   1
  -2  -8  14 9.24898 7.59934   1
   2   8 -14-2.99700 7.56836   2
  -2  -8  14 13.6264 7.24689   1
   2   8 -13 6.40993 6.77839   2
  -2  -8  13-2.15826 6.67324   2
  -2  -8  13 4.10943 6.35062   1
  -2  -8  13 3.28392 6.92704   1
   2   8 -12 6.39163 6.70226   2
  -2  -8  12 3.88361 6.48829   2
  -2  -8  12-9.26563 5.83183   1
  -2  -8  12-3.88266 6.38320   1
   2   8 -11 31.0341 6.69987   1
   2   8 -11 28.1092 6.73358   2
  -2  -8  11 24.0466 6.81351   2
  -2  -8  11 32.6211 6.88600   1
   2   8 -10-3.01902 5.83539   2
  -2  -8  10-1.88937 5.55601   1
  -2  -8  10 14.1979 6.18549   2
   2   8 -10 0.05448 5.33149   1
   2   8  -9 16.0211 6.26543   2
  -2  -8   9 23.2507 6.36303   1
  -2  -8   9 30.8110 6.49529   2
   2   8  -9 19.4489 6.11689   1
   2   8  -8 1.47070 5.34621   2
   2   8  -8 18.1357 5.81398   1
  -2  -8   8 24.7662 5.84006   1
  -2  -8   8 12.6827 5.47096   2
   2   8  -7 18.8446 5.38452   1
   2   8  -7 26.9027 6.31974   2
  -2  -8   7 3.59002 5.31481   1
  -2  -8   7 18.3848 5.46047   2
   2   8  -6 17.5521 5.35627   2
  -2  -8   6 16.4751 5.60188   1
  -2  -8   6 11.9343 5.29092   2
   2   8  -6 29.6606 6.28093   1
   2   8  -5 55.6243 7.63517   1
  -2  -8   5 61.7211 7.55153   1
  -2  -8   5 55.2763 7.44048   2
   2   8  -5 55.7449 7.37831   2
   2   8  -4 14.5003 5.92887   2
  -2  -8   4 18.2520 6.10186   2
   2   8  -4 18.2316 6.07711   1
  -2  -8   4 14.4940 5.87982   1
   2   8  -3 92.3928 9.11517   2
  -2  -8   3 73.4883 8.78417   1
  -2  -8   3 78.7699 8.52916   2
   2   8  -3 76.9991 8.43028   1
   2   8  -2 166.054 11.2524   2
  -2  -8   2 166.688 11.4453   2
  -2  -8   2 153.036 11.4021   1
   2   8  -2 144.693 10.6026   1
   2   8  -1 3.75377 5.32604   1
  -2  -8   1-3.43818 5.15526   2
   2   8  -1 0.36710 5.15286   2
  -2  -8   1-1.61825 5.71479   1
   2   8   0-3.04152 6.67506   1
  -2  -8   0 1.64159 5.32524   2
   2   8   0 7.62574 5.95083   2
  -2  -8   0-1.28612 6.37489   1
   2   8   1 2.55451 6.93127   1
  -2  -8  -1 9.18380 6.97590   2
  -2  -8  -1-2.46556 5.61836   1
  -2  -8  -2 38.4277 8.40618   2
   2   8   2 23.2621 7.11681   1
  -2  -8  -2 43.7886 9.07493   1
  -2  -8  -3 18.0120 8.71263   2
  -2  -8  -3 6.92961 7.69311   1
   2   8   3 10.9687 8.30897   1
  -2  -8  -4 60.8872 10.4714   2
   2   8   4 60.5977 10.9955   1
  -2  -8  -4 46.8595 10.9641   1
  -2  -8  -5 11.8596 9.19386   2
  -2  -8  -5 29.0785 10.4288   1
   2   8   5-2.44692 8.26407   1
  -2  -8  -6-8.27787 11.3426   2
  -2  -8  -6 26.6510 11.0156   1
   2   8   6 15.3142 10.3905   1
   2   9 -14 15.3829 6.01463   2
  -2  -9  14 21.4294 6.03849   1
  -2  -9  14 12.5596 6.14910   2
  -2  -9  14 25.6394 6.79739   1
   2   9 -13 2.24547 8.41165   2
  -2  -9  13 20.5434 7.88398   1
  -2  -9  13 3.10540 8.47062   2
  -2  -9  13 11.2307 8.60427   1
   2   9 -12 1.29551 8.04676   2
  -2  -9  12 2.34587 7.02280   1
  -2  -9  12 14.7204 7.82889   2
   2   9 -11 24.8548 7.50924   1
  -2  -9  11 16.6720 7.69444   1
  -2  -9  11 25.0979 8.09739   2
   2   9 -11 35.1216 8.55197   2
   2   9 -10-4.59561 6.38592   1
  -2  -9  10 2.02669 6.52193   1
  -2  -9  10-13.7134 7.06236   2
  -2  -9   9 48.8677 8.19855   2
   2   9  -9 28.1971 7.22505   2
  -2  -9   9 33.8216 7.53522   1
   2   9  -9 13.6016 6.28321   1
   2   9  -8 8.27026 5.70105   1
   2   9  -8 5.97302 6.04327   2
  -2  -9   8-3.46583 6.41969   1
  -2  -9   8 3.47821 5.91082   2
  -2  -9   7 3.56712 5.89626   1
   2   9  -7-2.97151 5.97922   2
  -2  -9   7-0.79205 5.83768   2
   2   9  -7-3.71614 5.87563   1
  -2  -9   6-3.93947 6.22469   1
  -2  -9   6-1.20755 5.88025   2
   2   9  -6-4.83287 5.71187   1
   2   9  -6 0.18709 5.52953   2
  -2  -9   5 26.6848 7.19764   1
   2   9  -5 33.4727 7.99086   2
  -2  -9   5 31.4009 7.25626   2
   2   9  -5 37.9038 7.62868   1
  -2  -9   4 6.81922 6.03877   1
   2   9  -4 2.30991 5.94837   2
   2   9  -4 6.85220 6.89820   1
  -2  -9   4 10.0607 7.20696   2
  -2  -9   3 7.56246 7.10897   1
   2   9  -3-5.02168 6.54114   2
   2   9  -3 4.64582 5.78750   1
  -2  -9   3-3.55965 5.56979   2
   2   9  -2 4.44609 6.68640   2
   2   9  -2 10.6828 6.96111   1
  -2  -9   2-1.87860 7.16680   2
  -2  -9   2 7.13309 7.42399   1
   2   9  -1 5.28761 7.46077   1
   2   9  -1 18.6693 8.07697   2
  -2  -9   1 23.7042 8.16584   2
   2   9   0-2.21125 8.11236   1
  -2  -9   0 10.7466 7.24305   2
  -2  -9   0 14.8521 8.04999   1
  -2  -9  -1 2.14131 8.48859   2
   2   9   1 11.2024 7.80935   1
  -2  -9  -1 8.15811 7.92475   1
   2   9   2-0.24955 9.33817   1
  -2  -9  -2 0.88397 8.91547   2
  -2  -9  -2-0.33719 8.94579   1
  -2  -9  -3 11.6548 9.56548   2
  -2  -9  -3-7.87702 11.5983   1
   2   9   3-10.9944 11.5694   1
  -2  -9  -4-6.75154 9.34578   2
  -2  -9  -4 10.9591 11.3467   1
   2   9   4-6.22975 11.5978   1
  -2 -10  12 6.81546 8.21449   1
   2  10 -12 4.71551 9.61411   2
   2  10 -12 6.00945 8.23202   1
  -2 -10  12-5.69790 9.61992   2
  -2 -10  11 5.76881 8.69594   1
   2  10 -11 0.21737 9.02545   2
  -2 -10  11 22.7281 9.01742   2
   2  10 -11 4.62712 8.68356   1
  -2 -10  10 5.19540 8.00995   1
   2  10 -10-2.86978 9.47945   2
  -2 -10  10-8.13844 9.33359   2
   2  10 -10 10.2887 8.28406   1
  -2 -10   9-3.93503 8.04320   1
   2  10  -9 25.4323 8.64311   2
   2  10  -9 26.9682 7.91454   1
  -2 -10   9 9.47257 8.83211   2
  -2 -10   8 34.3601 8.63257   1
   2  10  -8 13.0546 8.16059   1
   2  10  -8 15.7450 8.50452   2
  -2 -10   8 15.7063 7.99882   2
  -2 -10   7 19.3638 8.39227   1
   2  10  -7 20.3170 8.35810   2
  -2 -10   7 23.4329 8.86433   2
   2  10  -7 15.3546 8.14403   1
   2  10  -6-1.88060 7.20485   2
  -2 -10   6 5.17526 8.46854   1
  -2 -10   6 1.19174 7.88765   2
   2  10  -6-3.70252 7.80055   1
  -2 -10   5 3.45909 8.51595   1
   2  10  -5-1.46331 7.09493   2
   2  10  -5 9.65937 8.31640   1
   2  10  -4 4.47858 8.22519   2
   2  10  -4 5.48613 8.82199   1
  -2 -10   4 2.98861 7.43143   2
  -2 -10   4-6.16165 7.51288   1
   2  10  -3 12.2655 9.10267   2
   2  10  -3 2.89914 8.92588   1
  -2 -10   3-16.7389 9.12767   2
  -2 -10   3-9.55730 8.55763   1
   2  10  -2 11.2665 8.14212   1
  -2 -10   2-16.0986 8.96117   2
   2  10  -2-7.94438 9.25699   2
  -2 -10   2 16.4710 10.0186   1
   2  10  -1 11.2696 8.09559   1
  -2 -10   1 12.5956 8.45980   2
  -2 -10   1 10.6986 8.52929   1
   2  10  -1 2.30431 8.62784   2
   2  10   0-0.34957 8.68375   1
  -2 -10   0 0.75281 10.6201   2
  -2 -10   0 1.50297 8.78540   1
   2  10   1 0.18178 11.2370   1
  -2 -10  -1 11.1900 11.6111   2
  -2 -10  -1 14.1080 11.0251   1
  -2 -11   9-4.44665 8.40326   1
   2  11  -9-2.46406 8.65763   2
   2  11  -9-0.68626 7.96288   1
  -2 -11   9-13.8520 9.34783   2
  -2 -11   8 14.0348 9.99286   1
   2  11  -8 26.2643 10.2142   1
  -2 -11   8 7.89433 10.8316   2
   2  11  -8 23.3993 10.6141   2
   2  11  -7-9.32111 9.69344   2
  -2 -11   7 10.4965 10.4496   1
  -2 -11   7 4.33512 10.4605   2
   2  11  -7-12.5964 8.99493   1
   2  11  -6 3.07368 9.19602   2
  -2 -11   6 3.18708 9.23191   2
   2  11  -6-4.94555 10.2383   1
  -2 -11   6 4.57581 10.3147   1
   2  11  -5 17.1183 10.3319   2
  -2 -11   5-6.82768 10.5324   2
   2  11  -5 21.8998 9.56891   1
  -2 -11   5-11.4015 9.38945   1
   2  11  -4-10.7666 10.9660   2
  -2 -11   4 0.25168 10.3819   2
   2  11  -4 6.51248 10.1154   1
  -2 -11   4 9.65238 10.0973   1
   2  11  -3 17.3806 10.6247   2
  -2 -11   3-7.67027 10.9878   2
   2  11  -3-10.2657 11.0026   1
  -2 -11   3 20.4274 11.5272   1
   3 -11   3 8.61778 6.26621   1
  -3  11  -3 27.6356 8.00241   2
  -3  11  -3 12.2760 6.14960   1
   3 -11   3 34.4434 8.59309   2
   3 -11   4-13.9150 7.29887   1
   3 -11   4-10.3971 7.88510   2
  -3  11  -4-6.24365 6.65419   1
  -3  11  -5 44.3096 9.10646   2
   3 -11   5 28.4579 8.41197   2
   3 -11   5 32.1463 6.81384   1
  -3  11  -5 11.4568 5.43028   1
  -3  10   2-1.13846 9.49442   1
   3 -10  -2-14.8017 9.67405   1
  -3  10   2-4.85626 9.00031   2
   3 -10  -2-7.85062 9.22168   2
  -3  10   1-5.22471 8.71840   1
   3 -10  -1-2.34701 10.4287   1
  -3  10   1-2.78329 8.41792   2
   3 -10  -1-0.63787 9.13686   2
  -3  10   0 4.57303 8.22996   1
  -3  10   0 7.04339 8.26075   2
   3 -10   0 21.6665 8.87799   2
   3 -10   0-0.45364 9.31827   1
   3 -10   1 6.07177 8.02945   1
  -3  10  -1 17.0534 7.60255   1
  -3  10  -1-13.2555 9.50866   2
   3 -10   1-9.14361 8.79563   2
  -3  10  -2-2.30651 7.73879   2
  -3  10  -2 22.8143 7.71036   1
   3 -10   2 5.55293 7.56857   1
   3 -10   2 6.99597 7.62419   2
   3 -10   3-12.9781 7.06344   1
  -3  10  -3 0.36409 8.60858   2
  -3  10  -3 2.51562 6.54093   1
   3 -10   3 6.61073 8.37452   2
   3 -10   4 1.83557 6.56575   1
  -3  10  -4-6.84931 8.35762   2
  -3  10  -4-3.89494 5.83978   1
   3 -10   4 10.0849 8.88698   2
  -3  10  -5-7.79346 9.05873   2
   3 -10   5-8.23005 9.84771   2
  -3  10  -5-4.41012 5.50047   1
   3 -10   5 5.68190 6.28292   1
   3 -10   6-3.09012 5.34429   1
  -3  10  -6-4.83016 8.50982   2
   3 -10   6 2.74494 9.90405   2
  -3  10  -6 5.24342 5.01317   1
  -3  10  -7-2.53805 4.10633   1
  -3  10  -7 2.97501 8.49867   2
   3 -10   7 17.6396 10.4754   2
   3 -10   7-1.18916 4.41200   1
  -3  10  -8 3.32217 1.57649   1
  -3  10  -8 9.96383 11.2075   2
   3 -10   8-4.22145 9.72887   2
  -3  10  -9-5.16637 10.2152   2
   3 -10   9 10.0469 9.83763   2
  -3   9   5 17.0969 10.6387   1
   3  -9  -5-2.36472 11.7197   1
  -3   9   5 5.77220 8.67606   2
   3  -9  -5-7.45927 8.83901   2
   3  -9  -4-15.9223 11.6631   1
  -3   9   4 3.76503 8.07793   2
   3  -9  -4-4.33126 7.87393   2
  -3   9   3 21.9494 8.63384   1
   3  -9  -3 5.66747 9.41411   1
  -3   9   3 13.4702 7.90304   2
   3  -9  -3 22.2765 7.83265   2
  -3   9   2 0.57778 7.66193   1
   3  -9  -2-8.41866 7.59444   1
  -3   9   2 18.3842 7.84238   2
   3  -9  -2 0.06152 6.82969   2
  -3   9   1 2.27289 7.14491   1
   3  -9  -1-10.9966 7.62585   1
  -3   9   1 5.41828 7.06438   2
   3  -9  -1 3.30073 6.85160   2
   3  -9   0-1.31024 7.63636   1
  -3   9   0 3.32708 6.69144   1
  -3   9   0-10.2523 7.64475   2
   3  -9   0 7.74748 7.04857   2
  -3   9  -1 13.0084 6.43265   1
   3  -9   1 2.22156 6.34772   1
  -3   9  -1-2.66874 6.93856   2
   3  -9   1 7.07497 6.75418   2
  -3   9  -2 1.75339 5.46875   1
   3  -9   2-2.24240 5.79629   1
  -3   9  -2 7.75156 7.16145   2
   3  -9   2-3.23766 7.19493   2
  -3   9  -3 12.4763 5.57215   1
  -3   9  -3 19.2834 7.16998   2
   3  -9   3 2.29641 6.95310   2
   3  -9   3 10.1499 5.69097   1
  -3   9  -4 5.53431 6.02681   2
  -3   9  -4 1.28243 4.85654   1
   3  -9   4 6.96338 5.12486   1
   3  -9   4 6.23814 7.10495   2
   3  -9   5 3.66517 4.78099   1
  -3   9  -5 7.39397 7.62828   2
  -3   9  -5 8.39974 4.24571   1
   3  -9   5 14.2870 7.03934   2
   3  -9   6 6.22385 4.02608   1
  -3   9  -6 4.78333 6.80785   2
   3  -9   6 2.45882 7.65557   2
  -3   9  -6-0.78807 3.75895   1
  -3   9  -7-0.01833 2.69198   1
  -3   9  -7-0.28671 6.62051   2
   3  -9   7-11.4975 7.92781   2
   3  -9   7-0.65175 2.73117   1
  -3   9  -8-3.74400 8.39651   2
   3  -9   8 10.2804 8.41471   2
  -3   9  -9 17.1869 8.71348   2
   3  -9   9-12.1717 8.39658   2
  -3   9 -10 12.8329 10.2405   2
  -3   9 -11 12.5497 10.4930   2
   3  -8  -7-3.50835 10.2028   1
   3  -8  -7 7.41565 7.66743   2
  -3   8   7-20.6849 11.2372   1
   3  -8  -6 14.7308 6.91716   2
  -3   8   6 4.51450 10.2243   1
   3  -8  -5-6.08939 9.33052   1
  -3   8   5-1.47204 6.68712   2
   3  -8  -5-2.76005 6.52598   2
  -3   8   5 2.98160 8.95163   1
   3  -8  -4 11.3309 8.35355   1
  -3   8   4 24.8381 6.63446   2
   3  -8  -4 14.0348 6.66820   2
  -3   8   4 19.7721 8.85764   1
   3  -8  -3-0.93719 6.79373   1
  -3   8   3-0.94936 6.00845   2
   3  -8  -3 7.54154 6.00655   2
  -3   8   3 11.7449 7.26801   1
   3  -8  -2 3.46239 6.70636   1
  -3   8   2-4.10003 5.79148   2
   3  -8  -2-3.45639 6.06357   2
  -3   8   2-3.93613 5.79856   1
  -3   8   1 30.2606 6.79420   2
   3  -8  -1 27.9584 6.25553   2
   3  -8  -1 34.0756 7.76431   1
  -3   8   1 24.0172 6.69138   1
   3  -8   0-6.36790 5.92008   1
  -3   8   0-5.22795 5.08983   2
   3  -8   0 9.62517 5.70211   2
  -3   8   0 4.31526 5.49066   1
   3  -8   1 40.9145 7.15883   2
   3  -8   1 33.3491 6.38217   1
  -3   8  -1 44.7985 6.80760   1
  -3   8  -1 39.6948 6.75512   2
   3  -8   2-1.77685 4.80836   1
  -3   8  -2-0.59641 5.15327   2
  -3   8  -2-1.14914 4.29227   1
   3  -8   2 7.04543 5.05930   2
   3  -8   3 19.4496 4.92527   1
  -3   8  -3 14.7656 4.54182   1
  -3   8  -3 5.13262 4.93681   2
   3  -8   3 9.49695 5.92832   2
   3  -8   4 4.92610 3.77745   1
  -3   8  -4 4.43810 3.65995   1
  -3   8  -4 2.75375 5.76800   2
   3  -8   4 1.44894 5.48978   2
  -3   8  -5 33.1506 6.92811   2
  -3   8  -5 28.0405 4.34710   1
   3  -8   5 27.4571 7.35068   2
   3  -8   5 36.2065 4.75221   1
  -3   8  -6-1.97941 6.26388   2
   3  -8   6-0.06315 6.06455   2
  -3   8  -6-3.56099 2.51427   1
   3  -8   6 0.87346 2.76364   1
  -3   8  -7 0.65441 1.01830   1
  -3   8  -7-8.15017 7.28220   2
   3  -8   7-1.92486 6.54377   2
  -3   8  -8 4.20778 6.17875   2
   3  -8   8-0.49086 7.49196   2
  -3   8  -9 6.45774 6.58038   2
  -3   8 -10-2.50683 8.38486   2
  -3   8 -11 9.98675 8.63444   2
  -3   8 -12 22.3866 9.36412   2
   3  -7  -9 16.0709 4.77929   2
   3  -7  -8-2.90784 10.3723   1
   3  -7  -8 26.5569 7.49995   2
  -3   7   8 8.19299 9.10068   1
   3  -7  -7 0.69633 10.0433   1
   3  -7  -7-6.38758 5.61349   2
  -3   7   7-2.97898 7.58944   1
   3  -7  -6 24.8472 9.33741   1
   3  -7  -6 21.7793 6.28458   2
  -3   7   6 28.4544 8.69367   1
   3  -7  -5 20.0374 8.35046   1
  -3   7   5 10.1392 5.06198   2
   3  -7  -5 16.0839 5.27570   2
   3  -7  -4 1.17624 6.79120   1
   3  -7  -4 2.40490 4.69312   2
  -3   7   4 14.4554 6.82545   1
  -3   7   4 4.08371 5.08926   2
   3  -7  -3 13.5162 5.98773   1
  -3   7   3 17.4720 5.34135   2
   3  -7  -3 13.6167 5.25584   2
  -3   7   3 25.6101 7.03021   1
  -3   7   2 44.3417 6.16760   2
  -3   7   2 58.9981 7.54744   1
   3  -7  -2 55.2556 6.40065   2
   3  -7  -2 51.8783 7.45845   1
  -3   7   1 24.2711 5.18365   2
   3  -7  -1 18.9652 5.76591   1
   3  -7  -1 22.7980 5.45639   2
  -3   7   1 28.9748 6.04269   1
  -3   7   0 5.30128 4.21451   2
   3  -7   0-2.84919 4.08528   2
   3  -7   0 6.44399 4.95848   1
  -3   7   0 1.12719 4.24263   1
   3  -7   1 10.1476 4.39606   1
  -3   7  -1-0.22794 4.05285   2
   3  -7   1 5.27466 4.45411   2
  -3   7  -1 5.96844 4.37747   1
  -3   7  -2 152.722 9.75358   2
   3  -7   2 131.177 9.17945   2
   3  -7   2 138.544 8.51048   1
  -3   7  -2 168.092 8.98667   1
  -3   7  -3 113.614 8.77221   2
   3  -7   3 132.977 9.34494   2
  -3   7  -3 125.342 7.35541   1
   3  -7   3 122.607 7.45889   1
   3  -7   4 10.8219 3.55822   1
  -3   7  -4 6.85362 4.90441   2
  -3   7  -4 9.55955 3.35846   1
   3  -7   4 6.82922 4.76518   2
   3  -7   5 39.5940 6.78737   2
  -3   7  -5 46.1809 4.09134   1
  -3   7  -5 54.9843 7.22872   2
   3  -7   5 42.3803 4.19729   1
  -3   7  -6 1.27735 5.50512   2
  -3   7  -6 1.07881 1.53946   1
   3  -7   6 3.36880 4.99953   2
  -3   7  -6-0.37658 1.60106   1
  -3   7  -7 6.17423 5.68600   2
   3  -7   7-1.51667 6.04820   2
  -3   7  -8 4.64136 6.58079   2
  -3   7  -9-2.42550 7.01799   2
  -3   7 -10 3.60931 6.47131   2
  -3   7 -11 15.7992 9.17712   2
  -3   7 -12-10.6692 9.43023   2
  -3   7 -13 13.2738 11.9454   2
   3  -6 -10 5.16532 6.13496   2
  -3   6  10 46.5345 12.6496   1
   3  -6  -9 37.6527 11.6626   1
   3  -6  -9-2.49836 5.84972   2
   3  -6  -8-0.58795 8.52920   1
   3  -6  -8 6.84120 5.02210   2
  -3   6   8 1.90394 8.69414   1
   3  -6  -7 11.5970 7.28390   1
   3  -6  -7 9.25279 4.93829   2
  -3   6   7 19.9890 6.99068   1
   3  -6  -6 5.02765 6.12936   1
   3  -6  -6-2.85429 3.95368   2
  -3   6   6 2.58163 5.87819   1
   3  -6  -5 25.0557 4.77323   2
   3  -6  -5 17.4195 6.45003   1
  -3   6   5 20.9074 4.66366   2
  -3   6   5 24.0906 6.64446   1
  -3   6   4 27.3568 4.88555   2
   3  -6  -4 30.8740 4.77103   2
  -3   6   4 21.9648 6.18417   1
   3  -6  -4 32.8646 7.43333   1
  -3   6   3 47.3316 5.50293   2
  -3   6   3 51.7904 7.28333   1
   3  -6  -3 62.3058 7.80934   1
   3  -6  -3 55.3401 5.77004   2
   3  -6  -2 1.89834 4.55018   1
  -3   6   2 1.05466 3.49839   2
   3  -6  -2 1.73399 3.41471   2
  -3   6   2-7.49390 4.89740   1
   3  -6  -1 9.59281 4.46092   1
  -3   6   1 8.74790 3.59392   2
   3  -6  -1 11.7840 3.84438   2
  -3   6   1 6.16677 4.03372   1
  -3   6   0 131.008 7.91464   2
   3  -6   0 136.749 8.05185   2
  -3   6   0 141.244 8.48394   1
   3  -6   0 145.605 8.86003   1
  -3   6  -1 166.286 8.50295   1
  -3   6  -1 158.642 8.70108   2
   3  -6   1 157.585 8.74784   2
   3  -6   1 156.763 8.57330   1
  -3   6  -2 50.9952 5.09770   1
  -3   6  -2 52.8868 5.73190   2
   3  -6   2 54.2119 6.02517   2
   3  -6   2 50.1268 5.14276   1
  -3   6  -3 22.6001 3.58571   1
   3  -6   3 26.9774 5.00604   2
  -3   6  -3 20.3125 4.89620   2
   3  -6   3 24.0474 3.90841   1
  -3   6  -4 20.4367 4.79780   2
  -3   6  -4 20.1578 3.18733   1
   3  -6   4 20.1813 4.67203   2
   3  -6   4 21.2694 3.33335   1
  -3   6  -5 109.341 8.51957   2
   3  -6   5 109.294 8.48211   2
  -3   6  -5 100.095 4.47659   1
  -3   6  -5 106.451 4.49198   1
  -3   6  -6 41.2724 6.11303   2
   3  -6   6 29.5961 6.13265   2
  -3   6  -7 3.09363 5.49028   2
  -3   6  -8 6.57939 5.75857   2
  -3   6  -9 60.9701 8.69970   2
  -3   6 -10 15.6090 8.01088   2
  -3   6 -11 33.1387 9.21973   2
  -3   6 -12 13.7714 8.27482   2
  -3   6 -13 18.3065 10.0568   2
   3  -5 -11-7.81841 5.16594   2
   3  -5 -11-16.1553 12.4404   1
   3  -5 -10-0.08813 9.54102   1
   3  -5 -10-6.64904 5.08135   2
  -3   5  10-13.3380 9.21259   1
   3  -5  -9-20.4717 9.49749   1
   3  -5  -9-3.69862 4.23104   2
   3  -5  -8 8.21696 6.84540   1
   3  -5  -8 1.48205 3.92167   2
  -3   5   8 5.22976 7.13873   1
   3  -5  -7 17.2490 6.39288   1
   3  -5  -7 13.2690 3.87517   2
  -3   5   7 12.2744 6.01051   1
   3  -5  -6 8.27059 6.36006   1
   3  -5  -6 5.63022 3.22970   2
  -3   5   6 3.15674 5.54939   1
   3  -5  -5-1.41503 5.53445   1
   3  -5  -5 0.81073 2.87848   2
  -3   5   5 4.90211 5.24135   1
  -3   5   5 4.95543 3.31304   2
   3  -5  -4 9.30808 5.41859   1
  -3   5   4 4.66993 3.03580   2
   3  -5  -4 5.62098 2.87364   2
  -3   5   4 9.70942 4.81421   1
   3  -5  -3-7.76971 4.98353   1
  -3   5   3-2.25496 2.89401   2
   3  -5  -3-0.60254 2.75856   2
  -3   5   3 0.46676 3.57489   1
   3  -5  -2 8.87228 4.10594   1
  -3   5   2 11.0288 3.34006   2
   3  -5  -2 11.6175 3.14523   2
  -3   5   2 9.18147 4.01806   1
  -3   5   1 79.6965 5.69824   2
   3  -5  -1 88.2684 6.93388   1
   3  -5  -1 83.6820 5.75350   2
  -3   5   1 72.1967 6.22561   1
  -3   5   0 169.018 8.03936   2
   3  -5   0 174.684 8.07950   2
   3  -5   0 167.645 8.63280   1
  -3   5   0 168.369 8.37412   1
  -3   5  -1 102.836 6.60733   2
   3  -5   1 110.997 6.91381   2
   3  -5   1 108.451 6.69973   1
  -3   5  -1 100.314 6.30467   1
  -3   5  -2 2.40587 3.23279   2
  -3   5  -2-0.48151 2.35107   1
   3  -5   2 0.96330 3.16990   2
   3  -5   2-0.98673 2.60663   1
  -3   5  -3 4.80696 3.26278   2
   3  -5   3-2.41417 3.48113   2
  -3   5  -3 2.66354 2.21910   1
   3  -5   3 4.75012 2.40623   1
  -3   5  -4 1.37885 1.88308   1
  -3   5  -4 2.46051 4.00416   2
   3  -5   4 4.21683 3.95721   2
  -3   5  -4 5.28013 2.08547   1
  -3   5  -5 13.6040 1.68075   1
  -3   5  -5 13.7321 1.65519   1
  -3   5  -5 12.5501 4.45619   2
  -3   5  -6 15.5691 4.78057   2
  -3   5  -7 30.6043 6.10458   2
  -3   5  -8-1.66672 4.64456   2
  -3   5  -9 26.3333 6.81289   2
  -3   5 -10 5.46100 6.41764   2
  -3   5 -11 14.3667 7.32806   2
  -3   5 -12 9.60094 7.51971   2
  -3   5 -13 9.63840 9.73058   2
   3  -4 -12 22.2955 5.31073   2
  -3   4  12 25.2265 11.6991   1
   3  -4 -12 31.0126 10.7401   1
   3  -4 -11 17.6202 4.77494   2
  -3   4  11 8.71263 8.56467   1
   3  -4 -11 28.7235 11.2786   1
   3  -4 -10 39.4341 9.15888   1
   3  -4 -10 43.6896 4.96955   2
  -3   4  10 48.2475 9.31737   1
   3  -4  -9 6.41823 7.26142   1
   3  -4  -9-0.12687 3.17421   2
  -3   4   9 0.55804 5.79496   1
   3  -4  -8 8.15913 6.27592   1
   3  -4  -8 3.41186 2.83174   2
  -3   4   8 4.74008 5.77476   1
   3  -4  -7 12.0669 2.99953   2
  -3   4   7 15.7760 6.17182   1
   3  -4  -7 12.2010 5.27274   1
   3  -4  -6 25.9112 6.72730   1
   3  -4  -6 39.8078 3.76494   2
  -3   4   6 42.9993 6.57588   1
  -3   4   5 6.96245 2.59246   2
   3  -4  -5 4.89689 4.58351   1
  -3   4   5 10.9626 4.59509   1
   3  -4  -5 10.3145 2.65802   2
   3  -4  -4 26.0830 5.56223   1
   3  -4  -4 29.9514 3.39733   2
  -3   4   4 28.1368 5.17301   1
  -3   4   4 33.7155 3.44772   2
  -3   4   3 120.703 5.71066   2
   3  -4  -3 110.125 5.42114   2
   3  -4  -3 111.864 7.85523   1
  -3   4   3 116.702 7.92624   1
   3  -4  -2 3.45591 3.46831   1
  -3   4   2-0.06879 2.18163   2
  -3   4   2 3.33753 3.36296   1
   3  -4  -2 1.96942 2.21920   2
  -3   4   1 107.098 5.69613   2
   3  -4  -1 108.314 5.76128   2
   3  -4  -1 108.779 6.98772   1
  -3   4   1 107.739 6.71775   1
  -3   4   0 3.49333 2.65613   1
  -3   4   0 1.12129 2.31536   2
   3  -4   0 0.07950 2.31603   2
   3  -4   0 3.41469 2.72091   1
  -3   4  -1 21.0979 3.45304   2
   3  -4   1 19.9080 3.50626   2
   3  -4   1 20.2284 3.43584   1
  -3   4  -1 17.1560 3.08870   1
  -3   4  -2 7.97331 2.49098   1
  -3   4  -2 6.02478 3.17262   2
   3  -4   2 6.72978 2.97388   2
   3  -4   2 5.41186 2.38773   1
  -3   4  -3 9.84074 2.19977   1
  -3   4  -3 8.57577 3.22360   2
  -3   4  -3 8.72069 2.15624   1
  -3   4  -4 1.89299 1.52006   1
  -3   4  -4-0.01418 1.52661   1
  -3   4  -5 11.9752 1.29169   1
  -3   4  -5 10.5601 4.12550   2
  -3   4  -5 9.45228 1.16510   1
  -3   4  -6 196.535 10.3168   2
  -3   4  -7 145.219 9.64767   2
  -3   4  -8 21.0440 5.54270   2
  -3   4  -9-0.23223 5.80363   2
  -3   4 -10 2.08740 5.09153   2
  -3   4 -11-2.13413 6.23688   2
  -3   4 -12-11.2252 7.71074   2
  -3   4 -13 13.6241 9.32027   2
  -3   4 -14 18.6305 11.2389   2
   3  -3 -13 8.92491 4.24067   2
  -3   3  13-12.7933 10.1758   1
   3  -3 -13 3.00342 4.41847   2
   3  -3 -13 0.18526 10.0351   1
   3  -3 -12 5.29345 3.80024   2
  -3   3  12 0.08094 7.95548   1
   3  -3 -12 5.65166 9.32692   1
   3  -3 -11 0.36603 3.24253   2
  -3   3  11-2.68027 7.76408   1
   3  -3 -11 0.47389 7.59108   1
   3  -3 -10 5.87736 2.73410   2
  -3   3  10 6.65436 6.22102   1
   3  -3 -10-2.11577 6.05923   1
   3  -3  -9 1.54616 5.41523   1
   3  -3  -9 4.02956 2.19267   2
  -3   3   9-8.02851 6.07944   1
   3  -3  -8 0.87244 1.92077   2
  -3   3   8 0.58259 5.45066   1
   3  -3  -8 3.39888 5.68958   1
  -3   3   7-2.94590 4.29482   1
   3  -3  -7 0.29592 1.75181   2
   3  -3  -7 0.05674 4.25862   1
  -3   3   6 3.58759 3.38994   1
   3  -3  -6 1.45689 1.66922   2
   3  -3  -5 22.2327 2.29838   2
  -3   3   5 19.6666 4.37279   1
   3  -3  -5 24.8649 4.68080   1
  -3   3   4 47.8218 3.14017   2
   3  -3  -4 51.8606 3.17452   2
   3  -3  -4 56.0723 6.12949   1
  -3   3   4 48.4778 5.42354   1
  -3   3   3 11.4193 3.35011   1
  -3   3   3 10.3308 2.08890   2
   3  -3  -3 4.89899 1.83207   2
   3  -3  -3 10.5542 3.54560   1
  -3   3   2 2.24753 2.79234   1
  -3   3   2 7.68667 2.05291   2
   3  -3  -2 8.50578 2.12621   2
   3  -3  -2 2.84796 3.10933   1
  -3   3   1 124.313 5.36125   2
   3  -3  -1 131.198 5.57060   2
   3  -3  -1 128.661 7.09956   1
  -3   3   1 125.629 6.85019   1
   3  -3   0 13.3509 2.72006   2
  -3   3   0 10.5103 2.79933   1
  -3   3   0 10.8206 2.50536   2
   3  -3   0 15.8901 3.21741   1
  -3   3  -1 293.412 9.10285   2
  -3   3  -1 289.609 8.62614   1
  -3   3  -1 305.421 9.04720   1
  -3   3  -2 113.077 6.23768   2
  -3   3  -2 118.088 5.28414   1
  -3   3  -2 120.010 5.48283   1
  -3   3  -3 128.732 6.94259   2
  -3   3  -3 113.817 4.70526   1
  -3   3  -3 118.389 4.97836   1
  -3   3  -4 22.2880 4.16678   2
  -3   3  -4 22.6076 2.28277   1
  -3   3  -4 24.2355 2.26767   1
  -3   3  -5 5.17537 1.15996   1
  -3   3  -5 6.47557 1.18561   1
  -3   3  -5 10.0985 3.31267   2
  -3   3  -6 2.63831 3.88742   2
  -3   3  -7 29.4212 5.49723   2
  -3   3  -8 21.8153 5.80085   2
  -3   3  -9 2.12864 5.33068   2
  -3   3 -10-1.76370 6.36477   2
  -3   3 -11 2.20215 6.45365   2
  -3   3 -12-4.12858 8.29749   2
  -3   3 -13-4.90160 10.6057   2
  -3   3 -14 40.1320 12.2104   2
   3  -2 -14 4.00322 3.14429   2
  -3   2  14 4.43818 9.88901   1
   3  -2 -14 10.0691 10.9734   1
   3  -2 -13-6.36339 3.05150   2
  -3   2  13-3.37154 9.26677   1
   3  -2 -13 3.36707 2.85392   2
   3  -2 -13-8.69127 10.1583   1
   3  -2 -12 5.99697 2.59192   2
  -3   2  12 12.3874 8.78563   1
   3  -2 -12 4.98666 2.63539   2
   3  -2 -12 2.54128 7.51291   1
   3  -2 -11 5.77705 2.12961   2
   3  -2 -11 4.36460 1.96554   2
   3  -2 -11 0.21947 6.15587   1
   3  -2 -10 79.3706 3.46286   2
   3  -2 -10 80.0762 3.53684   2
   3  -2 -10 80.4997 9.09315   1
  -3   2  10 81.4430 9.02353   1
  -3   2   9 5.36476 4.72897   1
   3  -2  -9 3.90252 1.27845   2
   3  -2  -9 3.61900 1.30846   2
   3  -2  -9 3.21147 5.93106   1
  -3   2   8 2.20546 4.51123   1
   3  -2  -8-0.09876 0.85703   2
   3  -2  -8-1.19162 3.97181   1
  -3   2   7 11.4120 4.95945   1
   3  -2  -7 9.21380 4.07651   1
  -3   2   6 14.6717 4.66840   1
   3  -2  -6 19.4026 5.17265   1
  -3   2   5 7.94875 3.45390   1
   3  -2  -5 2.46974 0.65674   2
   3  -2  -5 3.01251 3.57896   1
  -3   2   4 1.13636 0.85849   2
  -3   2   4-0.03867 2.88509   1
   3  -2  -4-2.95971 3.49416   1
  -3   2   3 36.2615 2.23835   2
   3  -2  -3 40.6137 4.71563   1
  -3   2   3 37.7273 4.73965   1
  -3   2   2 21.3268 2.16801   2
  -3   2   2 17.1894 3.60443   1
   3  -2  -2 24.7081 3.77550   1
  -3   2   1 137.040 5.13551   2
  -3   2   1 129.892 6.54186   1
  -3   2   1 139.932 6.99838   1
  -3   2   0 201.717 6.68183   2
  -3   2   0 204.485 7.52884   1
  -3   2   0 204.762 7.84873   1
  -3   2  -1 104.553 5.41178   2
  -3   2  -1 109.643 5.33438   1
  -3   2  -1 110.522 5.62108   1
  -3   2  -2 239.811 8.54930   2
  -3   2  -2 231.279 7.11766   1
  -3   2  -2 242.927 7.57979   1
  -3   2  -3 500.027 12.8602   2
  -3   2  -3 491.849 9.96083   1
  -3   2  -3 481.790 9.49897   1
  -3   2  -4 41.6150 4.85767   2
  -3   2  -4 38.8060 2.90087   1
  -3   2  -4 40.4051 3.06503   1
  -3   2  -5 104.903 7.25335   2
  -3   2  -5 110.258 4.09896   1
  -3   2  -5 120.614 4.46570   1
  -3   2  -6 23.5787 2.01615   1
  -3   2  -6 30.6142 5.28364   2
  -3   2  -6 24.9894 2.18010   1
  -3   2  -7 40.8013 5.79290   2
  -3   2  -7 43.7397 2.29855   1
  -3   2  -7 43.8166 2.17306   1
  -3   2  -8 348.680 14.5619   2
  -3   2  -8 339.486 4.42574   1
  -3   2  -9 10.3664 6.18019   2
  -3   2 -10 77.9019 9.36412   2
  -3   2 -11-6.68271 6.54636   2
  -3   2 -12 7.14572 7.75568   2
  -3   2 -13 18.7337 10.0070   2
   3  -1 -14 7.38332 2.73248   2
  -3   1  14 8.68948 8.98029   1
   3  -1 -13 8.12081 2.25490   2
  -3   1  13 14.3997 8.27721   1
   3  -1 -13 9.74157 2.26152   2
  -3   1  12-1.10609 6.93244   1
   3  -1 -12-0.45730 1.52540   2
   3  -1 -12 0.29781 7.59469   1
  -3   1  11 1.79000 6.40203   1
   3  -1 -11 0.65374 0.98114   2
   3  -1 -11 9.87126 6.96456   1
  -3   1  10-1.18489 5.13956   1
   3  -1 -10 3.03236 4.97463   1
  -3   1   9-1.25970 4.08988   1
   3  -1  -9 4.94255 5.14153   1
   3  -1  -8 44.5873 6.65564   1
  -3   1   8 50.1479 6.78623   1
  -3   1   7 2.40565 3.86608   1
   3  -1  -7 7.07075 4.27794   1
  -3   1   6 0.65149 3.21938   1
   3  -1  -6 2.39351 3.54759   1
   3  -1  -5 24.6837 4.54586   1
  -3   1   5 26.8368 4.73160   1
  -3   1   4 109.454 7.18131   1
  -3   1   4 128.263 7.17493   1
  -3   1   3 8.92741 1.00996   2
  -3   1   3 8.28731 2.89580   1
  -3   1   3 10.2962 3.03976   1
  -3   1   2 258.659 5.59743   2
  -3   1   2 254.214 9.12779   1
  -3   1   2 262.922 9.54857   1
  -3   1   1 9.30906 1.85612   2
  -3   1   1 12.6872 2.83810   1
  -3   1   1 7.33174 2.44920   1
  -3   1   0 3.22927 2.10014   1
  -3   1   0 1.31978 1.82110   2
  -3   1   0 3.89139 2.42770   1
  -3   1  -1 18.4616 2.77818   1
  -3   1  -1 21.3227 2.94981   2
  -3   1  -1 22.8309 3.08813   1
  -3   1  -2 9.28558 2.35499   1
  -3   1  -2 6.67298 2.39759   2
  -3   1  -2 6.81633 2.28809   1
  -3   1  -3 65.2519 4.02267   1
  -3   1  -3 67.2979 5.22876   2
   3  -1   3 62.2645 4.00344   1
  -3   1  -4 3.08041 1.91079   1
   3  -1   4-1.15153 1.78079   1
  -3   1  -4 0.48901 2.77905   2
  -3   1  -5 347.791 8.35948   1
   3  -1   5 347.868 8.30959   1
  -3   1  -6 306.850 7.95271   1
   3  -1   6 287.688 7.56679   1
  -3   1  -7 76.4523 7.57210   2
   3  -1   7 89.6836 4.53296   1
  -3   1  -7 85.3141 4.50388   1
  -3   1  -8 39.3746 6.61583   2
   3  -1   8 36.1147 3.23250   1
  -3   1  -8 36.0571 3.32212   1
  -3   1  -9 152.247 10.8616   2
   3  -1   9 139.093 5.61907   1
  -3   1  -9 140.942 5.76437   1
   3  -1  10 13.1523 2.87133   1
  -3   1 -10 12.4567 2.79977   1
  -3   1 -10 12.2942 6.94662   2
  -3   1 -11 2.51575 2.62783   1
  -3   1 -11-3.14831 7.52298   2
   3  -1  11 4.15136 2.47703   1
  -3   1 -12 3.35831 2.76690   1
   3  -1  12-2.45558 2.53488   1
  -3   1 -13 10.1369 10.3208   2
  -3   1 -13 2.09150 2.50554   1
  -3   0  15 1.28262 9.66739   1
   3   0 -15 4.23706 2.22406   2
  -3   0  14-9.45410 8.93644   1
   3   0 -14 0.95461 1.72497   2
  -3   0  14-11.3965 7.76963   1
  -3   0  13 1.65840 6.45969   1
   3   0 -13 2.56890 1.32676   2
   3   0 -12 65.2720 1.89518   2
  -3   0  12 75.1143 9.47307   1
  -3   0  12 64.2497 9.06644   1
  -3   0  11 19.0049 5.88138   1
  -3   0  11 17.3612 5.87427   1
  -3   0  10 7.29087 5.25384   1
  -3   0  10 5.28597 5.32492   1
  -3   0   9 6.17832 4.76023   1
  -3   0   9 1.00510 4.02093   1
  -3   0   8 348.474 13.6265   1
  -3   0   8 332.758 13.7163   1
  -3   0   7 97.6077 7.58919   1
  -3   0   7 99.7755 7.83664   1
  -3   0   6 37.3530 4.93909   1
  -3   0   6 31.5166 5.11800   1
  -3   0   5 0.54768 3.39698   1
  -3   0   5 10.0761 3.68204   1
  -3   0   4 0.10861 2.51784   1
  -3   0   4-1.27155 2.98031   1
  -3   0   3 24.8283 1.54917   2
  -3   0   3 22.4425 1.44044   2
  -3   0   3 31.3956 4.12473   1
  -3   0   3 32.1114 4.38833   1
  -3   0   2 5.43565 2.74264   1
  -3   0   2 2.19294 1.31369   2
  -3   0   2 4.16650 2.94490   1
  -3   0   1 0.20901 2.57543   1
  -3   0   1 3.73925 2.18472   1
   3   0   0-1.56623 2.26288   1
  -3   0   0-0.80296 2.12994   1
   3   0   1 364.877 9.91331   1
  -3   0  -1 374.925 10.0618   1
  -3   0  -2 2.26740 2.05651   1
   3   0   2 3.73649 2.16800   1
   3   0   3 65.0703 4.50608   1
  -3   0  -3 56.6225 4.25523   1
   3   0   4 27.8543 3.28753   1
  -3   0  -4 24.3543 3.26556   1
   3   0   5 116.318 5.79247   1
  -3   0  -5 124.874 6.03838   1
   3   0   6 106.565 5.78380   1
  -3   0  -6 113.886 5.98612   1
   3   0   7 64.4733 4.87316   1
  -3   0  -7 58.6545 4.80968   1
   3   0   8 3.85057 2.99272   1
  -3   0  -8 4.05883 2.98399   1
   3   0   9 1.36621 3.08120   1
  -3   0  -9-0.34358 3.27478   1
   3   0  10 21.1080 4.12236   1
  -3   0 -10 20.5064 4.36904   1
  -3   0 -11 14.8694 4.39943   1
   3   0  11 15.7723 4.64248   1
  -3   0 -12 14.4025 5.26172   1
   3   0  12 22.7325 5.09017   1
  -3   0 -12 11.1678 9.69584   2
  -3   0 -13 9.55804 5.67211   1
   3   0  13 1.33031 4.87738   1
  -3   0 -13 12.3405 11.1125   2
  -3  -1  15-1.59027 8.32847   1
   3   1 -15 2.46521 2.11988   2
  -3  -1  15 2.39067 8.33889   1
  -3  -1  14 4.17291 7.21977   1
   3   1 -14 0.08755 1.71670   2
  -3  -1  14-1.12799 7.45400   1
  -3  -1  13 0.80830 6.29312   1
   3   1 -13 4.98006 1.33419   2
  -3  -1  13 6.15903 6.79376   1
  -3  -1  12-2.94457 5.84682   1
  -3  -1  12 2.73383 5.40022   1
  -3  -1  11 53.8642 7.22389   1
  -3  -1  11 60.4127 7.91298   1
  -3  -1  10 204.769 11.5813   1
  -3  -1  10 204.992 11.5995   1
  -3  -1   9 42.2156 5.68561   1
  -3  -1   9 45.9877 6.26512   1
  -3  -1   8 12.1138 4.88395   1
  -3  -1   8 16.0482 4.39903   1
  -3  -1   7 9.49267 3.62772   1
  -3  -1   7 13.3679 3.74019   1
  -3  -1   6 9.26719 4.11471   1
  -3  -1   6 5.26410 3.27426   1
  -3  -1   5 429.221 13.0345   1
  -3  -1   5 416.010 13.5017   1
  -3  -1   4 191.688 3.62658   2
  -3  -1   4 188.895 8.47875   1
  -3  -1   4 183.830 9.06163   1
  -3  -1   3 11.7581 3.36983   1
  -3  -1   3 12.5538 1.70928   2
  -3  -1   3 17.4410 3.97059   1
  -3  -1   2 2.50484 1.54983   2
   3   1  -2 2.58493 2.43920   1
  -3  -1   2 3.10308 2.10168   1
   3   1  -1 117.935 6.42084   1
  -3  -1   1 114.135 6.45417   1
  -3  -1   1 124.083 5.33040   2
   3   1   0 37.7769 4.15449   1
  -3  -1   0 36.2830 4.04457   1
   3   1   1 153.992 7.09765   1
  -3  -1  -1 158.890 7.20975   1
   3   1   2 15.8826 3.18444   1
  -3  -1  -2 14.8676 3.13507   1
  -3  -1  -3 0.14325 2.39452   1
   3   1   3-2.65068 2.55337   1
  -3  -1  -4 4.91091 2.73019   1
   3   1   4 5.75520 2.84064   1
  -3  -1  -5 2.32139 2.76769   1
   3   1   5 1.18773 2.70719   1
  -3  -1  -6 65.4253 5.51422   1
   3   1   6 63.2740 5.43548   1
   3   1   7 5.31713 3.41033   1
  -3  -1  -7 1.04990 3.11472   1
   3   1   8 2.08514 3.46369   1
  -3  -1  -8 3.33919 3.79168   1
   3   1   9 8.45267 4.43313   1
  -3  -1  -9-1.05222 3.92156   1
   3   1  10 8.17078 4.50604   1
  -3  -1 -10 10.9424 4.76722   1
   3   1  11 4.64033 5.17268   1
  -3  -1 -11 2.48079 5.28495   1
  -3  -1 -12 43.4041 7.30449   1
   3   1  12 30.0518 6.61345   1
  -3  -2  16 4.73268 5.05597   1
  -3  -2  16 2.63193 4.55040   1
  -3  -2  15-4.30038 8.58890   1
   3   2 -15-4.61742 2.78822   2
  -3  -2  15 7.17720 8.69236   1
   3   2 -14-2.49970 2.03398   2
  -3  -2  14 13.7461 8.42624   1
   3   2 -14-2.09505 2.16624   2
  -3  -2  14 9.21184 7.39923   1
  -3  -2  13-5.83721 6.90078   1
   3   2 -13 1.83366 1.72427   2
  -3  -2  13-6.75316 6.65358   1
  -3  -2  12 3.71029 5.35171   1
   3   2 -12 7.25811 1.56484   2
  -3  -2  12 10.9889 6.15628   1
   3   2 -12 8.44085 1.56552   2
  -3  -2  11 5.82990 5.92152   1
   3   2 -11 3.16108 1.03580   2
  -3  -2  11 10.3405 5.05529   1
  -3  -2  10 70.2615 7.27078   1
  -3  -2  10 56.9112 7.03401   1
   3   2 -10 47.8916 1.62071   2
  -3  -2   9 2.50599 4.54295   1
  -3  -2   9 2.42016 3.63410   1
  -3  -2   8 9.71885 4.71975   1
  -3  -2   8 7.43217 4.14772   1
  -3  -2   7 2.40098 3.14673   1
  -3  -2   7 4.00365 3.80668   1
  -3  -2   6 15.7568 4.10758   1
  -3  -2   6 15.7366 1.33808   2
  -3  -2   6 16.9138 4.53446   1
  -3  -2   5 216.703 4.90727   2
  -3  -2   5 229.109 9.82789   1
  -3  -2   5 229.999 10.5314   1
  -3  -2   4 347.559 7.13419   2
  -3  -2   4 363.150 12.0562   1
   3   2  -4 339.874 11.5812   1
  -3  -2   3 279.990 7.24749   2
   3   2  -3 272.912 10.2139   1
  -3  -2   3 282.152 10.3754   1
  -3  -2   2 73.6226 4.36688   2
   3   2  -2 73.8881 5.78250   1
  -3  -2   2 78.0477 5.92047   1
  -3  -2   1 20.3284 2.98142   2
   3   2  -1 17.0730 3.57817   1
  -3  -2   1 20.6179 3.71741   1
   3   2   0 7.71470 3.18654   1
  -3  -2   0 6.30817 2.68891   2
  -3  -2   0 2.33892 3.00330   1
  -3  -2  -1 3.28208 2.53258   2
  -3  -2  -1 1.94872 2.96684   1
   3   2   1 1.62879 2.43426   1
   3   2   2 250.035 9.73841   1
  -3  -2  -2 261.100 9.92793   1
  -3  -2  -2 241.331 9.92863   2
  -3  -2  -3 11.7251 3.54805   1
   3   2   3 19.3270 3.82480   1
  -3  -2  -4 173.049 8.59303   1
   3   2   4 181.251 8.77194   1
  -3  -2  -5 36.4402 4.97591   1
   3   2   5 30.6605 4.76554   1
   3   2   6 10.1438 3.79075   1
  -3  -2  -6 2.43697 3.59756   1
   3   2   7 0.16570 3.86683   1
  -3  -2  -7 0.66924 3.85197   1
   3   2   8 5.31214 4.60818   1
  -3  -2  -8 3.28412 4.42234   1
  -3  -2  -8 10.1401 6.74001   2
   3   2   9 4.78430 4.78884   1
  -3  -2  -9 8.10573 5.09895   1
  -3  -2  -9 8.71285 6.27593   2
   3   2  10 12.2771 6.27456   1
  -3  -2 -10 4.29733 8.02744   2
  -3  -2 -10 4.38710 5.57877   1
   3   2  11-4.70533 6.64182   1
  -3  -2 -11-0.25092 10.3796   2
  -3  -2 -11-1.71698 6.43078   1
   3   2  12 56.3613 7.10704   1
  -3  -2 -12 41.5240 6.39925   1
  -3  -3  16-0.07435 7.94806   1
  -3  -3  16-5.66946 8.37305   1
  -3  -3  15 9.29352 7.75800   1
  -3  -3  15 16.5075 8.44467   1
   3   3 -15 4.02038 3.19718   2
  -3  -3  14-0.19655 6.78126   1
  -3  -3  14 7.99521 7.43829   1
   3   3 -14 9.83153 3.16178   2
  -3  -3  13 5.06857 6.57046   1
  -3  -3  13 3.31393 6.02092   1
   3   3 -13 2.32520 2.44282   2
   3   3 -12 11.6770 2.53861   2
  -3  -3  12 8.67768 5.88079   1
  -3  -3  12 7.93261 5.21575   1
   3   3 -11 17.8104 2.38546   2
  -3  -3  11 25.5476 6.29862   1
  -3  -3  11 20.7913 5.59360   1
  -3  -3  10 51.0214 6.48591   1
   3   3 -10 54.3970 3.30428   2
  -3  -3  10 47.6412 6.63226   1
  -3  -3   9 9.96957 4.52289   1
  -3  -3   9 13.8262 4.85491   1
   3   3  -9 7.80963 1.85503   2
  -3  -3   8 13.2065 2.04311   2
   3   3  -8 14.6209 2.11834   2
  -3  -3   8 10.5249 4.48139   1
  -3  -3   8 15.0596 4.33912   1
   3   3  -7 0.53375 1.52478   2
  -3  -3   7 0.39624 1.59269   2
  -3  -3   7 5.42792 3.15135   1
  -3  -3   7 2.81570 3.71333   1
   3   3  -6 1.97273 3.55103   1
   3   3  -6-0.76801 1.71873   2
  -3  -3   6 0.51666 1.65762   2
  -3  -3   6 2.61553 3.23376   1
   3   3  -5 0.35515 3.31599   1
  -3  -3   5 0.47091 1.67049   2
  -3  -3   5 0.75708 3.13324   1
   3   3  -4 8.85228 3.32052   1
  -3  -3   4 6.23223 2.94054   1
  -3  -3   4 7.80457 2.22133   2
  -3  -3   3 7.46521 3.34944   1
  -3  -3   3 3.12516 2.14379   2
   3   3  -3-0.41089 2.34510   1
  -3  -3   2 96.0708 5.55699   2
   3   3  -2 96.2164 6.51379   1
  -3  -3   2 95.9670 6.56639   1
  -3  -3   1 56.4963 4.81260   2
   3   3  -1 57.1368 5.53044   1
  -3  -3   1 56.9902 5.53371   1
  -3  -3   0 7.27218 3.13817   2
  -3  -3   0 8.22246 3.47117   1
   3   3   0 10.2459 3.22030   1
  -3  -3  -1 43.2617 5.10111   2
   3   3   1 36.3312 4.73918   1
  -3  -3  -1 43.5244 5.02133   1
  -3  -3  -2 54.9387 5.73962   2
  -3  -3  -2 67.3006 6.26728   1
   3   3   2 65.7846 6.18329   1
  -3  -3  -3 206.664 10.2204   2
  -3  -3  -3 197.386 9.80618   1
   3   3   3 191.769 9.68582   1
  -3  -3  -4 10.4499 4.13146   1
  -3  -3  -4-1.39852 4.32672   2
   3   3   4 4.58728 3.65422   1
   3   3   5 9.46555 4.26796   1
  -3  -3  -5 11.1242 4.50959   2
  -3  -3  -5 18.7970 4.85827   1
   3   3   6-2.07156 4.29069   1
  -3  -3  -6 5.16574 5.58337   2
  -3  -3  -6 4.58658 4.44057   1
   3   3   7 3.73325 4.78140   1
  -3  -3  -7-4.76099 6.72992   2
  -3  -3  -7 10.7443 5.50907   1
  -3  -3  -8 60.0894 8.90171   2
   3   3   8 55.8838 7.51972   1
  -3  -3  -8 54.8089 7.82910   1
   3   3   9 60.6938 8.16320   1
  -3  -3  -9 46.2294 9.98227   2
  -3  -3  -9 53.5958 8.08481   1
  -3  -3 -10 97.6738 13.1486   2
   3   3  10 112.140 10.6458   1
  -3  -3 -10 110.193 10.4978   1
   3   3  11 26.7479 9.19388   1
  -3  -3 -11 43.3259 12.3212   2
  -3  -3 -11 34.4586 9.09331   1
  -3  -4  16 4.28927 7.26568   1
  -3  -4  16-4.42243 6.26873   1
  -3  -4  15 12.0976 8.43877   1
   3   4 -15-1.41796 4.41234   2
  -3  -4  15-3.13400 7.85128   1
   3   4 -14-4.37404 3.66986   2
  -3  -4  14-6.70232 6.61110   1
  -3  -4  13-0.65313 6.97497   1
   3   4 -13-0.74096 3.35723   2
  -3  -4  13-2.66488 6.09710   1
  -3  -4  12 6.73784 6.06657   1
   3   4 -12-0.64068 2.84044   2
  -3  -4  12 3.98735 5.58206   1
  -3  -4  11-4.77783 5.55539   1
   3   4 -11 4.30413 2.85548   2
  -3  -4  11 9.38665 5.18650   1
  -3  -4  10 42.0429 6.37988   1
   3   4 -10 40.8484 3.92533   2
  -3  -4  10 40.1074 7.19125   1
   3   4  -9 64.0315 4.45492   2
  -3  -4   9 71.0420 7.08858   1
  -3  -4   9 65.3367 4.37881   2
  -3  -4   9 67.1751 7.70263   1
   3   4  -8 0.99449 2.33880   2
  -3  -4   8 2.19964 3.87021   1
  -3  -4   8 2.32812 2.27765   2
  -3  -4   8-0.10367 4.19652   1
   3   4  -7 149.497 6.29256   2
  -3  -4   7 149.938 6.26922   2
   3   4  -7 160.929 9.29192   1
  -3  -4   7 163.541 9.39294   1
   3   4  -6 9.20351 2.77445   2
  -3  -4   6 12.4447 4.11020   1
  -3  -4   6 8.62300 2.58618   2
   3   4  -6 9.04933 3.69661   1
   3   4  -5 9.28710 4.06456   1
   3   4  -5 5.33863 2.56194   2
  -3  -4   5 5.08216 2.49889   2
  -3  -4   5 9.12439 3.84643   1
  -3  -4   4 26.0017 3.59992   2
   3   4  -4 35.7289 5.11739   1
  -3  -4   4 31.4543 4.54169   1
   3   4  -4 25.5683 3.61751   2
  -3  -4   3 286.111 9.72566   2
   3   4  -3 280.616 11.4288   1
  -3  -4   3 269.211 11.5149   1
  -3  -4   2 33.6840 4.37896   2
   3   4  -2 38.2376 5.31300   1
  -3  -4   2 36.2663 5.26881   1
   3   4  -1 36.3968 5.27100   1
  -3  -4   1 34.0953 4.62066   2
  -3  -4   1 35.9450 5.33568   1
  -3  -4   0 14.5363 4.06123   2
  -3  -4   0 10.5197 3.93697   1
   3   4   0 9.94195 4.15884   1
  -3  -4  -1 106.572 7.69366   2
  -3  -4  -1 96.3002 7.64676   1
   3   4   1 100.436 7.63663   1
  -3  -4  -2 85.6734 7.38740   2
  -3  -4  -2 86.0435 7.33447   1
   3   4   2 89.6879 7.50154   1
  -3  -4  -3 62.5097 7.04641   2
  -3  -4  -3 50.1523 6.66565   1
   3   4   3 67.4078 7.15173   1
   3   4   4 6.12150 4.79215   1
  -3  -4  -4 9.33599 5.47519   2
  -3  -4  -4 3.10767 4.31174   1
   3   4   5 22.0048 5.62922   1
  -3  -4  -5 28.8627 6.40697   2
  -3  -4  -5 22.6480 5.93437   1
  -3  -4  -6 75.0933 9.56804   2
  -3  -4  -6 77.4360 8.50263   1
   3   4   6 75.2301 8.35754   1
   3   4   7-3.35970 6.20462   1
  -3  -4  -7 4.74028 6.47880   2
  -3  -4  -7-9.28197 6.27509   1
   3   4   8-4.25653 7.07582   1
  -3  -4  -8 13.6255 8.97537   2
  -3  -4  -8 6.75112 7.18547   1
   3   4   9-9.33507 7.79407   1
  -3  -4  -9 17.8419 9.69165   2
  -3  -4  -9 1.96565 7.37231   1
   3   4  10 1.88484 8.90512   1
  -3  -4 -10 19.6762 11.3977   2
  -3  -4 -10 5.88734 8.53888   1
  -3  -5  15 3.62280 8.74043   1
   3   5 -15 4.86225 4.91152   2
  -3  -5  15 5.92854 8.55135   1
  -3  -5  14-13.0941 7.45409   1
   3   5 -14-0.72530 4.45564   2
  -3  -5  14-1.32614 7.05259   1
  -3  -5  13 23.6825 7.67750   1
   3   5 -13 5.67141 4.21758   2
  -3  -5  13 11.4115 7.27374   1
  -3  -5  12-3.69606 5.68123   1
   3   5 -12 5.23649 3.62742   2
  -3  -5  12 2.45927 5.94261   1
   3   5 -11 8.11520 3.53688   2
  -3  -5  11 7.25537 5.61995   1
  -3  -5  11 7.29682 3.70613   2
  -3  -5  11 9.50621 5.88288   1
   3   5 -10 19.2738 3.85922   2
  -3  -5  10 14.2056 5.57528   1
  -3  -5  10 19.1252 3.83139   2
  -3  -5  10 26.0646 6.54868   1
   3   5  -9-0.83885 3.17779   2
  -3  -5   9 2.57489 4.75226   1
  -3  -5   9-2.25001 3.05207   2
  -3  -5   9 4.35603 5.58089   1
   3   5  -8 41.9025 4.52089   2
  -3  -5   8 44.1604 4.61001   2
   3   5  -8 37.7964 6.17714   1
  -3  -5   8 42.4714 6.38487   1
   3   5  -7 26.7053 4.07742   2
  -3  -5   7 17.2013 5.35512   1
  -3  -5   7 16.5101 3.50160   2
   3   5  -7 15.8236 4.71044   1
   3   5  -6 29.1640 4.20394   2
  -3  -5   6 19.0134 4.99098   1
  -3  -5   6 26.0210 4.04501   2
   3   5  -6 29.0157 5.55666   1
   3   5  -5 1.26415 2.93899   2
  -3  -5   5 2.84333 2.94206   2
   3   5  -5 3.11446 4.19848   1
  -3  -5   5 0.57229 4.04087   1
   3   5  -4-2.61614 4.05736   1
   3   5  -4 5.72480 3.29157   2
  -3  -5   4 3.55747 3.18277   2
  -3  -5   4 5.60522 3.77716   1
  -3  -5   3 429.747 13.2126   2
   3   5  -3 431.125 15.1891   1
  -3  -5   3 434.657 15.2408   1
  -3  -5   2 202.001 9.62727   2
   3   5  -2 197.623 10.8573   1
  -3  -5   2 198.175 10.8368   1
  -3  -5   1 5.65632 3.55335   2
  -3  -5   1 7.72876 4.35789   1
   3   5  -1 11.6016 4.45115   1
  -3  -5   0 203.080 10.4961   2
  -3  -5   0 170.575 10.1478   1
   3   5   0 167.672 10.3594   1
  -3  -5  -1 3.03550 3.97209   1
  -3  -5  -1 4.08696 3.82051   2
   3   5   1-3.09340 4.59921   1
  -3  -5  -2 2.88900 4.54471   1
  -3  -5  -2-3.32317 5.02142   2
   3   5   2 1.28543 4.61723   1
  -3  -5  -3 7.96441 5.53907   1
   3   5   3 10.3519 5.41811   1
  -3  -5  -3 16.1872 6.30092   2
   3   5   4 24.2892 6.64115   1
  -3  -5  -4 39.7223 7.04976   2
  -3  -5  -4 20.9498 6.34275   1
   3   5   5-0.61752 5.76522   1
  -3  -5  -5-1.33118 5.85134   2
  -3  -5  -5 0.99729 5.93969   1
  -3  -5  -6 19.2665 8.04395   2
   3   5   6 19.1136 7.05622   1
  -3  -5  -6 17.8031 7.03903   1
   3   5   7-0.48410 7.29070   1
  -3  -5  -7-12.5075 8.26997   2
   3   5   8 12.4959 8.91732   1
  -3  -5  -8 15.6888 9.78812   2
  -3  -5  -8 11.5824 8.55433   1
   3   5   9 33.1636 10.3946   1
  -3  -5  -9 28.0287 9.74667   1
  -3  -6  15 3.27772 9.55468   1
  -3  -6  15 7.74688 8.57651   1
   3   6 -15 13.9113 6.38049   2
  -3  -6  14 23.9759 9.42420   1
  -3  -6  14 1.41819 8.12134   1
   3   6 -14 11.3600 5.30531   2
  -3  -6  13 7.64863 7.44417   1
  -3  -6  13 15.7512 7.50079   1
   3   6 -13 5.83467 4.80117   2
  -3  -6  12 30.5369 7.32829   1
   3   6 -12 19.3854 4.85996   2
  -3  -6  12 9.73387 4.65032   2
  -3  -6  12 14.9310 7.11772   1
  -3  -6  11 4.50693 6.03628   1
   3   6 -11 8.96572 4.36389   2
  -3  -6  11 0.47084 4.07396   2
  -3  -6  11 12.8043 6.62898   1
   3   6 -10 33.0160 5.11091   2
  -3  -6  10 33.5183 6.86642   1
  -3  -6  10 29.5373 5.21372   2
  -3  -6  10 40.8848 8.10700   1
  -3  -6   9-1.91252 5.52570   1
   3   6  -9 4.57665 3.92641   2
   3   6  -9-3.18882 5.55342   1
  -3  -6   9 1.70851 3.55976   2
   3   6  -8 0.92371 3.59746   2
  -3  -6   8-1.81301 3.57296   2
  -3  -6   8 6.16273 5.22377   1
   3   6  -8-0.38188 4.99471   1
   3   6  -7 6.85402 4.93847   1
   3   6  -7 10.2611 4.21466   2
  -3  -6   7 8.33168 3.92685   2
  -3  -6   7 3.51534 5.23336   1
   3   6  -6 6.70562 3.75894   2
  -3  -6   6-0.59820 3.58457   2
   3   6  -6 5.45072 4.46396   1
  -3  -6   6 12.0666 5.28085   1
   3   6  -5 253.237 11.0589   2
  -3  -6   5 260.081 10.9864   2
   3   6  -5 250.446 12.6249   1
  -3  -6   5 276.610 13.0173   1
  -3  -6   4 54.9599 6.18391   2
   3   6  -4 44.2832 6.51845   1
  -3  -6   4 50.1789 7.01915   1
   3   6  -4 47.3131 5.96776   2
  -3  -6   3 43.1142 5.61993   2
  -3  -6   3 34.7444 6.29056   1
   3   6  -3 45.0577 6.90390   1
   3   6  -3 32.6213 5.23047   2
  -3  -6   2 5.51814 3.97770   2
  -3  -6   2-4.87873 4.99741   1
   3   6  -2-0.98878 4.61277   1
  -3  -6   1 26.7420 5.88322   2
  -3  -6   1 18.1629 5.93633   1
   3   6  -1 15.2177 5.56621   1
  -3  -6   0 9.88295 5.91781   1
  -3  -6   0 15.2000 5.62860   2
   3   6   0 4.78522 5.29575   1
  -3  -6  -1 1.48900 4.65998   1
  -3  -6  -1 9.23803 5.69579   2
   3   6   1-1.72842 5.40299   1
  -3  -6  -2-1.68616 5.80114   1
   3   6   2 14.0279 5.98484   1
  -3  -6  -2 13.1853 5.51273   2
  -3  -6  -3 43.1717 8.50035   2
  -3  -6  -3 49.3536 8.65088   1
   3   6   3 40.5936 8.09888   1
  -3  -6  -4 27.2772 7.13599   2
   3   6   4 24.7889 7.39499   1
  -3  -6  -4 19.4668 7.03357   1
   3   6   5 16.0604 7.38131   1
  -3  -6  -5 7.31118 7.25070   2
  -3  -6  -5 23.9745 8.83720   1
   3   6   6 20.1102 9.33042   1
  -3  -6  -6 15.7169 9.71913   2
  -3  -6  -6 22.3598 8.50646   1
   3   6   7-6.81048 9.23686   1
  -3  -6  -7-2.06773 8.92378   2
  -3  -6  -7-1.90517 10.2545   1
  -3  -7  14 2.58337 8.41993   1
  -3  -7  14 0.74352 9.33700   1
   3   7 -14-1.38539 6.69112   2
  -3  -7  13-4.53434 7.97569   1
   3   7 -13 10.1785 5.58937   2
  -3  -7  13-0.95248 5.96078   2
  -3  -7  13-2.16486 8.11319   1
   3   7 -12 0.94168 5.61692   2
  -3  -7  12 0.04448 5.49769   2
  -3  -7  12-5.63486 7.60209   1
  -3  -7  12-4.92752 6.73584   1
   3   7 -11 3.60506 4.92648   2
  -3  -7  11 7.76865 4.83095   2
  -3  -7  11-10.1928 7.92199   1
  -3  -7  11-1.59891 6.81193   1
   3   7 -10 2.04919 5.11181   2
  -3  -7  10 2.99206 4.93498   2
   3   7 -10 8.42436 6.24965   1
  -3  -7  10 0.81055 5.66003   1
   3   7  -9 1.83091 4.72958   2
  -3  -7   9 2.36139 4.64549   2
   3   7  -9-5.33315 5.68219   1
  -3  -7   9 2.86100 5.45821   1
   3   7  -8-6.56385 6.26983   1
   3   7  -8 4.05252 4.59081   2
  -3  -7   8 8.76826 4.90477   2
  -3  -7   8-8.44695 5.90465   1
   3   7  -7-1.41746 4.77694   2
  -3  -7   7 9.74955 4.72701   2
   3   7  -7 3.43410 4.72459   1
  -3  -7   7 3.34556 4.94196   1
   3   7  -6 15.6859 5.86105   1
   3   7  -6 26.9170 5.58969   2
  -3  -7   6 9.39844 4.66203   2
  -3  -7   6 12.5707 5.61904   1
   3   7  -5 150.433 9.86028   2
  -3  -7   5 133.772 9.26279   2
   3   7  -5 128.660 10.4336   1
  -3  -7   5 150.824 11.0494   1
   3   7  -4-7.62895 4.90232   2
  -3  -7   4-7.39081 4.93343   2
  -3  -7   4 5.20000 4.62273   1
   3   7  -4 7.98672 5.66541   1
  -3  -7   3 87.3913 8.11582   2
   3   7  -3 85.8008 9.34369   1
  -3  -7   3 89.0517 9.36811   1
   3   7  -3 83.5362 8.56667   2
  -3  -7   2 1.87129 5.15457   1
  -3  -7   2-2.29109 5.32426   2
   3   7  -2-1.37920 5.11685   1
  -3  -7   1 6.40002 5.71310   1
  -3  -7   1 8.17369 5.23464   2
   3   7  -1 5.52699 6.00603   1
  -3  -7   0 14.6285 6.83683   1
  -3  -7   0 22.1497 6.18104   2
   3   7   0 25.0752 6.93342   1
  -3  -7  -1 8.11269 7.37424   1
   3   7   1 2.19509 6.52866   1
  -3  -7  -1-11.6038 6.81457   2
  -3  -7  -2 98.2072 10.8351   2
  -3  -7  -2 84.6563 10.6200   1
   3   7   2 81.7974 9.77338   1
   3   7   3 13.8432 7.97742   1
  -3  -7  -3 8.16653 8.18065   2
  -3  -7  -3 10.4329 8.00750   1
   3   7   4 1.01660 8.63155   1
  -3  -7  -4 16.7101 9.49711   2
  -3  -7  -4 17.6982 9.35686   1
   3   7   5 5.89931 9.92500   1
  -3  -7  -5 11.3024 9.83723   2
  -3  -7  -5 8.87645 9.67873   1
   3   7   6 2.05939 9.45202   1
  -3  -7  -6-0.62609 11.8115   2
  -3  -7  -6 29.8673 11.4121   1
   3   8 -14 0.81244 3.74227   2
  -3  -8  14 16.0492 5.65001   1
  -3  -8  14 5.85343 5.81922   1
   3   8 -13 8.46885 6.95358   2
  -3  -8  13-5.37973 7.49350   2
  -3  -8  13 9.32510 8.25635   1
  -3  -8  13-7.41663 9.69900   1
   3   8 -12 5.43074 6.76296   2
  -3  -8  12-6.41965 7.12108   2
  -3  -8  12-20.1470 8.37985   1
  -3  -8  12-1.89299 9.00122   1
   3   8 -11-4.09041 6.45603   2
  -3  -8  11-5.87178 5.99876   2
   3   8 -11 7.92602 7.30075   1
   3   8 -10 12.7777 7.34134   1
   3   8 -10 5.78562 6.19165   2
  -3  -8  10-2.33285 6.34952   2
  -3  -8  10-10.8521 7.41173   1
   3   8  -9 0.85136 5.85405   2
   3   8  -9 8.69630 6.58422   1
  -3  -8   9 2.41156 5.87563   2
  -3  -8   9 13.4960 7.21047   1
   3   8  -8-0.05365 5.66160   2
  -3  -8   8 5.29494 5.59820   2
  -3  -8   8-4.23435 7.33374   1
   3   8  -8-1.85112 6.62203   1
   3   8  -7 2.93819 5.59988   2
   3   8  -7 17.7239 7.10450   1
  -3  -8   7 0.89546 5.25578   2
  -3  -8   7 15.9269 7.19941   1
   3   8  -6 21.7629 7.52477   1
   3   8  -6 17.6618 6.79898   2
  -3  -8   6 22.3033 7.18418   1
  -3  -8   6 12.8170 5.93298   2
   3   8  -5 11.0096 6.37138   2
  -3  -8   5 5.65941 5.88341   1
  -3  -8   5 5.48355 5.97851   2
   3   8  -5 3.07106 6.52055   1
   3   8  -4-0.17887 5.59362   2
  -3  -8   4-0.20465 5.95800   1
  -3  -8   4 9.37327 5.80489   2
   3   8  -4-2.80448 6.27489   1
  -3  -8   3 1.52837 6.63028   1
  -3  -8   3 13.8207 6.33323   2
   3   8  -3 11.6616 6.66811   1
   3   8  -3-0.43424 5.52402   2
  -3  -8   2 9.61506 7.28451   1
  -3  -8   2 17.2492 6.96202   2
   3   8  -2 3.50203 7.11414   1
  -3  -8   1 18.3198 6.78797   1
  -3  -8   1-1.80201 6.16306   2
   3   8  -1 4.03967 6.74950   1
  -3  -8   0 19.4588 8.36824   1
  -3  -8   0 10.2056 7.88260   2
   3   8   0 13.5550 7.71533   1
   3   8   1 27.8973 8.45578   1
  -3  -8  -1 15.3973 7.93962   2
  -3  -8  -1 30.7645 9.09445   1
  -3  -8  -2 46.5410 10.0280   2
  -3  -8  -2 65.8641 11.6050   1
   3   8   2 58.4719 11.5309   1
   3   8   3-7.33341 9.78963   1
  -3  -8  -3 15.0455 10.2164   2
  -3  -8  -3 6.11565 10.1513   1
  -3  -8  -4 46.6820 12.0342   1
  -3  -8  -4 39.4225 12.5562   2
   3   9 -12-5.48480 8.23967   2
  -3  -9  12-12.4373 9.14869   1
  -3  -9  12 11.6581 8.86195   2
   3   9 -11 13.7295 8.31739   2
  -3  -9  11-0.52835 9.34922   1
  -3  -9  11 5.28248 7.60714   2
   3   9 -11-7.13176 8.31447   1
   3   9 -10-0.18637 7.81995   2
  -3  -9  10 16.5252 8.17845   1
  -3  -9  10-1.39988 7.30883   2
   3   9 -10-7.06741 8.79618   1
   3   9  -9 11.0622 8.24507   1
   3   9  -9 2.24686 7.05895   2
  -3  -9   9-0.96594 7.74931   1
  -3  -9   9-3.64284 7.31826   2
   3   9  -8 2.95498 6.94169   2
  -3  -9   8 1.70628 7.46462   1
  -3  -9   8-3.73855 6.76804   2
   3   9  -8-13.1781 7.90114   1
   3   9  -7 15.1769 7.92259   2
   3   9  -7-4.75512 7.83363   1
  -3  -9   7 3.64314 7.11819   1
  -3  -9   7 2.43087 6.83405   2
   3   9  -6 19.6142 8.29640   1
   3   9  -6 17.0388 7.59549   2
  -3  -9   6 5.69582 8.36245   1
  -3  -9   6 10.8522 7.27700   2
   3   9  -5 1.88185 7.00101   2
  -3  -9   5 15.7065 7.70970   1
  -3  -9   5 16.3483 7.53076   2
   3   9  -5 3.77969 8.58693   1
  -3  -9   4 20.0096 8.82002   1
   3   9  -4 7.23612 7.49157   2
  -3  -9   4 7.90572 8.13440   2
   3   9  -4-2.01643 9.09461   1
  -3  -9   3-12.1030 8.26584   1
  -3  -9   3-6.23941 6.78802   2
   3   9  -3-2.37759 8.85911   1
  -3  -9   2-7.36006 8.85222   1
  -3  -9   2 20.7347 9.32343   2
   3   9  -2-4.22673 7.95402   1
  -3  -9   1-5.30128 8.05987   2
   3   9  -1-8.44936 8.04531   1
  -3  -9   1-10.1538 9.19391   1
  -3  -9   0 0.96271 9.77169   2
   3   9   0-8.27902 9.02166   1
  -3  -9   0-0.44038 8.67233   1
  -3  -9  -1 93.7356 14.3130   2
  -3  -9  -1 87.7151 13.8545   1
   3   9   1 112.756 14.3922   1
   3   9   2 40.4890 11.0602   1
  -3  -9  -2 24.0685 10.8805   2
  -3  -9  -2 37.8224 11.5137   1
  -3 -10  10 45.0545 8.73167   2
   3  10 -10 26.0294 7.73666   2
  -3 -10  10-6.87436 8.51049   1
   3  10 -10-14.0661 8.85455   1
   3  10  -9-0.43302 8.89590   2
  -3 -10   9 1.06561 8.94302   1
  -3 -10   9 0.93266 8.73029   2
   3  10  -9 12.9135 9.90508   1
   3  10  -8 24.2647 9.86428   2
  -3 -10   8 13.1845 9.70845   1
   3  10  -8 32.7273 10.8050   1
  -3 -10   8-1.23159 8.95435   2
  -3 -10   7 4.15479 9.17568   1
   3  10  -7-4.67703 10.4989   2
   3  10  -7 11.3758 10.5426   1
  -3 -10   7 10.7696 9.64753   2
   3  10  -6-0.91581 9.02337   1
  -3 -10   6 17.5163 10.1370   1
   3  10  -6 6.44087 8.90688   2
  -3 -10   6 16.3421 10.0555   2
  -3 -10   5-14.2241 10.9825   1
   3  10  -5-14.2847 10.0102   2
  -3 -10   5-10.0282 10.1700   2
   3  10  -5-6.55703 8.87808   1
   3  10  -4-2.89357 10.4625   2
  -3 -10   4 3.16658 9.46892   1
  -3 -10   4 4.21483 9.43218   2
   3  10  -4-3.15356 10.8144   1
  -3 -10   3 5.08220 9.17588   2
   3  10  -3 21.8875 10.8308   1
  -3 -10   3 37.8546 12.6370   1
  -3 -10   2 36.3524 11.0757   2
   3  10  -2 10.7749 12.1104   1
  -3 -10   2 34.7419 12.9205   1
   4 -10   2-16.7032 7.42245   1
  -4  10  -2-11.2044 6.73909   1
  -4  10  -2-14.1950 8.65394   2
   4 -10   2-3.67134 7.97374   2
  -4  10  -3 2.72224 7.14203   1
  -4  10  -3 5.40772 8.90136   2
   4 -10   3 9.69461 8.81718   2
   4 -10   3 5.20361 7.71557   1
  -4  10  -4 12.2133 8.90117   2
  -4  10  -4 9.73192 6.41654   1
   4 -10   4 22.2256 7.34075   1
  -4  10  -5 19.4220 6.42565   2
  -4  10  -5 21.4740 4.54179   1
   4 -10   5 15.3349 6.15449   2
   4 -10   5 23.6937 4.80776   1
   4  -9  -3-2.74408 9.54393   1
  -4   9   3-5.14697 7.32900   2
   4  -9  -3-5.06152 7.28315   2
  -4   9   3-7.99951 9.12927   1
   4  -9  -2-7.31078 11.3609   1
  -4   9   2-6.03908 8.13419   2
   4  -9  -2 6.41015 8.51400   2
  -4   9   2 15.3429 10.5404   1
   4  -9  -1 18.6590 8.99028   1
  -4   9   1 0.30901 8.37841   2
   4  -9  -1 9.04400 7.78971   2
  -4   9   1 16.8012 8.98073   1
   4  -9   0 16.7312 8.62466   1
  -4   9   0 14.0582 7.69740   2
   4  -9   0-11.9539 8.14967   2
  -4   9   0-10.9851 8.49202   1
   4  -9   1 26.4082 8.54922   1
  -4   9  -1 51.1689 8.61077   1
   4  -9   1 61.3627 9.47175   2
  -4   9  -1 38.9474 8.48600   2
  -4   9  -2 6.23077 6.23901   1
  -4   9  -2 5.18179 7.57985   2
   4  -9   2 4.50893 7.58201   2
   4  -9   2 6.77770 6.84665   1
  -4   9  -3 4.60494 5.78838   1
  -4   9  -3-3.93799 7.75737   2
   4  -9   3 13.3677 7.92044   2
   4  -9   3 2.13436 6.42916   1
  -4   9  -4 43.4104 6.87490   1
  -4   9  -4 54.8076 9.89746   2
   4  -9   4 49.0944 9.73382   2
   4  -9   4 55.2687 7.69569   1
  -4   9  -5-1.09274 8.70990   2
  -4   9  -5 2.86107 4.81200   1
   4  -9   5-1.11067 7.97781   2
  -4   9  -6 3.06550 3.09752   1
  -4   9  -6 0.52928 8.44801   2
   4  -9   6-0.92909 8.81518   2
  -4   9  -6-3.15724 3.53886   1
  -4   9  -7 32.6943 10.9204   2
  -4   9  -8-2.73224 9.74227   2
  -4   8   5 3.93581 6.99913   2
   4  -8  -5-10.3547 6.71530   2
  -4   8   5-6.81760 10.2620   1
   4  -8  -4 20.3635 10.2612   1
  -4   8   4 6.72906 6.49910   2
   4  -8  -4-2.84025 6.79589   2
  -4   8   4-3.69598 9.87386   1
   4  -8  -3 21.9756 9.76465   1
  -4   8   3-2.04989 6.22742   2
   4  -8  -3 10.5932 6.37570   2
  -4   8   3 5.37481 8.43654   1
  -4   8   2 57.1947 8.27089   2
  -4   8   2 45.9938 9.52315   1
   4  -8  -2 57.9668 10.4080   1
   4  -8  -1 23.6531 7.85749   1
  -4   8   1 16.7374 7.14271   2
   4  -8  -1 13.9794 6.62441   2
  -4   8   1 3.38333 6.96790   1
   4  -8   0-6.77577 7.13556   1
  -4   8   0 0.32851 6.25434   2
  -4   8   0-2.98995 6.20057   1
  -4   8  -1 13.4461 6.66521   2
   4  -8   1 8.69401 6.09781   2
  -4   8  -1 21.2837 6.47657   1
   4  -8   1 23.5803 6.66858   1
  -4   8  -2 10.6134 6.64488   2
   4  -8   2-0.11713 6.45914   2
  -4   8  -2 5.66921 5.48401   1
   4  -8   2-2.35716 5.53939   1
  -4   8  -3 7.47547 4.99818   1
  -4   8  -3 6.57553 6.76302   2
   4  -8   3-0.24412 6.37832   2
   4  -8   3 2.08185 4.99970   1
  -4   8  -4 3.85871 4.29942   1
  -4   8  -4 5.07069 6.84567   2
   4  -8   4-0.89463 6.51219   2
   4  -8   4-1.51677 4.49531   1
  -4   8  -5 19.9890 4.21644   1
  -4   8  -5 8.25243 7.70738   2
  -4   8  -5 23.9632 4.41941   1
   4  -8   5 16.1805 7.66924   2
  -4   8  -6 1.90594 2.15546   1
  -4   8  -6-3.70881 7.53379   2
  -4   8  -6 3.76013 2.27383   1
  -4   8  -7 11.9836 8.16130   2
  -4   8  -8 3.27637 9.18256   2
  -4   8  -9-14.9926 10.9641   2
  -4   8 -10 19.8158 10.8860   2
   4  -7  -7-7.19331 10.4899   1
   4  -7  -7 7.27651 5.93895   2
  -4   7   7 20.6808 11.8443   1
   4  -7  -6-1.11173 5.79246   2
  -4   7   6 13.5376 9.61622   1
   4  -7  -5-0.16376 8.46102   1
  -4   7   5-0.98560 5.36127   2
   4  -7  -5-0.88900 5.47462   2
  -4   7   5 6.79638 8.46094   1
   4  -7  -4 24.0124 7.89131   1
  -4   7   4 16.1616 5.38623   2
   4  -7  -4 21.3084 6.11364   2
  -4   7   4 33.0500 8.95714   1
   4  -7  -3 1.40720 7.34492   1
  -4   7   3-2.83883 5.28907   2
   4  -7  -3 2.25414 5.13303   2
  -4   7   3 13.3476 6.90985   1
  -4   7   2 36.6607 6.24520   2
   4  -7  -2 31.2847 5.93079   2
  -4   7   2 39.4930 8.00401   1
   4  -7  -2 36.6495 7.93959   1
   4  -7  -1 21.6138 6.92106   1
  -4   7   1 17.9678 5.18515   2
   4  -7  -1 26.7538 5.50476   2
  -4   7   1 26.2771 6.65921   1
  -4   7   0 3.22780 4.90370   2
   4  -7   0-6.52576 5.25058   2
  -4   7   0 3.29644 5.40611   1
   4  -7   0 5.45156 5.76521   1
  -4   7  -1-7.70480 5.09029   2
   4  -7   1 0.69213 4.90220   2
  -4   7  -1-4.95186 4.71740   1
   4  -7   1 5.66855 5.23483   1
  -4   7  -2 33.2453 5.77233   1
  -4   7  -2 26.4876 6.51808   2
   4  -7   2 24.3732 6.15136   2
   4  -7   2 25.1271 5.73790   1
  -4   7  -3 9.46326 5.86884   2
   4  -7   3 3.60529 5.79322   2
   4  -7   3-1.24060 3.95284   1
  -4   7  -3 11.0424 4.39458   1
  -4   7  -4 8.91336 3.71609   1
  -4   7  -4 0.16876 5.68772   2
   4  -7   4 11.0342 6.52446   2
  -4   7  -4 6.88646 3.77426   1
  -4   7  -5-0.43448 2.83842   1
  -4   7  -5-5.50739 6.03081   2
  -4   7  -5-1.64408 2.63870   1
  -4   7  -6 1.62432 1.04230   1
  -4   7  -6-0.06285 6.51923   2
  -4   7  -7 9.46489 7.05531   2
  -4   7  -8 18.2188 7.93501   2
  -4   7  -9 2.62072 9.06270   2
  -4   7 -10-5.53208 10.0744   2
  -4   7 -11 3.87286 10.5910   2
   4  -6  -9 18.2348 4.40728   2
  -4   6   9 45.3096 11.6689   1
   4  -6  -9 45.5499 11.8050   1
   4  -6  -8 5.37943 4.80669   2
  -4   6   8 2.70180 10.0332   1
   4  -6  -8 21.8615 10.5561   1
   4  -6  -7-1.73131 4.59261   2
  -4   6   7-2.84509 9.16082   1
   4  -6  -7 17.5026 10.5575   1
   4  -6  -6 29.7123 8.96733   1
   4  -6  -6 15.6709 4.59507   2
  -4   6   6 21.0317 9.19312   1
   4  -6  -5 5.83699 7.09837   1
  -4   6   5 4.15168 4.13170   2
   4  -6  -5 9.92359 4.03796   2
  -4   6   5 4.11968 7.41106   1
  -4   6   4 20.1882 4.83069   2
   4  -6  -4 20.4611 4.37645   2
  -4   6   4 19.5260 6.99059   1
   4  -6  -4 25.5844 8.05070   1
  -4   6   3 3.56657 4.04061   2
  -4   6   3 5.96730 5.80830   1
   4  -6  -3-0.10513 3.92171   2
   4  -6  -3 6.38497 5.97744   1
  -4   6   2 75.8904 6.51303   2
   4  -6  -2 68.5254 6.32989   2
   4  -6  -2 74.2925 8.41400   1
  -4   6   2 80.7147 8.39831   1
  -4   6   1 8.35566 4.03337   2
  -4   6   1 17.1715 5.31455   1
   4  -6  -1 20.2531 4.74205   2
   4  -6  -1 16.0925 5.81405   1
  -4   6   0 40.3364 5.82009   2
   4  -6   0 49.7480 5.91256   2
   4  -6   0 55.0934 6.96190   1
  -4   6   0 42.7133 6.16534   1
  -4   6  -1 51.0022 6.31474   2
   4  -6   1 48.5806 6.24358   2
   4  -6   1 45.3994 6.30216   1
  -4   6  -1 48.0476 5.92334   1
  -4   6  -2 23.2539 5.44316   2
  -4   6  -2 22.4438 4.57182   1
   4  -6   2 23.4267 5.70775   2
  -4   6  -3 0.88397 3.18173   1
  -4   6  -3 2.05337 4.33239   2
  -4   6  -3 4.84384 3.36136   1
  -4   6  -4 0.76521 4.59408   2
  -4   6  -4-1.20966 3.11598   1
  -4   6  -4-2.47320 3.06777   1
  -4   6  -5 4.18113 5.57442   2
  -4   6  -5 8.01906 2.41453   1
  -4   6  -5 5.20421 2.32330   1
  -4   6  -6-1.95920 6.02345   2
  -4   6  -7 1.72267 6.59559   2
  -4   6  -8 9.72273 7.55458   2
  -4   6  -9 7.20261 7.50474   2
  -4   6 -10 3.62980 8.21085   2
  -4   6 -11 38.4109 11.4475   2
  -4   5  10 4.88177 10.3985   1
   4  -5 -10-5.64682 9.92364   1
   4  -5  -9 2.90793 2.57648   2
  -4   5   9 1.11134 10.4626   1
   4  -5  -9-10.8581 9.48464   1
  -4   5   8 4.91929 8.09638   1
   4  -5  -8-1.26019 9.15178   1
  -4   5   7-5.13786 7.07956   1
   4  -5  -7 3.82420 3.07580   2
   4  -5  -7 2.72972 6.73634   1
  -4   5   6 0.88431 6.22823   1
   4  -5  -6 3.31860 2.97877   2
   4  -5  -6 7.30374 6.79135   1
  -4   5   5 14.9374 3.61414   2
  -4   5   5 18.3775 7.13733   1
   4  -5  -5 16.6739 3.50900   2
   4  -5  -5 6.69560 5.61071   1
  -4   5   4 18.0920 3.64618   2
  -4   5   4 12.9225 5.88662   1
   4  -5  -4 11.6154 3.48235   2
   4  -5  -4 9.60157 6.12851   1
  -4   5   3 4.36078 3.10268   2
  -4   5   3-1.93219 4.72960   1
   4  -5  -3-4.62335 3.32116   2
   4  -5  -3-0.51462 5.17531   1
  -4   5   2 1.72385 3.10808   2
  -4   5   2-4.93564 4.12195   1
   4  -5  -2 3.55569 3.28265   2
   4  -5  -2 4.63259 5.01522   1
  -4   5   1 41.1447 4.76326   2
   4  -5  -1 46.1708 4.94142   2
   4  -5  -1 45.6487 6.56439   1
  -4   5   1 39.4511 5.81974   1
  -4   5   0-1.18210 3.46054   2
  -4   5   0-4.83688 4.07205   1
   4  -5   0 2.77014 3.42271   2
   4  -5   0 6.54198 4.22587   1
  -4   5  -1 34.0252 4.94542   2
  -4   5  -1 35.1595 4.69858   1
  -4   5  -1 28.6701 4.70113   1
  -4   5  -2-0.80598 3.95273   2
  -4   5  -2 1.52733 3.08653   1
  -4   5  -2 4.28656 3.18938   1
  -4   5  -3-1.44952 4.34007   2
  -4   5  -3 0.66898 2.93658   1
  -4   5  -3 0.62585 2.71402   1
  -4   5  -4 34.9340 5.98596   2
  -4   5  -4 26.9456 3.41479   1
  -4   5  -4 28.7688 3.65822   1
  -4   5  -5 120.775 4.84958   1
  -4   5  -5 119.366 9.44892   2
  -4   5  -5 129.937 4.88627   1
  -4   5  -6 18.3860 5.69392   2
  -4   5  -7 12.9274 6.35736   2
  -4   5  -8 30.9234 7.64583   2
  -4   5  -9 0.63241 7.58136   2
  -4   5 -10-9.84741 7.09470   2
  -4   5 -11 33.2805 10.3853   2
  -4   5 -12 11.4577 11.4097   2
  -4   4  11 14.2657 11.2736   1
   4  -4 -11-7.27298 10.8467   1
  -4   4  10-8.16547 10.0721   1
   4  -4 -10-13.8617 10.9409   1
  -4   4   9 15.4799 9.30231   1
   4  -4  -9 21.2411 9.73529   1
  -4   4   8 7.18837 7.50303   1
   4  -4  -8 17.6528 8.07253   1
  -4   4   7 1.81958 6.55740   1
   4  -4  -7-1.36398 6.31584   1
  -4   4   6 7.56367 5.33247   1
   4  -4  -6 1.40408 1.72523   2
   4  -4  -6 0.39897 6.57554   1
  -4   4   5 9.94045 2.30824   2
  -4   4   5 0.92620 5.34163   1
   4  -4  -5 7.06065 2.24667   2
   4  -4  -5 3.63826 4.98554   1
  -4   4   4 117.639 5.43477   2
   4  -4  -4 117.925 5.36291   2
   4  -4  -4 105.475 9.12604   1
  -4   4   4 119.801 9.52793   1
  -4   4   3 4.77589 2.59474   2
  -4   4   3 2.51915 4.49221   1
   4  -4  -3 5.53551 4.98123   1
  -4   4   2 37.8192 3.91672   2
   4  -4  -2 40.6225 6.10513   1
  -4   4   2 37.8025 5.61387   1
  -4   4   1 1.37647 3.71116   1
  -4   4   1 3.42680 2.62209   2
  -4   4   0-1.06163 3.36001   1
  -4   4   0 3.17058 3.06438   2
  -4   4   0-2.09753 3.14997   1
  -4   4  -1 18.5227 4.02794   2
  -4   4  -1 25.2718 4.11303   1
  -4   4  -1 20.8577 4.17532   1
  -4   4  -2 133.628 7.98448   2
  -4   4  -2 129.255 6.95743   1
  -4   4  -2 127.948 6.91246   1
  -4   4  -3 84.9006 7.21650   2
  -4   4  -3 76.4142 5.09012   1
  -4   4  -3 82.2726 5.35947   1
  -4   4  -4 4.70959 2.46893   1
  -4   4  -4 3.91625 2.32084   1
  -4   4  -4 1.70535 3.87552   2
  -4   4  -5 38.0433 6.44971   2
  -4   4  -5 32.6827 2.88702   1
  -4   4  -5 37.6830 3.07615   1
  -4   4  -6 49.6433 7.28409   2
  -4   4  -6 39.6186 1.49856   1
  -4   4  -7 49.0105 7.57465   2
  -4   4  -8 61.8948 8.58260   2
  -4   4  -9 11.0203 6.83019   2
  -4   4 -10 19.2255 8.54613   2
  -4   4 -11 9.64820 8.70791   2
  -4   4 -12 25.3960 10.2156   2
  -4   3  12-10.7347 10.7955   1
   4  -3 -12 12.1945 11.1389   1
  -4   3  11 1.34331 8.14531   1
   4  -3 -11 22.9094 9.66917   1
  -4   3  10 9.53427 8.73515   1
   4  -3 -10 5.70730 9.65171   1
  -4   3   9-5.45120 7.29069   1
   4  -3  -9-5.22093 6.67338   1
  -4   3   8 4.92860 5.74222   1
   4  -3  -8-4.04830 5.73415   1
  -4   3   7 10.3437 6.09188   1
   4  -3  -7 13.5377 6.33442   1
   4  -3  -6 40.0236 7.59743   1
  -4   3   6 35.3715 7.15124   1
  -4   3   5 12.9098 5.52962   1
   4  -3  -5 24.3702 6.39200   1
  -4   3   4 61.4025 3.18174   2
   4  -3  -4 66.2267 7.42270   1
  -4   3   4 54.6640 7.09848   1
  -4   3   3 42.0132 3.24941   2
  -4   3   3 45.4024 5.84596   1
  -4   3   3 41.4711 6.07102   1
  -4   3   2 0.41274 3.41653   1
  -4   3   2 5.34173 3.76878   1
  -4   3   2 1.68888 2.10811   2
  -4   3   1 9.38521 3.86158   1
  -4   3   1 5.83921 2.39388   2
  -4   3   1 8.42524 3.73267   1
  -4   3   0 3.75819 3.15056   1
  -4   3   0 4.02226 3.23846   1
  -4   3   0 1.32810 2.66387   2
  -4   3  -1 7.48229 3.17524   1
  -4   3  -1-0.68912 2.69767   1
  -4   3  -1 6.30323 3.17967   2
  -4   3  -2 20.1784 3.60664   1
  -4   3  -2 14.5123 3.73497   2
  -4   3  -2 20.9069 3.80338   1
  -4   3  -3 344.961 12.3268   2
  -4   3  -3 350.389 10.2165   1
  -4   3  -3 345.198 9.85546   1
  -4   3  -4 0.92626 2.19361   1
  -4   3  -4 5.80217 2.61650   1
  -4   3  -4-1.03490 3.74333   2
  -4   3  -5 10.8618 2.55740   1
  -4   3  -5 11.3834 4.62214   2
  -4   3  -5 11.3879 2.35069   1
  -4   3  -6 2.37302 1.56017   1
  -4   3  -6 0.81782 1.56062   1
  -4   3  -6 5.34459 5.42903   2
  -4   3  -7 53.7894 7.82878   2
  -4   3  -8 23.4770 6.55872   2
  -4   3  -9 4.99569 6.98239   2
  -4   3 -10 0.14895 7.14236   2
  -4   3 -11-7.44369 9.87092   2
  -4   3 -12 11.8252 10.4804   2
  -4   2  13-26.7432 11.0345   1
  -4   2  13 22.7186 10.0446   1
  -4   2  12-8.45927 9.01483   1
  -4   2  12-0.91591 9.00848   1
  -4   2  11 18.9989 8.62165   1
  -4   2  10 26.5792 8.51199   1
  -4   2   9 71.6025 9.64432   1
  -4   2   8 60.8926 7.97182   1
  -4   2   7 0.65371 5.70595   1
  -4   2   6 29.2429 5.65069   1
  -4   2   6 29.2440 6.19666   1
  -4   2   5 19.1397 5.49819   1
  -4   2   5 20.5460 5.41971   1
  -4   2   4 56.2514 1.84036   2
  -4   2   4 61.4805 6.64366   1
  -4   2   4 63.4507 7.03470   1
  -4   2   3 43.0017 2.72582   2
  -4   2   3 43.1882 5.42027   1
  -4   2   3 35.9786 5.51290   1
  -4   2   2 26.2686 2.87410   2
  -4   2   2 25.2073 4.76083   1
  -4   2   2 31.6462 5.11996   1
  -4   2   1-0.58873 3.31003   1
  -4   2   1 1.80859 2.28327   2
  -4   2   1 0.76459 2.89734   1
  -4   2   0 66.0776 4.88224   2
  -4   2   0 66.7731 5.58803   1
  -4   2   0 69.5624 5.99190   1
  -4   2  -1 19.2139 3.93710   1
  -4   2  -1 18.1901 3.63210   2
  -4   2  -1 14.2849 3.45013   1
  -4   2  -2 0.24802 2.99237   1
  -4   2  -2 1.44413 2.73958   1
  -4   2  -2-1.70685 3.21880   2
  -4   2  -3 21.4619 4.41760   2
  -4   2  -3 19.4580 3.59218   1
  -4   2  -3 18.4295 3.39965   1
  -4   2  -4 2.12395 2.73892   1
  -4   2  -4 6.26287 3.98681   2
  -4   2  -4 3.85463 2.46320   1
  -4   2  -5 21.2157 3.14143   1
  -4   2  -5 24.0824 5.57409   2
  -4   2  -5 23.4652 3.35382   1
  -4   2  -6 8.27634 2.70444   1
  -4   2  -6 7.48092 2.50425   1
  -4   2  -6 1.15494 4.87930   2
  -4   2  -7 4.22747 2.11885   1
  -4   2  -7 12.5878 5.95140   2
  -4   2  -7 7.02865 2.05138   1
  -4   2  -8 1.51550 1.56596   1
  -4   2  -8-2.33983 1.41487   1
  -4   2  -8-1.01231 6.16662   2
  -4   2  -9 2.34921 7.30310   2
  -4   2 -10 2.78812 8.71828   2
  -4   2 -11-4.18277 8.75231   2
  -4   2 -12 33.8054 10.9788   2
  -4   1  13-9.10395 9.92228   1
  -4   1  13-10.8182 10.1063   1
  -4   1  12 9.37930 9.07153   1
  -4   1  12 6.67615 9.04420   1
  -4   1  11 10.1437 7.58936   1
  -4   1  11-3.65478 6.77633   1
  -4   1  10-5.47434 6.18731   1
  -4   1  10-5.64345 6.37912   1
  -4   1   9 33.0794 6.64455   1
  -4   1   9 22.1330 6.24401   1
  -4   1   8 10.3942 5.22252   1
  -4   1   8 3.41057 5.88141   1
  -4   1   7 16.5789 5.70013   1
  -4   1   7 9.42015 4.80497   1
  -4   1   6 45.9969 6.18290   1
  -4   1   6 45.3494 6.37094   1
  -4   1   5 21.4835 5.00510   1
  -4   1   5 24.5049 4.70353   1
  -4   1   4 32.6366 5.39984   1
  -4   1   4 29.3152 5.29439   1
  -4   1   3 1.69142 1.25117   2
  -4   1   3-0.86809 3.31928   1
  -4   1   2 244.115 6.74350   2
  -4   1   2 259.363 10.7124   1
  -4   1   2 257.307 11.2311   1
  -4   1   1 19.3228 4.29360   1
  -4   1   1 12.9628 3.67227   1
  -4   1   1 11.3482 2.57999   2
  -4   1   0 44.8717 4.99803   1
  -4   1   0 51.0229 4.34236   2
  -4   1   0 41.4671 5.07812   1
  -4   1  -1 85.0831 5.76508   2
  -4   1  -1 97.8337 6.75138   1
  -4   1  -1 86.5935 6.08325   1
  -4   1  -2 20.8310 4.05737   2
  -4   1  -2 10.5002 3.00853   1
  -4   1  -2 15.0695 3.54045   1
  -4   1  -3 123.994 7.88813   2
  -4   1  -3 130.961 6.85473   1
  -4   1  -3 137.618 7.39821   1
  -4   1  -4 75.9372 6.81721   2
  -4   1  -4 82.1887 5.64574   1
  -4   1  -4 76.6192 5.69549   1
  -4   1  -5 143.892 9.76601   2
  -4   1  -5 141.908 6.85047   1
  -4   1  -6 3.30056 2.96767   1
   4  -1   6 3.44972 2.81744   1
  -4   1  -6 3.82635 5.00759   2
  -4   1  -7 32.3399 3.98959   1
  -4   1  -7 30.1523 7.15767   2
   4  -1   7 25.8555 3.73327   1
   4  -1   8 1.71458 2.83782   1
  -4   1  -8 4.22175 3.12615   1
  -4   1  -8 0.38988 6.50507   2
   4  -1   9 3.12028 2.69820   1
  -4   1  -9 4.23975 2.77033   1
  -4   1  -9 5.61023 6.93580   2
  -4   1 -10 18.7415 8.26958   2
   4  -1  10 8.86795 2.99517   1
  -4   1 -10 24.2716 3.37046   1
  -4   1 -11 0.54801 2.05158   1
  -4   1 -11-7.16246 9.90303   2
  -4   0  14-20.6834 10.1063   1
  -4   0  14-1.31503 10.0118   1
  -4   0  13-10.7055 9.56499   1
  -4   0  13 5.29284 8.48455   1
  -4   0  12 10.3587 9.01177   1
  -4   0  12 17.2077 7.93621   1
  -4   0  11 8.71813 6.40097   1
  -4   0  11 10.0467 7.10009   1
  -4   0  10 18.0842 7.32688   1
  -4   0  10 1.75672 5.58273   1
  -4   0   9 7.43821 5.85088   1
  -4   0   9 4.61058 5.85163   1
  -4   0   8 7.14185 4.86096   1
  -4   0   8 6.39809 5.33444   1
  -4   0   7 0.10595 3.86419   1
  -4   0   7-6.55509 5.39011   1
  -4   0   6 4.34351 4.04938   1
  -4   0   6 3.08219 4.05107   1
  -4   0   5 32.3641 5.43271   1
  -4   0   5 30.3947 5.86170   1
  -4   0   4 10.5210 3.92512   1
  -4   0   4 19.1156 4.61117   1
  -4   0   3 6.61952 3.27106   1
  -4   0   3 3.51332 1.55873   2
  -4   0   3 0.79869 1.38457   2
  -4   0   3 2.86832 3.86629   1
  -4   0   2 8.00040 2.17400   2
  -4   0   2 10.0595 3.91769   1
  -4   0   2-0.38287 3.53094   1
  -4   0   2 6.70702 2.13544   2
  -4   0   1 60.3303 5.83239   1
  -4   0   1 66.4185 4.52861   2
  -4   0   1 64.8102 6.22959   1
  -4   0   0 61.6901 6.05420   1
  -4   0   0 46.7293 5.15890   1
   4   0   1 139.549 7.70276   1
  -4   0  -1 129.639 7.52213   1
   4   0   2 6.19887 3.24864   1
  -4   0  -2 3.02991 2.98750   1
  -4   0  -3 50.5887 5.01953   1
   4   0   3 42.1043 4.78945   1
   4   0   4 7.92066 3.30450   1
  -4   0  -4 5.32183 3.26123   1
  -4   0  -5 153.074 7.77741   1
   4   0   5 157.556 7.90664   1
  -4   0  -6 6.11408 3.57599   1
   4   0   6 6.03002 3.26230   1
   4   0   7 1.91019 3.65392   1
  -4   0  -7 1.40890 3.58108   1
   4   0   8 2.66887 3.70141   1
  -4   0  -8-0.84427 3.75755   1
   4   0   9 34.3682 5.13679   1
  -4   0  -9 35.9722 5.21473   1
   4   0  10 34.2944 5.48704   1
  -4   0 -10 41.0164 10.2999   2
  -4   0 -10 44.8562 5.81824   1
  -4   0 -11 19.6519 9.94769   2
  -4   0 -11 39.2184 6.11202   1
  -4  -1  14-9.52061 8.67449   1
  -4  -1  14-17.2826 10.8943   1
  -4  -1  13 10.2174 8.84946   1
  -4  -1  13-0.46441 7.85682   1
  -4  -1  12 37.2177 9.60473   1
  -4  -1  12 27.5900 7.87609   1
  -4  -1  11 14.9996 6.53274   1
  -4  -1  11 6.64015 6.98825   1
  -4  -1  10 10.5854 6.69747   1
  -4  -1  10 13.5029 5.56323   1
  -4  -1   9-5.99361 5.73379   1
  -4  -1   9 3.73959 5.04420   1
  -4  -1   8 5.71682 4.48695   1
  -4  -1   8-7.18375 5.27732   1
  -4  -1   7 9.51311 4.86794   1
  -4  -1   7 3.23955 3.72299   1
  -4  -1   6 69.3234 7.22183   1
  -4  -1   6 65.0963 7.56506   1
  -4  -1   5 0.65422 3.31733   1
  -4  -1   5 0.70963 4.52906   1
  -4  -1   4 24.2322 2.01587   2
  -4  -1   4 22.3953 1.95775   2
  -4  -1   4 24.4898 4.95682   1
  -4  -1   4 23.3899 5.39625   1
  -4  -1   3 0.96559 1.82263   2
  -4  -1   3-3.58080 3.96335   1
  -4  -1   3-2.80234 3.80166   1
  -4  -1   2 101.169 5.26154   2
  -4  -1   2 95.5900 7.10424   1
   4   1  -1 67.8396 6.12876   1
  -4  -1   1 70.4262 6.40427   1
  -4  -1   1 73.4697 5.07050   2
   4   1   0 85.7146 6.74619   1
  -4  -1   0 95.4049 7.05708   1
  -4  -1   0 98.8603 6.24511   2
   4   1   1 45.6532 5.20623   1
  -4  -1  -1 50.1997 5.43408   1
  -4  -1  -2 6.85219 3.52184   1
   4   1   2-0.11309 3.11867   1
   4   1   3 93.9678 6.96398   1
  -4  -1  -3 102.021 7.24456   1
  -4  -1  -4 0.56991 3.49708   1
   4   1   4 3.45930 3.47969   1
  -4  -1  -5 16.3714 4.58000   1
   4   1   5 10.6306 4.22594   1
   4   1   6 3.47696 3.95732   1
  -4  -1  -6-0.03995 4.21686   1
  -4  -1  -7 35.7113 5.76472   1
   4   1   7 32.8331 5.54405   1
  -4  -1  -8 234.601 11.0146   1
   4   1   8 230.663 10.8280   1
  -4  -1  -9-1.97937 5.31951   1
   4   1   9 13.8867 5.90340   1
  -4  -1 -10 6.13174 6.09100   1
   4   1  10 10.8920 5.71761   1
  -4  -2  14-13.1646 9.19410   1
  -4  -2  14 5.51148 9.22935   1
  -4  -2  13-8.17926 7.98187   1
  -4  -2  13 16.0567 8.76137   1
  -4  -2  12 6.80240 6.73283   1
  -4  -2  12 8.95130 6.59026   1
  -4  -2  11 8.51685 6.84955   1
  -4  -2  11 3.97541 6.67485   1
  -4  -2  10 5.93598 5.95857   1
  -4  -2  10 3.67565 5.85726   1
  -4  -2   9 16.7656 6.60475   1
  -4  -2   9 23.8595 6.55666   1
  -4  -2   8-3.25813 5.23959   1
  -4  -2   8-5.62807 4.86769   1
  -4  -2   7 43.2361 6.74667   1
  -4  -2   7 30.1923 5.93852   1
  -4  -2   6 24.3882 5.61485   1
  -4  -2   6 21.9504 5.08863   1
  -4  -2   5 153.717 4.58258   2
  -4  -2   5 159.739 9.68716   1
  -4  -2   5 151.028 9.92333   1
  -4  -2   4 13.1309 2.35370   2
  -4  -2   4 16.0843 4.84681   1
  -4  -2   4 18.3506 4.55267   1
  -4  -2   3 2.14570 2.33039   2
  -4  -2   3 3.71786 3.89270   1
  -4  -2   2 38.6624 4.02575   2
   4   2  -2 39.7206 5.61164   1
  -4  -2   2 40.3626 5.56139   1
  -4  -2   1 22.4280 4.77708   1
  -4  -2   1 19.6386 3.65993   2
   4   2  -1 22.2027 4.74648   1
  -4  -2   0 5.89987 3.31851   2
   4   2   0 0.85385 3.22422   1
  -4  -2   0 1.07266 3.37933   1
  -4  -2  -1 24.5301 4.62963   2
   4   2   1 21.5227 4.81904   1
  -4  -2  -1 30.1997 4.99225   1
  -4  -2  -2 12.9151 4.42467   2
   4   2   2 13.8449 4.48418   1
  -4  -2  -2 14.7299 4.65639   1
   4   2   3 2.23294 3.75642   1
  -4  -2  -3 1.06418 4.21695   2
  -4  -2  -3 1.74259 3.75263   1
  -4  -2  -4 2.50475 5.04424   2
  -4  -2  -4 1.50614 4.30761   1
   4   2   4 5.41428 4.54294   1
  -4  -2  -5 0.91078 4.44890   1
  -4  -2  -5 5.96718 5.34167   2
   4   2   5 4.65382 4.32049   1
  -4  -2  -6 27.1521 7.13638   2
   4   2   6 9.48689 5.35311   1
  -4  -2  -6 20.3055 5.73391   1
  -4  -2  -7 19.7907 6.81181   2
   4   2   7 28.3613 6.40197   1
  -4  -2  -7 20.0178 5.71223   1
  -4  -2  -8 9.60180 8.81896   2
   4   2   8 16.6908 6.64477   1
  -4  -2  -8 3.32429 6.10296   1
  -4  -2  -9 4.39260 10.0939   2
  -4  -2  -9 6.32116 6.38179   1
   4   2   9 19.1133 6.86134   1
  -4  -2 -10-7.54960 11.0843   2
  -4  -2 -10-6.77812 7.42258   1
   4   2  10 9.09792 7.17067   1
  -4  -3  14 12.0806 9.71673   1
  -4  -3  14-2.49914 10.0548   1
  -4  -3  13 18.6624 8.71965   1
  -4  -3  13-11.4972 8.50381   1
  -4  -3  12 4.23339 8.36931   1
  -4  -3  12 11.3496 7.58635   1
  -4  -3  11 11.4850 7.84937   1
  -4  -3  11 2.40419 5.74065   1
  -4  -3  10 11.2972 6.42729   1
  -4  -3  10 2.15630 5.45071   1
  -4  -3   9-1.03611 5.32349   1
  -4  -3   9 3.09181 5.52432   1
  -4  -3   8 250.599 13.6021   1
  -4  -3   8 259.789 13.8173   1
  -4  -3   7 6.65853 1.52863   2
  -4  -3   7 6.31526 4.80166   1
  -4  -3   7 10.6103 5.35138   1
  -4  -3   6 57.7194 3.55148   2
  -4  -3   6 59.5504 7.81725   1
  -4  -3   6 65.7073 7.42159   1
  -4  -3   5 3.38472 4.20740   1
  -4  -3   5 0.01996 2.14402   2
   4   3  -5-1.83732 4.64349   1
  -4  -3   4 57.4279 4.55518   2
   4   3  -4 49.7993 6.64496   1
  -4  -3   4 55.4539 6.91704   1
  -4  -3   3 141.773 7.02484   2
   4   3  -3 131.985 9.18053   1
  -4  -3   3 127.816 9.12947   1
  -4  -3   2 174.789 8.26842   2
   4   3  -2 175.951 10.0235   1
  -4  -3   2 170.816 9.95355   1
  -4  -3   1 23.4789 4.40197   2
   4   3  -1 26.2564 5.53440   1
  -4  -3   1 28.7498 5.31367   1
  -4  -3   0 116.690 7.90562   2
   4   3   0 125.616 8.71777   1
  -4  -3   0 118.584 8.61303   1
   4   3   1 4.90756 4.02136   1
  -4  -3  -1 11.4471 4.32344   2
  -4  -3  -1 5.69181 4.74928   1
  -4  -3  -2 1.64440 4.12727   2
  -4  -3  -2 7.90562 4.51232   1
   4   3   2 12.5062 4.77553   1
  -4  -3  -3 4.99963 4.87063   2
  -4  -3  -3-5.09870 4.39976   1
   4   3   3-4.44079 4.20492   1
  -4  -3  -4 27.1583 5.89950   1
  -4  -3  -4 22.7290 6.46985   2
   4   3   4 16.9076 5.33850   1
  -4  -3  -5 18.3858 6.12065   1
  -4  -3  -5 14.7846 7.07587   2
   4   3   5 15.9686 5.94661   1
  -4  -3  -6 11.7468 7.12833   2
   4   3   6 8.37670 5.67957   1
  -4  -3  -6 15.3021 6.08792   1
  -4  -3  -7 24.7897 9.75743   2
   4   3   7 5.14174 6.63724   1
  -4  -3  -7 16.8466 7.08406   1
  -4  -3  -8 30.1533 10.0062   2
   4   3   8 7.88310 7.06770   1
  -4  -3  -8 18.4094 7.71309   1
  -4  -3  -9 26.4920 11.4354   2
   4   3   9 6.56920 7.84293   1
  -4  -3  -9 1.17241 8.21989   1
  -4  -4  14 7.16308 9.46468   1
  -4  -4  14 33.7872 11.0338   1
  -4  -4  13-9.55470 8.88547   1
  -4  -4  13-0.07582 7.73256   1
  -4  -4  12-3.06292 8.53585   1
  -4  -4  12-2.01765 7.40074   1
  -4  -4  11-1.82447 6.41759   1
  -4  -4  11-1.16606 6.69335   1
  -4  -4  10-2.09415 5.55344   1
  -4  -4  10-3.55997 6.23753   1
  -4  -4   9 2.94284 6.03919   1
  -4  -4   9 3.81561 1.86668   2
  -4  -4   9 0.73773 6.57311   1
  -4  -4   8 2.94418 5.11175   1
  -4  -4   8 5.45768 2.39045   2
  -4  -4   7 29.1563 3.48678   2
  -4  -4   7 26.7676 6.45385   1
  -4  -4   7 36.8488 6.90566   1
   4   4  -6 4.53597 4.30775   1
  -4  -4   6 0.73229 4.20017   1
  -4  -4   6-1.15465 2.59619   2
  -4  -4   5 4.83968 4.87487   1
  -4  -4   5 1.23883 2.87507   2
   4   4  -5 4.03722 4.15509   1
  -4  -4   4 12.4508 4.62093   1
   4   4  -4 16.7063 5.14478   1
  -4  -4   4 17.5633 3.81431   2
  -4  -4   3 36.8062 4.76568   2
   4   4  -3 36.3619 6.45709   1
  -4  -4   3 25.9114 5.72859   1
  -4  -4   2 66.0457 6.22985   2
   4   4  -2 58.2084 6.75276   1
  -4  -4   2 50.7196 6.47372   1
  -4  -4   1 73.7731 6.90826   2
   4   4  -1 69.8297 7.68871   1
  -4  -4   1 67.8071 7.79183   1
   4   4   0 13.6909 5.65234   1
  -4  -4   0 8.22300 4.63757   2
  -4  -4   0 7.96993 5.35042   1
  -4  -4  -1 13.9028 5.11604   2
  -4  -4  -1 5.75411 5.34157   1
   4   4   1 13.5505 5.29519   1
  -4  -4  -2 1.20452 5.55247   2
  -4  -4  -2-3.96346 5.41957   1
   4   4   2 1.56603 5.13153   1
  -4  -4  -3 33.3056 7.22437   2
   4   4   3 42.6776 7.47421   1
  -4  -4  -3 40.2866 6.96898   1
  -4  -4  -4 7.87533 5.72215   1
  -4  -4  -4 5.93425 6.87632   2
   4   4   4 3.92832 5.86251   1
  -4  -4  -5 22.0787 7.55734   2
   4   4   5 24.3388 7.42501   1
  -4  -4  -5 34.3837 7.72964   1
  -4  -4  -6 24.8592 9.76844   2
   4   4   6 2.49603 7.37934   1
  -4  -4  -6 15.0463 7.38872   1
   4   4   7 12.3173 7.62442   1
  -4  -4  -7 7.35675 7.76526   1
  -4  -4  -8 33.3014 12.7716   2
   4   4   8 27.7570 9.44865   1
  -4  -4  -8 32.3889 10.2262   1
  -4  -5  14-13.0020 10.4600   1
  -4  -5  14 15.4831 9.88198   1
  -4  -5  13-12.9497 9.17803   1
  -4  -5  13-6.47164 9.75389   1
  -4  -5  12 0.31407 8.69345   1
  -4  -5  12 10.3072 8.34664   1
  -4  -5  11 25.0344 7.97919   1
  -4  -5  11 17.8029 7.41210   1
  -4  -5  10 19.2663 6.47917   1
  -4  -5  10 18.4073 3.48925   2
  -4  -5  10 7.42737 7.07413   1
  -4  -5   9-2.16332 5.88109   1
  -4  -5   9-2.58751 3.07119   2
  -4  -5   9-4.40993 6.91324   1
  -4  -5   8 25.7682 6.24960   1
  -4  -5   8 19.1667 3.76436   2
  -4  -5   7 42.4849 4.67711   2
   4   5  -7 40.6880 7.27828   1
  -4  -5   7 54.3065 8.01379   1
  -4  -5   6 15.7262 6.42553   1
  -4  -5   6 26.3418 4.49610   2
   4   5  -6 28.7609 6.53354   1
  -4  -5   5-4.84623 3.64216   2
  -4  -5   5-0.05972 5.59589   1
  -4  -5   4 5.90189 3.90477   2
   4   5  -4 6.52403 5.39006   1
  -4  -5   4 1.00009 4.44011   1
  -4  -5   3 2.94519 4.06495   2
   4   5  -3-5.54151 5.20729   1
  -4  -5   3 9.81985 5.70945   1
  -4  -5   2 24.6374 5.51370   2
   4   5  -2 29.2213 6.31637   1
  -4  -5   2 37.2845 7.32574   1
  -4  -5   1 40.3238 6.39849   2
   4   5  -1 42.3789 7.12547   1
  -4  -5   1 44.9585 7.38086   1
  -4  -5   0 6.82684 5.43781   2
  -4  -5   0-0.30396 5.06520   1
   4   5   0 0.36336 5.91482   1
  -4  -5  -1 18.2091 6.55405   1
  -4  -5  -1 21.6723 6.91312   2
   4   5   1 20.9731 6.21123   1
   4   5   2 32.0481 7.44325   1
  -4  -5  -2 30.3892 7.82768   1
  -4  -5  -2 21.9963 7.45382   2
  -4  -5  -3 64.7004 9.36821   2
   4   5   3 59.6417 9.12642   1
  -4  -5  -3 64.8080 9.14044   1
  -4  -5  -4 7.92458 8.29859   2
   4   5   4 3.96029 6.92280   1
  -4  -5  -4-1.59800 6.68025   1
  -4  -5  -5 19.2567 9.65357   2
   4   5   5 7.44632 7.88898   1
  -4  -5  -5 13.4294 7.88200   1
  -4  -5  -6 2.34144 9.71442   2
   4   5   6 8.78336 8.19947   1
  -4  -5  -6 16.3953 8.84433   1
  -4  -5  -7 19.3543 9.19355   2
   4   5   7-0.92336 8.45960   1
  -4  -5  -7-7.84967 8.50432   1
   4   6 -14 23.9870 3.08689   2
  -4  -6  14 26.9759 7.57761   1
  -4  -6  13 0.59192 10.1793   1
   4   6 -13 13.7682 4.48692   2
  -4  -6  13 10.1639 9.15173   1
  -4  -6  12 3.21629 7.65901   1
   4   6 -12 2.67578 4.16252   2
  -4  -6  12 0.08165 8.85262   1
  -4  -6  11-11.1592 7.63108   1
   4   6 -11-0.30612 4.40923   2
  -4  -6  11 1.14659 4.23216   2
  -4  -6  11-2.69211 7.88639   1
  -4  -6  10 3.50251 6.95798   1
   4   6 -10 10.9710 4.28143   2
  -4  -6  10-3.13096 3.92480   2
  -4  -6  10 8.54250 8.80658   1
  -4  -6   9-3.47592 7.11263   1
  -4  -6   9-3.68925 4.21879   2
   4   6  -9 6.86703 4.42582   2
  -4  -6   8 40.5533 5.53779   2
  -4  -6   8 43.0756 7.86902   1
   4   6  -8 31.8309 7.64464   1
  -4  -6   7 58.6530 6.36442   2
   4   6  -7 64.6740 8.98097   1
  -4  -6   7 49.9422 8.55563   1
   4   6  -6 4.84059 6.79833   1
  -4  -6   6 12.3240 4.76368   2
  -4  -6   6 17.9758 6.92862   1
  -4  -6   5 25.5613 5.62265   2
   4   6  -5 19.7678 6.16902   1
  -4  -6   5 24.7433 7.21652   1
  -4  -6   4 25.5257 5.69601   2
   4   6  -4 25.9686 7.27862   1
  -4  -6   4 36.7419 8.11585   1
   4   6  -3 4.46766 6.04924   1
  -4  -6   3 1.97528 5.03707   2
  -4  -6   3 7.20403 5.71560   1
   4   6  -2 6.23766 6.90181   1
  -4  -6   2 1.36917 5.48799   2
  -4  -6   2 10.6272 7.01891   1
  -4  -6   1 13.8471 6.55549   2
  -4  -6   1 29.4502 8.12544   1
   4   6  -1 31.8474 8.02320   1
  -4  -6   0 73.3167 9.45141   2
   4   6   0 65.9498 9.72068   1
  -4  -6   0 58.5013 9.07411   1
  -4  -6  -1 7.80015 7.10106   1
  -4  -6  -1 1.49725 6.56025   2
   4   6   1 3.60462 6.92453   1
  -4  -6  -2 22.6082 8.02404   1
  -4  -6  -2 27.0796 8.14519   2
   4   6   2 8.51824 7.79541   1
  -4  -6  -3 13.5178 8.56082   2
   4   6   3 4.06403 7.47529   1
  -4  -6  -3 5.02230 8.41155   1
  -4  -6  -4-6.96815 9.22005   2
   4   6   4 4.68599 8.32970   1
  -4  -6  -4-8.93189 9.65625   1
  -4  -6  -5 23.8847 11.3178   2
   4   6   5 3.73862 9.23646   1
  -4  -6  -5 12.5790 9.96374   1
  -4  -7  13 1.32149 9.33742   1
   4   7 -13-0.07330 5.06988   2
  -4  -7  13 2.73844 9.58988   1
   4   7 -12 0.85188 5.64727   2
  -4  -7  12-5.41136 5.49250   2
  -4  -7  12-16.6112 10.0166   1
  -4  -7  12 7.79110 10.2677   1
   4   7 -11 7.01497 5.73056   2
  -4  -7  11 11.9984 5.47539   2
  -4  -7  11 4.73523 8.99197   1
  -4  -7  11 12.5959 8.16592   1
   4   7 -10-1.99615 5.34539   2
  -4  -7  10 9.53391 5.98551   2
  -4  -7  10 2.82245 8.89174   1
   4   7  -9 29.6276 6.34115   2
  -4  -7   9 13.7662 5.78569   2
  -4  -7   9 20.8859 9.41151   1
   4   7  -9 8.99900 7.37977   1
  -4  -7   8 20.8066 5.99130   2
   4   7  -8 24.0320 7.91447   1
  -4  -7   8 31.8277 8.48789   1
   4   7  -8 14.6115 5.55063   2
   4   7  -7-0.14432 7.33109   1
  -4  -7   7-2.40791 5.36491   2
  -4  -7   7 6.46404 6.44739   1
  -4  -7   6 1.95362 5.33574   2
  -4  -7   6 6.26039 7.35759   1
   4   7  -6-8.99087 7.91596   1
  -4  -7   5 17.0340 5.89528   2
   4   7  -5 17.4750 7.20371   1
  -4  -7   5 2.84307 7.43228   1
   4   7  -4 0.57272 6.04326   1
  -4  -7   4 12.9934 6.20042   2
  -4  -7   4 20.1489 8.22262   1
   4   7  -3 10.0009 6.67093   1
  -4  -7   3-5.15632 6.43751   2
  -4  -7   3-5.86891 7.57026   1
  -4  -7   2 6.38423 7.02856   1
  -4  -7   2 10.1174 6.56636   2
   4   7  -2-5.98798 8.34496   1
  -4  -7   1 159.982 12.0686   2
   4   7  -1 145.742 12.5844   1
  -4  -7   1 152.547 13.0811   1
  -4  -7   0 9.83289 9.15687   1
  -4  -7   0 32.3555 8.70466   2
   4   7   0 24.0840 8.46130   1
  -4  -7  -1 18.8663 9.35412   1
  -4  -7  -1 7.38446 9.00253   2
   4   7   1 18.5866 9.27131   1
  -4  -7  -2 6.54147 8.71745   2
   4   7   2-1.90205 10.1099   1
  -4  -7  -2 3.50724 9.27494   1
  -4  -7  -3 33.4711 11.0557   2
  -4  -7  -3 44.9019 11.8525   1
   4   8 -11 33.2430 8.49608   2
  -4  -8  11 19.4734 7.89014   2
  -4  -8  11 15.7665 10.5443   1
   4   8 -10 10.1372 6.64834   2
  -4  -8  10 2.52661 7.14452   2
   4   8 -10 11.1031 8.97963   1
  -4  -8  10 20.9735 9.60325   1
   4   8  -9 25.5196 7.14755   2
  -4  -8   9 20.5378 6.89047   2
  -4  -8   9 8.61604 8.05424   1
   4   8  -9 11.8258 8.12359   1
   4   8  -8 8.24911 6.99474   2
   4   8  -8 0.95502 9.05470   1
  -4  -8   8 14.9655 6.63428   2
  -4  -8   8 1.62229 7.74281   1
  -4  -8   7 26.1590 7.14122   2
  -4  -8   7 40.6804 10.3653   1
   4   8  -7 25.4241 9.27671   1
  -4  -8   6 1.79211 6.73292   2
  -4  -8   6 3.69046 8.94617   1
   4   8  -6-2.13707 8.55950   1
   4   8  -5-15.7530 8.40994   1
  -4  -8   5-21.3936 9.01148   1
  -4  -8   5 6.29754 7.34233   2
   4   8  -4-2.47351 9.01373   1
  -4  -8   4 9.70523 8.92244   1
  -4  -8   4-14.8266 7.21155   2
   4   8  -3 31.3587 10.2523   1
  -4  -8   3 45.0330 10.5154   1
  -4  -8   2 50.7213 11.5809   1
  -4  -8   2 50.6354 9.41084   2
   4   8  -2 36.2678 10.4354   1
  -4  -8   1-20.5461 10.0502   1
  -4  -8   1-4.02132 8.80716   2
   4   8  -1-8.29815 9.88788   1
  -4  -8   0 0.35183 10.7650   1
  -4  -8   0 23.1710 9.95973   2
   4   8   0 30.2393 11.0892   1
  -4  -8  -1 17.4240 11.6725   2
   4   8   1-5.16255 10.1806   1
  -4  -8  -1-7.16948 11.3099   1
   4   9  -9 2.23259 7.32541   2
  -4  -9   9 7.28990 8.54861   1
  -4  -9   9-9.05866 7.66598   2
   4   9  -9 3.50572 8.33170   1
   4   9  -8-18.7579 10.5583   1
  -4  -9   8-2.65103 9.33166   1
  -4  -9   8 9.03402 8.72841   2
   4   9  -8 0.91979 8.95056   2
  -4  -9   7 7.94242 9.96047   1
  -4  -9   7 3.25244 8.64349   2
   4   9  -7-10.6615 8.97856   1
  -4  -9   6 3.53786 11.0661   1
  -4  -9   6 2.89919 8.90492   2
   4   9  -6 18.3856 10.1136   1
   4   9  -5-12.3926 8.73787   1
  -4  -9   5 0.35641 9.15892   1
  -4  -9   5-2.60562 8.70706   2
  -4  -9   4-9.10639 10.2811   1
  -4  -9   4-12.6922 8.73325   2
  -4  -9   3 33.7435 12.5442   1
  -4  -9   3 16.6751 10.4274   2
   4   9  -3 14.9353 10.0661   1
  -4  -9   2-7.03873 8.99577   2
  -5   8   2 7.49558 6.44760   2
   5  -8  -2 13.6272 6.67500   2
  -5   8   2 7.12620 8.91174   1
   5  -8  -2 10.1220 9.00534   1
  -5   8   1-6.45309 7.26193   2
   5  -8  -1 7.39321 7.81391   2
  -5   8   1 9.88136 9.14853   1
   5  -8  -1-0.22449 9.23399   1
  -5   8   0 2.27779 7.76569   2
   5  -8   0-5.80545 8.88855   1
  -5   8   0 17.8805 8.66253   1
  -5   8  -1 24.8450 8.76518   2
  -5   8  -1-2.80270 7.76511   1
  -5   8  -1 8.36008 7.62236   1
  -5   8  -2 16.9994 6.79369   1
  -5   8  -2 32.4179 9.21957   2
  -5   8  -2 21.3716 7.19652   1
  -5   8  -3-7.53929 5.83117   1
  -5   8  -3-0.99031 8.12350   2
  -5   8  -3 9.15769 6.34163   1
  -5   8  -4 16.8325 5.93563   1
  -5   8  -4 16.8102 9.59143   2
  -5   8  -4 14.0441 5.76391   1
  -5   8  -5 2.01698 3.92636   1
  -5   8  -5-3.35099 8.98096   2
  -5   8  -5 4.59174 3.99837   1
  -5   8  -6-8.76299 8.37080   2
  -5   7   5-11.4502 9.11304   1
   5  -7  -5-9.55160 9.56737   1
  -5   7   4 1.00550 5.63125   2
  -5   7   4-2.41248 10.0805   1
   5  -7  -4 12.0639 5.84102   2
  -5   7   3-0.61396 6.39958   2
  -5   7   3 2.91600 8.61363   1
   5  -7  -3 1.59707 9.81426   1
  -5   7   2 2.41793 5.97110   2
  -5   7   2-7.06677 8.79173   1
   5  -7  -2 7.85956 8.75100   1
  -5   7   1 1.13298 6.33687   2
  -5   7   1 0.95625 7.00000   1
   5  -7  -1-0.68744 8.01693   1
  -5   7   0 4.84434 6.91305   1
  -5   7   0 12.9561 6.92771   1
  -5   7  -1-3.18171 5.70471   1
  -5   7  -1-2.13360 6.66996   2
  -5   7  -1 9.28012 6.55581   1
  -5   7  -2 4.17458 6.40621   2
  -5   7  -2-4.86409 5.99336   1
  -5   7  -2 1.73496 5.71484   1
  -5   7  -3 5.78988 6.86091   2
  -5   7  -3 7.98589 5.31673   1
  -5   7  -3 8.73185 5.59863   1
  -5   7  -4 14.0043 4.67215   1
  -5   7  -4 15.7102 7.42717   2
  -5   7  -4 16.7948 4.97018   1
  -5   7  -5 16.7381 3.65717   1
  -5   7  -5 9.32550 7.99327   2
  -5   7  -5 14.0837 3.54673   1
  -5   7  -6-5.00393 8.90510   2
  -5   7  -7 44.3770 10.7993   2
  -5   7  -8 22.3215 7.76021   2
  -5   6   7 44.6317 9.81901   1
   5  -6  -7 52.7040 10.0286   1
  -5   6   6 8.63234 11.0393   1
   5  -6  -6 16.5298 11.7393   1
  -5   6   5 0.55194 9.90436   1
   5  -6  -5 0.84939 9.20604   1
  -5   6   5 5.91671 3.89282   2
  -5   6   4 10.0720 4.68371   2
  -5   6   4 4.77281 8.17352   1
   5  -6  -4 7.76962 8.80697   1
  -5   6   3 12.4361 4.98411   2
  -5   6   3 11.5056 7.70769   1
   5  -6  -3-0.14781 7.44903   1
  -5   6   2-1.87494 4.90426   2
  -5   6   2 0.81969 6.60839   1
  -5   6   1 7.41812 5.07367   2
  -5   6   1-3.72004 6.16903   1
  -5   6   1 11.4114 6.35257   1
  -5   6   0 6.82448 5.59625   1
  -5   6   0 0.61983 5.45474   2
  -5   6   0 3.35949 5.88684   1
  -5   6  -1 18.6354 5.79590   2
  -5   6  -1 22.3474 5.95020   1
  -5   6  -1 18.7597 6.00992   1
  -5   6  -2 2.85530 5.82722   2
  -5   6  -2-0.94918 4.75709   1
  -5   6  -2 7.41763 4.76907   1
  -5   6  -3 15.5513 4.81352   1
  -5   6  -3 2.50638 6.25731   2
  -5   6  -3 10.3132 4.51028   1
  -5   6  -4 9.78628 6.43644   2
  -5   6  -4 2.45427 4.08241   1
  -5   6  -4 10.5289 4.47272   1
  -5   6  -5 16.4283 3.61756   1
  -5   6  -5 10.1031 7.45479   2
  -5   6  -5 16.4861 3.45118   1
  -5   6  -6 8.37108 8.05451   2
  -5   6  -7 31.7249 8.99448   2
  -5   6  -8 4.11595 10.4677   2
  -5   6  -9 22.5570 7.12735   2
  -5   5   8-14.9413 9.08654   1
   5  -5  -8 0.09716 11.1087   1
  -5   5   7 30.6750 10.2266   1
   5  -5  -7 1.27101 10.4900   1
  -5   5   6 34.4144 9.41100   1
   5  -5  -6 43.6490 10.8185   1
  -5   5   5 7.93792 7.73698   1
  -5   5   4-1.67907 3.23238   2
  -5   5   4 2.37653 7.23694   1
  -5   5   3 42.8766 4.88978   2
  -5   5   3 40.0385 8.03399   1
  -5   5   3 42.1757 8.05478   1
  -5   5   2 14.2731 4.15804   2
  -5   5   2 21.3828 6.80732   1
  -5   5   2 12.1555 6.29735   1
  -5   5   1 14.4023 4.67792   2
  -5   5   1 3.29860 5.73618   1
  -5   5   1 8.65996 5.36436   1
  -5   5   0 9.47794 5.04305   1
  -5   5   0 19.7634 4.93980   2
  -5   5   0 18.3044 6.10102   1
  -5   5  -1 13.9216 5.00171   2
  -5   5  -1 6.40027 4.94948   1
  -5   5  -1 17.7229 5.43508   1
  -5   5  -2-1.05333 4.42851   1
  -5   5  -2-0.40272 4.39715   1
  -5   5  -2 0.46723 4.96603   2
  -5   5  -3 12.6425 4.48562   1
  -5   5  -3 12.9743 5.99222   2
  -5   5  -3 24.8588 4.70241   1
  -5   5  -4 2.24844 3.55573   1
  -5   5  -4 0.73102 6.32037   2
  -5   5  -4 3.12944 3.57090   1
  -5   5  -5-1.34003 7.33569   2
  -5   5  -5 3.76051 2.93289   1
  -5   5  -5 2.49128 2.75157   1
  -5   5  -6-1.11951 6.99518   2
  -5   5  -7 13.3294 8.86731   2
  -5   5  -8-4.42597 8.79105   2
  -5   5  -9 17.0515 10.2543   2
  -5   4   9 46.7315 12.1057   1
  -5   4   9 29.2156 11.2326   1
  -5   4   8 4.44152 9.40878   1
  -5   4   8 4.68491 8.81270   1
  -5   4   7-5.55850 7.23773   1
  -5   4   7 7.91482 8.46568   1
  -5   4   6 10.6166 7.89430   1
  -5   4   6 9.68495 7.87316   1
  -5   4   5 9.50542 7.08135   1
  -5   4   5 18.2098 7.27435   1
  -5   4   4 9.27604 2.34844   2
  -5   4   4 12.1548 6.72273   1
  -5   4   3-5.27110 2.90536   2
  -5   4   3 1.01498 5.36477   1
  -5   4   3 6.78184 5.80604   1
  -5   4   2-2.89037 5.06901   1
  -5   4   2-1.61012 3.11130   2
  -5   4   2 9.73133 5.63028   1
  -5   4   1 8.45973 5.16721   1
  -5   4   1 5.72193 5.34826   1
  -5   4   1 9.56421 3.74930   2
  -5   4   0 18.9586 5.58388   1
  -5   4   0 17.1102 4.58102   2
  -5   4   0 16.7833 5.21481   1
  -5   4  -1 0.83317 4.09616   1
  -5   4  -1 1.13021 4.39618   1
  -5   4  -1 0.03970 4.54568   2
  -5   4  -2 42.1851 6.45283   2
  -5   4  -2 37.9026 5.64238   1
  -5   4  -2 50.2989 6.22159   1
  -5   4  -3 1.70364 3.77385   1
  -5   4  -3 2.70958 4.02747   1
  -5   4  -3-2.21547 4.89901   2
  -5   4  -4 3.82137 3.59905   1
  -5   4  -4-2.54479 3.63400   1
  -5   4  -4 0.75219 5.55393   2
  -5   4  -5 9.85349 3.40582   1
  -5   4  -5-4.79074 5.99965   2
  -5   4  -5 1.58999 2.93475   1
  -5   4  -6-0.39608 1.88168   1
  -5   4  -6 4.65830 1.91483   1
  -5   4  -6-1.14265 6.35078   2
  -5   4  -7 14.8040 8.35096   2
  -5   4  -8 1.56424 8.13840   2
  -5   4  -9 7.16251 9.87933   2
  -5   3  10-6.39610 9.63275   1
  -5   3  10-6.54287 11.6753   1
  -5   3   9 21.9478 9.70214   1
  -5   3   9-15.2200 9.51600   1
  -5   3   8 40.3598 10.5759   1
  -5   3   8 38.2934 8.66220   1
  -5   3   7 15.4938 8.28658   1
  -5   3   7 10.2692 7.66358   1
  -5   3   6 13.9924 7.09145   1
  -5   3   6 2.09510 7.24926   1
  -5   3   5 26.0425 7.91741   1
  -5   3   5 22.6656 6.68638   1
  -5   3   4 38.3411 2.01517   2
  -5   3   4 43.1736 7.20043   1
  -5   3   4 48.5921 7.78673   1
  -5   3   3 20.6374 2.92756   2
  -5   3   3 22.8922 6.27811   1
  -5   3   3 26.1698 6.22334   1
  -5   3   2 29.2632 3.76679   2
  -5   3   2 21.6186 6.04522   1
  -5   3   2 23.4810 5.75717   1
  -5   3   1 1.11504 4.69058   1
  -5   3   1 0.57366 4.50445   1
  -5   3   1-2.08889 3.30431   2
  -5   3   0 32.2899 4.73597   2
  -5   3   0 30.9435 5.48200   1
  -5   3   0 40.4018 6.14532   1
  -5   3  -1 1.35334 4.25941   1
  -5   3  -1-0.46020 4.00106   2
  -5   3  -1 5.03824 4.23963   1
  -5   3  -2 34.1367 5.83359   2
  -5   3  -2 28.5779 5.22406   1
  -5   3  -2 42.5093 5.49486   1
  -5   3  -3 5.41652 4.14323   1
  -5   3  -3 1.20426 3.64354   1
  -5   3  -3 14.9994 5.16793   2
  -5   3  -4 4.26110 3.85120   1
  -5   3  -4-6.63260 5.15914   2
  -5   3  -4 2.31670 3.45019   1
  -5   3  -5 26.1015 4.13130   1
  -5   3  -5 14.2307 6.41308   2
  -5   3  -5 25.5694 4.36066   1
  -5   3  -6 6.27147 2.87490   1
  -5   3  -6 8.72515 3.08614   1
  -5   3  -6 4.89626 6.35091   2
  -5   3  -7-15.0559 7.20676   2
  -5   3  -7 1.12014 1.55106   1
  -5   3  -8 22.5283 9.23371   2
  -5   3  -9 48.3869 11.5388   2
  -5   3 -10 29.3233 7.84635   2
  -5   2  11-1.91948 10.8859   1
  -5   2  11 25.7529 10.8317   1
  -5   2  10 13.6948 9.01110   1
  -5   2  10 21.4439 10.1811   1
  -5   2   9 3.15727 8.60596   1
  -5   2   9 13.9657 9.35499   1
  -5   2   8-7.76143 8.32565   1
  -5   2   8-0.51486 7.00258   1
  -5   2   7-1.06903 6.75853   1
  -5   2   7-3.30527 6.13506   1
  -5   2   6 5.44930 7.03955   1
  -5   2   6 0.77430 6.41614   1
  -5   2   5 3.33022 5.32289   1
  -5   2   5 0.64084 5.68506   1
  -5   2   4 4.33470 4.94442   1
  -5   2   4 13.6108 5.98326   1
  -5   2   3-1.86850 4.73992   1
  -5   2   3-0.33491 1.86498   2
  -5   2   3-2.40048 5.02837   1
  -5   2   2 7.73900 5.11158   1
  -5   2   2 2.29240 4.58181   1
  -5   2   2 0.51327 2.44321   2
  -5   2   1 40.2929 4.55209   2
  -5   2   1 47.5728 6.34816   1
  -5   2   1 42.3874 6.68903   1
  -5   2   0 115.304 8.35751   1
  -5   2   0 109.846 7.02610   2
  -5   2   0 126.224 9.05562   1
  -5   2  -1 16.7058 5.02995   1
  -5   2  -1 22.2257 4.82189   1
  -5   2  -1 22.2046 4.67679   2
  -5   2  -2-3.49396 4.35852   1
  -5   2  -2-1.91451 3.98753   1
  -5   2  -2-1.18635 4.29588   2
  -5   2  -3 68.2898 7.28282   2
  -5   2  -3 67.7945 6.28827   1
  -5   2  -3 73.6070 6.62826   1
  -5   2  -4 2.67569 4.16814   1
  -5   2  -4 7.36311 5.74454   2
  -5   2  -4 9.85763 4.20943   1
  -5   2  -5-0.16420 3.74119   1
  -5   2  -5-1.71505 3.53818   1
  -5   2  -5 2.77798 5.45590   2
  -5   2  -6 15.0016 4.04773   1
  -5   2  -6 9.33166 3.81549   1
  -5   2  -6 2.59955 6.60333   2
  -5   2  -7-1.40343 3.27174   1
  -5   2  -7 3.87620 7.09406   2
  -5   2  -7 0.33708 3.16335   1
  -5   2  -8 3.10276 2.25596   1
  -5   2  -8 8.66589 8.20585   2
  -5   2  -9 32.0826 10.3172   2
  -5   1  12 1.00192 10.7029   1
  -5   1  12 9.09177 9.63869   1
  -5   1  11 11.7957 9.17565   1
  -5   1  11 14.3163 9.26652   1
  -5   1  10-3.52942 8.66601   1
  -5   1  10 25.1854 10.3214   1
  -5   1   9 1.58260 6.50643   1
  -5   1   9-7.04802 8.62578   1
  -5   1   8 3.21512 6.91136   1
  -5   1   8 7.80936 6.44528   1
  -5   1   7 6.83314 6.05530   1
  -5   1   7 11.2075 6.48039   1
  -5   1   6 9.63927 6.56316   1
  -5   1   6 18.4947 6.76811   1
  -5   1   5 7.58641 5.61847   1
  -5   1   5 6.31466 4.88502   1
  -5   1   4-2.95008 5.66408   1
  -5   1   4 7.77367 5.45567   1
  -5   1   3 44.6671 3.14985   2
  -5   1   3 53.9939 7.11440   1
  -5   1   3 43.5121 3.26108   2
  -5   1   3 54.4694 7.57050   1
  -5   1   2 123.704 5.91661   2
  -5   1   2 129.050 9.43249   1
  -5   1   2 139.736 10.3065   1
  -5   1   1 55.5102 6.55851   1
  -5   1   1 52.5351 4.85277   2
  -5   1   1 49.2556 6.88387   1
  -5   1   0 2.05738 4.65704   1
  -5   1   0 2.51081 4.05963   1
  -5   1   0 2.98710 3.50448   2
  -5   1  -1 4.03280 4.10444   1
  -5   1  -1 3.56575 3.75419   2
  -5   1  -1 13.8341 5.21282   1
  -5   1  -2 63.0129 6.62094   2
  -5   1  -2 62.2862 6.42893   1
  -5   1  -2 60.9253 6.84464   1
  -5   1  -3 12.7212 4.95900   2
  -5   1  -3 21.4047 5.19595   1
  -5   1  -3 11.1608 4.16992   1
  -5   1  -4-1.78362 4.03106   1
  -5   1  -4 10.4999 5.84540   2
  -5   1  -4 2.19205 4.50201   1
  -5   1  -5 8.26716 4.55235   1
  -5   1  -5 3.20269 5.69896   2
  -5   1  -5-4.55379 4.34755   1
  -5   1  -6 10.2972 4.29144   1
  -5   1  -6 2.14575 6.20563   2
  -5   1  -6 9.47054 4.63151   1
  -5   1  -7 2.91241 7.40474   2
  -5   1  -7 4.01723 4.51257   1
  -5   1  -7 0.23461 4.49001   1
  -5   1  -8 18.5708 9.30940   2
  -5   1  -8 11.8317 4.37482   1
  -5   1  -8 10.7008 4.52644   1
  -5   1  -9 1.08271 3.58601   1
  -5   1  -9 11.6013 10.0918   2
  -5   1  -9 0.34165 4.12315   1
  -5   0  12 19.5800 12.3201   1
  -5   0  12 1.93892 11.0454   1
  -5   0  11 4.17311 10.2686   1
  -5   0  11 22.1095 9.67075   1
  -5   0  10-15.2296 8.64580   1
  -5   0  10 7.32530 8.02075   1
  -5   0   9 6.98592 7.85384   1
  -5   0   9 3.52040 6.54075   1
  -5   0   8 38.4411 9.19133   1
  -5   0   8 20.0470 7.06334   1
  -5   0   7 2.25301 7.05763   1
  -5   0   7 13.7316 7.07858   1
  -5   0   6 69.6965 8.60582   1
  -5   0   6 58.2542 8.85397   1
  -5   0   5 0.76124 4.92764   1
  -5   0   5-2.60316 5.71385   1
  -5   0   4 3.14449 5.23217   1
  -5   0   4 2.69195 0.99737   2
  -5   0   4 3.31495 0.98580   2
  -5   0   4 4.14549 4.47308   1
  -5   0   3 21.0293 6.06067   1
  -5   0   3 19.4554 2.89697   2
  -5   0   3 21.3186 2.89708   2
  -5   0   3 22.7939 5.98358   1
  -5   0   2 43.9310 4.34105   2
  -5   0   2 47.9253 6.74314   1
  -5   0   2 44.5313 4.26681   2
  -5   0   2 33.2108 6.78208   1
  -5   0   1 18.2928 3.93646   2
  -5   0   1 20.7187 5.11928   1
  -5   0   1 18.3891 3.74541   2
  -5   0   1 18.0812 5.62937   1
  -5   0   0 4.42914 4.43182   1
  -5   0   0-1.97645 3.55459   2
  -5   0   0 3.81643 4.74660   1
  -5   0  -1 32.7072 5.29160   2
  -5   0  -1 37.9143 5.86638   1
  -5   0  -1 45.7700 6.62236   1
  -5   0  -2 39.9553 6.22393   2
  -5   0  -2 38.4569 5.79310   1
  -5   0  -2 36.7274 6.14955   1
  -5   0  -3-4.31017 4.71656   1
  -5   0  -3 7.18780 4.95483   2
  -5   0  -3 2.82724 5.14994   1
  -5   0  -4 21.6465 5.60106   1
  -5   0  -4 28.3565 6.66443   2
   5   0   5 12.8807 4.94985   1
  -5   0  -5 23.3211 5.60223   1
  -5   0  -5 15.3132 7.17715   2
  -5   0  -6 22.7182 5.56788   1
   5   0   6 11.4338 5.39720   1
  -5   0  -6 18.6706 7.22446   2
  -5   0  -7 31.7697 9.17127   2
  -5   0  -7 25.4838 6.00017   1
   5   0   7 23.1476 5.71858   1
  -5   0  -8 1.85390 10.1540   2
  -5   0  -8 8.04959 5.46415   1
   5   0   8-11.0372 5.93424   1
  -5   0  -9 78.4151 12.8052   2
  -5   0  -9 58.0412 6.83791   1
  -5  -1  12-0.63455 10.5116   1
  -5  -1  12-2.82276 9.04765   1
  -5  -1  11 8.22778 8.21488   1
  -5  -1  11 5.56390 8.93447   1
  -5  -1  10 7.06022 8.22262   1
  -5  -1  10 0.60941 8.27790   1
  -5  -1   9-0.93544 8.32281   1
  -5  -1   9 2.16330 7.79288   1
  -5  -1   8-2.46666 5.97505   1
  -5  -1   8-2.52506 7.33373   1
  -5  -1   7-0.32674 6.30642   1
  -5  -1   7-10.0886 7.32917   1
  -5  -1   6 2.96016 5.24408   1
  -5  -1   6 9.50242 5.42339   1
  -5  -1   5 11.0132 5.47210   1
  -5  -1   5 6.37223 5.89584   1
  -5  -1   4 131.197 4.82764   2
  -5  -1   4 133.441 10.2026   1
  -5  -1   4 128.403 4.74358   2
  -5  -1   4 131.659 10.4497   1
  -5  -1   3 63.5618 4.61540   2
  -5  -1   3 59.7935 4.44920   2
  -5  -1   3 59.0846 7.85062   1
  -5  -1   3 57.5869 7.40087   1
  -5  -1   2-2.66253 3.05103   2
  -5  -1   2 3.58540 4.88770   1
  -5  -1   2 0.81376 3.16017   2
  -5  -1   2-1.86234 4.68003   1
  -5  -1   1 24.9497 4.48450   2
  -5  -1   1 22.1936 5.48702   1
  -5  -1   1 20.5604 6.04908   1
  -5  -1   0 191.216 9.65535   2
  -5  -1   0 185.281 10.8571   1
   5   1   1 21.7867 5.49542   1
  -5  -1  -1 28.4464 5.95131   1
  -5  -1  -1 35.6923 5.72751   2
  -5  -1  -2 6.74836 5.34395   2
   5   1   2 8.98783 4.94048   1
  -5  -1  -2-0.14723 4.83098   1
  -5  -1  -3-4.16233 4.87614   1
   5   1   3 0.33817 4.68192   1
  -5  -1  -3 11.4494 5.74366   2
  -5  -1  -4 3.47341 5.53024   1
   5   1   4 2.44635 4.89536   1
  -5  -1  -5 56.2167 7.57341   1
   5   1   5 54.9063 7.34692   1
  -5  -1  -6 6.97461 5.83096   1
   5   1   6 21.2311 6.77253   1
   5   1   7 23.5578 6.54849   1
  -5  -1  -7 2.77320 6.18850   1
   5   1   8 16.4949 7.29763   1
  -5  -1  -8 16.4365 7.35954   1
  -5  -1  -8 15.3472 11.0921   2
  -5  -2  13 25.0951 9.38699   1
  -5  -2  13 10.8899 10.4357   1
  -5  -2  12-5.09171 9.76702   1
  -5  -2  12 0.80833 9.86775   1
  -5  -2  11 8.16207 9.68093   1
  -5  -2  11 5.23712 7.46575   1
  -5  -2  10 12.2681 9.15359   1
  -5  -2  10 7.58577 7.30197   1
  -5  -2   9 9.49124 7.17959   1
  -5  -2   9 6.06245 6.98636   1
  -5  -2   8-6.81402 7.31363   1
  -5  -2   8 6.93736 6.26044   1
  -5  -2   7 11.0457 7.50195   1
  -5  -2   7 6.50913 6.05834   1
  -5  -2   6 0.77284 5.82182   1
  -5  -2   6 2.20175 5.72536   1
  -5  -2   5 2.37054 1.70330   2
  -5  -2   5 0.55768 4.86993   1
  -5  -2   5 0.87024 1.75937   2
  -5  -2   5 0.79908 6.31709   1
  -5  -2   4 15.8953 3.06747   2
  -5  -2   4 20.3211 6.29644   1
  -5  -2   4 24.4457 7.13865   1
  -5  -2   3 40.8635 4.64578   2
  -5  -2   3 34.5914 6.35433   1
  -5  -2   3 31.3707 7.40376   1
  -5  -2   2 31.2415 4.69293   2
  -5  -2   2 24.6752 5.87779   1
   5   2  -2 31.7566 6.53342   1
  -5  -2   1 16.6983 5.75120   1
  -5  -2   1 9.67516 4.05449   2
   5   2  -1 18.3744 5.75679   1
  -5  -2   0 9.07517 4.40723   2
  -5  -2   0 5.53613 5.24718   1
   5   2   0-0.71121 5.01646   1
  -5  -2  -1-0.28859 4.89911   2
   5   2   1 0.48848 5.04535   1
  -5  -2  -1-11.6188 6.02265   1
  -5  -2  -2 27.1323 6.61379   2
  -5  -2  -2 32.7953 6.97494   1
   5   2   2 39.2852 6.88363   1
   5   2   3 7.41497 5.42734   1
  -5  -2  -3 8.42553 5.88793   2
  -5  -2  -3 18.2899 6.18000   1
  -5  -2  -4 37.4799 7.92163   2
  -5  -2  -4 38.1848 7.18771   1
   5   2   4 33.3782 7.03659   1
  -5  -2  -5 80.9036 11.1711   2
  -5  -2  -5 54.4652 8.13274   1
   5   2   5 73.3489 9.13450   1
   5   2   6 2.99111 6.85400   1
  -5  -2  -6-9.66161 7.22589   1
  -5  -2  -7 77.6903 13.5299   2
  -5  -2  -7 56.3851 9.70332   1
   5   2   7 59.0049 8.96247   1
  -5  -3  13-13.5200 9.68514   1
  -5  -3  13-16.9919 8.81664   1
  -5  -3  12-3.83626 10.5177   1
  -5  -3  12-1.46427 10.0804   1
  -5  -3  11 35.9230 10.9544   1
  -5  -3  11 33.2274 9.79824   1
  -5  -3  10 11.9265 9.13361   1
  -5  -3  10 12.4459 8.56658   1
  -5  -3   9 9.10447 8.27279   1
  -5  -3   9 6.51503 7.44266   1
  -5  -3   8 14.6522 6.29010   1
  -5  -3   8 5.14424 7.32745   1
  -5  -3   7-2.00327 6.18724   1
  -5  -3   7-4.59128 6.66899   1
  -5  -3   6 2.59717 6.55757   1
  -5  -3   6 2.21650 2.08252   2
  -5  -3   6 3.68537 7.43671   1
  -5  -3   5-7.70344 6.51935   1
  -5  -3   5-4.50954 3.10783   2
  -5  -3   5-10.7436 6.90315   1
  -5  -3   4 18.0787 4.01227   2
  -5  -3   4 16.1070 6.23481   1
   5   3  -3 8.50791 5.54609   1
  -5  -3   3-0.86494 5.83585   1
  -5  -3   3 10.8439 4.09318   2
   5   3  -2 0.54609 5.29503   1
  -5  -3   2 4.07898 4.07575   2
  -5  -3   2-1.77004 6.37169   1
  -5  -3   1 3.02676 4.53181   2
   5   3  -1-0.12012 5.80632   1
  -5  -3   1 2.33987 5.52395   1
   5   3   0 10.5196 5.81750   1
  -5  -3   0 7.05637 5.08038   2
  -5  -3   0-1.38436 5.86681   1
  -5  -3  -1 12.9524 6.07624   2
  -5  -3  -1 32.8716 7.46841   1
   5   3   1 25.1651 6.84854   1
  -5  -3  -2 21.8963 7.31137   1
   5   3   2 32.9497 7.18940   1
  -5  -3  -3 18.2838 7.05793   2
  -5  -3  -3 14.3931 6.50283   1
   5   3   3 12.8365 6.32391   1
  -5  -3  -4 34.8794 8.47459   1
  -5  -3  -4 16.4925 8.26623   2
   5   3   4 20.4743 7.90639   1
  -5  -3  -5 25.6062 8.23147   1
  -5  -3  -5 29.5270 9.69814   2
   5   3   5 34.6339 8.25215   1
  -5  -3  -6-12.1566 9.64318   2
   5   3   6 3.67872 7.83953   1
  -5  -3  -6 0.19740 8.37437   1
  -5  -4  12 7.80293 10.6110   1
  -5  -4  12 16.0465 11.2590   1
  -5  -4  11 35.7027 10.1254   1
  -5  -4  11 15.4430 9.59777   1
  -5  -4  10 53.0798 11.7775   1
  -5  -4  10 36.7165 10.1149   1
  -5  -4   9-2.23102 8.08741   1
  -5  -4   9-9.47603 7.01933   1
  -5  -4   8 3.86512 7.26579   1
  -5  -4   8 2.54226 1.42673   2
  -5  -4   8 0.16035 8.54598   1
  -5  -4   7 3.39120 7.43694   1
  -5  -4   7 2.50068 2.56579   2
  -5  -4   7 9.39311 6.68357   1
  -5  -4   6 3.37265 5.93834   1
  -5  -4   6 6.47589 3.42713   2
  -5  -4   6 14.7692 8.00632   1
  -5  -4   5-6.17195 5.78431   1
   5   4  -5-1.57345 6.88334   1
  -5  -4   5 0.61640 3.70563   2
  -5  -4   4-0.75211 4.03961   2
   5   4  -4 5.50841 6.60860   1
  -5  -4   4 12.4940 6.87187   1
  -5  -4   3 0.93227 4.31902   2
   5   4  -3 2.32270 6.51039   1
  -5  -4   3-2.39477 6.08232   1
  -5  -4   2 24.5742 5.96562   2
   5   4  -2 27.6471 7.48359   1
  -5  -4   2 24.5974 7.78651   1
  -5  -4   1 17.6514 5.91538   2
  -5  -4   1 23.2318 7.51549   1
   5   4  -1 16.3509 6.77727   1
  -5  -4   0 0.05488 5.66838   2
  -5  -4   0 1.20462 6.12847   1
   5   4   0 0.92510 6.53842   1
  -5  -4  -1 30.2386 7.62245   2
  -5  -4  -1 17.9103 7.54255   1
   5   4   1 36.1037 8.28773   1
  -5  -4  -2 3.64822 7.67337   2
  -5  -4  -2 13.0154 8.06073   1
   5   4   2 11.0085 7.52952   1
  -5  -4  -3 21.1525 8.98876   1
  -5  -4  -3 16.1490 8.10023   2
   5   4   3 8.84883 7.81710   1
  -5  -4  -4 94.4822 11.4371   1
  -5  -4  -4 66.7892 10.2950   2
   5   4   4 72.2113 10.3027   1
   5   4   5-4.04297 8.76028   1
  -5  -4  -5-11.6839 9.72425   2
  -5  -4  -5-4.58373 8.87323   1
  -5  -5  12-17.4320 12.4415   1
  -5  -5  12 18.5361 9.86091   1
  -5  -5  11-9.92873 9.18992   1
  -5  -5  11-21.4802 11.5526   1
  -5  -5  10 40.2047 10.3823   1
  -5  -5  10 18.1284 9.55199   1
  -5  -5   9-12.0018 8.77790   1
  -5  -5   9 1.75437 2.61998   2
  -5  -5   9 9.61786 10.0655   1
  -5  -5   8 2.04615 3.64667   2
  -5  -5   8-8.76043 8.14373   1
  -5  -5   7-2.81978 7.72730   1
  -5  -5   7 11.6959 4.42247   2
  -5  -5   6 10.0450 4.37642   2
   5   5  -6-3.95031 7.49452   1
  -5  -5   6 10.2561 7.86196   1
   5   5  -5-5.27894 7.57142   1
  -5  -5   5-10.2501 4.98020   2
  -5  -5   5 0.36847 7.25802   1
  -5  -5   4 10.9556 5.07084   2
   5   5  -4 8.41152 7.40259   1
  -5  -5   4-0.07248 7.66434   1
   5   5  -3 14.1265 7.22946   1
  -5  -5   3 21.6868 5.84296   2
  -5  -5   3 9.72898 7.62736   1
  -5  -5   2 5.14485 5.76196   2
  -5  -5   2 7.69803 7.73717   1
   5   5  -2 23.1274 7.69059   1
  -5  -5   1 38.9659 7.62622   2
  -5  -5   1 41.8979 8.87973   1
   5   5  -1 35.0804 8.55236   1
  -5  -5   0 5.51038 7.38697   2
  -5  -5   0 8.77505 8.30023   1
   5   5   0-5.98908 7.80055   1
  -5  -5  -1 109.792 11.3578   2
  -5  -5  -1 92.4777 11.7886   1
  -5  -5  -2 10.0895 8.34611   1
   5   5   2-3.07546 8.29208   1
  -5  -5  -2 1.59042 8.02071   2
  -5  -5  -3 13.8244 10.2568   1
   5   5   3-2.14357 9.89969   1
  -5  -5  -3-2.49894 10.1239   2
   5   5   4 13.8554 9.31211   1
  -5  -5  -4 18.8147 10.3848   2
  -5  -5  -4-0.08077 8.64394   1
  -5  -6  11 13.7771 10.8485   1
  -5  -6  11-13.2315 11.4951   1
  -5  -6  10-15.0376 9.74835   1
  -5  -6  10 4.19916 3.95259   2
  -5  -6  10 7.98807 12.2041   1
  -5  -6   9 6.10903 10.2871   1
  -5  -6   9-6.18455 10.2171   1
  -5  -6   8 5.33574 4.85330   2
  -5  -6   8 10.3120 9.93301   1
   5   6  -7-3.81945 9.19357   1
  -5  -6   7-0.46440 5.14295   2
  -5  -6   7-4.31394 8.08690   1
   5   6  -6-1.36146 8.12378   1
  -5  -6   6 13.4606 6.08536   2
  -5  -6   6 2.88005 9.03319   1
  -5  -6   5 0.14191 5.98926   2
   5   6  -5 0.79313 8.09470   1
  -5  -6   5 7.72556 8.54056   1
   5   6  -4 5.92301 9.18123   1
  -5  -6   4 1.45231 6.55558   2
  -5  -6   4 14.3999 8.86497   1
  -5  -6   3 6.43754 6.85833   2
  -5  -6   3 18.9264 9.76532   1
   5   6  -3-4.75129 7.65388   1
  -5  -6   2 52.7382 9.11010   2
  -5  -6   2 63.0634 10.6481   1
   5   6  -2 53.1056 10.9329   1
  -5  -6   1 7.48336 7.56817   2
  -5  -6   1 0.24232 9.43005   1
   5   6  -1-13.1032 9.48478   1
  -5  -6   0 55.8399 11.0743   1
  -5  -6   0 50.8097 10.1063   2
   5   6   1-16.4544 9.48650   1
  -5  -6  -1-5.93808 9.54678   2
   5   6   2 5.72600 9.58955   1
  -5  -6  -2 10.3874 10.5291   1
  -5  -6  -2-2.41313 9.23536   2
  -5  -7   9 20.3253 6.99456   2
  -5  -7   9 42.1233 12.1508   1
  -5  -7   8 39.8323 7.92279   2
   5   7  -8 42.2809 12.2647   1
   5   7  -7 5.07353 10.9809   1
  -5  -7   7-2.74807 6.77571   2
  -5  -7   7 8.18516 10.4641   1
  -5  -7   6 26.1345 7.17503   2
   5   7  -6 23.6770 11.3228   1
  -5  -7   6 20.5625 10.3259   1
   5   7  -5 21.1579 9.74374   1
  -5  -7   5 21.2861 7.70290   2
  -5  -7   5 11.9342 9.17693   1
  -5  -7   4 10.0951 7.72452   2
  -5  -7   4-5.51348 10.7466   1
   5   7  -4-3.03425 8.84450   1
  -5  -7   3 11.2154 8.18883   2
  -5  -7   3 16.3182 10.2630   1
   5   7  -3 21.2261 11.1885   1
  -5  -7   2 27.0343 10.6672   1
  -5  -7   2 16.3758 9.76999   2
  -5  -7   1-2.77395 11.0825   1
   5   7  -1 8.22457 10.7629   1
  -6   6   2 24.6042 4.52269   2
  -6   6   2 15.5885 6.66413   1
  -6   6   2 22.5786 7.07456   1
  -6   6   1-7.93240 6.40626   2
  -6   6   1 6.01910 8.48024   1
  -6   6   1-2.91839 8.12818   1
  -6   6   0-3.82385 6.50797   2
  -6   6   0 0.72804 7.99224   1
  -6   6   0 3.54163 7.97049   1
  -6   6  -1-4.49022 6.91371   1
  -6   6  -1-0.15642 6.93753   2
  -6   6  -1-5.93184 7.35749   1
  -6   6  -2-3.18724 7.93497   2
  -6   6  -2-3.17349 6.85933   1
  -6   6  -2 11.7986 6.72668   1
  -6   6  -3 10.6691 6.55897   2
  -6   6  -3-7.91921 5.54902   1
  -6   6  -3 7.42079 5.37843   1
  -6   5   4-10.9641 9.46187   1
  -6   5   4-0.79519 9.83856   1
  -6   5   3-0.08906 3.55030   2
  -6   5   3 7.07476 8.68107   1
  -6   5   3-5.25374 9.18886   1
  -6   5   2 1.78946 5.11538   2
  -6   5   2 4.65446 8.53817   1
  -6   5   2 16.9147 8.20520   1
  -6   5   1 9.58568 5.41956   2
  -6   5   1 14.7828 7.52265   1
  -6   5   1 11.6232 7.93589   1
  -6   5   0-2.65761 7.55909   1
  -6   5   0-2.10811 6.46868   2
  -6   5   0 11.5620 7.67532   1
  -6   5  -1-4.92768 6.10429   2
  -6   5  -1-3.37347 6.86485   1
  -6   5  -1 7.34061 6.81722   1
  -6   5  -2 11.1017 6.93839   2
  -6   5  -2-3.02932 6.69550   1
  -6   5  -2-3.90397 5.98905   1
  -6   5  -3-3.30160 5.85390   1
  -6   5  -3 3.79734 8.14458   2
  -6   5  -3-5.40827 5.77638   1
  -6   5  -4 11.1220 5.62902   1
  -6   5  -4 23.7941 9.51699   2
  -6   5  -4 20.7820 6.01694   1
  -6   5  -5-4.66167 7.57107   2
  -6   4   6 12.6747 9.93041   1
  -6   4   6 19.3521 11.3718   1
  -6   4   5 13.3801 10.2495   1
  -6   4   5-1.53916 10.3550   1
  -6   4   4 4.42469 8.72524   1
  -6   4   4-5.34949 9.44043   1
  -6   4   3-1.44154 2.83118   2
  -6   4   3-0.93275 8.36016   1
  -6   4   3-6.74303 8.17636   1
  -6   4   2 29.4105 8.22066   1
  -6   4   2 17.9717 4.54325   2
  -6   4   2 11.9161 7.37482   1
  -6   4   1 3.44363 6.80091   1
  -6   4   1 0.62934 7.09236   1
  -6   4   1-8.32824 4.90014   2
  -6   4   0 8.42013 6.93674   1
  -6   4   0 9.73563 5.25274   2
  -6   4   0 8.20518 6.23975   1
  -6   4  -1 9.92107 6.34474   1
  -6   4  -1 7.71972 5.79072   2
  -6   4  -1-0.84212 6.46608   1
  -6   4  -2 4.65965 6.39738   1
  -6   4  -2 8.21115 5.96698   1
  -6   4  -2 0.72806 6.31375   2
  -6   4  -3 2.46358 5.65115   1
  -6   4  -3 0.69930 6.04736   1
  -6   4  -3 10.9614 7.08483   2
  -6   4  -4-5.09174 5.59834   1
  -6   4  -4-1.83719 8.50390   2
  -6   4  -4 0.03645 5.42973   1
  -6   4  -5 25.3867 5.22352   1
  -6   4  -5 40.4174 10.3840   2
  -6   4  -5 25.0588 5.30809   1
  -6   4  -6 4.77519 5.51108   2
  -6   3   7-14.6321 9.09172   1
  -6   3   7 9.75614 11.2172   1
  -6   3   6 3.24899 9.82183   1
  -6   3   6-10.5589 9.58474   1
  -6   3   5 5.27095 8.91488   1
  -6   3   5 27.2981 9.14044   1
  -6   3   4 17.5921 8.56019   1
  -6   3   4 18.5202 8.05288   1
  -6   3   3-0.40167 7.37751   1
  -6   3   3 10.1994 8.26241   1
  -6   3   3-0.04275 2.11258   2
  -6   3   2 2.08983 6.80138   1
  -6   3   2-7.68190 7.60713   1
  -6   3   2 4.17822 3.69017   2
  -6   3   1 15.1797 7.76542   1
  -6   3   1 15.3824 4.99719   2
  -6   3   1 28.6080 7.69160   1
  -6   3   0 11.0967 7.10672   1
  -6   3   0 22.0185 5.75694   2
  -6   3   0 3.61433 6.44661   1
  -6   3  -1 1.76379 6.35817   1
  -6   3  -1 2.04828 6.14507   1
  -6   3  -1 4.93858 5.53834   2
  -6   3  -2 7.41049 5.52521   1
  -6   3  -2-6.88388 6.22061   1
  -6   3  -2 12.2680 6.61300   2
  -6   3  -3 0.04411 5.79670   1
  -6   3  -3-6.78832 5.92127   1
  -6   3  -3-15.3346 7.65282   2
  -6   3  -4 20.5987 6.11906   1
  -6   3  -4 19.1134 7.78478   2
  -6   3  -4 17.6215 5.44808   1
  -6   3  -5 8.56192 5.41412   1
  -6   3  -5-5.55206 5.01129   1
  -6   3  -5 11.7070 8.61694   2
  -6   3  -6 22.0664 4.73462   1
  -6   3  -6 19.2766 4.68371   1
  -6   3  -6 27.4793 9.87240   2
  -6   2   8-14.7537 9.48483   1
  -6   2   8 19.0452 11.6175   1
  -6   2   7 20.4289 9.14431   1
  -6   2   7-14.0132 10.7982   1
  -6   2   6-2.13492 8.05217   1
  -6   2   6 16.0934 8.60374   1
  -6   2   5-1.71769 7.53792   1
  -6   2   5 3.52253 7.67341   1
  -6   2   4 8.08450 7.88882   1
  -6   2   4 5.92822 8.04951   1
  -6   2   3 10.9225 2.39620   2
  -6   2   3 3.72043 8.01950   1
  -6   2   3 5.16849 7.52455   1
  -6   2   2-6.52599 7.45444   1
  -6   2   2-3.38351 3.39530   2
  -6   2   2-11.1607 6.49226   1
  -6   2   1-5.36375 4.34079   2
  -6   2   1 1.74397 6.53879   1
  -6   2   0 35.6275 6.15438   2
  -6   2   0 38.1096 7.80581   1
  -6   2   0 18.5110 7.07858   1
  -6   2  -1-2.17868 6.15557   1
  -6   2  -1-0.74871 6.23957   1
  -6   2  -1-4.77764 5.04804   2
  -6   2  -2 60.0037 8.44856   2
  -6   2  -2 56.1605 8.09174   1
  -6   2  -2 37.2637 7.88927   1
  -6   2  -3-4.98879 5.99324   1
  -6   2  -3-7.42776 7.00674   2
  -6   2  -3 4.16094 5.63771   1
  -6   2  -4-6.50267 6.17964   1
  -6   2  -4-4.45714 7.92946   2
  -6   2  -4 13.6740 6.19184   1
  -6   2  -5 26.6458 6.53048   1
  -6   2  -5 13.0012 5.59717   1
  -6   2  -5 24.5188 9.67377   2
  -6   2  -6-2.49283 5.26767   1
  -6   2  -6 2.13669 5.79054   1
  -6   2  -6 16.6798 9.26892   2
  -6   1   9-25.7278 11.7964   1
  -6   1   9-0.71556 11.0055   1
  -6   1   8 17.1803 11.1213   1
  -6   1   8 10.6632 9.47819   1
  -6   1   7-19.7521 9.77697   1
  -6   1   7 1.96637 8.76936   1
  -6   1   6 1.14615 7.35605   1
  -6   1   6 2.51632 9.02139   1
  -6   1   5 12.5530 9.40852   1
  -6   1   5-1.02074 7.11762   1
  -6   1   4 2.54208 8.70715   1
  -6   1   4 17.4171 8.10591   1
  -6   1   3 67.4080 4.20869   2
  -6   1   3 80.4486 10.1034   1
  -6   1   3 67.2299 3.99248   2
  -6   1   3 64.6219 9.95344   1
  -6   1   2 110.353 6.59767   2
  -6   1   2 115.252 6.57405   2
  -6   1   2 115.382 11.3229   1
  -6   1   2 120.190 11.4377   1
  -6   1   1 81.3875 6.76697   2
  -6   1   1 87.8634 9.98433   1
  -6   1   1 87.5439 9.96521   1
  -6   1   1 74.4922 6.81529   2
  -6   1   0 1.87654 6.98373   1
  -6   1   0 11.9820 6.95669   1
  -6   1   0 2.97034 4.90700   2
  -6   1  -1 2.39421 6.83487   1
  -6   1  -1 8.32207 6.51135   1
  -6   1  -1 2.37013 5.29604   2
  -6   1  -2 8.35291 6.92139   1
  -6   1  -2 1.68041 6.08279   2
  -6   1  -2 3.55483 6.39481   1
  -6   1  -3 6.92419 6.67822   1
  -6   1  -3 10.7184 6.89252   2
  -6   1  -3 6.70927 6.49663   1
  -6   1  -4 1.29116 6.91921   1
  -6   1  -4-4.87032 6.47384   1
  -6   1  -4 5.29831 7.66139   2
  -6   1  -5-1.98483 7.12161   1
  -6   1  -5 5.29346 6.24086   1
  -6   1  -5 11.3299 9.63335   2
  -6   1  -6-10.7349 8.09320   2
  -6   0   9 6.07743 9.29298   1
  -6   0   9 4.11217 10.7342   1
  -6   0   8-16.6133 10.5482   1
  -6   0   8-20.2869 11.7806   1
  -6   0   7 8.12625 8.52585   1
  -6   0   7 2.32577 7.88888   1
  -6   0   6 6.49608 9.30196   1
  -6   0   6-5.00190 7.28282   1
  -6   0   5 14.2125 8.53133   1
  -6   0   5 21.4250 8.86166   1
  -6   0   4 52.8453 9.47393   1
  -6   0   4 71.6114 10.5008   1
  -6   0   3 1.30818 7.25072   1
  -6   0   3-3.10346 3.02722   2
  -6   0   3-5.76646 6.88166   1
  -6   0   3 0.28217 2.85600   2
  -6   0   2 20.9314 7.78247   1
  -6   0   2 20.0984 4.47494   2
  -6   0   2 26.7399 7.82585   1
  -6   0   2 27.6285 4.68951   2
  -6   0   1 50.6480 6.64375   2
  -6   0   1 38.0330 5.80403   2
  -6   0   1 54.8314 9.04023   1
  -6   0   1 41.8565 8.46008   1
  -6   0   0 6.96557 6.74746   1
  -6   0   0 14.2595 6.04757   2
  -6   0   0 3.17842 5.21369   2
  -6   0   0 2.35556 6.84086   1
  -6   0  -1-3.19421 5.89232   2
  -6   0  -1 9.23652 6.15111   2
  -6   0  -1 10.8157 7.03516   1
  -6   0  -1 10.1884 7.46853   1
  -6   0  -2 15.3918 6.91161   2
  -6   0  -2 16.2032 7.46631   1
  -6   0  -2 4.48139 7.00532   1
  -6   0  -2 3.24408 6.36242   2
  -6   0  -3 5.78737 6.94128   1
  -6   0  -3 13.0472 7.22110   2
  -6   0  -3 14.1142 7.41838   1
  -6   0  -4 22.8660 7.22362   1
  -6   0  -4 18.4729 8.59603   2
  -6   0  -4 12.1756 7.14563   1
  -6   0  -5-0.87237 6.97285   1
  -6   0  -5-5.16326 8.78460   2
  -6   0  -5 11.9409 8.42095   1
  -6  -1   9-9.76636 9.46144   1
  -6  -1   9 1.86104 9.55117   1
  -6  -1   8 17.0019 9.82839   1
  -6  -1   8 8.56907 9.83614   1
  -6  -1   7 12.6762 10.3199   1
  -6  -1   7 1.95107 8.41923   1
  -6  -1   6-2.99934 7.91607   1
  -6  -1   6 7.64319 8.18774   1
  -6  -1   5 6.01545 8.81029   1
  -6  -1   5 17.6800 7.97852   1
  -6  -1   4 26.1831 8.12706   1
  -6  -1   4 19.5233 8.57952   1
  -6  -1   4 9.85759 2.53576   2
  -6  -1   3-3.55606 6.78283   1
  -6  -1   3 11.2852 3.90718   2
  -6  -1   3 5.57692 3.76161   2
  -6  -1   3 3.22651 7.81774   1
  -6  -1   2 8.32277 7.40576   1
  -6  -1   2 9.21499 4.77486   2
  -6  -1   2 5.27030 4.63516   2
  -6  -1   2 18.2768 8.75695   1
  -6  -1   1-0.78846 6.65238   1
  -6  -1   1-2.98670 4.83911   2
  -6  -1   1 7.99825 5.08235   2
  -6  -1   1 4.97917 7.65441   1
  -6  -1   0 25.4174 6.69128   2
  -6  -1   0 36.7496 6.71875   2
  -6  -1   0 33.0052 8.38631   1
  -6  -1   0 37.1225 9.42571   1
  -6  -1  -1 7.91177 6.15555   2
  -6  -1  -1 14.8735 6.45944   2
  -6  -1  -1 16.2114 7.64677   1
  -6  -1  -1 9.51694 7.74734   1
  -6  -1  -2-1.24165 7.48559   2
  -6  -1  -2-3.05385 7.17747   1
  -6  -1  -2 2.42077 7.08963   2
  -6  -1  -2 9.85004 7.69977   1
  -6  -1  -3 22.7932 8.04746   2
  -6  -1  -3 28.2728 8.07757   1
  -6  -1  -3 9.51989 8.61543   2
  -6  -1  -3 1.85970 8.49000   1
  -6  -1  -4 32.1890 10.5162   2
  -6  -1  -4 15.7672 7.71457   1
  -6  -1  -4 13.7239 9.52561   2
  -6  -1  -4 0.78552 8.81975   1
  -6  -1  -5 3.79860 3.61363   1
  -6  -1  -5 12.1096 5.95732   2
  -6  -1  -5 4.98662 5.14419   2
  -6  -1  -5 12.5769 4.83962   1
  -6  -2   9 15.2999 11.0272   1
  -6  -2   9 7.70358 9.93033   1
  -6  -2   8-6.33116 10.3095   1
  -6  -2   8 13.8352 10.7826   1
  -6  -2   7-3.00434 10.1093   1
  -6  -2   7-17.2663 10.5528   1
  -6  -2   6 24.1626 10.5257   1
  -6  -2   6 9.45749 8.50942   1
  -6  -2   5 6.53800 8.56562   1
  -6  -2   5 7.54136 1.79529   2
  -6  -2   5 3.15775 1.65191   2
  -6  -2   5 0.08272 7.94602   1
  -6  -2   4 36.6245 4.57287   2
  -6  -2   4 37.5466 4.57355   2
  -6  -2   4 43.0083 9.97020   1
  -6  -2   4 39.4228 10.8399   1
  -6  -2   3 12.5791 8.02968   1
  -6  -2   3 8.20962 4.73145   2
  -6  -2   3 1.37340 4.14363   2
  -6  -2   3 8.82478 8.57736   1
  -6  -2   2 7.32826 8.08651   1
  -6  -2   2-1.18243 4.91669   2
  -6  -2   2 2.73863 4.90845   2
  -6  -2   2 7.82030 8.49523   1
  -6  -2   1-0.22980 5.40349   2
  -6  -2   1-3.89463 8.07170   1
  -6  -2   1-5.72715 7.55466   1
  -6  -2   0 11.2170 6.16178   2
  -6  -2   0 1.96769 8.12429   1
  -6  -2   0 11.8506 8.00903   1
  -6  -2  -1 14.4365 7.23183   2
  -6  -2  -1 13.3280 8.15562   1
  -6  -2  -2 24.9057 8.15899   2
   6   2   2 17.3805 7.80214   1
  -6  -2  -2 31.3413 8.93281   1
   6   2   3 12.9889 9.04669   1
  -6  -2  -3 4.73160 8.95564   2
  -6  -2  -3 16.5171 8.34025   1
  -6  -2  -4 21.1903 6.24949   1
  -6  -2  -4 8.43004 6.45756   2
   6   2   4 22.3366 6.29066   1
  -6  -3   9 19.2863 12.5944   1
  -6  -3   9-12.3742 9.11403   1
  -6  -3   8 21.7396 12.0958   1
  -6  -3   8 9.81616 9.45434   1
  -6  -3   7-10.1878 9.20156   1
  -6  -3   7-10.5731 11.5731   1
  -6  -3   6 8.90679 9.41483   1
  -6  -3   6-1.20753 1.19462   2
  -6  -3   6 3.54030 9.24706   1
  -6  -3   5 4.49203 7.74578   1
  -6  -3   5 5.59341 3.42426   2
  -6  -3   5-0.11348 3.58253   2
  -6  -3   5-2.86250 8.99385   1
  -6  -3   4-15.5828 8.25843   1
  -6  -3   4-0.54009 4.65179   2
  -6  -3   4 2.72666 9.53585   1
  -6  -3   3 16.8128 5.58322   2
  -6  -3   3 28.1928 9.72578   1
  -6  -3   2 9.06948 6.43881   2
  -6  -3   2 28.4380 9.03957   1
  -6  -3   1 0.20639 6.23930   2
  -6  -3   1 21.2356 8.81077   1
   6   3  -1 6.87301 7.98355   1
   6   3   0 32.7049 8.98155   1
  -6  -3   0 45.6684 8.43423   2
  -6  -3   0 27.2057 9.23286   1
  -6  -3  -1 0.19082 8.16025   2
   6   3   1 10.5447 8.99951   1
  -6  -3  -1 9.08001 8.70392   1
  -6  -3  -2 66.1167 11.1737   2
  -6  -3  -2 54.0407 11.5085   1
   6   3   2 65.4284 11.6087   1
  -6  -4   8-17.6579 10.6621   1
  -6  -4   8 9.25533 11.3266   1
  -6  -4   7 12.9513 1.75697   2
  -6  -4   7 3.90518 11.8528   1
  -6  -4   6 0.25855 8.90485   1
  -6  -4   6 4.63387 3.99248   2
  -6  -4   6 2.99120 11.8356   1
  -6  -4   5 9.97184 4.96059   2
  -6  -4   5-8.11896 10.2836   1
  -6  -4   4-1.50971 5.85945   2
  -6  -4   4 17.1406 10.8658   1
  -6  -4   4-10.1464 10.6578   1
   6   4  -3-3.52075 9.45603   1
  -6  -4   3 2.75950 6.68983   2
  -6  -4   3-6.85874 9.51300   1
   6   4  -2 4.38497 9.11606   1
  -6  -4   2 15.1299 6.90595   2
  -6  -4   2-12.7901 10.2428   1
   6   4  -1-2.98600 9.11911   1
  -6  -4   1-2.21485 8.28231   2
  -6  -4   1 6.78745 9.21739   1
  -6  -4   0 74.1237 11.0595   2
  -6  -4   0 84.2601 13.0595   1
  -6  -4  -1 5.94996 5.99045   2
  -6  -4  -1 13.6369 7.00070   1
   6   4   1 10.4106 7.05450   1
  -6  -5   7 31.9327 3.96132   2
  -6  -5   6-0.51236 5.29560   2
  -6  -5   6-9.88015 10.7611   1
  -6  -5   6-14.6058 11.4025   1
  -6  -5   5 8.26195 6.63608   2
  -6  -5   5 3.66480 9.62285   1
  -6  -5   4-1.87612 7.16506   2
  -6  -5   4 11.7237 10.1731   1
   6   5  -4 6.12407 9.22971   1
  -6  -5   3-1.77984 7.32632   2
   6   5  -3 0.96850 9.43504   1
  -6  -5   3 7.82921 9.96002   1
  -6  -5   2 11.2607 6.51176   2
   6   5  -2-19.2983 9.62992   1
   0   0   0    0.00    0.00   0
TITL RT_III_c in P-1
REM P-1 (#2 in standard setting)
CELL 0.71073   4.927086   8.602225  12.144886 108.6060  97.3510  92.7141
ZERR    2.00   0.000536   0.000767   0.001101   0.0084   0.0086   0.0080
LATT  1
SFAC C H N O
UNIT 14.00 26.00 2.00 16.00
TREF
HKLF 4
END
;
_shelx_hkl_checksum              61907
_shelx_res_file
;
TITL RT_III_c in P-1
    rt_iii_c.res
    created by SHELXL-2018/3 at 18:48:21 on 16-Jan-2019
REM P-1 (#2 in standard setting)
CELL 0.71073 4.927086 8.602225 12.144886 108.606 97.351 92.7141
ZERR 2 0.000536 0.000767 0.001101 0.0084 0.0086 0.008
LATT 1
SFAC C H N O
UNIT 14 26 2 16
EQIV $1 -X,1-Y,-Z
EQIV $2 1+X,+Y,+Z
EQIV $3 2-X,2-Y,1-Z
EQIV $4 +X,-1+Y,+Z
EQIV $5 1-X,1-Y,-Z
EQIV $6 -1+X,-1+Y,+Z
EQIV $7 1-X,2-Y,-Z
EQIV $8 1-X,2-Y,1-Z
L.S. 20
PLAN  10
SIZE 0.034 0.071 0.4344
TEMP 19.85
HTAB O4 O3_$2
HTAB O1 O7_$3
HTAB N1 O5_$1
HTAB N1 O2_$4
HTAB N1 O4_$5
HTAB N1 O5_$5
HTAB N1 O2_$6
HTAB O3 O4_$7
HTAB O6 O6_$1
HTAB O8 O8_$8
BOND $H
BOND
CONF
fmap 2
acta
SHEL 40 0.8
REM <olex2.extras>
REM <HklSrc "%.\\RT_III_c.hkl">
REM </olex2.extras>
WGHT    0.039500    0.116600
FVAR       0.78747
O3    4    0.269727    0.993637    0.131619    11.00000    0.02023    0.02866 =
         0.03032    0.01037   -0.00168    0.00441
O6    4    0.193484    0.595056    0.065925    11.00000    0.02545    0.02903 =
         0.03034    0.00763   -0.00213   -0.01351
AFIX 147
H6    2    0.075462    0.529824    0.017194    10.50000   -1.20000
AFIX   0
O4    4    0.746141    0.846584    0.030011    11.00000    0.01818    0.03191 =
         0.02932    0.00922    0.00308   -0.00744
AFIX 147
H4    2    0.899623    0.879966    0.067939    11.00000   -1.20000
AFIX   0
O1    4    0.883045    0.977139    0.317188    11.00000    0.02441    0.02620 =
         0.03068    0.00403   -0.01135   -0.00287
AFIX 147
H1    2    0.993184    1.050089    0.363968    11.00000   -1.20000
AFIX   0
O5    4    0.321910    0.636348   -0.092912    11.00000    0.02628    0.04667 =
         0.02208    0.00622   -0.00327   -0.00812
O8    4    0.435034    0.854464    0.440317    11.00000    0.04527    0.02069 =
         0.03339    0.00344   -0.00379    0.00202
AFIX 147
H8    2    0.509307    0.947802    0.474813    10.50000   -1.20000
AFIX   0
O2    4    0.698067    1.187987    0.276437    11.00000    0.03558    0.02125 =
         0.05840    0.01070   -0.01412   -0.00597
C3    1    0.583971    0.779495    0.095824    11.00000    0.01708    0.01988 =
         0.02135    0.00855   -0.00008   -0.00223
AFIX  13
H3A   2    0.699535    0.718922    0.136519    11.00000   -1.20000
AFIX   0
C2    1    0.466145    0.916212    0.187015    11.00000    0.01674    0.01925 =
         0.02164    0.00764   -0.00176   -0.00149
AFIX  13
H2    2    0.374279    0.866631    0.236371    11.00000   -1.20000
AFIX   0
N1    3    0.207536    0.363074    0.230941    11.00000    0.02305    0.02472 =
         0.03196    0.00139   -0.00351   -0.00191
AFIX 137
H1A   2    0.315423    0.364258    0.177718    11.00000   -1.50000
H1B   2    0.033269    0.339368    0.196293    11.00000   -1.50000
H1C   2    0.255043    0.287117    0.263381    11.00000   -1.50000
AFIX   0
O7    4    0.767198    0.777758    0.548874    11.00000    0.05185    0.03218 =
         0.05048    0.00768   -0.02721   -0.00905
C5    1    0.586595    0.750208    0.463548    11.00000    0.02558    0.02288 =
         0.02540    0.00527   -0.00227   -0.00476
C1    1    0.693385    1.043569    0.265310    11.00000    0.02101    0.02139 =
         0.02165    0.00529    0.00306   -0.00019
C4    1    0.350955    0.661456    0.013166    11.00000    0.01713    0.01748 =
         0.02536    0.00438   -0.00043    0.00180
C7    1    0.238939    0.526936    0.323173    11.00000    0.02389    0.02241 =
         0.02951   -0.00064   -0.00064    0.00121
AFIX  23
H7A   2    0.137064    0.522366    0.385504    11.00000   -1.20000
H7B   2    0.163463    0.607165    0.289958    11.00000   -1.20000
AFIX   0
C6    1    0.536769    0.579899    0.373184    11.00000    0.02310    0.02592 =
         0.03349    0.00407   -0.00170    0.00160
AFIX  23
H6A   2    0.638650    0.577125    0.309429    11.00000   -1.20000
H6B   2    0.608008    0.501359    0.409076    11.00000   -1.20000
AFIX   0
H3    2    0.316389    1.020314    0.092077    11.00000    0.12470
HKLF 4
REM  RT_III_c in P-1
REM wR2 = 0.0993, GooF = S = 1.026, Restrained GooF = 1.026 for all data
REM R1 = 0.0432 for 1299 Fo > 4sig(Fo) and 0.0808 for all 1970 data
REM 154 parameters refined using 0 restraints
END
WGHT      0.0395      0.1166
REM Highest difference peak  0.236,  deepest hole -0.243,  1-sigma level  0.050
Q1    1   0.0904  0.9491  0.1134  11.00000  0.05    0.24
Q2    1   0.5405  0.9852  0.2422  11.00000  0.05    0.20
Q3    1   0.8765  1.2380  0.3431  11.00000  0.05    0.20
Q4    1   0.5372  0.8438  0.1468  11.00000  0.05    0.19
Q5    1   0.8777  0.8801  0.2443  11.00000  0.05    0.19
Q6    1   0.8479  0.6457  0.4802  11.00000  0.05    0.18
Q7    1   0.3357  0.5514  0.3880  11.00000  0.05    0.18
Q8    1   0.6405  0.8832 -0.0379  11.00000  0.05    0.18
Q9    1   0.8735  0.7068  0.5767  11.00000  0.05    0.18
Q10   1   0.9483  0.7799  0.5113  11.00000  0.05    0.17
;
_shelx_res_checksum              38119
loop_
_space_group_symop_operation_xyz
'x, y, z'
'-x, -y, -z'
loop_
_atom_site_type_symbol
_atom_site_label
_atom_site_fract_x
_atom_site_fract_y
_atom_site_fract_z
_atom_site_U_iso_or_equiv
_atom_site_adp_type
_atom_site_calc_flag
_atom_site_occupancy
O O3 0.2697(3) 0.9936(2) 0.13162(15) 0.0267(4) Uani d 1
O O6 0.1935(3) 0.59506(19) 0.06593(13) 0.0299(4) Uani d 1
H H6 0.075462 0.529824 0.017194 0.036 Uiso calc 0.5
O O4 0.7461(3) 0.84658(19) 0.03001(13) 0.0270(4) Uani d 1
H H4 0.899623 0.879966 0.067939 0.032 Uiso calc 1
O O1 0.8830(3) 0.97714(18) 0.31719(14) 0.0300(4) Uani d 1
H H1 0.993184 1.050089 0.363968 0.036 Uiso calc 1
O O5 0.3219(3) 0.6363(2) -0.09291(14) 0.0339(4) Uani d 1
O O8 0.4350(3) 0.85446(18) 0.44032(14) 0.0354(4) Uani d 1
H H8 0.509307 0.947802 0.474813 0.042 Uiso calc 0.5
O O2 0.6981(3) 1.18799(19) 0.27644(16) 0.0412(5) Uani d 1
C C3 0.5840(4) 0.7795(2) 0.09582(18) 0.0194(5) Uani d 1
H H3A 0.699535 0.718922 0.136519 0.023 Uiso calc 1
C C2 0.4661(4) 0.9162(2) 0.18701(18) 0.0195(5) Uani d 1
H H2 0.374279 0.866631 0.236371 0.023 Uiso calc 1
N N1 0.2075(4) 0.3631(2) 0.23094(16) 0.0293(5) Uani d 1
H H1A 0.315423 0.364258 0.177718 0.044 Uiso calc 1
H H1B 0.033269 0.339368 0.196293 0.044 Uiso calc 1
H H1C 0.255043 0.287117 0.263381 0.044 Uiso calc 1
O O7 0.7672(4) 0.7778(2) 0.54887(17) 0.0499(5) Uani d 1
C C5 0.5866(5) 0.7502(3) 0.4635(2) 0.0261(5) Uani d 1
C C1 0.6934(4) 1.0436(3) 0.26531(19) 0.0219(5) Uani d 1
C C4 0.3510(4) 0.6615(2) 0.01317(19) 0.0210(5) Uani d 1
C C7 0.2389(5) 0.5269(3) 0.3232(2) 0.0279(5) Uani d 1
H H7A 0.137064 0.522366 0.385504 0.034 Uiso calc 1
H H7B 0.163463 0.607165 0.289958 0.034 Uiso calc 1
C C6 0.5368(4) 0.5799(3) 0.3732(2) 0.0294(5) Uani d 1
H H6A 0.638650 0.577125 0.309429 0.035 Uiso calc 1
H H6B 0.608008 0.501359 0.409076 0.035 Uiso calc 1
H H3 0.316(9) 1.020(5) 0.092(4) 0.12(2) Uiso d 1
loop_
_atom_site_aniso_label
_atom_site_aniso_U_11
_atom_site_aniso_U_22
_atom_site_aniso_U_33
_atom_site_aniso_U_12
_atom_site_aniso_U_13
_atom_site_aniso_U_23
O3 0.0202(8) 0.0287(9) 0.0303(10) 0.0044(7) -0.0017(7) 0.0104(8)
O6 0.0255(9) 0.0290(9) 0.0303(9) -0.0135(7) -0.0021(7) 0.0076(7)
O4 0.0182(8) 0.0319(9) 0.0293(9) -0.0074(7) 0.0031(7) 0.0092(8)
O1 0.0244(9) 0.0262(9) 0.0307(9) -0.0029(7) -0.0113(7) 0.0040(7)
O5 0.0263(9) 0.0467(11) 0.0221(9) -0.0081(7) -0.0033(7) 0.0062(8)
O8 0.0453(11) 0.0207(8) 0.0334(10) 0.0020(8) -0.0038(8) 0.0034(8)
O2 0.0356(10) 0.0213(9) 0.0584(12) -0.0060(7) -0.0141(9) 0.0107(8)
C3 0.0171(10) 0.0199(11) 0.0214(11) -0.0022(8) -0.0001(9) 0.0085(9)
C2 0.0167(10) 0.0193(11) 0.0216(11) -0.0015(8) -0.0018(9) 0.0076(9)
N1 0.0231(10) 0.0247(10) 0.0320(11) -0.0019(8) -0.0035(9) 0.0014(9)
O7 0.0518(12) 0.0322(10) 0.0505(12) -0.0091(9) -0.0272(10) 0.0077(9)
C5 0.0256(12) 0.0229(12) 0.0254(12) -0.0048(10) -0.0023(10) 0.0053(10)
C1 0.0210(11) 0.0214(12) 0.0216(11) -0.0002(9) 0.0031(10) 0.0053(10)
C4 0.0171(11) 0.0175(11) 0.0254(12) 0.0018(8) -0.0004(9) 0.0044(9)
C7 0.0239(12) 0.0224(12) 0.0295(13) 0.0012(9) -0.0006(10) -0.0006(10)
C6 0.0231(12) 0.0259(12) 0.0335(13) 0.0016(10) -0.0017(11) 0.0041(11)
loop_
_atom_type_symbol
_atom_type_description
_atom_type_scat_dispersion_real
_atom_type_scat_dispersion_imag
_atom_type_scat_source
C C 0.0033 0.0016 'International Tables Vol C Tables 4.2.6.8 and 6.1.1.4'
H H 0.0000 0.0000 'International Tables Vol C Tables 4.2.6.8 and 6.1.1.4'
N N 0.0061 0.0033 'International Tables Vol C Tables 4.2.6.8 and 6.1.1.4'
O O 0.0106 0.0060 'International Tables Vol C Tables 4.2.6.8 and 6.1.1.4'
loop_
_exptl_crystal_face_index_h
_exptl_crystal_face_index_k
_exptl_crystal_face_index_l
_exptl_crystal_face_perp_dist
0 5 1 0.0120
0 -5 -1 0.0220
3 -1 1 0.2160
-7 3 -2 0.1830
0 1 -3 0.0290
0 -1 3 0.0420
loop_
_geom_angle_atom_site_label_1
_geom_angle_atom_site_label_2
_geom_angle_atom_site_label_3
_geom_angle
C2 O3 H3 113(4)
C4 O6 H6 109.5
C3 O4 H4 109.5
C1 O1 H1 109.5
C5 O8 H8 109.5
O4 C3 H3A 109.0
O4 C3 C2 110.85(16)
O4 C3 C4 109.49(17)
C2 C3 H3A 109.0
C4 C3 H3A 109.0
C4 C3 C2 109.62(16)
O3 C2 C3 110.94(17)
O3 C2 H2 108.4
O3 C2 C1 109.85(16)
C3 C2 H2 108.4
C1 C2 C3 110.85(17)
C1 C2 H2 108.4
H1A N1 H1B 109.5
H1A N1 H1C 109.5
H1B N1 H1C 109.5
C7 N1 H1A 109.5
C7 N1 H1B 109.5
C7 N1 H1C 109.5
O8 C5 C6 114.45(19)
O7 C5 O8 126.0(2)
O7 C5 C6 119.5(2)
O1 C1 C2 112.10(17)
O2 C1 O1 124.7(2)
O2 C1 C2 123.2(2)
O6 C4 C3 113.48(19)
O5 C4 O6 125.2(2)
O5 C4 C3 121.27(19)
N1 C7 H7A 109.5
N1 C7 H7B 109.5
N1 C7 C6 110.78(18)
H7A C7 H7B 108.1
C6 C7 H7A 109.5
C6 C7 H7B 109.5
C5 C6 H6A 108.8
C5 C6 H6B 108.8
C7 C6 C5 113.85(18)
C7 C6 H6A 108.8
C7 C6 H6B 108.8
H6A C6 H6B 107.7
loop_
_geom_bond_atom_site_label_1
_geom_bond_atom_site_label_2
_geom_bond_distance
O3 C2 1.419(3)
O3 H3 0.66(4)
O6 H6 0.8200
O6 C4 1.287(3)
O4 H4 0.8200
O4 C3 1.423(2)
O1 H1 0.8200
O1 C1 1.314(2)
O5 C4 1.224(2)
O8 H8 0.8200
O8 C5 1.270(3)
O2 C1 1.205(2)
C3 H3A 0.9800
C3 C2 1.531(3)
C3 C4 1.517(3)
C2 H2 0.9800
C2 C1 1.518(3)
N1 H1A 0.8900
N1 H1B 0.8900
N1 H1C 0.8900
N1 C7 1.481(3)
O7 C5 1.228(3)
C5 C6 1.511(3)
C7 H7A 0.9700
C7 H7B 0.9700
C7 C6 1.504(3)
C6 H6A 0.9700
C6 H6B 0.9700
loop_
_geom_hbond_atom_site_label_D
_geom_hbond_atom_site_label_H
_geom_hbond_atom_site_label_A
_geom_hbond_site_symmetry_A
_geom_hbond_distance_DH
_geom_hbond_distance_HA
_geom_hbond_distance_DA
_geom_hbond_angle_DHA
_geom_hbond_publ_flag
O6 H6 O6 2_565 0.82 1.66 2.475(3) 171.4 yes
O4 H4 O3 1_655 0.82 1.97 2.767(2) 165.2 yes
O1 H1 O7 2_776 0.82 1.79 2.610(2) 172.3 yes
O8 H8 O8 2_676 0.82 1.67 2.465(3) 162.0 yes
N1 H1A O4 2_665 0.89 2.56 3.150(2) 124.0 yes
N1 H1A O5 2_665 0.89 2.17 3.031(2) 161.6 yes
N1 H1B O5 2_565 0.89 2.08 2.916(2) 156.3 yes
N1 H1B O2 1_445 0.89 2.53 3.066(3) 119.6 yes
N1 H1C O2 1_545 0.89 2.39 2.992(2) 125.5 yes
O3 H3 O4 2_675 0.66(4) 2.15(4) 2.728(2) 149(5) yes
loop_
_geom_torsion_atom_site_label_1
_geom_torsion_atom_site_label_2
_geom_torsion_atom_site_label_3
_geom_torsion_atom_site_label_4
_geom_torsion
O3 C2 C1 O1 -178.97(18)
O3 C2 C1 O2 0.1(3)
O4 C3 C2 O3 67.6(2)
O4 C3 C2 C1 -54.7(2)
O4 C3 C4 O6 -179.96(17)
O4 C3 C4 O5 -0.5(3)
O8 C5 C6 C7 -38.4(3)
C3 C2 C1 O1 -56.0(2)
C3 C2 C1 O2 123.1(2)
C2 C3 C4 O6 -58.2(2)
C2 C3 C4 O5 121.3(2)
N1 C7 C6 C5 176.97(19)
O7 C5 C6 C7 143.3(2)
C4 C3 C2 O3 -53.3(2)
C4 C3 C2 C1 -175.68(17)

_cod_database_fobs_code 2021498
