#------------------------------------------------------------------------------
#$Date: 2019-02-12 05:35:00 +0200 (Tue, 12 Feb 2019) $
#$Revision: 213605 $
#$URL: file:///home/coder/svn-repositories/cod/cif/2/02/14/2021474.cif $
#------------------------------------------------------------------------------
#
# This file is available in the Crystallography Open Database (COD),
# http://www.crystallography.net/. The original data for this entry
# were provided by IUCr Journals, http://journals.iucr.org/.
#
# The file may be used within the scientific community so long as
# proper attribution is given to the journal article from which the
# data were obtained.
#
data_2021474
loop_
_publ_author_name
'Ja\'cimovi\'c, \<Zeljko K.'
'Novakovi\'c, Sladjana B.'
'Bogdanovi\'c, Goran A.'
'Giester, Gerald'
'Kosovi\'c, Milica'
'Libowitzky, Eugen'
_publ_section_title
;
 First crystal structures of metal complexes with a
 4-nitropyrazole-3-carboxylic acid ligand and the third crystal form of
 the ligand
;
_journal_coeditor_code           YO3057
_journal_issue                   3
_journal_name_full               'Acta Crystallographica Section C'
_journal_page_first
;
;
_journal_paper_doi               10.1107/S2053229619001244
_journal_volume                  75
_journal_year                    2019
_chemical_formula_iupac          'N H4 +, C4 H2 N3 O4 -'
_chemical_formula_moiety         'H4 N +, C4 H2 N3 O4 -'
_chemical_formula_sum            'C4 H6 N4 O4'
_chemical_formula_weight         174.13
_chemical_name_systematic
;
Ammonium 4-nitro-1<i>H</i>-imidazole-3-carboxylate
;
_space_group_crystal_system      orthorhombic
_space_group_IT_number           19
_space_group_name_Hall           'P 2ac 2ab'
_space_group_name_H-M_alt        'P 21 21 21'
_symmetry_space_group_name_Hall  'P 2ac 2ab'
_symmetry_space_group_name_H-M   'P 21 21 21'
_atom_sites_solution_hydrogens   difmap
_audit_creation_method           SHELXL-2014/6
_cell_angle_alpha                90
_cell_angle_beta                 90
_cell_angle_gamma                90
_cell_formula_units_Z            4
_cell_length_a                   6.6562(3)
_cell_length_b                   8.3692(4)
_cell_length_c                   12.5687(7)
_cell_measurement_reflns_used    9913
_cell_measurement_temperature    200(2)
_cell_measurement_theta_max      66.233
_cell_measurement_theta_min      5.848
_cell_volume                     700.17(6)
_computing_cell_refinement
;
APEX2 (Bruker, 2008)
;
_computing_data_collection
;
SAINT (Bruker, 2008)
;
_computing_data_reduction
;
SAINT (Bruker, 2008)
;
_computing_molecular_graphics
;
ORTEP-3 (Farrugia, 2012) and Mercury (Macrae <i>et al.</i>,
2008)
;
_computing_publication_material
;
PLATON (Spek, 2009)
;
_computing_structure_refinement
;
SHELXL2014 (Sheldrick, 2015b)
;
_computing_structure_solution
;
SHELXT2014 (Sheldrick, 2015a)
;
_diffrn_ambient_temperature      200(2)
_diffrn_measured_fraction_theta_full 0.999
_diffrn_measured_fraction_theta_max 0.992
_diffrn_measurement_device_type  'Bruker ApexII CCD'
_diffrn_measurement_method       'phi and omega scans'
_diffrn_radiation_type           MoK\a
_diffrn_radiation_wavelength     0.71073
_diffrn_reflns_av_R_equivalents  0.0277
_diffrn_reflns_av_unetI/netI     0.0152
_diffrn_reflns_limit_h_max       10
_diffrn_reflns_limit_h_min       -10
_diffrn_reflns_limit_k_max       12
_diffrn_reflns_limit_k_min       -12
_diffrn_reflns_limit_l_max       19
_diffrn_reflns_limit_l_min       -19
_diffrn_reflns_number            24957
_diffrn_reflns_theta_full        25.242
_diffrn_reflns_theta_max         33.199
_diffrn_reflns_theta_min         2.924
_diffrn_source                   'Incoatec ImS'
_exptl_absorpt_coefficient_mu    0.147
_exptl_absorpt_correction_type   multi-scan
_exptl_absorpt_process_details
;
(SADABS; Bruker, 2008)
;
_exptl_crystal_colour            colorless
_exptl_crystal_density_diffrn    1.652
_exptl_crystal_description       prism
_exptl_crystal_F_000             360
_exptl_crystal_size_max          0.3
_exptl_crystal_size_mid          0.175
_exptl_crystal_size_min          0.15
_refine_diff_density_max         0.364
_refine_diff_density_min         -0.245
_refine_ls_abs_structure_details
;
Flack <i>x</i> determined using 1031 quotients [(I+)-(I-)]/[(I+)+(I-)]
(Parsons <i>et al.</i>,  2013)
;
_refine_ls_abs_structure_Flack   -0.1(2)
_refine_ls_extinction_method     none
_refine_ls_goodness_of_fit_ref   1.110
_refine_ls_hydrogen_treatment    refall
_refine_ls_matrix_type           full
_refine_ls_number_parameters     133
_refine_ls_number_reflns         2667
_refine_ls_number_restraints     0
_refine_ls_restrained_S_all      1.110
_refine_ls_R_factor_all          0.0352
_refine_ls_R_factor_gt           0.0330
_refine_ls_shift/su_max          0.000
_refine_ls_shift/su_mean         0.000
_refine_ls_structure_factor_coef Fsqd
_refine_ls_weighting_details
'w=1/[\s^2^(Fo^2^)+(0.0476P)^2^+0.0759P] where P=(Fo^2^+2Fc^2^)/3'
_refine_ls_weighting_scheme      calc
_refine_ls_wR_factor_gt          0.0839
_refine_ls_wR_factor_ref         0.0851
_reflns_number_gt                2534
_reflns_number_total             2667
_reflns_threshold_expression     'I > 2\s(I)'
_cod_data_source_file            yo3057sup1.cif
_cod_data_source_block           I
_cod_database_code               2021474
_shelx_space_group_comment
;
The symmetry employed for this shelxl refinement is uniquely defined
by the following loop, which should always be used as a source of
symmetry information in preference to the above space-group names.
They are only intended as comments.
;
_shelx_hkl_file
;
  -1   0   0    0.50    0.40
   1   0   0   -0.10    0.30
  -1   0   0    0.00    0.40
  -1   0   0   -0.10    0.20
  -1   0   0    0.40    0.20
   1   0   0   -0.20    0.20
  -1   0   0    0.40    0.20
   1   0   0   -0.10    0.20
   1   0   0    0.40    0.20
   1   0   0   -0.10    0.30
   1   0   0   -0.10    0.20
   2   0   0 5351.56   97.29
   2   0   0 5636.64   97.29
  -2   0   0 5398.26   93.49
   2   0   0 5558.64   94.39
   2   0   0 5625.54   94.19
   2   0   0 5486.65   96.69
   2   0   0 5461.65   96.79
   3   0   0   -0.30    0.40
   3   0   0    1.60    1.10
   3   0   0    0.70    0.80
   3   0   0    4.70    1.20
   3   0   0    0.10    0.80
   3   0   0    0.10    0.50
   4   0   0 1787.92   32.20
   4   0   0 1809.22   33.70
   4   0   0 1760.22   33.70
   4   0   0 1780.92   33.60
   4   0   0 1780.72   30.50
  -4   0   0 1833.92   32.60
   4   0   0 1780.22   32.70
   5   0   0    6.00    1.70
   5   0   0    3.90    1.80
  -5   0   0    3.00    1.30
   5   0   0    4.60    1.40
  -5   0   0    5.30    1.30
   6   0   0  242.18    8.90
   6   0   0  244.48    8.20
  -6   0   0  244.98    9.00
  -6   0   0  239.78    7.90
  -6   0   0  238.48    8.00
  -7   0   0    2.70    2.20
  -7   0   0    4.10    1.40
   7   0   0    3.40    1.60
   7   0   0   10.50    3.00
  -7   0   0    2.80    1.80
  -7   0   0    3.50    1.60
   8   0   0   57.19    4.80
  -8   0   0   54.99    4.30
   8   0   0   51.39    5.50
  -8   0   0   60.99    5.90
  -8   0   0  104.49   13.70
  -9   0   0    3.30    2.80
   9   0   0    6.30    2.80
   9   0   0    4.00    2.70
  10   0   0    5.40    3.20
   0   1   0    0.00    0.30
   0   1   0   -0.10    0.10
   0  -1   0    0.30    0.10
   0   1   0    0.00    0.40
   0   1   0    0.10    0.20
   0  -1   0    1.10    0.30
   0   1   0    0.10    0.10
   0   1   0    0.10    0.20
   0  -1   0   -0.10    0.20
   0  -1   0   -0.20    0.20
   0   1   0    0.20    0.20
   0  -1   0    0.30    0.20
   1  -1   0   49.70    1.80
  -1  -1   0   45.60    1.40
  -1   1   0   45.50    1.60
   1  -1   0   46.70    1.80
  -1   1   0   44.80    2.40
  -1  -1   0   46.30    1.30
   1   1   0   45.10    1.70
   1   1   0   45.80    1.80
  -1  -1   0   46.40    2.30
  -1   1   0   43.90    2.50
   1  -1   0   50.09    1.70
   1  -1   0   46.20    1.80
   1   1   0   46.50    1.70
   1   1   0   45.70    1.40
  -1  -1   0   48.50    1.00
   1  -1   0   49.80    1.60
   1  -1   0   46.80    2.60
  -1  -1   0   48.30    1.50
   1   1   0   45.30    1.40
  -1   1   0   45.40    1.50
  -1  -1   0   47.00    1.70
  -1   1   0   47.00    1.20
   2  -1   0 3843.72   66.19
  -2  -1   0 3709.43   67.89
  -2  -1   0 3805.02   64.99
   2   1   0 3554.64   65.69
   2  -1   0 3717.33   63.59
   2  -1   0 3868.11   63.29
  -2   1   0 3817.22   69.69
   2  -1   0 3792.22   67.09
   2  -1   0 3856.61   66.59
   2  -1   0 3801.52   66.89
   2   1   0 3830.32   63.29
  -2   1   0 3667.73   67.39
  -2   1   0 3715.93   66.09
   2   1   0 3703.83   66.19
   3   1   0  738.33   15.20
  -3   1   0  763.42   14.50
   3   1   0  744.23   12.70
   3  -1   0  753.02   14.30
   3  -1   0  752.92   14.10
   3  -1   0  742.93   15.40
   3   1   0  745.33   15.00
   3  -1   0  760.62   15.80
  -3  -1   0  726.33   14.00
   3   1   0  745.43   15.40
   3  -1   0  755.02   15.60
  -3  -1   0  760.52   14.90
   4   1   0  525.95    9.30
   4   1   0  532.15   12.20
  -4   1   0  546.75   11.70
  -4  -1   0  524.75   11.90
   4  -1   0  526.55   10.80
  -4  -1   0  527.65   11.00
   4   1   0  521.85   12.30
   4   1   0  545.45   12.80
   4  -1   0  514.75   12.80
   4  -1   0  523.25   12.60
   4  -1   0  532.15   11.50
   4  -1   0  527.45   13.00
  -5  -1   0  348.47    9.50
   5  -1   0  348.87   10.60
   5  -1   0  335.57   10.00
  -5   1   0  336.67    9.50
   5  -1   0  335.27    7.80
   5  -1   0  338.67    9.00
   5   1   0  332.67    6.10
   5   1   0  346.27   10.30
   5   1   0  339.07    9.40
  -5   1   0  334.37    8.90
   5  -1   0  344.27   10.40
  -5  -1   0  347.47    8.50
   5   1   0  344.67    9.90
  -6  -1   0  649.04   15.50
   6  -1   0  660.53   15.30
  -6   1   0  669.03   26.20
  -6  -1   0  655.73   15.90
  -6  -1   0  650.33   17.00
   6   1   0  673.93   15.70
   6  -1   0  658.33   16.80
   6  -1   0  671.73   17.60
   6   1   0  687.43   16.60
  -6  -1   0  639.64   14.40
  -6   1   0  635.24   15.10
  -6   1   0  650.63   16.10
   6   1   0  660.33   16.90
   7  -1   0    8.80    2.30
   7   1   0    7.40    2.50
  -7   1   0   11.10    2.00
  -7  -1   0    9.40    2.00
  -7  -1   0   11.20    2.30
  -7   1   0    7.00    2.00
   7   1   0    7.70    2.40
  -7   1   0    8.80    4.60
  -7   1   0   10.90    2.80
   7  -1   0   14.20    2.80
  -7  -1   0    7.20    2.10
  -7  -1   0    7.30    2.40
  -8   1   0   23.40    7.80
   8   1   0   12.90    3.40
   8   1   0   18.10    3.60
  -8  -1   0   11.20    2.40
  -8   1   0   19.50    3.40
  -8  -1   0   14.80    3.30
   8  -1   0   12.10    2.90
   8  -1   0   14.10    3.90
   9   1   0   15.20    3.70
   9  -1   0   17.00    3.70
  -9  -1   0   17.10    3.70
   9  -1   0    6.70    2.90
   9   1   0   12.10    3.40
  -9   1   0   12.80    2.80
 -10   1   0  162.58   11.50
 -10   1   0  212.28   11.60
   0  -2   0 1889.41   34.70
   0   2   0 1889.01   32.30
   0   2   0 1908.11   34.60
   0  -2   0 1928.21   32.30
   0  -2   0 1911.31   32.50
   0  -2   0 1942.31   32.70
   0  -2   0 1877.71   33.10
   0  -2   0 1941.31   32.40
   0   2   0 1973.40   33.50
   0   2   0 1950.90   39.30
   1  -2   0  804.22   17.20
   1  -2   0  835.72   15.00
   1  -2   0  830.32   15.30
  -1  -2   0  835.02   14.80
   1  -2   0  821.62   14.40
   1   2   0  824.22   15.20
   1   2   0  807.92   15.60
  -1   2   0  828.82   17.60
   1   2   0  834.52   17.00
  -1   2   0  847.72   17.60
   1  -2   0  832.62   15.20
  -1   2   0  795.42   14.40
   1   2   0  830.22   14.40
  -1  -2   0  814.92   15.20
  -1  -2   0  806.12   14.30
   2  -2   0  270.47    6.30
   2  -2   0  272.97    6.20
   2  -2   0  261.57    6.60
   2   2   0  256.87    5.10
   2  -2   0  257.27    6.40
  -2  -2   0  261.67    4.60
   2  -2   0  266.87    6.90
  -2  -2   0  264.47    6.50
   2   2   0  264.57    6.90
  -2   2   0  255.47    8.80
   2   2   0  271.57    6.70
  -2  -2   0  266.07    5.80
  -2   2   0  249.38    8.50
   3  -2   0  140.79    5.20
  -3   2   0  126.19    6.60
   3   2   0  125.99    2.80
   3  -2   0  134.99    4.90
   3  -2   0  137.39    4.30
  -3  -2   0  131.19    4.60
   3   2   0  136.99    5.00
   3   2   0  127.29    4.90
  -3  -2   0  132.99    3.90
   3  -2   0  135.09    4.30
  -3   2   0  138.19    7.50
   3   2   0  137.89    4.90
   3  -2   0  131.39    3.60
   3  -2   0  135.59    4.80
  -3   2   0  135.99    4.10
   4  -2   0  167.48    6.10
   4  -2   0  152.48    4.60
   4  -2   0  153.18    6.10
  -4  -2   0  159.58    4.70
   4  -2   0  165.68    6.60
   4  -2   0  152.18    4.90
   4   2   0  149.59    5.80
  -4   2   0  169.58    9.70
   4   2   0  151.58    5.80
   4   2   0  152.48    5.80
  -4   2   0  157.98    5.00
  -4   2   0  152.78    4.90
  -4  -2   0  154.48    5.60
  -5   2   0   79.99    3.70
  -5  -2   0   80.69    3.60
   5   2   0   79.09    4.40
   5  -2   0   85.39    5.20
   5   2   0   88.79    5.10
   5  -2   0   84.99    4.90
   5   2   0   84.39    5.00
   5  -2   0   91.19    5.50
   5  -2   0   79.59    3.50
  -5   2   0   78.39    8.20
   5  -2   0   85.29    3.80
  -5  -2   0   79.29    4.20
  -5   2   0   79.29    4.00
   6  -2   0  293.77    8.10
  -6  -2   0  294.47    8.30
   6  -2   0  289.77   10.00
   6   2   0  299.67   10.30
  -6  -2   0  313.27   10.90
  -6   2   0  308.97   17.50
  -6  -2   0  307.37    9.70
   6  -2   0  303.77    8.70
  -6   2   0  298.57    8.80
   6  -2   0  300.57   10.90
   6   2   0  317.87   10.80
  -6   2   0  331.57    9.60
   6  -2   0  299.07   10.90
   6   2   0  301.87   10.00
   7  -2   0   47.40    3.80
  -7  -2   0   52.29    4.20
   7   2   0   47.60    4.80
  -7   2   0   55.79    4.30
   7   2   0   52.49    4.60
   7   2   0   50.99    5.00
   7  -2   0   48.20    5.50
  -7  -2   0   45.30    4.30
  -7   2   0   64.99    9.10
  -7   2   0   60.59   10.80
   7  -2   0   60.89    5.70
  -7  -2   0   51.79    5.30
  -7   2   0   55.39    3.80
  -8  -2   0   23.90    4.60
  -8  -2   0   23.70    3.70
   8   2   0   15.20    3.80
  -8   2   0   25.60    4.00
  -8   2   0   52.39    9.70
  -8   2   0   36.10    7.90
   8   2   0   19.80    4.10
   8  -2   0   25.50    4.40
  -9  -2   0   29.60    4.40
   9   2   0   40.00    5.90
   9   2   0   25.50    4.60
   9  -2   0   31.90    4.70
  -9   2   0   53.79    9.50
  -9  -2   0   29.80    5.10
 -10  -2   0  523.45   24.30
 -10   2   0  387.86   20.10
   0   3   0    0.10    0.80
   0  -3   0    0.40    0.70
   0  -3   0   -0.40    0.60
   0   3   0    0.60    0.50
   0  -3   0    0.00    0.30
   0   3   0    0.70    0.80
   0   3   0    0.00    1.10
   0  -3   0    0.20    0.50
   1  -3   0  763.12   14.70
   1  -3   0  771.42   14.90
  -1   3   0  774.72   18.20
   1   3   0  771.52   15.60
  -1   3   0  762.82   14.80
  -1  -3   0  762.02   14.30
  -1   3   0  777.12   17.60
   1  -3   0  756.42   14.10
   1   3   0  759.12   14.80
   1   3   0  770.92   13.90
   1   3   0  747.83   13.30
   1  -3   0  763.92   14.40
   1  -3   0  776.82   15.00
   1   3   0  799.22   17.60
  -1  -3   0  771.22   14.90
  -1  -3   0  773.52   14.50
   2   3   0  336.57    7.10
  -2  -3   0  339.47    8.20
   2  -3   0  343.27    7.90
   2  -3   0  331.47    8.50
  -2   3   0  329.87   11.30
  -2  -3   0  327.97    7.40
   2   3   0  341.47    8.90
   2  -3   0  327.27    8.10
   2   3   0  336.17   10.50
  -2   3   0  345.07   11.10
   2  -3   0  338.47    8.20
   2   3   0  337.77    8.30
   3  -3   0 1114.29   21.40
  -3  -3   0 1096.49   20.50
   3   3   0 1116.39   22.60
  -3   3   0 1114.49   19.40
  -3  -3   0 1111.99   21.80
  -3   3   0 1115.19   26.40
   3   3   0 1105.09   21.80
  -3   3   0 1092.59   26.20
   3  -3   0 1116.99   22.20
   3  -3   0 1135.59   21.20
   3  -3   0 1141.59   22.80
   3   3   0 1110.09   22.10
  -4   3   0 1543.95   27.70
   4   3   0 1570.44   30.50
   4   3   0 1595.94   30.40
   4  -3   0 1561.94   29.90
   4   3   0 1454.95   26.00
   4  -3   0 1574.54   29.10
  -4   3   0 1583.54   35.80
   4  -3   0 1573.54   30.80
  -4   3   0 1539.75   36.30
  -4  -3   0 1490.55   26.10
   4  -3   0 1573.14   29.00
  -4  -3   0 1561.14   28.30
   4   3   0 1610.34   30.90
   4  -3   0 1609.44   31.40
  -4  -3   0 1550.34   26.20
  -4  -3   0 1553.24   29.80
   5  -3   0  311.47   10.80
   5  -3   0  308.37   10.20
  -5  -3   0  307.67    8.10
   5   3   0  317.57   10.20
  -5  -3   0  295.07    9.20
  -5   3   0  312.27    8.00
  -5   3   0  319.17   15.20
   5  -3   0  315.67    8.60
   5   3   0  317.57   10.20
  -5   3   0  330.37   14.50
   5   3   0  320.37   10.10
  -5  -3   0  307.07    6.70
   5  -3   0  318.77    9.70
  -6   3   0  371.86   10.40
   6   3   0  425.96   12.80
   6  -3   0  406.26   10.70
   6   3   0  413.46   12.80
  -6   3   0  410.36   17.50
  -6  -3   0  414.96   13.60
   6   3   0  424.26   12.90
   6  -3   0  416.26   13.50
  -6   3   0  393.96   10.40
   6  -3   0  403.36   13.00
  -6  -3   0  395.66   10.10
   6  -3   0  405.26   12.20
  -6  -3   0  413.06   12.00
  -6   3   0  416.86   19.80
   7  -3   0   46.00    5.10
  -7  -3   0   49.90    5.40
   7   3   0   44.00    5.20
  -7   3   0   58.69    8.80
  -7   3   0   63.69   10.20
   7  -3   0   43.80    3.10
   7   3   0   51.89    5.10
  -7  -3   0   60.29    5.30
   7  -3   0   48.30    5.60
   7   3   0   49.90    4.40
  -8   3   0   30.00    7.40
   8   3   0   16.20    3.50
  -8  -3   0   21.60    3.90
   8   3   0   20.00    3.80
   8   3   0   24.20    4.60
  -8  -3   0   26.70    5.00
   9   3   0  106.69    7.60
  -9  -3   0  124.19    9.50
  -9  -3   0   99.99    7.20
   9   3   0  101.49    8.40
  -9   3   0  148.79   14.90
   0  -4   0  291.67    7.30
   0  -4   0  293.67    7.20
   0   4   0  271.67    7.60
   0  -4   0  287.87    6.00
   0   4   0  283.07    6.80
   0   4   0  291.37    9.80
   0  -4   0  279.97    6.30
   0   4   0  284.97    6.50
   0  -4   0  290.47    7.00
   1  -4   0  928.61   18.00
   1   4   0  881.21   16.50
   1  -4   0  895.91   17.60
  -1  -4   0  912.01   17.30
  -1  -4   0  876.11   17.10
  -1  -4   0  915.01   17.70
   1  -4   0  907.91   16.90
  -1   4   0  907.61   21.90
   1  -4   0  899.01   16.80
   1   4   0  894.11   20.90
   1  -4   0  875.81   17.50
   1  -4   0  882.11   15.10
  -1   4   0  893.41   20.80
   1   4   0  906.31   18.60
   1   4   0  891.11   17.40
  -1   4   0  899.81   17.60
  -2  -4   0  155.88    5.50
  -2   4   0  147.69    8.00
  -2  -4   0  159.48    4.90
  -2   4   0  152.48    8.60
   2   4   0  153.98    5.40
   2  -4   0  145.69    5.30
   2   4   0  158.58    6.10
   2  -4   0  150.98    5.10
   2  -4   0  152.48    4.30
   2   4   0  154.08    4.20
   2   4   0  147.39    7.10
   2  -4   0  156.28    5.30
  -2   4   0  151.18    5.30
  -3  -4   0   69.49    3.70
   3  -4   0   69.59    4.00
  -3  -4   0   62.89    3.10
   3   4   0   65.79    4.00
   3   4   0   64.29    2.70
   3  -4   0   64.79    3.20
  -3   4   0   65.79    6.30
   3   4   0   66.39    4.30
  -3   4   0   66.49    5.90
   3  -4   0   73.29    3.60
   3  -4   0   61.39    3.70
   4   4   0    2.00    1.60
  -4  -4   0    2.90    1.40
   4  -4   0   -0.90    1.10
  -4   4   0   -0.50    2.50
  -4   4   0    1.50    0.50
  -4  -4   0    1.70    0.90
   4   4   0   -0.40    1.30
   4  -4   0    3.30    1.90
   4   4   0    1.40    1.40
   4  -4   0   -0.70    1.40
   4  -4   0    0.60    1.20
  -4   4   0    1.60    2.80
  -5  -4   0    0.70    1.20
   5  -4   0   -1.00    1.00
   5  -4   0    2.30    2.00
   5   4   0    3.40    2.20
  -5   4   0   -0.50    3.70
   5  -4   0    2.90    1.10
   5  -4   0    1.00    1.50
  -5   4   0    3.00    3.20
  -5   4   0    2.60    1.00
   5   4   0    2.10    1.40
   5   4   0   -0.40    1.90
  -5  -4   0    2.60    1.90
  -5  -4   0    1.50    2.20
  -6   4   0   35.00    7.30
  -6   4   0   31.50    6.50
  -6  -4   0   33.30    3.80
   6  -4   0   33.70    4.60
  -6  -4   0   34.20    3.00
   6  -4   0   34.70    4.60
   6   4   0   34.40    4.40
   6   4   0   36.70    4.60
   6  -4   0   31.80    3.50
   6   4   0   33.20    4.20
  -6  -4   0   31.90    4.40
  -7   4   0   17.20    6.00
  -7  -4   0    8.50    3.00
   7  -4   0    7.20    3.40
  -7   4   0   15.20    6.90
   7   4   0    8.30    2.50
   7   4   0    7.60    2.40
   7  -4   0    9.00    3.40
   7  -4   0    4.40    2.00
  -7  -4   0    8.70    3.50
   7   4   0    8.20    2.80
   8  -4   0    4.40    3.80
   8   4   0    3.30    3.30
  -8  -4   0    1.40    2.80
   8   4   0    2.50    2.70
   8   4   0    5.50    2.70
  -8   4   0    8.00    7.20
  -8  -4   0    5.20    2.90
  -8   4   0    5.20    4.60
  -9   4   0   75.19   12.80
   9   4   0   61.79    6.80
  -9   4   0   56.79    6.70
   9   4   0   67.59    7.50
  -9  -4   0   65.19    7.90
  -9  -4   0   59.69    6.00
   0   5   0    2.20    1.10
   0   5   0    1.50    0.90
   0   5   0    1.90    1.30
   0  -5   0    1.90    0.90
   0  -5   0    1.80    0.60
   0  -5   0    3.00    1.10
   0  -5   0    1.00    0.90
   0   5   0    2.20    2.50
   0  -5   0    1.90    0.80
  -1  -5   0   18.60    2.20
   1   5   0   20.40    1.90
  -1   5   0   19.00    1.60
  -1   5   0   20.10    3.20
  -1  -5   0   16.50    2.00
  -1   5   0   21.10    2.10
   1  -5   0   20.00    2.50
   1   5   0   20.60    3.40
  -1  -5   0   18.60    1.90
  -1   5   0   16.90    3.60
  -1  -5   0   15.60    1.90
   1  -5   0   16.60    0.90
   1  -5   0   17.50    1.50
   1  -5   0   19.80    2.30
   1   5   0   22.60    2.20
   1  -5   0   15.80    1.70
   1   5   0   19.00    2.50
   1  -5   0   18.10    2.10
  -2   5   0 1323.27   31.50
   2  -5   0 1329.87   26.10
   2   5   0 1321.57   30.40
   2  -5   0 1305.17   25.10
  -2   5   0 1319.87   30.20
  -2   5   0 1324.77   25.70
   2  -5   0 1322.97   26.00
   2   5   0 1304.27   23.90
   2  -5   0 1304.77   24.20
  -2  -5   0 1323.87   25.70
   2   5   0 1292.07   22.50
  -2  -5   0 1333.77   24.90
   2   5   0 1310.17   25.70
   2   5   0 1334.27   27.20
   3  -5   0   51.59    3.40
   3  -5   0   53.79    3.90
  -3  -5   0   47.30    2.90
   3   5   0   54.29    2.70
   3  -5   0   50.39    3.60
  -3   5   0   50.89    6.30
   3   5   0   50.09    3.90
  -3   5   0   48.90    3.60
  -3   5   0   64.99    7.40
  -3  -5   0   49.20    3.40
   3   5   0   62.89    4.10
   3  -5   0   52.89    4.10
  -4  -5   0  297.27    8.20
   4  -5   0  281.47    8.50
  -4  -5   0  295.57    9.50
  -4  -5   0  273.97    9.80
   4   5   0  280.57    9.20
  -4   5   0  278.27    9.40
   4  -5   0  300.27    9.10
   4   5   0  292.27    9.60
  -4   5   0  301.77   14.00
   4  -5   0  293.87   10.20
  -4   5   0  291.17   14.10
   4  -5   0  297.07    9.60
   4   5   0  285.67   10.10
  -5   5   0  514.15   19.90
   5  -5   0  497.25   14.50
   5   5   0  521.45   15.20
  -5   5   0  507.85   20.30
   5  -5   0  500.05   13.00
  -5  -5   0  505.75   12.10
  -5  -5   0  499.95   13.90
   5   5   0  492.95   13.90
   5  -5   0  488.95   15.20
   5   5   0  510.65   14.70
  -5  -5   0  524.15   15.50
   5  -5   0  514.75   13.50
   6   5   0  231.28    9.30
   6  -5   0  234.98    8.60
   6   5   0  238.88   10.10
  -6   5   0  247.08   16.00
  -6   5   0  224.28   14.50
   6  -5   0  219.48    9.90
   6   5   0  233.88   10.30
   6  -5   0  235.58   10.70
  -6  -5   0  219.38   10.50
  -6  -5   0  223.68    9.00
  -6  -5   0  229.48    7.40
   7   5   0   28.70    4.40
  -7  -5   0   20.50    4.10
  -7  -5   0   17.60    3.70
   7  -5   0   18.80    3.10
  -7   5   0   25.30    7.50
   7   5   0   20.80    4.40
   7  -5   0   15.10    4.30
   7  -5   0   20.40    4.30
  -7   5   0   22.10    4.20
   7   5   0   16.30    4.10
  -7   5   0   14.70    7.30
  -8   5   0   92.09   12.80
   8   5   0   69.39    6.70
   8   5   0   77.19    7.60
  -8  -5   0   74.19    8.10
  -8   5   0   69.09    7.10
  -8  -5   0   70.09    6.60
   8  -5   0   80.69    8.20
   8   5   0   71.19    7.50
   9   5   0   15.40    4.50
  -9  -5   0   13.60    4.20
  -9   5   0    4.90    8.60
   9   5   0    8.50    3.60
  -9   5   0   13.10    4.50
  -9  -5   0    9.40    3.80
   9   5   0    3.70    3.40
   0   6   0 1094.19   21.60
   0   6   0 1099.39   21.20
   0   6   0 1119.79   23.40
   0  -6   0 1113.29   21.90
   0  -6   0 1083.59   20.60
   0  -6   0 1108.89   20.10
   0  -6   0 1098.89   22.20
   0   6   0 1150.08   27.90
   0  -6   0 1106.59   22.50
  -1   6   0  242.68    6.10
   1  -6   0  247.18    7.90
   1   6   0  250.67    7.40
   1  -6   0  241.48    7.50
   1  -6   0  232.28    4.90
   1  -6   0  243.18    6.50
  -1   6   0  250.47    7.70
  -1  -6   0  242.88    7.50
   1   6   0  234.28   10.50
   1  -6   0  251.37    7.10
  -1   6   0  233.48    7.80
   1   6   0  240.88    8.40
  -1  -6   0  237.28    5.20
   1   6   0  232.18    6.60
  -1   6   0  237.48   10.40
  -1  -6   0  234.58    7.10
   1  -6   0  240.08    7.60
  -1  -6   0  239.48    7.40
  -1   6   0  244.18   11.60
   2  -6   0    2.40    1.70
   2   6   0    5.80    1.90
  -2  -6   0    4.60    1.90
   2   6   0    7.00    1.40
  -2   6   0    1.30    1.90
   2  -6   0    4.90    1.50
   2  -6   0    1.30    1.30
  -2   6   0    4.50    2.50
   2   6   0    5.90    3.00
  -2  -6   0    7.90    1.90
  -2  -6   0    3.80    1.40
  -2   6   0    2.90    0.80
  -2   6   0    4.70    3.40
   2  -6   0    4.90    1.60
   2   6   0    7.90    1.90
  -3  -6   0    3.20    1.60
   3   6   0    3.70    1.60
   3   6   0    2.50    2.20
  -3   6   0    7.50    5.30
   3   6   0    2.20    1.10
  -3   6   0    3.70    1.80
   3  -6   0    2.40    1.50
   3  -6   0    1.80    1.50
   3  -6   0    2.90    1.90
  -3  -6   0    3.70    2.10
  -3  -6   0    5.50    2.10
  -3   6   0   -0.30    3.70
  -3   6   0    2.10    0.70
   3  -6   0    2.60    1.50
   4  -6   0  292.47    9.80
  -4  -6   0  273.07    9.40
   4   6   0  268.07    9.60
   4  -6   0  265.47    8.70
   4   6   0  268.87   10.60
   4  -6   0  286.07    9.70
  -4  -6   0  256.27    8.00
  -4   6   0  263.37   13.80
   4  -6   0  255.47    9.80
  -4   6   0  280.87   15.30
  -4   6   0  285.57   10.00
  -4  -6   0  269.07    9.90
  -5  -6   0    3.30    2.40
   5  -6   0    0.40    1.80
   5  -6   0    0.90    1.40
   5   6   0    0.50    2.00
  -5  -6   0    0.20    2.50
   5  -6   0    0.90    1.10
   5  -6   0   -1.00    2.10
  -5   6   0   -0.80    4.10
   5   6   0   -0.40    2.20
   5   6   0   -2.90    2.30
  -5   6   0   -3.40    3.50
  -5   6   0    0.30    2.70
  -5  -6   0    1.80    1.60
  -6   6   0   61.19   10.60
   6   6   0   64.49    6.50
  -6  -6   0   50.69    3.80
   6  -6   0   60.49    6.10
   6   6   0   63.99    5.90
   6  -6   0   56.39    5.70
  -6   6   0   66.29    6.20
   6   6   0   60.69    6.10
  -6  -6   0   78.19    7.30
   6  -6   0   72.39    5.30
  -6  -6   0   67.49    5.20
   7   6   0    9.20    3.00
  -7  -6   0    1.30    3.60
   7  -6   0    9.60    2.70
  -7   6   0   11.20    6.20
   7  -6   0    1.60    2.90
  -7  -6   0   11.20    3.40
   7   6   0    3.20    2.90
  -7   6   0   10.60    3.80
   7   6   0    9.30    3.80
   7  -6   0    5.40    3.60
  -8  -6   0   33.00    5.60
  -8   6   0   40.20    9.80
  -8   6   0   35.80    5.30
   8  -6   0   41.10    6.00
   8   6   0   37.60    6.10
   8   6   0   35.30    5.40
   8   6   0   43.30    6.50
  -8  -6   0   33.70    4.90
   9  -6   0    5.40    4.60
   9   6   0    9.40    4.50
  -9   6   0    4.10    9.30
  -9  -6   0    6.90    2.90
  -9   6   0    6.70    3.70
   9   6   0   11.80    5.00
   9   6   0    6.50    3.80
   0  -7   0    1.40    0.90
   0  -7   0    1.90    1.30
   0  -7   0    1.90    1.50
   0   7   0    2.40    2.00
   0  -7   0    1.50    1.80
   0   7   0    2.20    1.30
   0  -7   0    2.30    1.40
   0   7   0    1.20    2.20
   0   7   0    1.00    1.70
   0  -7   0    1.90    0.70
   1  -7   0   31.50    3.50
   1  -7   0   36.50    3.70
   1  -7   0   26.70    1.40
  -1  -7   0   27.90    1.70
   1   7   0   32.30    3.00
  -1  -7   0   35.40    3.10
  -1   7   0   27.80    3.40
   1  -7   0   36.00    3.10
  -1   7   0   29.30    2.20
  -1  -7   0   31.30    3.30
   1   7   0   34.30    3.00
   1  -7   0   32.40    3.40
   1  -7   0   31.60    2.30
   1   7   0   33.40    5.80
   1   7   0   27.50    3.50
  -1  -7   0   30.60    3.10
  -1   7   0   37.20    3.70
  -1   7   0   34.10    6.20
  -2   7   0  433.16   15.60
   2   7   0  456.75   12.40
   2   7   0  446.66   17.10
  -2   7   0  426.46    9.20
  -2  -7   0  437.26   11.90
  -2   7   0  449.06   12.20
   2  -7   0  436.86   11.20
  -2  -7   0  449.16   12.20
   2  -7   0  444.66   12.70
   2   7   0  449.36   10.70
  -2  -7   0  435.06   11.70
   2   7   0  462.45   14.00
  -2   7   0  436.46   12.10
  -2   7   0  462.75   18.20
   2  -7   0  446.76   12.50
   2  -7   0  441.86   11.00
   3  -7   0  112.19    5.90
  -3   7   0  115.39    5.30
   3  -7   0  119.39    6.50
   3   7   0  103.39    6.40
  -3   7   0  110.19    8.30
   3   7   0  116.89    4.60
   3  -7   0   98.09    6.00
  -3  -7   0  106.79    6.20
   3  -7   0  107.99    5.50
  -3   7   0  116.79    6.50
  -3  -7   0  113.69    6.20
  -3  -7   0  114.89    5.50
  -3   7   0  113.89    9.70
   3   7   0  115.29    6.30
   3   7   0  102.89    8.30
   4   7   0    4.70    2.50
  -4  -7   0    0.40    2.10
   4  -7   0    2.10    2.40
   4  -7   0    3.20    2.10
   4   7   0   -2.20    2.50
  -4   7   0   -0.20    1.80
   4  -7   0    2.50    1.80
  -4   7   0    1.90    3.30
   4  -7   0   -0.10    2.10
  -4   7   0    6.30    6.00
  -4  -7   0    3.60    1.90
  -4  -7   0   -2.30    2.10
   5  -7   0   46.30    4.90
   5   7   0   47.70    4.90
   5   7   0   43.80    5.40
   5   7   0   44.80    5.40
  -5   7   0   42.20    4.80
  -5  -7   0   49.40    5.10
   5  -7   0   39.60    4.60
  -5  -7   0   50.89    5.50
  -5  -7   0   47.90    3.90
   5  -7   0   53.29    5.70
  -5   7   0   43.60    8.50
  -6  -7   0   39.40    5.10
   6   7   0   40.80    5.40
  -6   7   0   30.30    5.00
   6  -7   0   34.60    5.30
   6  -7   0   42.20    4.90
   6   7   0   46.50    5.30
  -6  -7   0   47.90    6.30
   6   7   0   44.50    5.80
   6  -7   0   38.00    4.70
  -6   7   0   32.40    9.40
   7   7   0   51.79    6.70
   7   7   0   48.10    5.80
  -7   7   0   51.19    6.50
  -7   7   0   53.89   10.80
  -7  -7   0   54.69    6.80
   7   7   0   57.49    7.00
   7  -7   0   58.79    7.00
  -7  -7   0   52.59    6.20
   8   7   0  200.58   12.10
   8  -7   0  218.88   13.30
  -8   7   0  194.98   20.20
  -8  -7   0  230.78   12.70
  -8   7   0  195.28   10.90
  -8  -7   0  195.48   10.10
   8   7   0  218.98   11.10
   8   7   0  201.98   12.10
   0   8   0  364.86   15.70
   0   8   0  357.96   11.90
   0   8   0  382.16   10.50
   0  -8   0  357.06   10.30
   0  -8   0  370.96   11.30
   0  -8   0  359.46    8.80
   0  -8   0  384.56   10.90
   1  -8   0  125.89    6.20
   1   8   0  124.29    5.80
  -1   8   0  129.89    9.50
  -1  -8   0  128.59    5.90
  -1  -8   0  128.09    6.30
   1   8   0  118.09    9.50
  -1   8   0  128.29    6.70
  -1   8   0  127.59    6.30
  -1   8   0  118.69    4.50
   1   8   0  124.59    6.90
   1  -8   0  126.89    6.30
   1  -8   0  108.09    4.60
  -1  -8   0  125.59    5.30
   1  -8   0  130.99    5.50
   1   8   0  130.09    5.40
   2  -8   0   20.90    3.30
   2   8   0   19.50    2.40
   2   8   0   24.60    5.60
  -2  -8   0   22.30    2.90
  -2  -8   0   19.30    3.10
   2  -8   0   19.60    2.80
  -2   8   0   15.90    2.60
   2   8   0   18.30    3.40
  -2  -8   0   19.40    2.90
  -2   8   0   19.80    4.10
   2  -8   0   18.20    3.00
  -2   8   0   16.90    3.40
  -2   8   0   20.50    6.20
   2   8   0   21.30    2.90
   2  -8   0   16.00    2.30
  -3   8   0    3.50    2.20
  -3  -8   0    0.50    1.60
  -3  -8   0    0.40    1.20
   3   8   0   -0.10    2.30
   3  -8   0   -2.30    1.80
   3   8   0   -1.40    1.80
   3   8   0    1.90    1.20
   3  -8   0    0.30    1.60
  -3   8   0    0.00    1.50
  -3   8   0   -2.70    2.50
  -3   8   0   -2.20    3.10
   3   8   0    0.00    2.40
   3  -8   0    1.70    1.70
  -3  -8   0    0.60    1.70
  -4  -8   0    5.40    2.30
   4  -8   0    2.10    1.80
   4  -8   0    2.30    2.10
  -4  -8   0    6.90    2.90
   4  -8   0    2.70    2.70
   4   8   0    1.60    3.00
   4   8   0    0.80    2.40
  -4   8   0    3.80    6.00
  -4   8   0    7.30    2.40
  -4  -8   0    5.50    2.20
   5  -8   0   24.60    4.60
   5   8   0   20.60    3.80
   5   8   0   27.40    4.60
   5  -8   0   15.40    3.50
  -5  -8   0   16.50    2.90
  -5   8   0   24.00    8.80
  -5  -8   0   25.20    4.50
   5   8   0   19.40    3.70
   5  -8   0   28.40    4.30
  -5  -8   0   19.80    4.00
  -5   8   0   27.80    4.20
   6   8   0    0.40    3.10
   6   8   0    1.80    2.00
  -6   8   0    4.40    4.00
   6  -8   0   -0.30    2.50
  -6  -8   0   -1.00    2.20
   6   8   0    2.30    2.60
   6  -8   0    0.10    1.80
  -6  -8   0    5.30    3.20
  -6   8   0    0.50    7.60
   6  -8   0   -2.80    2.80
   7   8   0   -0.10    3.50
   7   8   0    3.30    3.70
  -7  -8   0    1.50    3.30
  -7  -8   0   -0.30    2.50
  -7   8   0   -2.10    3.90
   7  -8   0    0.70    2.70
   7   8   0   -1.20    2.80
  -7   8   0  -11.10    7.60
   8   8   0    0.60    4.00
  -8   8   0    1.10    8.80
  -8  -8   0    1.00    2.80
   8  -8   0    2.80    4.20
   8   8   0   10.80    4.80
   0  -9   0   -1.40    1.60
   0  -9   0    1.00    1.60
   0  -9   0   -0.50    1.40
   0   9   0   -0.90    2.10
   0   9   0    2.50    1.50
   0   9   0   -0.40    3.60
   0   9   0    2.50    1.50
  -1   9   0   10.90    3.10
  -1   9   0    7.00    2.70
   1   9   0   15.50    4.80
  -1  -9   0   10.40    2.50
   1   9   0   12.30    2.40
   1   9   0   10.00    2.70
   1   9   0    9.90    2.40
  -1  -9   0   12.50    2.20
  -1   9   0   21.40    5.10
   1  -9   0   15.80    2.50
   1  -9   0   10.90    2.80
  -1  -9   0   20.40    3.40
  -1  -9   0   14.30    3.10
   2   9   0  154.88    6.10
   2  -9   0  137.99    7.10
  -2  -9   0  154.98    6.90
  -2   9   0  144.19    7.50
   2  -9   0  149.88    7.90
  -2  -9   0  144.09    7.20
   2   9   0  155.58    8.60
   2   9   0  145.99    7.30
  -2   9   0  145.89   11.30
   2   9   0  160.88   11.40
  -2  -9   0  161.88    7.50
   2  -9   0  148.69    6.30
  -2   9   0  155.88    7.90
  -3   9   0    4.80    4.30
   3  -9   0    5.70    2.80
   3   9   0    3.30    2.40
  -3   9   0    0.80    1.90
   3   9   0    4.50    2.60
  -3  -9   0   -0.70    2.00
  -3  -9   0    1.80    2.00
   3  -9   0    5.30    2.80
   3   9   0    2.30    3.10
  -3  -9   0    0.90    1.90
  -3   9   0    0.50    2.00
  -4  -9   0   82.39    6.10
   4   9   0   82.79    7.00
   4  -9   0   79.79    6.50
  -4  -9   0   76.79    5.00
   4  -9   0   76.29    6.80
  -4   9   0   88.69    7.40
  -4   9   0   82.89   10.60
   4  -9   0   77.99    5.60
  -4  -9   0   87.29    6.80
   4   9   0   71.19    6.60
  -5   9   0   39.90   10.20
  -5  -9   0   40.40    5.00
   5   9   0   40.90    5.10
   5  -9   0   43.70    5.60
   5   9   0   54.09    7.20
  -5  -9   0   43.80    5.60
   5  -9   0   44.30    5.10
  -5   9   0   38.60    5.60
  -5  -9   0   35.20    4.20
   5   9   0   42.00    5.30
  -6   9   0   30.30    5.80
  -6  -9   0   25.50    5.00
   6   9   0   23.60    5.20
  -6  -9   0   29.30    5.40
   6  -9   0   29.90    5.70
   6   9   0   23.30    5.30
  -6   9   0   21.60    7.80
  -7  -9   0   65.49    7.30
   7   9   0   74.39    8.90
   7   9   0   78.49    8.40
  -7  -9   0   94.39    8.90
  -7   9   0   84.89    8.90
  -7   9   0   81.89   14.50
   7  -9   0   79.89    8.30
   0  10   0   91.49    6.60
   0  10   0   83.09    5.10
   0  10   0   97.29   10.10
   0 -10   0   86.69    6.00
  -1 -10   0   61.89    5.70
  -1 -10   0   48.50    5.10
   1  10   0   60.59    6.60
   1  10   0   59.29    4.50
  -1  10   0   56.59    5.60
   1 -10   0   52.49    5.10
  -1  10   0   66.59    9.60
   1  10   0   59.79    8.90
   1 -10   0   54.69    4.80
  -1  10   0   71.39    5.10
   2  10   0    2.50    2.40
  -2  10   0   -4.90    2.40
   2 -10   0   -1.90    2.00
   2 -10   0    1.40    2.40
   2  10   0    0.30    4.60
  -2 -10   0   -1.00    2.20
  -2  10   0   -0.20    2.10
   2  10   0    0.00    2.00
  -2 -10   0   -0.90    1.80
  -2  10   0    3.10    3.80
   3 -10   0   43.40    5.10
  -3 -10   0   57.69    5.50
  -3  10   0   55.99    9.90
  -3 -10   0   50.79    5.30
  -3  10   0   45.50    5.60
   3  10   0   51.69    8.70
  -3 -10   0   48.80    5.10
   3  10   0   48.40    5.30
   3  10   0   40.20    5.60
  -4  10   0  156.38   15.20
  -4 -10   0  153.98    8.20
   4  10   0  158.08   10.00
  -4 -10   0  129.09    8.50
   4  10   0  143.19    9.00
  -4 -10   0  139.99    7.60
  -4  10   0  165.38    9.50
   4 -10   0  147.59    9.40
   5 -10   0  108.19    9.00
  -5  10   0   97.99   12.50
  -5 -10   0  123.59    9.00
   5  10   0  112.79    9.00
  -5  10   0  100.29    8.70
  -5 -10   0   89.59    7.90
   5  10   0  109.49    8.70
  -6  10   0   37.90   10.80
   6  10   0   25.00    5.40
  -6 -10   0   37.90    5.90
   6 -10   0   28.80    5.30
  -6 -10   0   28.00    4.90
   6  10   0   31.60    6.10
  -6  10   0   29.40    6.00
   0  11   0   -0.80    2.30
   0  11   0   -3.80    2.80
   0 -11   0   -2.00    1.60
   0  11   0    1.70    3.30
  -1  11   0   24.30    4.50
  -1 -11   0   26.50    3.80
   1  11   0   30.00    7.10
  -1  11   0   22.30    3.50
   1 -11   0   24.60    3.90
   1  11   0   20.90    4.80
  -1  11   0   31.50    7.30
   2  11   0   78.09   11.40
  -2 -11   0   61.09    6.10
   2 -11   0   61.09    4.80
  -2 -11   0   63.29    6.20
  -2  11   0   74.09   10.90
  -2  11   0   60.19    5.70
   2  11   0   58.59    7.20
  -3 -11   0   55.79    5.80
   3  11   0   57.19    5.90
  -3 -11   0   59.49    5.90
  -3  11   0   70.59    6.90
   3 -11   0   46.00    5.80
   3  11   0   64.29   11.00
  -3  11   0   67.29   11.30
   3  11   0   54.39    6.90
   4  11   0  147.59   10.90
  -4  11   0  134.89   15.20
   4 -11   0  127.29    9.30
   4  11   0  119.29    8.80
  -4 -11   0  146.99    9.40
  -4 -11   0  146.79    8.30
  -4  11   0  144.69    9.70
  -5  11   0   25.00    7.70
   5  11   0   19.30    5.80
   5  11   0   26.50    4.90
  -5  11   0   27.80    5.80
  -5 -11   0   26.30    5.60
  -5 -11   0   39.40    5.80
   5 -11   0   33.10    6.00
   0 -12   0   20.30    4.20
   0  12   0   40.70    8.50
   0  12   0   24.20    5.10
  -1 -12   0    9.40    3.10
   1  12   0    6.90    4.20
   1 -12   0    8.40    2.60
   1  12   0   18.00    6.10
  -1  12   0   23.60    6.20
  -1  12   0    6.30    2.50
  -1  12   0    9.30    3.70
  -2 -12   0  147.59    9.10
   2  12   0  166.58   14.90
   2  12   0  150.18   11.00
  -2  12   0  175.58   15.20
  -2  12   0  139.39    8.00
   3  12   0   49.80    7.00
  -3 -12   0   45.80    5.70
  -3 -12   0   38.10    5.20
  -3  12   0   66.99   11.00
  -3  12   0   45.40    6.10
   0   0  -1   -0.10    0.10
   0   0  -1   -0.10    0.20
   0   0   1    0.00    0.10
   0   0   1    0.00    0.10
   0   0  -1    0.00    0.10
   0   0  -1   -0.10    0.20
   0   0   1   -0.10    0.10
   0   0   1    0.00    0.20
  -1   0  -1  678.93   11.90
   1   0   1  582.44   11.80
   1   0   1  674.13   11.80
  -1   0  -1  682.63   11.80
   1   0   1  616.44   11.80
   1   0   1  684.23   11.60
  -1   0   1  682.13   11.70
   1   0   1  686.13   11.40
  -1   0   1  663.93   12.00
  -1   0  -1  679.53   11.60
  -1   0  -1  675.23   12.00
   1   0  -1  691.63   12.20
  -1   0   1  674.33   11.90
  -1   0   1  672.93   11.60
  -1   0   1  640.34   12.00
  -1   0   1  683.23   11.40
   2   0   1   -0.20    0.50
   2   0  -1    0.90    0.60
   2   0  -1    0.30    0.60
   2   0   1    0.10    0.70
  -2   0  -1    0.20    0.40
  -2   0  -1    0.00    0.40
   2   0   1    0.40    0.70
  -2   0   1    0.30    0.40
  -2   0   1   -0.30    0.50
   2   0   1    0.40    0.70
   2   0   1    0.70    0.30
   2   0   1    0.20    0.40
  -2   0  -1    0.90    0.40
   2   0  -1    0.10    0.50
  -2   0  -1    0.70    0.30
  -3   0  -1  284.77    5.60
  -3   0   1  288.37    7.40
   3   0  -1  283.87    7.70
   3   0   1  285.17    5.50
   3   0   1  280.07    7.40
   3   0   1  286.87    6.50
   3   0   1  288.77    7.20
  -3   0   1  285.57    6.60
   3   0   1  291.27    7.60
   3   0  -1  285.87    6.20
   3   0   1  284.47    6.20
   3   0  -1  289.27    7.00
   3   0   1  286.77    7.60
  -3   0  -1  300.97    7.40
   4   0   1  295.37    8.60
   4   0  -1  301.67    8.00
   4   0  -1  297.67    8.70
   4   0   1  299.77    8.00
   4   0   1  297.17    7.30
  -4   0   1  302.27    7.50
  -4   0   1  295.77    7.40
   4   0   1  293.27    8.30
   4   0   1  299.07    8.60
  -4   0   1  297.07    8.40
  -4   0  -1  297.57    8.00
   4   0  -1  296.47    6.60
  -5   0   1    7.30    1.30
  -5   0   1    4.20    1.40
   5   0   1    7.40    1.40
   5   0   1    4.20    1.50
   5   0  -1    6.80    1.90
  -5   0  -1    7.60    1.50
   5   0   1    5.20    2.00
   5   0   1    4.70    1.40
  -5   0   1    3.20    1.70
   5   0  -1    5.80    1.40
   5   0   1    3.70    1.80
   5   0  -1    7.00    1.10
  -6   0  -1    1.20    1.60
  -6   0   1    2.70    1.90
  -6   0  -1   -0.60    0.90
   6   0   1    1.00    2.00
   6   0  -1    0.60    1.60
   6   0  -1    1.70    1.70
  -6   0   1    0.50    1.30
   6   0   1    0.80    1.50
   6   0  -1   -0.50    0.70
   6   0   1   -1.40    1.60
  -6   0   1   -0.10    1.20
  -7   0  -1   78.49    4.80
   7   0  -1   79.99    5.20
   7   0   1   80.69    5.50
  -7   0   1   80.29    4.10
   7   0  -1   77.89    5.50
   7   0   1   84.69    5.20
  -7   0   1   90.59    4.80
  -7   0  -1   81.39    4.60
  -7   0  -1   81.49    5.40
  -7   0   1   73.59    5.10
  -7   0  -1   78.29    4.80
  -8   0   1  165.18    8.20
  -8   0  -1  164.48    8.50
   8   0  -1  153.98    8.30
   8   0   1  160.58    8.00
  -8   0  -1  146.19    7.50
  -8   0   1  194.08   17.90
   8   0   1  172.28    9.00
   8   0  -1  152.08    7.70
  -8   0  -1  163.38    7.70
  -9   0   1   70.29    6.60
  -9   0  -1   87.59    7.10
   9   0  -1   77.09    6.20
   9   0   1   71.99    7.10
   9   0  -1   85.59    6.90
   9   0   1   70.59    6.20
   0  -1  -1 2679.93   48.30
   0  -1  -1 2830.52   49.99
   0   1   1 2858.71   47.90
   0   1   1 2731.33   54.19
   0  -1  -1 2868.41   48.20
   0  -1  -1 2696.63   52.09
   0   1   1 2805.72   55.39
   0  -1   1 2808.82   49.40
   0   1   1 2782.82   49.80
   0  -1  -1 2890.11   48.40
   0  -1   1 2800.52   49.50
   0   1  -1 2814.02   48.80
   0   1  -1 2773.32   55.29
   0   1   1 2852.01   48.80
   0  -1  -1 2829.32   48.90
   0  -1  -1 2874.61   49.90
   0   1  -1 2786.12   49.50
   0   1  -1 2779.82   48.00
  -1  -1  -1  217.38    4.40
  -1  -1  -1  222.08    4.10
  -1   1   1  225.98    4.50
  -1  -1  -1  220.78    4.40
   1   1  -1  229.88    5.40
  -1   1   1  219.08    6.40
  -1   1   1  220.88    4.30
   1   1  -1  225.18    4.70
   1   1  -1  232.18    4.90
   1   1  -1  230.38    4.30
  -1  -1  -1  221.68    4.00
   1   1  -1  226.28    4.80
   1   1  -1  222.68    4.10
   1  -1   1  227.38    5.00
   1  -1   1  224.38    5.80
  -1   1   1  224.88    3.90
  -1  -1  -1  218.58    4.30
  -1   1   1  223.88    7.10
   1  -1   1  223.88    4.90
  -1  -1  -1  222.48    4.70
   1   1  -1  230.88    5.20
  -1   1   1  228.08    4.10
   1  -1   1  231.58    5.10
   1  -1   1  227.18    4.70
  -1  -1  -1  220.28    5.50
  -1   1  -1  216.58    4.70
  -1  -1   1  225.18    5.10
   1  -1  -1  221.98    4.80
   1   1   1  225.58    4.40
  -1   1  -1  232.08    3.90
   1   1   1  217.48    4.50
  -1  -1   1  217.98    4.60
  -1  -1   1  220.48    4.10
  -1   1  -1  227.18    5.90
   1  -1  -1  230.78    4.90
   1   1   1  218.58    5.50
   1  -1  -1  221.08    4.30
  -1  -1   1  222.48    4.10
   1   1   1  229.08    5.00
  -1   1  -1  228.48    5.60
   1  -1  -1  225.78    4.20
  -1  -1   1  222.08    4.70
   1   1   1  228.18    4.40
   1  -1  -1  212.48    6.90
   1   1   1  220.98    4.80
   1   1   1  218.28    4.90
  -1   1  -1  228.78    5.00
   1  -1  -1  222.78    4.90
   1  -1  -1  222.18    4.50
   1  -1  -1  227.28    5.00
  -1   1  -1  230.78    4.90
  -2   1   1 3251.97   61.29
  -2  -1  -1 3318.87   60.29
   2  -1   1 3268.27   58.99
  -2  -1  -1 3342.57   58.09
   2  -1   1 3326.77   56.99
   2   1  -1 3241.68   59.59
  -2   1   1 3386.96   59.89
   2  -1   1 3316.87   55.99
   2  -1   1 3331.37   56.39
   2  -1   1 3310.47   58.69
  -2   1   1 3205.48   58.89
   2   1  -1 3348.76   56.39
   2   1  -1 3348.47   59.09
   2  -1   1 3268.57   56.69
   2  -1   1 3409.36   56.39
   2  -1  -1 3368.86   56.29
   2   1   1 3332.37   56.09
   2  -1  -1 3364.46   56.49
   2  -1  -1 3289.37   58.49
   2   1   1 3262.37   58.29
  -2   1  -1 3331.47   60.79
  -2  -1   1 3218.08   57.89
   2   1   1 3265.27   59.99
  -2  -1   1 3339.77   55.59
   2  -1  -1 3426.06   58.09
  -2  -1   1 3277.57   56.99
  -2   1  -1 3374.36   57.79
   2  -1  -1 3282.67   56.19
  -2  -1   1 3322.67   56.39
   2   1   1 3371.86   55.89
   2  -1  -1 3418.16   59.19
   2   1   1 3232.68   60.79
  -3   1   1 2208.18   38.40
   3  -1   1 2304.87   41.10
   3  -1   1 2223.08   39.20
   3  -1   1 2269.07   39.60
  -3   1   1 2330.27   39.20
   3  -1   1 2329.27   41.00
   3  -1   1 2280.67   39.00
   3   1  -1 2352.96   40.50
  -3   1   1 2279.97   47.80
  -3  -1  -1 2292.17   39.60
   3  -1   1 2277.77   40.50
   3   1  -1 2323.57   41.00
  -3   1   1 2345.67   40.00
   3   1  -1 2299.17   40.60
   3  -1  -1 2284.27   40.90
   3   1   1 2350.06   40.60
   3   1   1 2304.77   40.10
  -3  -1   1 2296.17   39.80
  -3   1  -1 2284.27   40.10
  -3  -1   1 2294.27   41.00
  -3   1  -1 2352.36   38.90
   3   1   1 2288.77   40.40
   3   1   1 2262.17   40.50
   3  -1  -1 2347.47   39.40
  -3  -1   1 2261.97   38.70
   3  -1  -1 2311.07   41.20
   3  -1  -1 2265.17   39.40
   3  -1  -1 2279.17   40.80
  -4   1   1   10.40    0.60
   4   1  -1   14.20    2.10
  -4   1   1   11.80    1.60
  -4  -1  -1   18.00    1.80
  -4   1   1    9.20    1.20
  -4  -1  -1   12.10    1.80
   4   1  -1   11.40    1.90
   4  -1   1    9.20    2.10
  -4   1   1   10.10    3.10
   4   1  -1   12.30    1.10
   4  -1   1   13.20    1.80
   4  -1   1   13.40    1.30
   4   1  -1   11.70    1.80
   4  -1   1   12.10    2.10
   4  -1   1    9.20    1.80
  -4   1  -1   10.50    1.70
   4   1   1   12.10    1.70
   4   1   1    9.80    1.70
   4  -1  -1   14.00    2.20
   4   1   1   10.80    1.90
   4   1   1    8.80    1.90
  -4  -1   1   11.90    1.30
   4  -1  -1   14.60    2.30
  -4  -1   1   10.20    2.00
  -4  -1   1   14.00    1.80
   4  -1  -1   11.50    1.50
   4  -1  -1   14.10    1.80
   4  -1  -1    8.90    1.80
   5  -1   1  529.15   13.80
   5   1  -1  504.35   13.50
   5  -1   1  503.15   12.00
   5  -1   1  519.05   13.60
  -5  -1  -1  512.35   12.60
  -5   1   1  512.85   11.40
  -5  -1  -1  531.65   11.80
   5  -1   1  530.25   13.30
   5  -1   1  502.05   10.40
   5   1  -1  495.95   12.80
  -5   1   1  530.85   12.80
   5   1  -1  507.25   12.70
  -5   1   1  505.75   11.50
   5   1  -1  487.65    9.70
  -5   1   1  513.35   20.90
   5  -1  -1  504.65   11.00
  -5  -1   1  520.95   13.60
   5  -1  -1  520.45   13.90
   5   1   1  504.45   13.10
  -5   1  -1  498.45   12.20
  -5  -1   1  501.85   12.00
   5   1   1  505.55   13.10
  -5  -1   1  493.25   10.80
   5   1   1  523.95   13.00
   5   1   1  509.75   12.20
   5  -1  -1  502.55   13.30
   5  -1  -1  509.45   11.90
   6  -1   1   61.59    5.10
  -6  -1  -1   59.19    4.00
  -6  -1  -1   56.29    3.80
  -6  -1  -1   69.89    4.70
   6  -1   1   64.69    5.40
   6  -1   1   60.89    4.30
  -6   1   1   66.69    3.80
  -6   1   1   64.89    8.90
   6   1  -1   56.19    5.30
   6  -1   1   62.49    5.30
  -6   1   1   58.89    3.40
  -6   1   1   61.29    4.10
   6   1  -1   74.09    5.00
   6   1   1   61.19    4.40
   6  -1  -1   57.19    3.00
   6  -1  -1   59.29    4.10
   6   1   1   67.69    4.20
  -6  -1   1   59.69    3.20
  -6  -1   1   59.89    4.00
   6  -1  -1   68.99    4.80
  -6   1  -1   57.09    3.80
   6   1   1   58.19    4.30
  -6  -1   1   63.09    4.60
  -6  -1   1   62.09    3.90
   7  -1   1   32.50    4.30
  -7   1   1   37.10    4.10
   7   1  -1   37.30    4.20
   7   1  -1   31.10    4.40
  -7  -1  -1   44.50    4.90
  -7   1   1   46.00   10.00
  -7  -1  -1   29.20    3.50
   7  -1   1   35.10    3.80
  -7  -1  -1   38.20    4.20
  -7   1   1   34.00    3.20
  -7  -1  -1   38.10    3.60
  -7  -1   1   30.40    3.30
  -7  -1   1   40.30    4.00
   7  -1  -1   32.90    3.50
  -7   1  -1   36.40    3.80
   7   1   1   32.20    4.00
   7   1   1   42.10    4.70
   7  -1  -1   35.70    4.50
  -7   1  -1   39.70    3.90
  -7   1  -1   46.00    9.10
  -7  -1   1   37.90    4.70
  -7   1  -1   35.10    3.90
   8  -1   1  196.18    9.70
  -8   1   1  224.38   18.50
  -8  -1  -1  197.68    8.70
   8   1  -1  190.88    9.40
  -8   1   1  184.78    8.30
   8   1  -1  180.98    8.80
  -8  -1  -1  198.18    9.50
   8  -1   1  184.28    8.20
  -8  -1   1  191.18    9.30
   8  -1  -1  178.18    7.80
  -8   1  -1  183.68    8.00
  -8  -1   1  188.08    8.00
   8   1   1  204.38    9.80
   8  -1  -1  186.08    9.20
  -8   1  -1  243.38   17.50
   8   1   1  201.28    9.30
   9  -1   1    3.90    2.70
   9   1  -1    4.60    2.60
  -9  -1  -1    4.80    2.80
  -9   1  -1    3.00    2.50
   9   1   1    4.90    3.30
 -10   1   1  343.67   16.80
 -10   1   1  231.98   13.40
 -10  -1   1  331.47   17.40
 -10   1  -1  245.58   12.60
   0   2   1  585.14    9.80
   0   2  -1  581.44   12.50
   0   2  -1  586.44   10.80
   0  -2  -1  579.14   11.00
   0   2   1  577.64   12.80
   0   2   1  565.34   10.60
   0  -2   1  574.84   10.70
   0   2   1  580.84   13.60
   0  -2  -1  575.54   10.80
   0   2  -1  579.94   11.10
   0  -2   1  565.34   10.70
   0  -2   1  559.64   10.40
   0  -2  -1  596.04    9.80
   0  -2  -1  590.84   10.30
   0  -2   1  557.04   11.90
   0   2   1  576.44   10.30
   0   2   1  568.94   10.60
   0   2  -1  571.74   10.50
   0  -2  -1  581.94   10.30
   0   2   1  570.24   10.40
   0  -2  -1  591.64   10.70
  -1  -2  -1 2101.59   37.60
   1   2  -1 2193.08   37.50
  -1   2   1 2159.38   37.50
  -1  -2  -1 2171.58   35.70
   1   2  -1 2118.99   36.10
  -1   2   1 2127.19   35.70
   1  -2   1 2169.18   36.80
   1   2  -1 2109.69   36.60
  -1   2   1 2184.88   40.90
   1   2  -1 2173.18   39.10
   1  -2   1 2103.59   40.60
  -1  -2  -1 2202.38   36.90
   1   2  -1 2184.18   36.80
   1  -2   1 2178.08   37.00
  -1  -2  -1 2178.58   36.60
  -1   2   1 2197.88   39.90
  -1  -2  -1 2124.09   38.90
   1  -2   1 2165.08   38.10
   1  -2   1 2194.48   36.70
   1  -2   1 2165.38   36.30
   1   2  -1 2067.49   36.30
   1  -2   1 2189.98   36.90
  -1  -2  -1 2101.29   37.80
  -1  -2   1 2212.78   36.80
   1  -2  -1 2168.88   36.50
   1  -2  -1 2180.98   36.50
   1  -2  -1 2133.49   36.80
  -1   2  -1 2149.48   37.20
   1  -2  -1 2108.59   37.00
  -1   2  -1 2139.19   40.50
   1   2   1 2097.09   37.30
  -1   2  -1 2143.09   39.10
   1   2   1 2200.48   38.70
   1   2   1 2129.99   35.70
   1  -2  -1 2139.49   38.30
   1   2   1 2160.28   36.80
  -1  -2   1 2080.79   38.70
   1  -2  -1 2162.68   36.90
   1   2   1 2190.18   36.50
  -1  -2   1 2153.68   37.00
  -1   2  -1 2181.58   36.90
  -2  -2  -1  685.23   11.90
   2   2  -1  668.83   12.80
  -2   2   1  684.53   12.00
   2   2  -1  692.53   13.80
  -2  -2  -1  685.43   13.10
  -2   2   1  676.53   12.10
   2  -2   1  686.23   13.80
   2   2  -1  675.73   14.10
   2  -2   1  691.43   13.30
  -2   2   1  702.33   17.70
   2  -2   1  684.33   14.00
   2  -2   1  700.13   13.50
  -2   2   1  673.53   11.80
  -2  -2  -1  657.63   12.00
  -2  -2  -1  701.23   13.80
  -2   2   1  698.23   16.90
   2  -2  -1  678.13   13.50
  -2  -2   1  650.93   11.40
   2   2   1  681.93   14.00
   2   2   1  679.53   13.70
   2   2   1  681.33   13.30
  -2   2  -1  696.93   16.20
   2   2   1  656.73   11.80
  -2  -2   1  697.63   13.50
   2  -2  -1  684.33   13.50
  -2   2  -1  651.43   15.40
   2  -2  -1  684.43   14.00
   2  -2  -1  699.83   12.70
   2  -2  -1  699.23   11.80
  -2  -2   1  689.83   14.10
  -2  -2   1  669.63   12.40
  -2   2  -1  704.73   13.50
   2  -2  -1  703.93   13.80
   3   2  -1  620.14   13.60
   3  -2   1  610.54   12.80
  -3   2   1  600.94   18.10
   3   2  -1  603.94   13.40
  -3   2   1  592.44   11.70
  -3  -2  -1  607.14   11.30
   3  -2   1  607.94   13.70
   3   2  -1  602.84   13.30
  -3  -2  -1  601.54   12.30
  -3   2   1  609.74   11.80
  -3   2   1  594.14   16.80
   3  -2   1  605.24   10.60
  -3  -2  -1  604.84   13.20
   3  -2   1  611.84   12.30
   3  -2   1  606.94   13.50
   3  -2   1  608.94   13.00
   3   2   1  604.44   13.30
  -3  -2   1  608.54   11.50
   3  -2  -1  606.64   13.80
   3   2   1  614.14   13.40
  -3   2  -1  594.34   11.00
  -3  -2   1  597.24   13.60
   3   2   1  611.74   13.00
  -3   2  -1  589.44   16.70
   3  -2  -1  612.34   11.40
  -3   2  -1  619.64   12.70
   3  -2  -1  598.94   13.20
  -3  -2   1  612.84   12.80
   3  -2  -1  620.24   12.00
   3  -2  -1  603.74   13.40
  -3   2  -1  610.44   16.30
   3  -2  -1  617.44   12.70
  -3  -2   1  585.24   10.80
   4   2  -1   64.29    3.90
  -4  -2  -1   57.59    2.50
   4  -2   1   60.89    3.80
   4  -2   1   56.69    3.70
  -4   2   1   58.99    2.80
   4  -2   1   59.59    2.90
  -4   2   1   54.69    6.30
   4   2  -1   59.69    3.60
  -4  -2  -1   57.49    3.00
   4   2  -1   69.69    4.00
  -4  -2  -1   62.99    3.70
   4  -2   1   56.89    3.60
  -4   2   1   55.39    2.70
   4  -2  -1   58.69    3.80
  -4   2  -1   58.89    5.70
  -4  -2   1   60.79    4.10
  -4  -2   1   58.99    2.50
   4  -2  -1   59.19    3.70
  -4   2  -1   57.69    5.40
   4   2   1   61.39    3.90
   4   2   1   57.49    3.60
   4  -2  -1   58.49    4.00
   4  -2  -1   58.99    3.10
  -4   2  -1   59.39    3.20
   4   2   1   57.49    3.50
  -4  -2   1   55.29    3.10
   4  -2  -1   60.19    2.70
  -5  -2  -1   70.89    3.20
  -5   2   1   80.59    3.60
  -5   2   1   78.89    3.90
   5   2  -1   75.39    2.10
  -5   2   1   82.19    8.10
   5  -2   1   84.99    4.90
   5  -2   1   74.89    4.70
   5  -2   1   79.99    5.30
   5   2  -1   83.39    4.90
  -5  -2  -1   83.19    4.60
   5   2  -1   74.89    4.90
   5  -2   1   80.89    3.80
   5   2  -1   73.79    4.60
  -5  -2  -1   77.79    3.80
   5  -2   1   70.99    3.30
   5  -2  -1   74.19    5.10
  -5   2  -1   70.69    7.60
  -5   2  -1   72.79    3.80
   5  -2  -1   77.89    3.60
  -5   2  -1   77.09    6.90
  -5  -2   1   77.99    5.10
  -5  -2   1   73.39    3.20
   5  -2  -1   76.49    4.90
   5   2   1   76.09    4.80
  -5  -2   1   78.99    4.10
   5   2   1   74.69    4.40
   5  -2  -1   70.49    4.70
   5  -2  -1   74.79    3.70
   5   2   1   81.79    4.80
   6  -2   1  591.74   16.80
   6   2  -1  599.54   15.80
   6  -2   1  595.44   15.80
   6   2  -1  610.84   15.70
  -6   2   1  608.54   24.60
  -6   2   1  580.64   14.10
  -6  -2  -1  604.24   13.90
  -6   2   1  588.74   13.50
  -6  -2  -1  573.94   13.10
  -6  -2  -1  620.34   15.40
   6  -2   1  593.94   16.60
   6   2  -1  600.64   16.40
  -6   2  -1  581.64   14.40
   6  -2  -1  606.04   13.70
  -6  -2   1  603.04   16.50
  -6  -2   1  602.64   14.80
  -6   2  -1  582.54   14.40
   6  -2  -1  634.64   16.30
   6   2   1  597.74   15.10
   6  -2  -1  586.44   13.40
   6   2   1  615.94   16.00
  -6  -2   1  562.14   12.70
   6   2   1  581.34   15.50
  -6   2  -1  600.94   21.00
   6  -2  -1  580.04   16.60
  -6   2  -1  603.44   23.60
   7   2  -1   63.89    5.00
   7   2  -1   62.89    5.90
  -7  -2  -1   57.39    4.50
  -7   2   1   59.49    4.30
   7   2  -1   55.79    5.20
  -7  -2  -1   62.39    6.10
   7  -2   1   70.29    5.80
  -7  -2  -1   58.69    4.00
   7  -2   1   59.19    5.30
  -7   2   1   83.49   12.70
   7  -2   1   58.49    5.80
   7  -2  -1   61.29    5.60
  -7   2  -1   64.69    8.90
  -7   2  -1   53.39    4.20
   7   2   1   56.69    4.60
   7   2   1   74.89    5.30
  -7  -2   1   67.69    4.80
  -7   2  -1   63.39    4.60
   7   2   1   65.19    5.80
   7  -2  -1   59.09    4.00
  -7   2  -1   88.39   10.90
  -7  -2   1   72.39    5.70
   8   2  -1   48.30    5.50
  -8   2   1   63.69    9.80
  -8  -2  -1   61.49    6.50
   8   2  -1   47.40    5.30
  -8  -2  -1   52.39    5.20
  -8   2   1   51.59    5.10
  -8   2   1   80.79   14.00
   8  -2   1   56.19    5.50
   8   2   1   39.30    4.80
   8   2   1   49.10    5.60
  -8  -2   1   54.79    4.90
  -8  -2   1   54.19    6.10
  -8   2  -1   85.09   10.50
  -8   2  -1   49.99    4.20
   8  -2  -1   55.39    6.00
  -9  -2  -1   17.40    3.70
  -9   2   1   41.10    8.00
   9   2  -1   14.40    4.30
  -9  -2   1   20.90    4.60
   9  -2  -1   20.30    4.10
   9   2   1   17.40    3.80
 -10   2  -1  109.89    9.10
   0   3   1  997.10   21.10
   0  -3   1  992.30   18.00
   0  -3  -1  993.20   16.80
   0   3   1  980.30   21.80
   0   3   1  983.90   17.60
   0  -3  -1  963.70   17.80
   0  -3   1  983.60   18.00
   0  -3  -1  981.60   17.50
   0   3   1  999.60   17.50
   0  -3   1  973.50   17.50
   0  -3  -1  991.70   18.40
   0   3  -1 1001.10   20.90
   0  -3  -1  996.70   18.20
   0   3  -1  980.50   18.00
   0   3  -1  986.00   18.60
  -1  -3  -1  106.29    2.80
   1  -3   1  108.59    2.30
   1  -3   1  106.79    3.70
  -1   3   1  104.89    6.10
   1   3  -1  111.49    3.70
  -1   3   1  106.79    2.30
   1  -3   1  103.69    3.40
   1   3  -1  101.09    3.90
  -1   3   1  107.29    6.50
   1  -3   1  107.89    3.70
  -1  -3  -1  101.99    3.20
   1   3  -1  115.69    3.30
   1  -3   1  105.69    3.30
   1  -3   1  101.19    4.70
  -1  -3  -1  106.19    3.40
  -1  -3  -1  106.69    3.60
   1   3  -1  102.49    4.90
  -1  -3  -1  102.59    2.10
   1   3   1  104.29    2.70
  -1  -3   1   97.89    3.50
  -1  -3   1  101.79    3.10
   1  -3  -1  105.19    2.90
  -1   3  -1  120.59    6.00
  -1  -3   1  100.99    3.50
  -1   3  -1  106.19    3.30
  -1   3  -1  108.89    4.50
   1  -3  -1  106.79    3.50
   1   3   1  100.59    4.00
   1  -3  -1  109.29    3.20
   1   3   1  106.99    3.50
   1  -3  -1   99.59    3.50
   1   3   1  101.89    2.70
  -1   3  -1  105.39    3.80
   1   3   1  123.09    5.30
  -1   3  -1  104.09    2.40
   1  -3  -1  102.59    3.80
   2  -3   1 2380.66   41.80
  -2  -3  -1 2384.16   41.20
  -2  -3  -1 2318.07   41.20
   2  -3   1 2374.96   41.70
  -2   3   1 2341.57   40.00
   2   3  -1 2407.96   42.10
  -2  -3  -1 2382.86   40.10
  -2   3   1 2368.86   46.50
  -2   3   1 2366.66   47.00
   2  -3   1 2387.16   41.70
  -2   3   1 2310.27   40.30
  -2  -3  -1 2416.46   42.00
   2   3  -1 2411.76   40.80
   2  -3   1 2390.36   42.30
  -2  -3  -1 2464.85   40.10
   2   3  -1 2355.16   42.70
   2   3   1 2368.86   44.80
  -2   3  -1 2284.37   40.20
   2  -3  -1 2432.56   41.80
   2   3   1 2351.36   39.80
   2   3   1 2411.56   42.00
  -2   3  -1 2356.16   44.20
  -2   3  -1 2415.66   45.90
  -2  -3   1 2439.76   41.80
   2   3   1 2415.16   42.70
  -2   3  -1 2421.56   42.00
   2   3   1 2355.16   40.00
  -2  -3   1 2411.66   40.60
   2  -3  -1 2368.16   41.90
  -2  -3   1 2397.06   42.30
   2  -3  -1 2395.66   42.20
  -3  -3  -1  245.68    7.30
  -3   3   1  242.88    5.10
   3  -3   1  238.88    7.60
   3  -3   1  242.48    7.30
   3  -3   1  245.78    6.80
   3   3  -1  251.27    7.80
  -3   3   1  238.38   10.50
  -3   3   1  242.98   10.40
  -3  -3  -1  232.68    4.60
  -3  -3  -1  237.08    6.40
   3  -3   1  235.28    6.60
   3   3  -1  245.58    7.40
  -3   3  -1  230.08    9.30
   3   3   1  240.78    6.80
   3   3   1  244.08    7.60
   3  -3  -1  234.68    6.80
   3   3   1  224.28    4.90
   3  -3  -1  245.28    7.60
   3  -3  -1  241.68    7.20
  -3   3  -1  240.88   10.10
  -3  -3   1  246.18    7.10
   3  -3  -1  237.98    6.10
  -3  -3   1  238.78    5.80
   3   3   1  245.88    7.30
   3  -3  -1  249.68    7.00
  -3  -3   1  244.38    7.60
   4  -3   1  455.25   10.80
  -4  -3  -1  464.75   11.70
  -4  -3  -1  453.25   10.40
   4  -3   1  451.35   11.00
   4  -3   1  429.76    7.60
  -4   3   1  466.75   17.40
  -4   3   1  445.56    9.50
   4   3  -1  440.36   11.90
   4  -3   1  470.15   12.50
   4   3  -1  453.75   12.30
  -4   3   1  459.35   16.20
   4  -3   1  463.05   12.20
  -4  -3  -1  449.26    8.60
   4   3  -1  460.55   11.90
  -4   3  -1  456.85   15.40
   4   3   1  458.05   11.50
  -4  -3   1  458.45   11.30
   4   3   1  464.35   11.90
   4  -3  -1  459.35   12.00
  -4   3  -1  443.76   15.50
  -4   3  -1  436.26   10.80
   4  -3  -1  445.06   12.30
  -4  -3   1  448.66    9.70
  -4  -3   1  426.66    8.00
  -4  -3   1  462.75   12.50
   4   3   1  449.86   12.00
   4  -3  -1  476.45   11.80
  -4  -3   1  454.25    8.10
   4  -3  -1  439.96   10.90
   4  -3  -1  458.85   10.30
   5   3  -1   15.40    2.80
   5  -3   1   18.30    3.20
  -5  -3  -1   20.00    1.60
  -5   3   1   16.20    4.70
  -5   3   1   21.90    5.30
   5   3  -1   11.00    2.60
  -5   3   1   17.70    1.90
  -5  -3  -1   17.30    2.80
   5   3  -1   11.70    2.70
  -5  -3  -1   17.40    2.20
   5  -3   1   18.30    3.10
   5  -3   1   18.10    2.10
   5  -3  -1   11.20    2.80
  -5  -3   1   17.90    2.70
   5   3   1   12.50    2.80
   5  -3  -1   15.70    2.50
   5   3   1   14.20    2.50
  -5  -3   1   17.00    3.30
   5  -3  -1   16.20    3.00
  -5  -3   1   15.00    1.70
  -5   3  -1   17.70    4.80
   5  -3  -1   13.50    2.00
  -5   3  -1   14.00    1.90
  -5   3  -1   15.50    2.00
  -5   3  -1   16.50    4.20
   5   3   1   13.80    2.70
  -5  -3   1   18.90    1.40
   6  -3   1  137.39    7.70
   6   3  -1  133.39    7.10
  -6   3   1  138.19   12.80
  -6  -3  -1  126.99    5.30
   6   3  -1  141.19    7.20
  -6   3   1  139.99   11.40
  -6  -3  -1  135.59    6.80
   6  -3   1  126.99    5.10
  -6   3   1  119.89    5.00
   6   3  -1  127.59    7.00
   6  -3   1  143.59    7.50
  -6  -3   1  145.49    7.80
   6  -3  -1  144.69    7.10
  -6  -3   1  124.69    4.80
   6   3   1  127.09    6.80
  -6   3  -1  125.49    5.50
   6  -3  -1  125.79    7.00
   6  -3  -1  125.09    5.50
   6   3   1  148.49    7.40
   6   3   1  126.99    6.70
  -6   3  -1  130.59    9.70
  -6  -3   1  130.29    6.10
  -6   3  -1  120.89   11.00
  -7   3   1   41.90    9.40
   7  -3   1   38.60    5.00
   7  -3   1   33.80    4.50
  -7  -3  -1   37.30    4.80
   7   3  -1   27.40    4.00
  -7  -3  -1   34.80    3.40
   7   3  -1   28.20    4.20
  -7  -3  -1   35.20    4.40
  -7   3   1   46.70    9.10
   7   3  -1   30.60    4.50
   7   3   1   27.20    4.30
   7  -3  -1   28.80    3.90
  -7  -3   1   24.20    4.10
   7   3   1   33.70    4.30
   7  -3  -1   31.30    3.30
  -7   3  -1   47.30    8.20
  -7   3  -1   37.90    7.60
  -7  -3   1   34.00    4.10
   7  -3  -1   26.60    4.20
   7   3   1   30.60    4.40
   8   3  -1   28.60    4.20
   8   3  -1   32.50    5.10
  -8  -3  -1   33.00    4.90
   8   3  -1   32.20    4.60
  -8   3   1   39.10    8.50
  -8  -3  -1   28.90    4.00
  -8   3   1   56.19   11.40
   8  -3   1   27.90    5.20
  -8  -3   1   28.30    4.00
   8   3   1   29.50    4.80
  -8  -3   1   35.10    5.50
   8   3   1   32.10    4.40
   8   3   1   30.50    4.00
   8  -3  -1   25.40    4.10
  -8   3  -1   43.40    9.20
  -9  -3  -1   48.30    5.90
  -9   3   1   69.49   11.70
   9   3  -1   39.20    5.20
  -9  -3  -1   52.49    6.60
   9   3  -1   46.50    6.10
   9   3   1   42.30    5.80
  -9  -3   1   43.40    6.40
  -9  -3   1   38.10    4.50
  -9   3  -1   73.89   11.80
  -9   3  -1   46.40    5.70
   9   3   1   50.59    6.30
   0   4   1 2210.78   38.70
   0  -4  -1 2240.48   39.00
   0   4  -1 2274.07   40.10
   0  -4   1 2266.47   39.60
   0  -4  -1 2268.17   37.50
   0  -4  -1 2227.28   38.60
   0   4   1 2260.87   38.50
   0  -4  -1 2269.37   39.40
   0  -4  -1 2277.27   39.70
   0   4  -1 2235.38   38.70
   0  -4   1 2191.08   38.30
   0   4   1 2222.18   44.40
   0   4  -1 2249.27   39.10
   0   4   1 2259.57   43.50
   0  -4   1 2271.87   39.20
   0  -4   1 2298.17   39.40
   0   4  -1 2221.48   43.20
   1   4  -1   72.09    4.70
   1  -4   1   63.29    2.80
  -1  -4  -1   68.59    3.10
  -1  -4  -1   66.79    3.00
  -1   4   1   64.89    5.90
  -1  -4  -1   71.09    3.20
   1  -4   1   64.99    1.80
  -1   4   1   63.69    5.00
   1   4  -1   65.09    2.70
   1   4  -1   69.39    3.60
  -1  -4  -1   70.69    1.50
   1  -4   1   62.09    3.10
   1   4  -1   69.49    3.20
   1  -4   1   67.39    2.90
  -1   4   1   65.09    2.00
   1  -4   1   65.79    3.20
  -1   4   1   66.59    3.20
   1  -4  -1   64.39    3.00
  -1  -4   1   66.39    3.20
  -1   4  -1   71.49    3.20
  -1  -4   1   65.19    3.10
   1  -4  -1   65.99    1.80
   1  -4  -1   70.19    2.60
   1  -4  -1   63.79    3.40
   1   4   1   64.59    2.90
   1   4   1   68.29    4.80
   1   4   1   70.09    2.50
   1  -4  -1   66.89    2.90
  -1   4  -1   58.49    3.80
  -1   4  -1   67.69    5.50
   1   4   1   66.09    3.70
  -1   4  -1   58.99    2.90
   1  -4  -1   66.99    2.50
  -1  -4   1   60.19    2.70
  -2  -4  -1 1227.18   23.20
   2   4  -1 1240.88   27.90
   2  -4   1 1223.28   23.60
  -2   4   1 1224.88   20.80
  -2  -4  -1 1221.98   22.40
   2   4  -1 1260.07   25.10
  -2  -4  -1 1287.47   24.10
  -2   4   1 1260.97   20.50
   2  -4   1 1229.28   23.70
   2  -4   1 1262.07   22.70
   2   4  -1 1239.68   22.60
   2  -4   1 1236.38   24.30
  -2   4   1 1247.28   29.10
   2   4  -1 1263.67   24.10
   2  -4   1 1231.28   23.80
  -2   4   1 1259.17   29.60
  -2   4  -1 1223.88   28.40
   2  -4  -1 1243.68   24.00
  -2   4  -1 1255.17   24.00
  -2  -4   1 1259.87   23.90
   2   4   1 1229.08   21.80
  -2   4  -1 1220.98   26.40
  -2  -4   1 1237.98   22.70
   2  -4  -1 1249.47   23.50
   2   4   1 1205.98   21.00
   2  -4  -1 1282.37   22.10
   2   4   1 1242.78   24.90
   2   4   1 1238.78   27.50
   2  -4  -1 1243.48   24.10
  -2  -4   1 1224.58   24.20
   2   4   1 1232.58   23.90
  -3   4   1   95.69    2.30
  -3  -4  -1  104.79    4.00
   3  -4   1  102.69    4.30
   3   4  -1  103.89    5.30
   3  -4   1  101.19    4.80
  -3  -4  -1   99.89    4.70
   3  -4   1  105.59    4.60
  -3   4   1   98.49    8.10
   3   4  -1  102.29    3.80
   3   4  -1  104.99    4.90
  -3   4   1   91.59    7.50
   3  -4   1  102.39    4.60
  -3  -4   1   97.09    4.80
  -3   4  -1   94.49    2.10
   3  -4  -1  100.79    3.90
   3  -4  -1  105.69    5.00
   3   4   1  103.89    5.20
  -3  -4   1   96.39    3.60
  -3  -4   1   95.49    4.30
   3  -4  -1  100.89    4.60
   3   4   1  101.89    4.60
  -3   4  -1   97.39    6.70
  -3   4  -1   94.99    4.50
  -3   4  -1   98.69    2.20
  -3   4  -1   97.99    7.60
   3  -4  -1  100.69    4.40
   4   4  -1  902.51   20.00
  -4  -4  -1  869.31   18.10
   4  -4   1  887.21   20.00
  -4   4   1  894.31   26.20
   4  -4   1  906.61   20.80
   4  -4   1  901.51   19.10
   4   4  -1  899.31   20.80
  -4   4   1  902.81   25.50
  -4  -4  -1  916.71   19.80
   4  -4   1  832.62   15.40
   4   4  -1  933.21   20.30
   4  -4   1  890.11   18.80
  -4  -4   1  906.81   20.60
   4  -4  -1  886.11   19.10
  -4   4  -1  892.11   24.90
  -4  -4   1  896.11   19.50
   4  -4  -1  891.21   20.50
  -4   4  -1  886.41   16.20
   4   4   1  914.01   20.10
  -4   4  -1  868.71   23.60
  -4   4  -1  880.31   19.70
   4   4   1  905.51   19.30
   4   4   1  937.51   20.80
   4  -4  -1  895.11   19.90
   4  -4  -1  906.01   18.20
  -4  -4   1  896.41   17.40
  -5   4   1  106.19    9.60
   5   4  -1  128.09    6.80
  -5  -4  -1  108.19    5.90
  -5   4   1  119.19   10.50
   5  -4   1  107.99    5.10
  -5  -4  -1  113.49    4.80
   5   4  -1  105.99    6.00
   5  -4   1  105.59    5.90
   5  -4   1  106.59    6.10
   5   4  -1  106.49    6.10
   5  -4   1  104.39    5.20
   5   4   1  108.69    5.90
  -5  -4   1  113.09    5.50
  -5  -4   1   99.59    5.90
  -5   4  -1  110.89    3.90
   5  -4  -1  107.49    4.70
   5  -4  -1   98.19    5.60
   5   4   1  116.09    5.60
  -5  -4   1  110.99    4.20
   5  -4  -1  109.19    6.10
  -5   4  -1  112.69    9.50
   5   4   1  113.69    6.00
  -5   4  -1  119.99    9.40
   5  -4  -1  110.69    5.40
   6  -4   1  100.19    6.60
  -6  -4  -1  105.29    5.90
  -6  -4  -1   98.59    4.80
   6   4  -1   94.09    6.30
   6   4  -1   94.39    6.50
   6   4  -1  103.19    6.80
  -6   4   1   89.19   10.70
   6  -4   1   97.09    4.80
  -6   4   1   92.49    9.50
   6  -4   1   88.09    6.30
   6  -4  -1   98.09    7.00
  -6  -4   1   90.99    5.40
   6   4   1   91.09    6.00
   6   4   1   91.89    6.20
  -6   4  -1   98.59   10.10
   6   4   1  100.89    6.10
  -6  -4   1   96.49    6.40
  -6   4  -1  101.49    9.60
   6  -4  -1   92.59    5.20
   7   4  -1   97.69    7.20
   7   4  -1   89.49    7.00
  -7   4   1  102.49   10.90
   7   4  -1  101.99    7.20
   7  -4   1   98.79    7.30
  -7  -4  -1   92.39    7.60
   7  -4   1  111.49    8.20
  -7   4   1  113.89   12.90
  -7  -4  -1   95.19    6.60
  -7  -4  -1   93.39    5.00
  -7   4  -1   91.09   11.00
  -7   4  -1  109.39    7.10
   7   4   1   93.79    6.60
   7  -4  -1  102.39    5.60
   7  -4  -1   99.09    7.90
  -7   4  -1  119.29   12.40
  -7  -4   1   89.69    6.20
   7   4   1  100.39    6.90
   7   4   1   99.59    6.70
  -7  -4   1   95.59    7.60
   8   4  -1  102.39    7.70
  -8   4   1  104.09   14.20
  -8   4   1   84.99   13.30
  -8  -4  -1   86.99    7.40
   8   4  -1   87.69    7.70
  -8  -4  -1   83.79    6.10
   8  -4   1   75.29    7.90
   8   4  -1   84.69    7.10
  -8  -4   1   86.19    6.50
   8   4   1   85.39    6.80
   8   4   1   95.59    7.10
   8   4   1   98.99    7.20
  -8  -4   1  100.39    8.50
  -8   4  -1  114.49   14.00
  -8   4  -1   78.69    6.40
  -9   4   1   84.19   13.10
   9   4  -1   49.10    6.30
   9   4  -1   78.79    8.00
  -9  -4  -1   54.79    6.10
  -9  -4  -1   64.29    7.50
   9   4   1   54.59    6.00
   9   4   1   60.09    6.70
  -9  -4   1   49.50    5.50
  -9   4  -1   95.89   14.30
  -9   4  -1   53.99    6.50
  -9  -4   1   70.09    7.90
   0  -5  -1 1123.59   21.90
   0  -5   1 1110.49   20.50
   0  -5  -1 1114.49   21.30
   0   5  -1 1127.39   22.60
   0  -5  -1 1116.69   22.10
   0   5   1 1110.89   27.20
   0  -5   1 1148.59   20.50
   0   5  -1 1124.99   21.10
   0  -5  -1 1110.69   19.60
   0  -5  -1 1147.59   21.10
   0   5  -1 1137.39   21.60
   0   5  -1 1118.49   26.10
   0   5   1 1124.49   21.10
   0   5   1 1152.98   26.70
   0  -5   1 1151.28   21.70
   0   5   1 1124.09   20.80
   0  -5   1 1124.79   21.80
   1   5  -1  398.26    9.60
  -1   5   1  395.26   14.10
   1  -5   1  395.46    9.30
   1   5  -1  386.06   10.70
  -1   5   1  388.56   13.40
  -1  -5  -1  403.16    6.80
   1  -5   1  399.36   10.00
   1  -5   1  397.66   10.00
  -1  -5  -1  402.26    9.70
  -1  -5  -1  396.66    9.50
  -1   5   1  396.16    9.60
   1  -5   1  401.56    9.10
  -1   5   1  394.16    8.00
   1   5  -1  382.36   13.00
   1  -5   1  380.46    7.40
   1   5  -1  390.46    9.00
  -1  -5  -1  393.96    9.70
   1  -5  -1  375.36    7.20
  -1   5  -1  387.36    9.70
   1  -5  -1  398.66    9.90
   1  -5  -1  391.56    9.50
  -1  -5   1  382.96    9.40
   1  -5  -1  405.46    9.00
   1  -5  -1  402.56   10.10
   1   5   1  395.36   10.70
   1   5   1  398.96   13.20
  -1   5  -1  385.26    9.70
   1  -5  -1  382.86    8.60
   1   5   1  381.16    8.50
  -1  -5   1  397.96    9.80
  -1   5  -1  390.66   11.90
  -1   5  -1  394.36   13.30
   1   5   1  394.56    9.50
  -1  -5   1  394.66    9.40
   1  -5  -1  374.66    7.40
  -2  -5  -1  168.18    6.10
   2   5  -1  169.78    6.90
  -2  -5  -1  164.58    5.10
  -2   5   1  160.48    3.40
   2  -5   1  165.18    6.30
   2   5  -1  164.68    8.60
  -2   5   1  169.58    9.80
   2  -5   1  170.08    5.20
   2   5  -1  170.08    6.10
  -2   5   1  158.68    5.80
  -2  -5  -1  158.28    5.50
   2  -5   1  169.18    6.00
  -2   5   1  173.88   10.20
   2   5  -1  161.38    5.10
   2  -5   1  158.68    5.60
   2   5  -1  149.39    3.30
   2   5   1  164.88    6.80
   2   5   1  163.48    8.10
   2   5   1  160.58    4.40
  -2   5  -1  162.48    7.60
  -2  -5   1  161.98    5.90
  -2  -5   1  167.88    5.90
  -2   5  -1  159.58    5.20
  -2   5  -1  173.48    9.80
  -2   5  -1  172.78    6.40
  -2  -5   1  159.48    5.20
   2  -5  -1  160.58    5.40
   2   5   1  161.68    5.80
   2   5   1  153.98    3.80
   2  -5  -1  165.48    4.70
   2  -5  -1  168.18    6.10
   2  -5  -1  164.08    6.00
   3  -5   1  287.17    8.90
   3   5  -1  304.77    9.30
   3   5  -1  287.37    7.60
  -3  -5  -1  294.17    8.20
   3  -5   1  300.67    8.90
   3   5  -1  307.47   10.10
   3  -5   1  291.97    9.40
   3  -5   1  294.57    8.70
  -3  -5  -1  291.07    9.10
  -3   5   1  293.07   13.70
  -3   5   1  296.47   14.20
  -3  -5   1  290.87    7.70
  -3  -5   1  304.47    9.00
  -3   5  -1  300.17    9.20
  -3   5  -1  286.47   13.20
   3   5   1  289.57    9.70
  -3   5  -1  295.97   12.20
   3  -5  -1  297.57    9.40
  -3  -5   1  295.67    9.30
   3   5   1  288.57    9.00
   3  -5  -1  285.27    8.00
   3   5   1  283.57    6.70
   3  -5  -1  286.77    8.60
   3  -5  -1  300.67    9.10
   4   5  -1  287.27   10.40
  -4   5   1  284.77   13.70
  -4  -5  -1  274.97    8.20
   4  -5   1  284.97    9.60
   4  -5   1  283.57    8.80
   4  -5   1  281.97   10.10
   4  -5   1  293.87    8.90
  -4   5   1  272.97   14.60
  -4  -5  -1  293.17    9.50
   4   5  -1  267.97    9.60
   4  -5  -1  291.07    8.30
   4   5   1  285.77    9.70
   4   5   1  290.07   10.40
  -4  -5   1  274.97    7.50
   4  -5  -1  285.67    9.20
   4   5   1  288.47    9.00
  -4   5  -1  293.97   14.30
  -4   5  -1  285.47   13.50
  -4  -5   1  286.17    9.20
  -4  -5   1  283.37    9.80
  -4   5  -1  284.57    9.40
   4  -5  -1  274.67    8.90
   4  -5  -1  284.37    9.80
   5   5  -1   65.29    5.20
   5  -5   1   68.59    5.00
  -5  -5  -1   72.39    4.80
   5  -5   1   74.19    4.40
   5  -5   1   61.09    4.40
   5   5  -1   76.49    5.40
  -5   5   1   66.79    8.50
  -5   5   1   80.69    9.80
   5  -5   1   72.09    5.40
  -5  -5  -1   66.49    4.10
   5   5  -1   66.59    5.00
  -5  -5   1   71.69    4.70
   5  -5  -1   67.89    4.00
   5  -5  -1   70.69    5.80
   5  -5  -1   67.19    4.90
   5   5   1   85.99    5.70
  -5   5  -1   80.29    9.50
  -5  -5   1   71.19    3.70
  -5  -5   1   71.39    5.40
   5   5   1   72.99    5.50
   5  -5  -1   66.09    4.80
  -5   5  -1   72.19    7.90
   5   5   1   67.29    4.50
  -5   5  -1   64.89    4.80
   6   5  -1   57.49    5.80
   6  -5   1   44.60    5.20
  -6   5   1   50.19    8.20
  -6  -5  -1   47.90    3.70
   6  -5   1   34.70    3.70
   6   5  -1   46.30    5.30
   6   5  -1   44.40    5.10
  -6  -5  -1   56.19    6.10
  -6   5   1   55.49    9.60
   6  -5   1   39.50    4.90
   6  -5   1   50.19    4.40
  -6  -5  -1   47.60    4.70
   6   5   1   43.50    5.00
   6  -5  -1   47.50    3.90
   6  -5  -1   40.40    4.80
   6   5   1   53.49    5.70
  -6   5  -1   39.40    6.60
   6   5   1   51.59    4.90
  -6   5  -1   52.29    8.80
  -6  -5   1   48.90    5.80
   6  -5  -1   43.00    5.20
  -6  -5   1   44.50    4.40
  -6   5  -1   38.00    4.40
  -7   5   1   33.30    7.90
  -7   5   1   17.50    7.00
  -7  -5  -1   21.40    3.60
   7   5  -1   32.10    4.40
   7   5  -1   22.70    4.00
   7  -5   1   25.50    4.60
  -7  -5  -1   24.10    4.50
   7   5  -1   23.40    3.90
   7  -5   1   19.30    4.50
  -7   5  -1   32.70    4.50
   7   5   1   31.30    4.10
   7  -5  -1   24.50    3.20
  -7   5  -1   26.10    7.10
   7   5   1   26.30    4.90
  -7  -5   1   25.90    4.50
   7  -5  -1   20.20    4.50
   7   5   1   27.40    4.20
  -7  -5   1   21.70    3.70
  -8  -5  -1    8.60    3.60
  -8  -5  -1    9.80    3.70
   8   5  -1    5.00    2.70
  -8   5   1    5.90    8.10
   8   5  -1   14.10    4.40
   8   5  -1   12.40    4.00
   8  -5   1    4.10    3.90
  -8   5  -1    5.40    3.10
   8   5   1    6.10    3.30
  -8  -5   1    2.90    2.40
  -8  -5   1    9.40    3.50
   8  -5  -1   10.60    3.60
   8   5   1    6.90    4.00
  -8   5  -1    9.30    5.80
   8   5   1    3.40    3.10
   9   5  -1   87.19    8.60
  -9   5   1   85.59    7.90
  -9  -5  -1   81.29    7.30
  -9   5   1   98.59   14.40
  -9  -5  -1  118.49   11.00
   9   5  -1   79.89    8.10
   9   5  -1   95.09    7.70
   9  -5   1   97.79    9.30
   9   5   1  117.89    9.60
  -9   5  -1   77.89    7.90
  -9   5  -1  120.29   15.70
  -9  -5   1   90.99    6.70
   9   5   1   93.79    7.20
  -9  -5   1   97.29    9.60
   0   6  -1  413.06   14.40
   0  -6  -1  407.36    9.40
   0  -6  -1  431.86   10.10
   0   6  -1  415.26   11.50
   0  -6   1  434.76   10.70
   0  -6   1  418.86   10.40
   0   6   1  417.46   10.00
   0   6   1  417.56   11.60
   0   6  -1  414.46   10.30
   0   6   1  442.96   15.10
   0  -6   1  436.06    9.30
   0  -6  -1  444.66   11.20
   0   6  -1  422.56   10.00
   0  -6  -1  410.36    8.30
   0   6   1  425.16    9.70
   0  -6  -1  420.86   10.30
   0  -6  -1  431.96   10.90
   0  -6   1  405.86    9.20
  -1   6   1  312.77    7.10
  -1  -6  -1  327.57    9.00
  -1  -6  -1  315.97    8.70
   1  -6   1  318.47    8.10
   1  -6   1  322.57    9.30
  -1   6   1  309.27    8.50
  -1   6   1  302.57   12.70
   1   6  -1  317.17    8.80
   1  -6   1  313.57    8.50
   1   6  -1  304.77    9.80
  -1  -6  -1  312.57    8.80
   1  -6   1  318.07    9.20
  -1   6   1  311.87   12.90
   1   6  -1  318.87    8.20
   1   6  -1  325.47   12.70
   1   6   1  308.17    8.50
   1  -6  -1  310.77    8.70
   1  -6  -1  309.77    7.50
  -1   6  -1  315.77    9.10
   1   6   1  313.57    7.70
  -1   6  -1  306.97    7.50
  -1  -6   1  322.77    8.70
   1   6   1  311.97   12.40
   1   6   1  314.17   10.00
  -1   6  -1  305.77   12.50
  -1  -6   1  305.27    8.40
  -1  -6   1  320.57    9.10
   1  -6  -1  307.37    9.20
   1  -6  -1  332.97    9.30
   1  -6  -1  291.47    6.20
  -1   6  -1  306.27    9.10
   1  -6  -1  331.57    8.20
  -2  -6  -1  219.78    7.30
   2  -6   1  240.98    8.20
  -2   6   1  240.08   11.60
   2  -6   1  232.98    6.80
  -2   6   1  233.28    7.90
  -2   6   1  237.28   12.70
  -2   6   1  224.68    4.80
   2  -6   1  232.48    7.30
   2   6  -1  223.68   10.70
   2   6  -1  236.28    7.80
   2   6  -1  235.98    8.80
   2  -6   1  228.08    7.70
  -2  -6  -1  233.98    7.90
   2   6  -1  230.58    6.60
   2   6   1  233.08    8.70
  -2  -6   1  225.48    7.80
  -2   6  -1  217.58    9.20
   2   6   1  230.78    6.10
  -2   6  -1  230.08    7.90
  -2   6  -1  219.18   11.80
   2   6   1  233.68    7.70
   2  -6  -1  226.68    6.30
   2   6   1  230.48   10.90
   2  -6  -1  223.68    7.80
  -2  -6   1  229.88    7.70
   2  -6  -1  239.18    7.70
   2  -6  -1  219.58    6.80
  -2  -6   1  218.98    6.80
  -2   6  -1  225.78    7.10
   3  -6   1  109.79    5.30
   3  -6   1  107.49    5.60
   3   6  -1  108.89    6.10
  -3   6   1  109.79    9.70
   3  -6   1  113.79    5.80
   3   6  -1  112.09    4.50
   3  -6   1  109.39    5.20
   3   6  -1  111.09    5.80
  -3   6   1  116.89    5.60
  -3  -6  -1  105.19    4.70
  -3   6   1  126.99    9.70
  -3  -6  -1  116.19    5.80
   3   6   1  111.29    7.80
   3   6   1  120.19    6.70
   3  -6  -1  112.49    5.20
  -3  -6   1  115.49    6.00
   3  -6  -1  111.29    5.50
   3  -6  -1  119.59    5.80
  -3   6  -1  108.79    4.50
   3   6   1  114.19    3.90
  -3   6  -1  109.59    7.30
  -3   6  -1  113.79    5.70
  -3  -6   1  115.99    4.90
   3   6   1  112.29    5.40
  -3  -6   1  114.19    5.80
   3  -6  -1  110.59    5.00
  -3   6  -1  116.09   10.00
   4  -6   1  188.48    7.80
  -4  -6  -1  176.18    7.50
   4  -6   1  184.08    7.40
  -4  -6  -1  180.18    6.70
   4  -6   1  187.78    8.20
  -4   6   1  180.58   13.00
   4   6  -1  174.78    7.90
  -4   6   1  172.98    7.80
   4  -6   1  185.48    7.40
  -4   6   1  177.28   13.10
   4   6  -1  181.88    8.80
   4   6   1  176.08    7.10
   4  -6  -1  183.78    8.00
  -4   6  -1  185.28    8.10
   4  -6  -1  178.58    6.70
   4   6   1  177.78    8.60
  -4   6  -1  165.28   10.30
  -4  -6   1  179.18    8.30
   4  -6  -1  184.78    7.80
  -4  -6   1  180.58    7.40
   4   6   1  178.48    7.90
  -4   6  -1  180.68   11.70
  -4  -6   1  179.18    6.30
   4  -6  -1  195.28    7.80
  -4   6  -1  177.68    5.60
  -5   6   1  163.78    7.70
   5   6  -1  167.58    8.30
  -5   6   1  166.28   12.40
   5  -6   1  154.08    8.40
   5  -6   1  171.68    8.30
   5  -6   1  162.68    7.40
  -5   6   1  147.79   12.90
  -5  -6  -1  171.58    8.10
   5  -6   1  156.08    6.90
   5   6  -1  170.88    7.80
  -5  -6  -1  145.89    8.20
  -5  -6  -1  154.28    6.20
   5   6  -1  169.98    9.00
   5  -6  -1  163.58    7.60
  -5   6  -1  159.28   12.10
   5  -6  -1  160.28    7.60
  -5   6  -1  197.98   14.20
   5   6   1  150.78    8.00
   5   6   1  162.38    8.60
  -5   6  -1  166.18    8.10
  -5  -6   1  162.88    6.00
   5  -6  -1  167.18    8.30
  -5  -6   1  172.48    8.50
   5   6   1  166.28    7.50
  -5  -6   1  161.68    7.70
   5  -6  -1  148.09    6.20
   6   6  -1   55.39    6.00
   6  -6   1   53.69    5.60
  -6   6   1   73.89   10.40
   6   6  -1   58.99    6.30
  -6  -6  -1   68.79    7.00
   6  -6   1   59.19    6.30
  -6  -6  -1   52.09    4.10
  -6   6   1   58.39    5.80
   6   6  -1   59.79    5.90
  -6   6   1   47.30    8.70
  -6  -6  -1   59.99    5.80
  -6  -6   1   65.09    6.80
   6   6   1   63.09    6.20
  -6  -6   1   53.89    5.20
   6  -6  -1   62.39    6.60
  -6   6  -1   59.59    5.70
   6   6   1   53.89    5.30
   6  -6  -1   64.29    4.80
   6   6   1   54.79    6.10
  -6   6  -1   60.39   10.30
  -7  -6  -1   15.40    3.40
  -7   6   1   26.00    4.40
   7  -6   1   20.20    4.20
   7   6  -1   22.80    4.70
  -7  -6  -1   25.20    4.70
   7  -6   1   23.40    4.70
   7   6  -1   21.10    3.90
   7   6  -1   18.50    4.00
  -7   6   1   25.20    9.30
   7   6   1   24.60    4.30
  -7   6  -1   23.70    7.30
  -7  -6   1   17.90    3.40
   7   6   1   25.30    4.40
  -7   6  -1   29.80    4.50
  -7  -6   1   33.00    5.60
   7   6   1   23.60    3.70
   7  -6  -1   22.80    4.30
   7  -6  -1   25.70    3.60
  -8   6   1  154.28   17.60
  -8   6   1  148.79   10.00
   8   6  -1  144.79    9.20
   8  -6   1  139.69   10.90
  -8  -6  -1  140.19    9.00
   8   6  -1  129.89    9.80
   8   6  -1  128.69    9.10
  -8  -6  -1  175.98   11.50
   8   6   1  142.49    8.20
  -8   6  -1  139.19    9.80
  -8   6  -1  147.59   14.80
  -8  -6   1  166.98   11.10
  -8  -6   1  132.19    8.00
   8  -6  -1  133.79   10.80
   8   6   1  134.39    8.90
   8   6   1  145.69    9.30
   9   6  -1   47.10    6.90
   9  -6   1   39.30    6.80
  -9   6   1   50.59   12.70
   9   6  -1   35.60    6.10
   9   6  -1   52.19    7.00
  -9  -6  -1   38.80    5.70
   9   6   1   35.50    5.80
  -9   6  -1   36.60    7.20
   9   6   1   39.60    6.50
  -9   6  -1   53.89   11.20
  -9  -6   1   37.00    5.40
   0  -7  -1   57.79    3.50
   0   7  -1   49.10    3.20
   0  -7  -1   48.00    3.30
   0  -7   1   50.19    2.70
   0   7   1   50.29    3.20
   0   7  -1   57.39    4.40
   0   7  -1   48.80    3.90
   0  -7   1   52.49    3.60
   0  -7  -1   49.10    2.70
   0   7  -1   58.49    6.00
   0  -7  -1   52.39    3.70
   0   7   1   48.40    4.00
   0  -7  -1   50.39    2.00
   0  -7  -1   49.70    4.00
   0   7   1   52.09    6.60
   0   7   1   48.50    3.20
   0  -7   1   47.10    3.90
   0  -7   1   47.40    2.50
   1   7  -1  716.03   21.90
   1  -7   1  719.13   15.90
  -1  -7  -1  709.93   16.20
  -1  -7  -1  678.93   15.50
  -1   7   1  725.33   22.20
  -1  -7  -1  725.43   16.40
   1   7  -1  711.33   18.00
  -1  -7  -1  718.33   16.30
   1  -7   1  670.53   12.80
   1  -7   1  684.93   16.50
   1   7  -1  712.93   15.50
  -1   7   1  719.73   22.20
  -1   7   1  696.83   13.90
  -1   7   1  706.13   17.20
   1  -7   1  695.33   15.00
  -1   7   1  715.13   16.20
   1   7  -1  702.53   16.00
   1  -7  -1  656.53   12.70
   1  -7  -1  734.73   15.50
   1  -7  -1  705.73   16.60
   1  -7  -1  687.23   15.90
   1   7   1  725.53   18.30
  -1  -7   1  713.63   16.20
   1   7   1  713.73   21.90
  -1   7  -1  724.03   16.50
   1  -7  -1  701.53   16.90
  -1   7  -1  719.73   17.00
   1  -7  -1  675.93   14.20
  -1   7  -1  711.93   22.20
   1   7   1  709.73   14.90
  -1  -7   1  696.63   16.20
  -1  -7   1  696.13   15.50
   1   7   1  706.53   15.80
  -1   7  -1  704.03   14.60
  -2   7   1  665.83   21.40
  -2   7   1  682.03   16.30
  -2  -7  -1  678.23   16.30
   2   7  -1  688.73   16.50
  -2  -7  -1  672.23   16.00
   2   7  -1  705.43   22.20
  -2   7   1  700.13   23.20
   2   7  -1  695.53   15.10
   2  -7   1  691.73   16.80
   2  -7   1  669.23   16.80
   2  -7   1  691.03   15.60
   2   7  -1  658.53   17.90
   2  -7   1  701.73   15.40
  -2   7  -1  678.23   16.00
   2   7   1  708.63   22.00
   2  -7  -1  668.53   16.30
   2   7   1  674.93   14.20
  -2  -7   1  668.73   15.50
   2  -7  -1  666.13   14.90
   2  -7  -1  686.23   14.70
  -2   7  -1  654.33   13.50
   2  -7  -1  680.53   16.80
  -2  -7   1  675.63   16.30
  -2   7  -1  686.43   16.50
   2   7   1  680.13   16.10
  -2   7  -1  705.13   22.60
   2   7   1  635.64   17.70
  -2  -7   1  679.73   16.20
   3  -7   1  268.97    9.30
  -3   7   1  284.97    9.90
  -3  -7  -1  272.07    9.40
  -3  -7  -1  286.47    9.90
  -3   7   1  274.17   14.10
  -3  -7  -1  295.47    9.00
   3  -7   1  276.17    9.80
   3  -7   1  273.27   10.20
   3   7  -1  271.97    9.80
   3  -7   1  287.17    9.20
   3   7  -1  283.77   10.70
   3   7  -1  280.57    8.10
  -3   7   1  266.27   14.50
   3  -7  -1  271.07    9.10
   3   7   1  268.67   10.60
  -3  -7   1  287.57    9.80
   3   7   1  280.07    7.30
  -3   7  -1  274.47   11.50
   3  -7  -1  283.17    9.80
  -3   7  -1  269.87    9.50
  -3  -7   1  280.97    9.80
  -3  -7   1  276.67    8.40
  -3   7  -1  279.07   15.00
   3  -7  -1  279.27    8.90
   3   7   1  282.37    9.70
   3   7   1  290.77   14.00
  -3   7  -1  275.07    8.40
   3  -7  -1  284.47   10.10
   4   7  -1  115.69    4.90
  -4  -7  -1  119.99    6.80
   4  -7   1  112.59    6.40
  -4  -7  -1  111.39    6.50
   4  -7   1  104.49    6.00
   4   7  -1  115.59    7.60
  -4  -7  -1  109.09    5.60
  -4   7   1  112.89   10.70
  -4   7   1  112.19   10.40
  -4   7   1  118.49    6.40
   4  -7   1  115.89    7.20
   4   7  -1  123.49    7.00
   4  -7  -1  111.29    6.60
  -4  -7   1  115.39    5.30
  -4   7  -1  125.29    7.10
   4  -7  -1  112.09    6.90
   4  -7  -1  102.29    5.50
   4   7   1  118.69    6.50
  -4  -7   1  117.69    7.20
  -4   7  -1  113.09   10.30
   4   7   1  120.09    7.70
   4  -7  -1  101.49    5.90
  -4  -7   1  112.59    6.10
   5  -7   1   84.29    6.40
   5  -7   1   86.59    5.90
  -5   7   1   96.19   10.90
   5   7  -1   81.79    6.60
  -5  -7  -1   89.79    5.10
   5  -7   1   78.89    5.60
  -5  -7  -1   75.79    5.60
   5   7  -1   89.19    6.70
  -5   7   1   80.49    6.50
   5   7  -1   94.19    6.10
  -5  -7  -1   88.39    7.00
  -5   7   1   79.79   10.80
  -5   7  -1   89.19   10.40
   5  -7  -1   82.79    5.90
   5  -7  -1   84.39    6.80
   5  -7  -1   93.49    5.90
   5   7   1   80.19    6.90
  -5  -7   1   85.39    6.20
  -5   7  -1   88.49    6.70
  -5  -7   1   81.79    4.60
   5   7   1   80.39    5.20
   5   7   1   93.69    6.90
  -5  -7   1   84.09    6.30
  -6   7   1   24.90    7.90
  -6   7   1   15.40    3.60
   6   7  -1   26.00    4.60
   6   7  -1   24.70    4.80
   6  -7   1   18.80    4.00
  -6  -7  -1   15.00    2.80
   6   7  -1   22.70    4.10
  -6  -7  -1   17.60    3.50
  -6  -7  -1   23.50    4.30
   6  -7   1   14.90    3.20
   6   7   1   19.50    3.60
   6   7   1   19.90    4.30
  -6  -7   1   13.50    3.10
   6   7   1   14.70    4.20
  -6  -7   1   27.20    5.00
  -6   7  -1   20.10    8.70
   6  -7  -1   23.00    4.10
  -6   7  -1   20.00    3.80
   6  -7  -1   17.10    3.60
  -7   7   1   12.00    8.80
   7   7  -1    7.70    3.20
  -7  -7  -1   14.90    4.00
   7  -7   1    7.90    4.20
  -7  -7  -1   15.30    3.50
   7   7  -1   20.20    4.30
   7   7  -1   10.20    3.10
  -7   7   1    3.80    2.50
   7  -7   1    7.40    3.50
   7   7   1    7.60    2.60
   7  -7  -1    8.30    2.50
  -7  -7   1    4.30    2.30
  -7  -7   1   20.70    5.00
   7   7   1   13.60    4.30
  -7   7  -1    9.10    3.40
   7   7   1    4.00    2.70
  -7   7  -1    8.40    6.10
   7  -7  -1    6.90    4.30
  -8  -7  -1   66.09    8.40
   8   7  -1   42.30    6.40
  -8   7   1   50.19    7.10
   8   7  -1   35.60    5.70
   8   7  -1   43.10    6.10
   8  -7   1   41.20    7.00
  -8  -7  -1   43.30    5.90
  -8   7   1   61.89   11.70
   8  -7  -1   37.10    6.20
   8   7   1   44.10    6.20
  -8   7  -1   51.59   12.20
   8   7   1   37.20    6.20
  -8  -7   1   59.39    7.90
  -8  -7   1   51.79    6.50
  -8   7  -1   41.60    6.60
   0  -8  -1  751.82   17.20
   0  -8  -1  805.62   17.90
   0  -8   1  776.42   17.80
   0  -8  -1  792.12   18.60
   0   8  -1  781.32   17.10
   0   8   1  779.92   17.20
   0   8  -1  805.02   17.90
   0  -8  -1  791.72   18.50
   0   8  -1  771.92   24.30
   0   8   1  783.42   19.90
   0   8   1  757.72   16.50
   0   8  -1  788.02   19.70
   0  -8  -1  719.93   15.60
   0   8   1  769.42   24.20
   0  -8   1  809.02   18.30
   1   8  -1  184.98   11.40
  -1  -8  -1  198.78    7.40
  -1  -8  -1  184.18    7.30
   1   8  -1  186.08    6.80
   1  -8   1  192.68    7.20
   1  -8   1  188.98    7.50
  -1   8   1  210.58   11.90
   1   8  -1  193.28    8.80
  -1  -8  -1  182.28    6.40
   1   8  -1  186.68    7.30
  -1   8   1  178.08    8.10
  -1  -8  -1  184.78    6.70
  -1   8   1  184.18    7.10
   1   8   1  182.28   11.30
   1  -8  -1  206.18    8.10
   1   8   1  193.68    9.00
  -1  -8   1  182.88    7.50
   1   8   1  185.88    6.90
  -1   8  -1  185.98    6.20
  -1   8  -1  192.38   11.80
  -1   8  -1  197.18    8.10
   1  -8  -1  176.78    6.90
   1  -8  -1  179.68    7.90
  -1   8  -1  174.48    7.50
  -1  -8   1  190.58    7.70
  -1  -8   1  174.68    6.50
   1   8   1  181.98    6.30
   1  -8  -1  185.08    6.90
  -2  -8  -1  159.48    6.70
   2   8  -1  157.48   10.90
  -2   8   1  145.09    7.10
  -2   8   1  161.78   10.50
   2  -8   1  168.38    6.60
   2  -8   1  152.78    6.20
   2   8  -1  168.08    8.60
   2   8  -1  152.78    7.20
  -2  -8  -1  164.38    7.10
  -2   8   1  163.48   12.00
   2   8  -1  168.18    6.30
  -2   8   1  175.88    7.60
  -2  -8  -1  156.38    7.00
   2  -8   1  160.78    7.30
   2  -8  -1  165.58    6.20
  -2   8  -1  166.48   11.00
  -2  -8   1  158.08    6.50
  -2   8  -1  154.48    7.10
   2  -8  -1  149.29    7.20
   2  -8  -1  149.79    7.10
   2   8   1  167.98   10.70
  -2   8  -1  159.68    7.00
   2   8   1  163.48    6.80
   2  -8  -1  154.58    5.80
  -2  -8   1  158.38    6.60
  -2  -8   1  160.28    7.40
   2   8   1  169.38    8.40
   2   8   1  155.88    5.50
   3  -8   1  139.59    6.50
  -3  -8  -1  145.59    7.40
   3   8  -1  141.79   11.10
   3   8  -1  144.49    8.50
  -3   8   1  147.79    7.10
  -3  -8  -1  149.49    7.50
   3   8  -1  145.59    5.80
   3   8  -1  146.59    7.50
  -3  -8  -1  148.39    6.50
  -3   8   1  158.78   11.80
  -3   8   1  127.59    9.70
   3  -8   1  157.98    8.00
   3  -8  -1  141.59    6.20
   3   8   1  157.28    7.50
   3  -8  -1  145.79    5.70
   3   8   1  149.69    8.60
  -3  -8   1  141.49    6.40
   3   8   1  148.69   10.50
   3  -8  -1  151.18    7.70
  -3  -8   1  145.09    7.50
  -3  -8   1  143.49    7.20
  -3   8  -1  141.49   10.90
  -3   8  -1  143.69    7.80
  -3   8  -1  133.19    6.10
   3  -8  -1  133.79    7.20
  -4   8   1   46.50    9.50
   4   8  -1   52.79    6.20
   4  -8   1   45.10    4.80
  -4  -8  -1   39.50    4.10
  -4  -8  -1   45.00    4.70
   4  -8   1   40.90    4.90
  -4   8   1   53.89    5.70
  -4   8   1   39.60    6.20
  -4  -8  -1   48.20    5.30
   4   8  -1   51.29    5.50
   4  -8  -1   43.30    4.70
  -4  -8   1   47.50    5.20
   4  -8  -1   46.30    5.20
   4   8   1   48.80    5.70
  -4   8  -1   59.29    9.80
  -4  -8   1   43.50    4.00
  -4  -8   1   42.20    4.60
  -4   8  -1   44.80    5.20
   4  -8  -1   49.30    4.70
   4   8   1   47.70    5.30
   5   8  -1   19.40    4.00
   5   8  -1   18.70    4.00
  -5  -8  -1   21.30    3.40
   5   8  -1   18.70    4.10
  -5  -8  -1   17.80    3.50
  -5  -8  -1   24.40    4.30
   5  -8   1   16.50    3.20
  -5   8   1   19.20    4.30
  -5   8   1   20.80    7.10
   5  -8   1   28.90    4.50
   5  -8  -1   15.70    3.30
  -5  -8   1   27.00    4.50
   5   8   1   22.00    4.60
   5  -8  -1   25.40    4.50
  -5  -8   1   17.80    2.60
   5   8   1   17.10    3.60
  -5  -8   1   19.70    3.40
  -5   8  -1   17.60    7.70
   5  -8  -1   21.00    3.80
  -5   8  -1   22.70    4.70
   5   8   1   15.30    3.20
   6   8  -1   24.90    5.30
  -6  -8  -1   29.90    4.90
   6   8  -1   29.20    5.40
   6  -8   1   25.90    4.30
  -6  -8  -1   24.30    4.00
  -6   8   1   19.40    9.30
   6   8  -1   29.80    4.90
  -6   8   1   28.80    4.60
   6  -8   1   23.20    4.50
   6   8   1   35.30    5.10
  -6  -8   1   25.00    4.00
  -6   8  -1   23.70    4.40
   6  -8  -1   30.00    4.30
   6  -8  -1   24.30    4.30
  -6  -8   1   27.20    5.20
   6   8   1   25.10    4.80
  -6   8  -1   34.00    9.70
   6   8   1   28.00    5.30
  -7   8   1   74.39   12.70
  -7   8   1   64.89    7.00
   7   8  -1   64.09    7.80
  -7  -8  -1   84.89    8.80
   7  -8   1   81.99    8.70
  -7  -8  -1   69.09    6.70
   7   8  -1   70.29    7.90
   7   8  -1   67.09    7.20
   7  -8   1   64.29    6.60
   7  -8  -1   59.69    7.60
  -7   8  -1   58.59   12.30
  -7   8  -1   75.59    7.50
   7  -8  -1   65.89    6.60
  -7  -8   1   67.09    6.50
   7   8   1   54.99    7.00
  -7  -8   1   80.39    8.70
   7   8   1   59.19    6.90
   8   8  -1    8.90    5.00
   8   8  -1   13.40    5.00
   8  -8   1    0.00    4.40
   8   8   1    1.80    4.40
   8   8   1   13.30    4.20
   8  -8  -1   19.40    5.50
   0   9  -1    1.20    2.00
   0   9  -1    7.90    4.20
   0  -9   1    3.70    2.10
   0   9   1    0.30    2.30
   0   9  -1    0.20    1.40
   0   9  -1    0.50    1.50
   0  -9  -1    1.00    1.70
   0   9   1   -1.40    1.10
   0  -9   1    0.20    2.20
   0  -9  -1    0.80    2.00
   0  -9  -1    1.30    2.30
   0  -9  -1    2.10    2.20
   0   9   1   -1.60    3.60
  -1   9   1   80.39    8.40
   1   9  -1   76.99    8.10
  -1  -9  -1   79.19    4.40
   1   9  -1   73.69    4.70
  -1   9   1   71.69    5.40
  -1  -9  -1   76.19    4.90
   1  -9   1   67.79    5.40
   1   9  -1   71.09    6.20
   1   9  -1   77.19    5.10
   1  -9   1   65.99    4.90
  -1  -9  -1   71.79    5.00
  -1   9   1   71.19    5.30
   1  -9  -1   67.89    4.30
  -1   9  -1   70.59    5.60
  -1  -9   1   74.59    5.10
   1  -9  -1   77.99    5.10
   1   9   1   76.59    5.90
  -1  -9   1   71.89    5.40
  -1  -9   1   78.69    4.30
  -1   9  -1   76.09    7.90
  -1   9  -1   74.19    5.00
   1   9   1   72.29    4.70
   1   9   1   73.39    4.30
   1  -9  -1   75.89    5.70
   1   9   1   73.59    8.50
   2   9  -1  238.78    9.20
   2   9  -1  235.18   13.90
  -2  -9  -1  248.28    9.20
   2  -9   1  240.98    8.40
  -2  -9  -1  253.67    9.10
  -2   9   1  255.17   14.60
  -2   9   1  248.18   10.00
   2  -9   1  242.28    9.70
   2   9  -1  254.57   11.10
  -2  -9  -1  236.88    9.60
  -2   9   1  256.37   13.40
   2   9  -1  242.88    8.30
  -2   9   1  248.78    9.30
   2   9   1  250.77   14.60
  -2  -9   1  245.48    8.90
   2  -9  -1  273.97   10.50
  -2   9  -1  238.68    9.40
  -2   9  -1  236.78    9.10
   2   9   1  238.38   10.90
   2  -9  -1  246.48    9.60
  -2  -9   1  238.58    9.70
  -2   9  -1  257.27   14.40
   2  -9  -1  227.48    7.80
  -2  -9   1  251.37    9.10
   2   9   1  254.07    9.40
  -3  -9  -1   66.29    5.00
  -3   9   1   54.49    4.90
  -3   9   1   62.59    5.90
  -3  -9  -1   61.09    5.80
   3  -9   1   61.09    4.80
   3   9  -1   67.49    9.70
   3   9  -1   62.79    5.00
   3  -9   1   66.69    6.20
  -3  -9  -1   63.89    5.20
   3   9  -1   63.49    6.40
  -3   9   1   69.49   10.40
   3   9  -1   66.49    6.00
  -3   9  -1   66.89    6.20
   3   9   1   67.99    5.60
  -3  -9   1   61.19    5.70
   3   9   1   73.49   10.10
  -3   9  -1   69.19    9.30
   3  -9  -1   53.39    5.40
   3  -9  -1   57.99    5.80
   3   9   1   59.79    6.70
  -3  -9   1   62.79    4.90
  -3  -9   1   66.19    5.40
   3  -9  -1   67.89    4.30
   4   9  -1   43.60    5.50
   4  -9   1   42.90    4.70
   4   9  -1   39.80    5.40
  -4  -9  -1   46.30    4.50
  -4  -9  -1   51.99    5.60
  -4   9   1   53.69    5.30
  -4  -9  -1   45.00    5.00
  -4   9   1   53.29    9.40
   4  -9   1   46.10    5.90
  -4   9  -1   48.40    5.80
  -4  -9   1   46.90    5.10
   4  -9  -1   43.90    5.10
  -4  -9   1   46.20    5.10
   4   9   1   47.50    6.40
  -4   9  -1   54.89    9.10
   4   9   1   46.80    5.30
   4  -9  -1   49.70    5.60
  -4  -9   1   50.49    4.60
   5   9  -1   22.10    4.00
  -5  -9  -1   16.20    4.20
  -5  -9  -1   16.00    3.60
   5  -9   1    8.20    3.30
   5   9  -1   12.20    3.90
   5  -9   1   17.90    4.40
  -5   9   1   16.30    3.80
  -5   9   1    9.80    8.80
   5   9  -1   13.90    3.20
  -5  -9  -1   16.80    3.30
  -5  -9   1   13.20    3.30
   5   9   1   14.70    4.00
  -5  -9   1   14.20    3.30
   5  -9  -1   14.80    3.40
  -5   9  -1   16.10    8.30
   5  -9  -1    8.10    3.70
   5   9   1   15.70    4.20
  -5   9  -1   19.30    4.70
  -6  -9  -1  170.78   10.90
  -6   9   1  176.98   10.70
   6   9  -1  151.38   11.00
  -6   9   1  166.48   18.50
   6  -9   1  146.19   10.00
   6  -9   1  165.88    9.10
   6   9  -1  154.88    9.60
  -6  -9  -1  146.39    8.70
  -6  -9   1  161.18    9.60
  -6   9  -1  166.18   15.20
   6  -9  -1  151.48    9.60
  -6   9  -1  156.58    9.50
   6   9   1  151.38    9.90
  -6  -9   1  161.98    9.70
   6   9   1  157.08   11.10
   6  -9  -1  158.18    8.90
   7   9  -1   17.60    5.50
   7  -9   1    8.90    4.80
  -7  -9  -1    9.40    3.50
   7   9  -1    7.10    3.60
  -7   9   1   15.90    5.30
  -7  -9  -1   25.40    5.70
  -7   9   1    7.90    9.10
   7  -9  -1    7.60    4.50
  -7   9  -1    9.00    5.00
  -7  -9   1   12.90    4.30
  -7  -9   1   19.40    5.40
   7   9   1   17.40    4.50
  -7   9  -1   16.00    9.00
   7   9   1    7.30    3.60
   0 -10   1    5.50    2.60
   0  10   1   11.70    4.60
   0 -10  -1    7.60    2.80
   0  10  -1    6.90    3.00
   0  10   1    5.00    1.80
   0  10  -1   11.80    2.40
   0 -10  -1    9.30    2.70
   0 -10   1    7.70    2.90
   0  10   1    9.70    2.90
   0  10  -1    8.70    5.00
   1 -10   1   88.49    6.10
   1  10  -1   87.99    5.40
   1  10  -1   75.79    5.50
  -1  10   1   90.29    7.00
  -1 -10  -1   90.69    5.70
   1  10  -1   96.29    9.60
   1  10  -1   92.69    7.50
   1 -10   1   86.69    6.30
  -1 -10  -1   97.19    6.70
  -1  10   1   98.79    6.30
  -1  10   1   90.59    9.30
   1 -10  -1  104.49    5.90
   1  10   1   90.89   10.40
   1  10   1   95.99    7.70
   1 -10  -1   98.19    7.40
  -1 -10   1   91.79    6.60
  -1  10  -1  100.49   10.50
  -1 -10   1   77.99    5.70
  -1  10  -1   92.69    6.70
  -1  10  -1   89.79    5.70
   2 -10   1   23.40    3.50
  -2 -10  -1   26.00    3.70
  -2  10   1   31.90    4.40
   2  10  -1   21.80    4.20
  -2  10   1   30.40    6.80
   2 -10   1   21.60    3.90
  -2 -10  -1   22.80    4.00
   2  10  -1   28.70    4.10
   2  10  -1   19.80    2.70
  -2  10   1   19.40    3.50
   2  10  -1   27.50    7.10
   2  10   1   22.80    3.60
   2  10   1   29.00    6.40
  -2  10  -1   25.40    3.90
  -2  10  -1   24.00    6.80
   2 -10  -1   20.40    3.60
   2  10   1   19.50    4.70
  -2  10  -1   26.50    4.00
  -2 -10   1   22.90    3.70
  -2 -10   1   30.00    4.20
   2 -10  -1   29.90    4.60
   2 -10  -1   27.50    3.20
  -3 -10  -1  109.19    6.90
  -3  10   1  101.69    6.70
   3  10  -1   95.69    8.40
   3  10  -1   86.29    6.20
   3 -10   1   95.99    7.50
  -3  10   1  114.99   13.00
  -3 -10  -1  104.79    7.40
  -3 -10  -1   91.79    6.60
   3 -10  -1   91.29    6.70
  -3  10  -1  102.69    8.00
  -3 -10   1   93.09    7.20
   3  10   1  101.09   12.50
   3  10   1   83.49    6.50
  -3 -10   1  106.79    6.80
  -3  10  -1  100.89   11.90
   3 -10  -1   96.19    7.00
   3  10   1  101.09    8.60
  -3 -10   1   96.89    6.50
  -4 -10  -1   65.99    5.70
  -4  10   1   45.30    5.90
  -4 -10  -1   48.00    5.90
   4  10  -1   50.59    7.10
   4  10  -1   45.40    5.80
  -4 -10  -1   34.70    4.60
  -4  10   1   43.40   10.00
   4 -10   1   49.80    6.20
   4 -10  -1   40.10    5.50
  -4  10  -1   41.50    5.30
  -4 -10   1   37.70    4.80
   4  10   1   45.80    5.80
   4  10   1   38.10    6.30
   4 -10  -1   40.40    5.20
  -4  10  -1   42.10    9.30
  -4 -10   1   38.70    4.40
  -4 -10   1   46.00    5.10
   5 -10   1   48.50    6.30
  -5 -10  -1   49.80    6.00
  -5 -10  -1   38.20    6.10
   5  10  -1   43.10    6.10
  -5  10   1   46.00    9.70
   5  10  -1   52.79    7.70
  -5  10   1   45.00    6.20
  -5 -10  -1   38.30    4.40
  -5 -10   1   52.69    6.60
  -5  10  -1   48.40    6.40
  -5 -10   1   45.50    5.60
   5 -10  -1   48.70    6.10
  -5  10  -1   58.69   11.20
   5  10   1   49.60    7.50
   5 -10  -1   36.50    5.20
   5  10   1   39.20    5.80
   6  10  -1   10.00    5.20
   6  10  -1   21.40    4.60
  -6  10   1   18.30    8.00
   6 -10   1   11.00    4.90
  -6 -10  -1    9.80    3.70
  -6  10   1   20.70    5.40
  -6 -10  -1   21.50    5.10
   6  10   1   21.60    5.30
   6  10   1   13.00    3.80
  -6  10  -1   22.80    4.80
  -6 -10   1   22.00    5.10
  -6  10  -1   17.00    8.90
   6 -10  -1   22.20    5.30
  -6 -10   1   13.80    4.60
   0  11   1  179.18   14.70
   0 -11   1  169.18    8.10
   0  11   1  179.48   10.40
   0  11  -1  175.18   10.10
   0 -11  -1  179.48    8.10
   0  11  -1  182.98    8.30
   0  11  -1  194.58   14.00
   1  11  -1   34.80    7.50
  -1 -11  -1   24.20    3.70
   1 -11   1   33.80    4.50
  -1  11   1   28.90    3.70
  -1  11   1   33.50    8.10
   1  11  -1   34.10    5.30
   1 -11   1   24.70    4.70
  -1 -11  -1   28.20    4.50
  -1  11   1   37.80    5.40
  -1  11  -1   25.60    4.20
  -1  11  -1   42.80    8.00
  -1 -11   1   30.70    4.50
   1  11   1   42.70    8.90
   1 -11  -1   29.00    4.00
   1  11   1   38.80    5.60
  -1  11  -1   27.50    3.80
  -2 -11  -1   21.20    3.90
   2 -11   1   24.00    4.30
   2 -11   1   19.50    3.70
  -2  11   1   24.80    4.30
   2  11  -1   20.80    4.50
  -2  11   1   25.50    6.70
   2  11  -1   28.10    7.00
  -2  11   1   20.20    4.00
  -2 -11  -1   25.60    4.40
  -2  11  -1   27.20    4.20
   2  11   1   27.80    7.40
  -2  11  -1   27.50    7.90
   2  11   1   24.90    5.30
  -2 -11   1   19.20    3.60
   3 -11   1    9.10    3.90
  -3 -11  -1   12.80    4.00
   3  11  -1   29.10    6.00
  -3 -11  -1   12.50    3.80
   3  11  -1   17.70    4.00
  -3  11   1   26.40    8.30
  -3  11   1    7.40    3.70
   3  11   1   23.60    6.70
  -3 -11   1   14.50    3.70
   3  11   1   18.60    4.00
  -3  11  -1   21.40    4.80
  -3 -11   1   20.20    4.00
  -3  11  -1   16.90    6.90
   3  11   1   25.60    5.50
  -4  11   1   14.60    6.70
   4 -11   1   14.00    3.90
  -4 -11  -1   13.70    3.10
  -4 -11  -1   17.10    4.50
   4  11  -1   22.60    5.00
  -4  11   1   12.70    4.40
   4  11  -1    7.60    3.00
  -4  11  -1    9.60    3.50
   4 -11  -1   13.70    4.30
   4  11   1   13.50    3.80
   4  11   1    8.80    4.60
  -4 -11   1   15.70    3.90
  -4  11  -1   10.20    7.20
  -5 -11  -1   93.99    7.30
   5  11  -1   68.19    7.70
   5  11  -1   92.79    9.40
  -5 -11  -1   95.09    8.70
   5 -11   1   82.79    8.60
  -5  11   1  102.79   14.90
  -5  11   1  100.59    9.00
  -5 -11   1   74.59    7.20
   5 -11  -1   83.99    8.30
  -5 -11   1   98.89    8.60
   5  11   1   85.59    8.00
  -5  11  -1  104.89   12.10
  -5  11  -1   87.09    8.60
   5  11   1   82.59    9.60
   0 -12  -1   25.80    4.30
   0  12   1   26.00    6.90
   0  12  -1   32.10    7.20
   0  12   1   23.90    5.40
   0  12  -1   23.10    4.50
   0 -12   1   19.30    4.30
   1 -12   1   66.19    5.70
  -1  12   1   63.19    9.90
  -1 -12  -1   53.29    5.40
   1  12  -1   85.89   10.00
   1  12  -1   58.69    7.00
  -1  12   1   59.09    6.80
  -1  12  -1   52.89    5.60
  -1 -12   1   57.59    5.70
   1  12   1   70.89   11.00
   1  12   1   61.59    7.50
  -1  12  -1   66.59   10.60
   2  12  -1    2.50    3.00
  -2  12   1    8.70    4.30
  -2 -12  -1    1.20    3.30
  -2  12   1   -0.80    2.20
  -2 -12  -1    4.50    2.70
   2  12  -1   14.30    5.60
  -2  12  -1    2.50    2.40
  -2 -12   1    4.80    3.70
   2  12   1    0.60    2.80
  -2  12  -1   17.40    5.90
  -3  12   1    7.40    4.00
  -3 -12  -1   -0.60    2.30
  -3  12   1    3.60    3.90
   3  12  -1    5.60    4.60
  -3 -12  -1    2.10    2.40
  -3 -12   1   -1.20    2.50
  -3  12  -1    2.70    3.80
   3  12   1    1.20    4.20
   0   0   2   26.30    1.00
   0   0  -2   25.20    1.00
   0   0   2   24.90    1.10
   0   0  -2   23.30    1.00
   0   0   2   29.40    2.10
   0   0  -2   22.20    1.10
   0   0  -2   24.50    1.20
   0   0  -2   25.50    1.90
   0   0   2   24.20    1.10
   1   0   2 2802.52   52.49
   1   0  -2 2754.82   48.50
   1   0  -2 2791.62   48.80
  -1   0   2 2808.82   50.29
   1   0  -2 2881.81   47.60
  -1   0  -2 2740.83   53.79
   1   0   2 2883.81   51.59
  -1   0  -2 2844.92   49.80
  -1   0   2 2787.32   48.80
  -1   0  -2 2804.32   49.20
   1   0  -2 2816.82   49.40
  -1   0  -2 2873.61   50.99
  -1   0   2 2781.52   48.30
  -1   0   2 2781.82   51.09
  -1   0  -2 2819.62   48.60
   1   0   2 2789.42   50.89
   1   0   2 2853.91   47.10
   1   0   2 2838.82   49.60
  -1   0   2 2886.41   47.60
   1   0  -2 2783.22   49.90
  -2   0  -2  600.24   11.90
   2   0   2  575.64   11.30
   2   0   2  579.84   11.50
   2   0   2  587.94   11.70
   2   0   2  574.64   10.60
  -2   0   2  589.34   11.60
  -2   0   2  585.14   10.60
   2   0   2  598.24   11.60
   2   0  -2  570.74   10.60
   2   0  -2  575.44   12.00
   2   0  -2  575.74   11.20
   2   0   2  581.84   11.10
   3   0   2  598.64   11.70
   3   0  -2  619.74   12.50
  -3   0   2  621.84   13.10
  -3   0  -2  618.94   11.00
   3   0  -2  619.44   13.60
  -3   0   2  623.54   11.80
   3   0   2  615.04   12.00
   3   0   2  618.24   12.90
   3   0   2  611.74   13.20
  -3   0  -2  627.14   13.20
   3   0   2  588.64   12.70
   3   0   2  610.64   13.20
   4   0   2  102.19    4.60
  -4   0   2  111.09    3.70
  -4   0   2  105.89    3.70
  -4   0  -2  105.49    4.40
   4   0  -2  114.59    4.40
   4   0   2  108.29    3.50
   4   0   2  108.39    4.80
  -4   0   2  112.29    4.80
  -4   0  -2  102.49    2.70
   4   0   2  105.29    4.40
   4   0  -2  107.29    3.60
   4   0   2  106.19    3.60
   4   0  -2  106.49    4.90
   4   0   2  108.99    4.60
  -5   0   2   91.19    4.70
  -5   0   2   84.39    3.60
   5   0   2   85.69    3.60
   5   0  -2   90.99    4.30
   5   0   2   87.39    5.00
   5   0   2   92.59    4.90
   5   0   2   87.49    4.70
   5   0  -2   86.99    5.20
  -5   0   2   85.69    3.70
   5   0  -2   86.79    3.40
   5   0   2   81.79    4.70
  -5   0  -2   91.99    4.70
   6   0   2  159.68    6.80
  -6   0   2  145.39    5.40
  -6   0   2  146.29    5.60
   6   0  -2  178.38    8.00
   6   0   2  169.18    7.40
  -6   0   2  177.08    7.40
   6   0  -2  157.98    6.60
   6   0  -2  148.59    4.80
   6   0   2  166.78    7.50
  -6   0  -2  164.88    7.00
   6   0   2  160.38    7.20
   7   0   2    7.10    2.10
  -7   0   2    8.50    1.90
  -7   0  -2    3.50    2.10
   7   0   2    5.90    2.30
   7   0  -2    5.40    2.10
  -7   0   2    6.70    6.50
   7   0  -2    6.30    2.30
  -7   0  -2    3.90    2.00
   7   0   2    3.60    2.00
  -7   0  -2    5.70    2.00
  -7   0   2    3.90    2.30
  -8   0  -2   25.00    3.70
  -8   0  -2   29.40    4.30
   8   0   2   31.80    4.40
   8   0   2   24.10    3.80
   8   0  -2   23.60    3.80
  -8   0  -2   24.80    3.80
  -8   0   2   36.30    9.60
   8   0  -2   27.00    4.20
  -8   0  -2   18.20    3.10
  -8   0   2   33.10    4.30
   0  -1   2  975.40   16.60
   0   1   2  977.50   19.90
   0  -1  -2  951.90   17.70
   0  -1   2  934.41   16.60
   0  -1  -2  923.41   19.70
   0   1   2  944.91   16.60
   0   1   2  962.70   17.70
   0  -1  -2  951.30   16.70
   0   1  -2  934.61   17.30
   0   1  -2  966.20   16.70
   0   1  -2  946.91   16.50
   0   1   2  942.51   16.70
   0   1  -2  958.00   16.60
   0   1  -2  943.41   16.60
   0  -1   2  941.71   17.60
   0  -1  -2  964.50   16.70
   0  -1   2  945.31   16.60
   0  -1   2  928.41   16.60
   0  -1  -2  962.70   16.60
   0   1   2  961.90   16.50
   0  -1   2  963.20   17.30
   0   1   2  974.70   16.80
   0  -1   2  946.21   16.50
   0   1  -2  946.21   16.50
   0  -1  -2  950.40   16.50
   0  -1  -2  958.90   16.30
  -1  -1  -2 3510.35   62.19
  -1  -1  -2 3469.95   56.99
   1  -1   2 3427.56   60.89
   1   1  -2 3485.05   60.79
  -1  -1  -2 3405.66   59.39
   1  -1   2 3440.16   61.79
  -1   1   2 3415.36   60.29
  -1   1   2 3507.75   60.39
   1   1  -2 3316.17   60.49
  -1  -1  -2 3474.35   59.59
   1   1  -2 3394.76   60.59
  -1   1   2 3396.26   74.79
  -1  -1  -2 3304.77   64.89
  -1  -1  -2 3566.14   59.79
   1  -1   2 3475.85   62.09
  -1   1   2 3416.76   61.19
   1   1  -2 3501.15   60.99
   1  -1  -2 3421.06   57.09
   1  -1  -2 3338.57   60.39
   1   1   2 3527.75   61.59
  -1  -1   2 3470.95   61.89
   1   1   2 3402.46   60.99
   1  -1  -2 3457.55   61.79
   1   1   2 3603.94   61.19
   1   1   2 3341.17   60.39
  -1   1  -2 3369.26   68.09
   1   1   2 3378.46   66.49
  -1   1  -2 3500.35   60.89
   1   1   2 3445.96   59.49
   1  -1  -2 3429.76   61.09
  -1  -1   2 3408.36   59.39
  -1   1  -2 3388.96   59.89
  -1   1  -2 3545.25   65.69
   1   1   2 3476.35   60.39
  -1  -1   2 3309.37   60.29
  -2   1   2  137.89    2.80
  -2   1   2  131.79    3.60
   2   1  -2  145.99    4.50
  -2   1   2  138.39    3.70
  -2   1   2  131.39    7.10
  -2  -1  -2  136.59    4.00
   2  -1   2  135.29    4.20
   2  -1   2  145.09    4.40
   2   1  -2  131.89    4.00
  -2  -1  -2  144.19    3.80
   2  -1   2  139.79    3.40
  -2   1   2  136.59    2.90
  -2   1   2  144.49    2.90
   2  -1   2  144.59    4.40
   2   1   2  140.69    4.10
   2  -1  -2  140.19    3.40
   2  -1  -2  143.99    4.10
   2   1   2  139.89    3.80
  -2  -1   2  138.89    4.30
   2  -1  -2  136.29    4.20
  -2   1  -2  135.89    4.20
   2  -1  -2  140.89    4.40
   2   1   2  136.69    4.10
  -2   1  -2  139.19    4.00
  -2  -1   2  131.29    3.30
   2   1   2  138.49    3.80
  -2   1  -2  136.49    5.10
  -2  -1   2  140.09    3.70
  -2  -1   2  138.09    2.70
   2   1   2  135.19    3.90
   2   1   2  136.99    3.90
  -3   1   2 1162.18   19.90
  -3   1   2 1139.19   21.10
  -3  -1  -2 1143.89   20.80
  -3   1   2 1112.99   19.70
   3  -1   2 1140.09   21.00
   3  -1   2 1122.69   20.00
   3  -1   2 1124.49   21.50
  -3  -1  -2 1135.09   21.20
  -3   1   2 1128.69   28.90
   3  -1   2 1140.49   22.10
   3   1  -2 1150.58   21.60
   3   1  -2 1118.69   22.20
   3  -1   2 1164.98   22.20
   3   1  -2 1107.69   21.90
   3  -1  -2 1124.99   20.50
  -3   1  -2 1123.09   21.60
   3   1   2 1118.79   21.30
   3   1   2 1147.99   21.60
   3   1   2 1101.79   20.90
  -3  -1   2 1134.39   22.10
  -3  -1   2 1160.48   20.90
  -3  -1   2 1120.09   19.40
   3   1   2 1119.79   21.10
   3  -1  -2 1120.19   20.90
   3  -1  -2 1146.49   22.30
   3  -1  -2 1141.99   22.10
   3   1   2 1144.39   21.70
   3   1   2 1161.98   21.40
   4  -1   2  661.93   15.20
   4  -1   2  627.74   12.20
  -4   1   2  630.94   13.80
  -4   1   2  638.14   21.90
  -4   1   2  648.04   12.60
   4  -1   2  643.24   14.40
   4   1  -2  644.54   14.30
  -4  -1  -2  638.64   13.70
   4  -1   2  629.84   13.70
   4   1  -2  649.54   15.10
  -4  -1  -2  638.14   13.40
   4  -1   2  658.53   15.10
  -4   1   2  642.74   12.60
   4   1  -2  649.14   14.60
  -4   1   2  624.44   11.20
   4   1   2  649.83   14.40
  -4  -1   2  640.44   12.10
   4  -1  -2  669.83   15.20
   4   1   2  643.94   14.20
   4  -1  -2  647.84   13.30
   4   1   2  662.33   14.60
  -4  -1   2  630.64   13.30
   4   1   2  648.84   13.70
  -4   1  -2  652.63   14.30
   4  -1  -2  641.84   13.30
   4   1   2  637.14   14.30
  -4  -1   2  661.43   15.10
  -5   1   2  330.27    9.30
   5  -1   2  344.97   10.50
   5   1  -2  322.57    9.50
   5  -1   2  325.37    9.10
   5  -1   2  325.77   10.40
  -5   1   2  335.47    8.00
  -5  -1  -2  331.27    8.80
  -5  -1  -2  330.47    9.00
  -5   1   2  324.37   16.70
  -5   1   2  326.97    8.00
   5   1  -2  325.87    7.40
   5   1  -2  340.57   10.60
  -5  -1  -2  332.07    9.80
   5  -1   2  326.57    9.60
  -5   1  -2  338.07    9.50
   5  -1  -2  326.87   10.10
   5  -1  -2  333.97    8.80
   5  -1  -2  321.47    8.30
   5   1   2  347.77    9.90
   5   1   2  341.87    9.70
   5   1   2  332.37   10.00
  -5  -1   2  335.27    8.80
  -5  -1   2  321.27   10.00
   5   1   2  326.27    8.80
  -5  -1   2  324.87    7.50
  -6   1   2  984.70   21.40
   6   1  -2  975.50   23.10
  -6  -1  -2  962.20   20.60
  -6   1   2  989.70   34.10
  -6  -1  -2  981.20   22.10
  -6   1   2  954.60   19.60
   6  -1   2  996.10   23.30
  -6   1   2  969.30   19.60
   6  -1   2 1003.20   21.20
   6   1  -2  995.00   22.00
  -6  -1  -2 1028.90   22.20
  -6  -1  -2 1005.50   21.00
   6  -1   2 1022.10   22.40
   6  -1   2  996.60   23.30
   6   1   2  998.60   22.20
   6  -1  -2  996.90   22.90
   6   1   2  975.70   22.10
  -6   1  -2  956.70   21.50
   6  -1  -2  953.30   19.50
  -6  -1   2  974.40   20.60
  -6  -1   2 1020.30   23.00
   6  -1  -2 1002.60   20.80
   6   1   2 1014.90   22.70
   6   1   2  977.00   20.60
  -6  -1   2  950.90   18.80
  -7   1   2   90.19    5.70
  -7  -1  -2  100.29    6.00
   7   1  -2   89.99    6.60
  -7  -1  -2   91.49    4.90
  -7  -1  -2   93.79    5.10
  -7   1   2  101.39   14.00
   7  -1   2   91.39    5.60
   7  -1   2  101.89    6.80
   7  -1   2   94.79    6.30
   7   1  -2  102.59    6.10
   7  -1   2  100.89    6.00
   7  -1  -2   97.19    5.20
  -7  -1   2  101.09    5.20
  -7  -1   2   96.49    6.00
  -7   1  -2   85.59    5.40
   7   1   2   99.59    6.30
   7  -1  -2  103.29    6.80
   7   1   2   92.89    4.90
   7   1   2  103.29    6.40
  -8   1   2   35.00    4.40
  -8  -1  -2   39.40    5.00
  -8  -1  -2   36.20    4.30
  -8   1   2   74.49   13.10
  -8  -1  -2   35.20    3.90
   8  -1   2   35.40    4.80
   8   1  -2   37.90    5.30
   8   1  -2   39.10    4.80
  -8  -1   2   76.09   14.30
  -8   1  -2   39.70    4.40
   8   1   2   37.90    4.70
  -8   1  -2   48.90    4.90
   8  -1  -2   38.00    4.10
  -8  -1   2   49.00    5.50
   8  -1  -2   39.50    5.00
  -8  -1   2   37.00    3.70
   8   1   2   40.20    5.10
  -9  -1  -2   51.79    5.60
   9  -1   2   56.09    6.40
  -9  -1  -2   49.80    6.10
   9   1  -2   44.80    5.30
   9   1  -2   43.30    5.70
   9   1   2   49.50    5.60
  -9  -1   2   48.40    5.50
   9   1   2   49.50    5.80
  -9   1  -2   52.49    5.70
   9  -1  -2   53.99    6.70
 -10   1   2  120.89    9.60
   0  -2   2   87.69    2.70
   0   2   2   88.09    2.80
   0   2   2   86.99    4.90
   0  -2  -2   85.69    2.50
   0   2  -2   90.89    2.80
   0   2  -2   85.19    2.80
   0   2   2   86.79    2.10
   0  -2  -2   88.09    2.10
   0   2   2   88.89    4.40
   0  -2  -2   90.99    2.80
   0   2  -2   84.69    3.70
   0  -2   2   87.79    2.50
   0  -2  -2   87.79    2.80
   0   2  -2   87.39    2.80
   0   2   2   89.79    2.30
   0  -2  -2   82.49    2.80
   1  -2   2 9997.00  166.88
   1   2  -2 9735.93  162.68
   1  -2   2 9728.03  164.28
  -1  -2  -2 9813.62  168.58
   1   2  -2 9463.45  163.48
  -1   2   2 9459.45  162.48
  -1   2   2 9903.81  184.38
   1   2  -2 9312.77  169.18
  -1   2   2 9689.33  165.78
   1  -2   2 9463.35  162.78
   1   2  -2 9801.42  168.48
  -1  -2  -2 9586.64  165.48
  -1  -2  -2 9827.62  167.28
  -1   2   2 9593.94  198.08
  -1   2   2 9687.53  161.68
   1   2  -2 9447.75  182.18
   1  -2   2 9827.52  171.88
   1  -2   2 9717.53  167.58
  -1  -2  -2 9999.00  165.58
  -1  -2   2 9736.73  163.28
   1   2   2 9589.94  179.68
   1   2   2 9655.03  166.58
  -1   2  -2 9673.23  164.18
  -1  -2   2 9724.83  163.78
   1  -2  -2 9463.65  160.88
  -1   2  -2 9937.01  170.38
   1   2   2 9727.63  164.88
   1  -2  -2 9197.58  162.58
   1  -2  -2 9914.71  169.78
   1   2   2 9607.34  170.78
  -1   2  -2 9191.28  162.28
  -1  -2   2 9846.12  167.48
   1  -2  -2 9821.52  166.98
   1  -2  -2 9443.06  165.88
  -1  -2   2 9575.64  169.68
   1  -2  -2 9988.80  168.98
  -1   2  -2 9473.05  174.78
   2   2  -2 1407.36   25.30
  -2   2   2 1376.36   30.70
  -2  -2  -2 1376.56   23.30
   2   2  -2 1377.36   24.70
   2  -2   2 1401.36   25.50
   2  -2   2 1435.46   25.80
   2   2  -2 1332.47   23.40
  -2  -2  -2 1380.06   23.80
  -2  -2  -2 1321.37   24.00
  -2  -2  -2 1388.46   24.90
   2  -2   2 1400.86   25.30
  -2   2   2 1339.37   23.80
  -2   2   2 1402.96   23.40
   2   2  -2 1372.46   25.80
  -2   2   2 1391.66   29.10
  -2   2   2 1390.26   23.70
   2   2  -2 1370.86   23.30
  -2  -2  -2 1410.76   25.50
   2  -2  -2 1364.06   23.20
   2   2   2 1497.25   24.50
  -2  -2   2 1405.36   25.70
  -2  -2   2 1342.97   23.20
   2   2   2 1377.96   24.10
  -2  -2   2 1387.86   23.40
   2  -2  -2 1386.16   25.20
   2   2   2 1387.96   25.30
   2   2   2 1377.26   25.50
  -2   2  -2 1386.76   25.10
  -2   2  -2 1386.96   23.50
   2   2   2 1377.36   24.40
   2  -2  -2 1377.86   25.00
   2  -2  -2 1402.56   23.70
   2   2   2 1395.66   25.30
  -2   2  -2 1341.87   26.20
  -2  -2   2 1393.76   24.80
   2  -2  -2 1383.36   23.30
  -2   2  -2 1445.06   25.40
  -2   2  -2 1374.86   27.50
   2  -2  -2 1321.87   23.80
   2  -2  -2 1379.66   25.50
   3  -2   2 1117.99   21.50
  -3  -2  -2 1133.39   21.10
  -3  -2  -2 1125.49   21.80
  -3   2   2 1073.99   27.80
   3  -2   2 1123.39   22.10
   3   2  -2 1104.69   22.10
  -3   2   2 1121.39   20.10
   3   2  -2 1110.99   21.70
   3  -2   2 1168.78   22.40
  -3   2   2 1087.89   18.90
   3  -2   2 1092.99   19.40
   3   2  -2 1110.79   22.00
  -3  -2  -2 1143.19   20.00
   3   2   2 1102.69   21.60
  -3  -2   2 1095.99   19.30
  -3  -2   2 1153.98   21.10
  -3  -2   2 1125.59   22.30
  -3   2  -2 1085.99   24.80
  -3  -2   2 1051.99   19.20
   3  -2  -2 1141.79   22.30
  -3   2  -2 1097.99   24.40
   3   2   2 1127.59   21.10
   3   2   2 1131.69   21.80
   3   2   2 1085.39   21.20
   3  -2  -2 1097.89   21.10
  -3   2  -2 1109.99   21.40
   3  -2  -2 1143.69   19.80
   3  -2  -2 1077.19   19.50
   3   2   2 1098.69   20.80
   3  -2  -2 1100.09   21.70
  -3   2  -2 1111.59   21.40
  -4   2   2  194.48   11.50
   4  -2   2  196.28    6.50
   4   2  -2  194.68    6.80
   4   2  -2  198.18    7.10
   4  -2   2  206.38    7.10
  -4  -2  -2  203.48    6.20
   4  -2   2  206.78    7.50
  -4   2   2  207.28    5.20
  -4   2   2  201.88    5.80
   4   2  -2  205.98    7.20
  -4  -2  -2  202.58    5.50
  -4  -2  -2  199.28    6.70
   4  -2   2  192.78    4.50
   4  -2  -2  198.88    7.00
   4   2   2  200.88    6.50
   4   2   2  197.68    6.50
   4  -2  -2  199.78    6.10
   4  -2  -2  202.78    7.20
  -4  -2   2  196.98    4.70
  -4  -2   2  198.38    6.20
  -4   2  -2  190.28    9.60
   4  -2  -2  203.28    5.30
  -4   2  -2  186.48    3.90
   4   2   2  204.38    6.50
  -4   2  -2  202.08    6.40
  -4   2  -2  189.78    8.70
   4   2   2  211.78    7.10
  -4  -2   2  212.88    7.40
  -5   2   2  278.07    6.90
  -5  -2  -2  288.67    9.00
  -5  -2  -2  282.17    8.10
  -5   2   2  287.67   15.80
   5  -2   2  282.47    9.70
   5  -2   2  293.87   10.10
   5   2  -2  297.47    9.40
  -5  -2  -2  277.17    7.50
   5   2  -2  269.97    9.40
  -5   2   2  282.47    8.00
  -5   2   2  281.37    7.10
   5  -2   2  286.97    9.10
   5   2  -2  285.47    9.30
   5   2   2  284.07    8.70
  -5  -2   2  281.97    8.20
   5   2   2  286.57    8.90
  -5   2  -2  289.37   12.20
   5  -2  -2  275.57    7.40
   5  -2  -2  280.97    9.70
   5  -2  -2  282.47    8.10
  -5   2  -2  289.87   13.90
   5  -2  -2  291.47    9.30
  -5  -2   2  281.77    9.80
   5   2   2  294.87    8.90
   5   2   2  280.07    9.10
  -5   2  -2  279.17    8.60
  -6   2   2  118.39    4.60
   6   2  -2  131.69    6.90
  -6   2   2  122.89   13.10
  -6   2   2  120.69    4.50
  -6  -2  -2  119.99    4.90
   6  -2   2  127.49    7.40
  -6  -2  -2  128.99    6.60
  -6   2   2  126.59    5.60
   6   2  -2  127.59    6.70
   6  -2   2  128.19    6.50
  -6  -2  -2  135.99    5.80
   6  -2   2  120.79    7.00
   6   2  -2  134.99    6.80
   6   2   2  128.19    6.10
  -6   2  -2  128.39   11.00
   6  -2  -2  122.99    5.20
   6  -2  -2  130.69    5.10
   6  -2  -2  132.79    6.60
  -6   2  -2  123.29    5.70
  -6   2  -2  119.49    8.80
  -6  -2   2  121.89    4.10
   6   2   2  124.29    6.70
   6   2   2  122.19    6.40
  -6  -2   2  129.49    5.80
  -6  -2   2  119.49    6.50
   7  -2   2    4.80    2.90
   7  -2   2   10.40    2.70
  -7  -2  -2    6.90    2.10
   7   2  -2    6.60    2.50
  -7   2   2    4.40    1.90
  -7   2   2    7.80    6.50
  -7  -2  -2    6.60    2.10
   7  -2   2    4.60    2.70
   7   2  -2    7.70    2.80
   7   2   2    5.80    2.50
   7  -2  -2    4.30    2.10
   7  -2  -2    5.10    1.80
   7   2   2    4.50    2.20
   7   2   2    5.50    2.20
  -7  -2   2    4.90    2.10
  -7   2  -2    7.30    4.20
  -7   2  -2    4.00    1.60
  -7  -2   2    3.20    2.80
  -7   2  -2    7.50    2.20
   7  -2  -2    3.40    1.60
  -7   2  -2   13.70    4.50
  -8   2   2   69.69   14.10
  -8   2   2   54.09    9.50
  -8  -2  -2   42.50    4.70
   8   2  -2   38.10    4.70
   8   2  -2   40.40    5.60
   8  -2   2   34.80    4.90
   8  -2   2   44.90    5.80
  -8  -2  -2   51.39    5.70
   8  -2  -2   42.80    5.50
  -8   2  -2   59.69    9.40
  -8   2  -2   40.00    4.40
  -8  -2   2   43.40    4.40
   8   2   2   37.80    5.20
  -8  -2   2   48.40    5.70
   8   2   2   43.00    5.20
  -9  -2  -2   41.50    4.90
  -9   2   2   79.99    9.90
  -9  -2  -2   44.40    5.70
   9   2  -2   43.90    5.70
   9   2  -2   33.10    5.00
  -9  -2   2   48.20    6.20
   9  -2  -2   36.70    5.20
   9   2   2   41.70    5.50
  -9   2  -2   40.40    5.30
   9   2   2   42.30    5.60
   0   3   2  924.21   21.80
   0   3   2  908.71   17.30
   0   3   2  894.31   16.20
   0   3  -2  920.91   19.60
   0  -3  -2  916.81   16.70
   0   3  -2  913.81   17.50
   0   3  -2  927.11   17.10
   0  -3  -2  914.41   16.10
   0  -3   2  908.81   17.00
   0  -3  -2  925.81   17.30
   0  -3   2  814.32   19.30
   0  -3   2  903.81   16.50
   0   3   2  919.61   16.40
   0   3   2  926.91   20.10
   0  -3  -2  939.11   17.20
   0   3   2  949.01   15.50
  -1  -3  -2 1005.10   18.90
  -1   3   2 1053.99   23.10
   1   3  -2  987.20   18.60
  -1  -3  -2 1011.50   18.50
   1  -3   2 1042.30   18.90
   1  -3   2 1005.60   17.50
   1   3  -2 1023.80   18.90
  -1  -3  -2 1031.30   18.10
  -1  -3  -2 1016.80   19.00
   1  -3   2 1014.80   18.60
   1   3  -2  984.80   17.60
   1   3  -2 1023.20   19.80
   1   3  -2  996.60   21.80
  -1   3   2 1026.90   24.50
   1  -3   2  971.40   19.10
   1  -3  -2 1017.20   18.80
  -1  -3   2 1004.60   18.10
   1   3   2  997.50   19.30
  -1   3  -2  989.40   17.50
  -1   3  -2 1001.20   19.00
   1  -3  -2 1029.10   17.70
   1  -3  -2 1007.20   18.70
   1   3   2  993.20   17.20
   1  -3  -2 1005.60   17.30
  -1  -3   2 1035.30   19.00
   1  -3  -2 1014.80   19.30
   1   3   2 1029.00   18.80
  -1   3  -2 1002.40   18.30
  -1   3  -2 1004.20   21.60
   1   3   2 1002.70   21.30
  -1  -3   2 1003.90   19.00
  -1   3  -2  966.50   18.60
  -2   3   2  645.74   17.50
  -2   3   2  644.14   18.80
   2   3  -2  624.54   14.00
   2   3  -2  639.14   12.80
  -2  -3  -2  617.94   11.50
   2  -3   2  644.14   13.50
  -2  -3  -2  630.14   11.80
  -2  -3  -2  616.24   10.90
  -2  -3  -2  628.54   13.00
   2   3  -2  626.54   13.40
  -2   3   2  617.44   11.20
   2   3  -2  619.34   10.80
  -2   3   2  622.54   11.10
  -2  -3  -2  638.74   13.50
   2  -3   2  656.03   13.50
   2  -3   2  639.54   13.80
  -2   3  -2  634.64   13.40
   2   3   2  606.04   11.60
   2  -3  -2  620.24   11.30
  -2   3  -2  648.64   16.50
   2  -3  -2  629.24   13.10
  -2   3  -2  614.54   11.30
   2  -3  -2  632.74   13.50
  -2  -3   2  644.34   13.20
   2  -3  -2  628.54   13.50
  -2   3  -2  644.54   14.10
   2   3   2  618.64   15.30
  -2  -3   2  622.54   13.70
   2  -3  -2  617.34   12.80
   2   3   2  632.04   14.00
  -2   3  -2  629.44   11.50
   2   3   2  645.74   13.50
  -2  -3   2  633.04   11.90
   3  -3   2  204.78    6.00
  -3   3   2  205.98    4.70
   3  -3   2  214.38    6.50
   3  -3   2  209.18    6.90
  -3  -3  -2  216.98    4.70
  -3   3   2  203.28    9.40
  -3  -3  -2  205.88    6.10
  -3   3   2  200.98    4.40
   3   3  -2  218.58    6.80
  -3  -3  -2  203.88    6.60
  -3   3   2  208.88   10.40
   3   3  -2  207.08    7.10
  -3  -3  -2  202.98    4.70
   3  -3   2  205.88    7.00
   3  -3  -2  220.68    6.50
  -3  -3   2  216.48    7.10
   3   3   2  216.18    6.90
   3  -3  -2  201.68    6.30
  -3  -3   2  212.58    5.00
  -3  -3   2  192.28    3.70
  -3   3  -2  210.18    4.10
  -3   3  -2  210.18    8.10
   3   3   2  205.58    6.00
   3  -3  -2  210.08    7.00
   3  -3  -2  216.18    5.40
   3  -3  -2  201.58    6.60
  -3   3  -2  213.98    9.20
  -3   3  -2  206.48    6.50
   3   3   2  205.18    6.70
  -3  -3   2  217.98    6.40
  -4  -3  -2  230.08    5.40
   4  -3   2  227.98    5.00
   4   3  -2  242.38    8.10
  -4  -3  -2  237.68    7.70
   4  -3   2  238.58    8.40
  -4   3   2  211.18   10.70
  -4   3   2  244.78   12.90
  -4  -3  -2  230.88    6.90
  -4   3   2  230.98    5.80
   4  -3   2  232.28    7.30
   4   3  -2  240.68    7.90
   4   3  -2  232.48    8.10
   4  -3   2  245.78    8.30
  -4   3  -2  227.58    7.50
  -4  -3   2  238.78    7.30
  -4  -3   2  234.58    5.60
  -4   3  -2  228.58    7.10
   4  -3  -2  229.48    7.50
   4  -3  -2  231.18    6.10
  -4   3  -2  237.48   10.70
  -4  -3   2  245.88    8.40
   4  -3  -2  231.58    8.20
  -4  -3   2  214.68    4.60
   4   3   2  227.28    7.20
   4   3   2  241.78    7.80
   4   3   2  232.88    7.80
   4  -3  -2  226.78    7.20
  -4   3  -2  228.58   10.20
   4  -3  -2  226.58    5.30
  -5  -3  -2  100.69    3.50
   5  -3   2   93.69    5.40
   5   3  -2  109.09    6.10
  -5   3   2  101.19    9.40
  -5  -3  -2  114.99    5.80
  -5  -3  -2  106.59    4.80
  -5   3   2   99.39    4.00
   5  -3   2  106.59    6.20
   5   3  -2   97.69    5.60
   5   3  -2  108.59    5.70
  -5   3   2  107.09    8.50
  -5   3  -2  100.29    4.80
   5  -3  -2   97.99    5.50
   5  -3  -2   96.19    4.90
  -5   3  -2  103.59    5.50
   5   3   2  107.09    5.10
  -5  -3   2  108.19    5.20
   5  -3  -2  104.99    3.60
   5  -3  -2  100.69    6.00
   5   3   2  101.19    5.70
  -5   3  -2  105.69    8.30
  -5   3  -2  102.19    8.10
  -5  -3   2   96.29    3.40
   5   3   2  118.59    5.90
  -5  -3   2  103.69    6.10
  -6  -3  -2   46.40    3.60
   6   3  -2   51.69    5.20
  -6   3   2   54.49    9.20
  -6   3   2   46.70    3.20
   6   3  -2   52.69    5.00
   6   3  -2   44.80    4.80
   6  -3   2   41.90    4.80
  -6   3   2   54.89    8.70
   6  -3   2   43.40    4.80
  -6  -3  -2   56.09    5.00
  -6  -3   2   50.79    5.00
   6  -3  -2   47.80    3.80
  -6   3  -2   45.30    3.60
   6   3   2   46.20    4.60
   6  -3  -2   47.80    5.00
  -6  -3   2   45.80    4.30
  -6   3  -2   44.70    6.80
   6   3   2   55.29    4.30
   6  -3  -2   45.50    2.80
   6  -3  -2   47.90    4.60
   6   3   2   49.70    4.70
  -6   3  -2   50.19    6.40
   7   3  -2  334.57   12.50
  -7  -3  -2  332.77   11.90
   7  -3   2  330.97   12.80
   7   3  -2  359.66   12.50
  -7   3   2  350.86   21.60
   7  -3   2  360.56   13.60
   7   3  -2  340.87   12.20
  -7  -3  -2  322.97   10.10
  -7   3   2  343.77   18.10
   7  -3  -2  335.17   11.90
  -7   3  -2  324.67   16.20
   7   3   2  354.56   11.90
  -7  -3   2  351.56   12.90
   7   3   2  349.87   12.40
   7   3   2  328.17   11.50
  -7  -3   2  322.47   10.70
  -7   3  -2  307.47   11.10
  -7   3  -2  397.96   19.60
  -7   3  -2  350.76   11.90
  -8  -3  -2   48.40    5.80
   8  -3   2   43.30    5.80
   8   3  -2   50.79    5.50
  -8  -3  -2   42.20    4.80
  -8   3   2   69.39   11.70
   8  -3   2   65.49    7.30
  -8   3   2   66.39   12.30
   8   3  -2   58.59    6.10
  -8   3  -2   52.89    5.70
   8   3   2   52.69    5.60
  -8  -3   2   41.80    4.30
  -8   3  -2   61.49   10.30
   8  -3  -2   43.10    5.30
  -8  -3   2   56.29    6.50
   8   3   2   48.10    6.00
   8   3   2   48.40    5.00
   9   3  -2   13.10    4.30
  -9   3   2   44.30   10.30
  -9  -3  -2   17.00    4.80
  -9  -3  -2   13.70    3.30
   9   3  -2    6.00    3.60
   9   3   2   11.40    3.20
  -9  -3   2   10.40    3.60
   9  -3  -2    6.80    3.00
   9   3   2   13.40    4.40
  -9   3  -2   28.50    7.60
  -9   3  -2    9.10    3.90
   0   4   2   37.50    1.90
   0  -4  -2   37.10    2.10
   0   4  -2   38.20    2.30
   0  -4  -2   39.80    2.60
   0   4  -2   44.40    2.70
   0   4  -2   37.30    3.80
   0  -4  -2   37.50    2.60
   0  -4   2   42.60    2.70
   0  -4  -2   38.30    1.90
   0   4   2   36.30    4.50
   0  -4   2   37.10    2.00
   0   4   2   41.50    4.50
   0   4   2   35.40    1.90
  -1  -4  -2  982.80   19.00
   1  -4   2  952.70   18.50
  -1   4   2  982.10   24.70
  -1   4   2  962.90   16.60
   1  -4   2  980.30   18.60
   1   4  -2  979.30   18.50
   1  -4   2  964.30   17.00
   1   4  -2  949.01   22.30
  -1  -4  -2  972.90   18.60
  -1  -4  -2  979.60   18.90
   1   4  -2  963.90   18.80
   1   4  -2  991.80   20.00
  -1   4   2  977.70   23.50
  -1  -4   2  950.50   18.70
   1  -4  -2  963.40   19.40
   1   4   2  966.40   17.20
  -1   4  -2  978.60   22.30
   1   4   2  955.00   18.50
  -1  -4   2  965.00   18.20
   1  -4  -2 1008.00   18.70
  -1   4  -2  963.00   17.30
   1  -4  -2  989.90   17.70
  -1   4  -2  960.70   19.00
   1  -4  -2  973.50   18.90
  -1   4  -2  960.00   18.50
   1  -4  -2  944.61   16.80
   1   4   2  978.60   22.20
   1  -4  -2  982.30   17.80
  -1  -4   2  984.80   19.00
   2  -4   2  175.08    5.70
  -2  -4  -2  173.88    4.80
  -2  -4  -2  164.88    3.90
   2   4  -2  168.58    3.40
   2  -4   2  167.58    5.70
  -2  -4  -2  163.58    5.30
   2   4  -2  179.28    5.90
  -2  -4  -2  173.58    5.90
   2   4  -2  172.58    5.10
   2   4  -2  177.68    6.40
  -2   4   2  174.78    9.80
  -2  -4  -2  163.08    3.50
   2  -4   2  178.38    6.10
  -2   4   2  181.38    9.40
  -2   4  -2  165.78    6.20
  -2   4  -2  171.48    4.70
  -2  -4   2  173.58    5.90
  -2   4  -2  167.08    3.60
  -2  -4   2  175.58    4.80
   2   4   2  169.48    6.20
  -2  -4   2  177.18    5.70
   2   4   2  163.48    7.50
   2  -4  -2  172.58    5.80
   2  -4  -2  174.48    5.40
  -2   4  -2  175.38    8.80
   2  -4  -2  175.48    5.50
   2   4   2  175.18    5.80
   2   4   2  166.38    3.80
  -2   4  -2  181.48    5.90
   2  -4  -2  179.68    6.00
   2  -4  -2  171.48    4.20
   3   4  -2  804.12   17.80
  -3   4   2  835.52   24.50
  -3   4   2  807.92   23.00
   3   4  -2  821.32   18.70
   3  -4   2  814.42   18.20
   3  -4   2  803.82   17.00
   3  -4   2  804.62   17.40
  -3  -4  -2  809.12   16.80
   3  -4   2  819.72   17.80
  -3   4   2  773.52   13.90
  -3  -4  -2  827.12   17.70
   3   4  -2  822.92   16.50
   3  -4  -2  799.62   15.90
   3  -4  -2  791.52   17.40
   3  -4  -2  819.52   18.00
  -3  -4   2  818.12   15.50
  -3   4  -2  788.52   19.30
  -3  -4   2  843.02   18.30
   3   4   2  831.02   17.80
  -3  -4   2  823.92   17.30
   3   4   2  816.12   18.40
   3  -4  -2  805.22   17.30
   3   4   2  791.62   16.50
  -3   4  -2  829.92   22.10
  -3   4  -2  821.72   17.60
  -3   4  -2  770.62   14.20
   4  -4   2    6.30    2.10
  -4   4   2    2.70    0.80
   4   4  -2    4.60    1.70
   4   4  -2    2.10    1.80
  -4  -4  -2    1.80    1.60
  -4  -4  -2    7.80    2.20
   4  -4   2    3.20    2.00
  -4   4   2    4.60    3.10
   4   4  -2    5.50    1.90
   4  -4   2    2.20    1.20
  -4  -4  -2    2.90    0.60
  -4   4   2    2.40    3.70
   4  -4  -2    3.10    1.10
  -4   4  -2    3.00    2.60
   4   4   2    3.70    1.60
   4  -4  -2    2.50    1.30
   4  -4  -2    2.60    1.90
   4  -4  -2    2.80    1.60
   4   4   2    3.10    1.50
  -4   4  -2    3.70    0.50
  -4  -4   2    2.50    2.00
   4   4   2    2.70    1.40
  -4   4  -2    5.50    3.20
  -4  -4   2    3.60    1.00
  -4   4  -2    2.20    1.50
   5  -4   2  379.36   11.20
  -5   4   2  401.36   17.10
   5   4  -2  405.76   12.80
   5  -4   2  384.96   12.50
  -5  -4  -2  385.76   10.50
   5   4  -2  392.36   11.90
  -5  -4  -2  389.06   11.90
  -5   4   2  389.86   18.40
  -5   4   2  380.56    8.50
   5  -4   2  396.96   12.40
   5   4  -2  400.56   12.20
  -5  -4   2  388.36   12.60
   5  -4  -2  383.16    9.60
  -5  -4   2  386.76    8.90
   5  -4  -2  383.36   12.40
   5   4   2  402.26   11.40
  -5   4  -2  387.06   15.70
  -5  -4   2  394.66   11.30
   5  -4  -2  398.16   11.30
  -5   4  -2  399.76   11.80
   5  -4  -2  408.06   11.70
   5   4   2  394.56   12.10
   5   4   2  397.46   12.10
  -5   4  -2  383.46   14.90
  -6   4   2  128.19   13.10
  -6  -4  -2  124.79    5.70
   6   4  -2  125.29    7.20
  -6  -4  -2  116.19    6.40
   6   4  -2  115.39    7.20
   6  -4   2  132.09    7.50
  -6   4   2  142.79   12.30
   6   4  -2  126.29    7.10
   6  -4   2  132.09    7.90
  -6  -4   2  126.39    7.60
  -6  -4   2  123.79    6.40
   6  -4  -2  117.59    5.70
   6   4   2  120.59    6.70
  -6   4  -2  117.69    9.80
  -6   4  -2  122.49    6.50
   6  -4  -2  123.09    7.70
   6   4   2  129.49    6.60
   6  -4  -2  127.99    6.80
   6   4   2  117.59    6.60
  -6   4  -2  130.39   10.00
   7   4  -2   14.80    3.90
   7  -4   2   13.20    3.90
   7   4  -2   17.70    4.00
  -7  -4  -2   15.10    2.70
  -7  -4  -2   13.50    3.00
   7   4  -2   16.10    3.50
   7  -4   2   16.40    3.50
  -7   4   2   18.30    7.30
  -7   4   2   23.40    7.80
   7  -4  -2   16.40    2.90
   7   4   2   16.90    3.60
  -7   4  -2   12.60    3.30
  -7   4  -2   21.50    7.10
  -7  -4   2   19.20    4.40
   7  -4  -2    6.00    3.40
  -7  -4   2   19.00    3.50
   7   4   2   19.90    3.70
   7   4   2   15.10    3.90
   7  -4  -2    9.90    3.40
  -8  -4  -2   27.90    5.30
   8  -4   2   12.20    4.50
  -8  -4  -2   20.90    3.80
  -8   4   2   19.40    8.00
   8   4  -2   17.80    4.30
   8   4  -2   17.00    4.40
   8  -4   2   11.90    4.10
  -8   4   2   24.70    9.50
   8   4  -2   17.20    3.60
  -8  -4   2   20.40    3.70
  -8  -4   2   15.10    4.30
  -8   4  -2   10.50    3.20
  -8   4  -2   15.90    7.70
   8   4   2   18.40    4.50
   8   4   2   11.20    3.40
   8   4   2   21.30    4.00
   9   4  -2   66.09    7.60
  -9   4   2  101.29   15.50
   9   4  -2   79.69    7.90
   9  -4   2   67.59    7.60
  -9  -4  -2   94.09    9.40
  -9  -4  -2   73.59    7.10
  -9  -4   2   78.19    7.90
  -9  -4   2   62.59    6.10
  -9   4  -2   72.59    6.90
   9   4   2  107.69    9.20
  -9   4  -2   83.59   13.30
   0  -5  -2    7.30    1.50
   0  -5  -2    5.70    1.60
   0  -5   2   10.30    1.80
   0  -5   2    8.30    1.20
   0   5  -2    9.70    1.80
   0   5  -2    9.40    1.60
   0   5  -2    6.80    2.40
   0   5   2    6.30    3.10
   0  -5  -2    4.90    1.60
   0   5   2    4.00    2.50
   0   5   2    7.90    1.40
   0   5  -2    8.70    1.50
   0  -5  -2    6.30    1.10
   0   5   2    7.00    1.10
  -1   5   2   31.30    2.60
  -1   5   2   33.40    4.90
   1  -5   2   31.70    1.60
  -1  -5  -2   30.30    2.40
  -1  -5  -2   33.10    2.40
   1   5  -2   34.10    2.60
  -1  -5  -2   36.50    2.40
  -1   5   2   41.50    6.00
   1  -5   2   28.30    2.30
   1   5  -2   35.90    3.20
   1  -5   2   33.40    2.70
   1   5  -2   35.60    2.70
  -1   5   2   32.80    1.50
   1   5  -2   34.60    3.90
  -1   5  -2   32.20    4.00
  -1  -5   2   37.00    3.10
  -1  -5   2   31.30    2.50
   1   5   2   34.30    4.60
   1  -5  -2   39.10    2.70
   1   5   2   31.30    1.90
  -1  -5   2   32.00    2.30
  -1   5  -2   31.70    3.00
   1  -5  -2   34.80    2.20
   1  -5  -2   33.70    3.10
   1   5   2   34.50    2.50
   1  -5  -2   30.70    1.80
   1  -5  -2   33.40    1.50
   1  -5  -2   32.80    2.40
  -1   5  -2   34.50    2.40
  -2  -5  -2  813.22   16.90
   2   5  -2  765.72   13.90
   2  -5   2  788.32   17.40
   2  -5   2  824.72   17.20
   2   5  -2  775.92   21.40
  -2   5   2  792.32   23.20
   2   5  -2  797.62   16.20
   2  -5   2  810.02   16.40
   2   5  -2  810.22   17.40
  -2   5   2  805.02   23.10
   2   5  -2  782.12   18.30
  -2  -5  -2  803.82   17.30
   2  -5   2  800.02   17.70
  -2  -5  -2  806.22   16.10
  -2  -5   2  804.72   17.20
   2   5   2  823.12   18.60
  -2   5  -2  784.72   17.30
   2  -5  -2  808.32   15.20
   2  -5  -2  804.02   16.30
   2  -5  -2  799.12   17.20
   2   5   2  817.12   17.20
  -2   5  -2  810.82   16.10
  -2   5  -2  774.22   17.80
  -2  -5   2  799.02   17.30
   2  -5  -2  813.92   17.10
  -2   5  -2  790.82   21.80
   2   5   2  783.32   14.60
   2  -5  -2  783.62   17.50
   2   5   2  810.42   21.00
  -2  -5   2  791.52   16.00
   3  -5   2  132.69    5.70
   3  -5   2  135.39    5.70
  -3   5   2  122.49   11.00
  -3  -5  -2  131.99    5.90
   3   5  -2  137.49    5.10
   3  -5   2  127.99    6.00
  -3   5   2  136.29    9.20
   3   5  -2  124.49    5.60
  -3  -5  -2  137.99    5.40
   3   5  -2  134.99    6.40
  -3   5  -2  137.19    5.90
  -3   5  -2  138.69    4.20
   3  -5  -2  136.39    6.00
  -3  -5   2  130.29    5.50
   3  -5  -2  129.99    5.90
  -3  -5   2  136.19    6.30
   3   5   2  125.69    6.40
   3   5   2  134.89    8.00
  -3   5  -2  136.29    8.70
   3  -5  -2  131.49    5.50
  -3   5  -2  120.89    6.60
   3  -5  -2  137.39    4.90
  -3  -5   2  132.79    4.50
   3   5   2  130.79    5.70
   4   5  -2   24.70    3.20
   4  -5   2   27.60    3.70
  -4   5   2   27.70    6.60
   4  -5   2   18.50    3.10
  -4  -5  -2   25.00    3.40
   4  -5   2   21.90    2.90
  -4  -5  -2   27.00    3.00
  -4   5   2   19.50    5.10
   4   5  -2   22.00    3.70
   4  -5  -2   27.00    3.30
   4  -5  -2   32.40    3.70
  -4   5  -2   31.40    5.80
  -4  -5   2   24.70    2.20
  -4  -5   2   17.80    2.90
   4   5   2   29.50    3.70
   4   5   2   27.10    3.80
  -4  -5   2   26.70    3.30
   4  -5  -2   25.90    3.50
  -4   5  -2   17.90    3.90
  -4   5  -2   24.50    3.40
   4  -5  -2   28.10    2.40
   4   5   2   26.60    2.90
   5  -5   2    9.60    2.20
  -5   5   2    9.70    5.20
  -5   5   2    9.40    5.60
   5   5  -2    4.80    2.30
   5  -5   2    7.00    2.30
   5  -5   2    7.30    2.60
  -5  -5  -2    6.80    1.80
  -5  -5  -2   12.40    2.90
   5   5  -2   10.40    2.40
   5   5  -2   11.90    2.70
   5  -5  -2    3.20    2.60
   5   5   2    8.70    2.70
  -5  -5   2    6.80    1.50
  -5   5  -2    8.80    4.30
  -5   5  -2    9.10    3.00
   5  -5  -2    8.30    2.60
  -5  -5   2    4.60    2.40
   5   5   2    6.90    2.30
   5  -5  -2    8.50    1.60
   5   5   2   11.90    2.50
  -5   5  -2    6.70    3.80
  -5  -5   2    6.90    2.50
   6   5  -2    6.60    3.00
  -6  -5  -2    6.90    2.80
   6  -5   2   -0.30    2.40
   6   5  -2    9.50    3.20
  -6  -5  -2    3.70    2.00
   6   5  -2    3.90    2.30
   6  -5   2    7.20    3.10
  -6   5   2    4.80    4.10
  -6   5   2    4.20    4.40
   6   5   2    6.20    3.10
   6   5   2    3.20    2.60
  -6  -5   2    5.80    2.00
   6  -5  -2    4.50    2.20
   6  -5  -2    3.90    2.30
  -6   5  -2    0.70    1.80
  -6  -5   2    4.90    2.60
   6   5   2    5.80    2.40
  -6   5  -2    5.10    5.50
   7  -5   2   45.10    5.40
  -7  -5  -2   51.99    5.70
  -7  -5  -2   48.40    6.20
  -7  -5  -2   38.90    3.90
   7   5  -2   39.40    5.50
  -7   5   2   68.79   11.70
   7   5  -2   55.39    5.80
   7  -5   2   43.50    6.10
   7   5  -2   52.99    6.50
  -7   5   2   56.39   11.20
   7   5   2   50.69    5.70
   7  -5  -2   43.90    4.60
  -7  -5   2   42.00    5.60
   7   5   2   48.80    4.80
  -7   5  -2   39.60    4.90
   7  -5  -2   49.20    6.30
  -7  -5   2   48.40    5.10
   7   5   2   42.90    5.30
  -7   5  -2   50.59    8.80
  -8  -5  -2   82.69    7.40
  -8   5   2  103.29   15.90
   8   5  -2   94.29    8.00
   8   5  -2  100.19    7.50
   8  -5   2  103.29    9.40
  -8  -5  -2   96.69    8.10
   8  -5   2   75.79    7.80
   8   5  -2   91.19    8.30
  -8   5   2  130.29   16.40
   8   5   2   98.39    6.60
  -8   5  -2   95.59    7.90
   8   5   2   79.99    6.70
  -8   5  -2  101.09   12.70
   8   5   2  106.59    7.70
  -8  -5   2   84.39    8.00
  -8  -5   2   96.19    6.40
  -9  -5  -2   22.00    5.00
  -9  -5  -2   12.20    4.30
   9  -5   2   10.60    3.80
   9   5  -2   15.40    4.90
   9   5  -2   15.70    5.00
  -9   5   2   24.50   10.70
  -9  -5   2    9.40    2.90
  -9   5  -2    7.80    4.30
   9   5   2    5.00    3.60
   9   5   2    7.90    4.80
  -9   5  -2   17.50    8.70
  -9  -5   2   19.40    5.20
   0   6  -2   72.09    3.80
   0  -6   2   77.79    3.20
   0   6  -2   72.39    4.40
   0  -6   2   69.89    3.00
   0   6   2   70.99    3.10
   0   6  -2   71.99    3.60
   0  -6  -2   72.59    3.40
   0  -6  -2   80.29    4.30
   0  -6  -2   71.49    4.20
   0  -6   2   73.89    3.90
   0   6   2   73.49    6.60
   0   6   2   76.29    3.60
   0  -6  -2   74.59    3.60
   0   6  -2   78.79    6.50
   0   6   2   76.89    6.40
  -1   6   2  769.82   22.90
  -1   6   2  772.52   16.50
  -1  -6  -2  767.82   15.10
  -1  -6  -2  793.92   16.90
  -1   6   2  753.32   14.30
   1  -6   2  789.12   17.50
   1   6  -2  769.92   16.80
  -1  -6  -2  780.72   17.00
   1   6  -2  752.72   21.50
   1   6  -2  776.62   18.20
  -1  -6  -2  791.92   16.90
   1   6  -2  767.02   16.30
   1  -6   2  775.92   16.20
  -1   6   2  795.02   22.80
   1  -6   2  771.12   16.40
   1  -6  -2  762.32   16.30
   1  -6  -2  767.72   17.40
   1   6   2  758.32   16.20
  -1  -6   2  772.32   16.50
  -1   6  -2  767.12   17.00
  -1   6  -2  780.62   21.90
  -1   6  -2  793.62   17.10
   1  -6  -2  774.92   17.10
   1   6   2  783.02   18.60
   1  -6  -2  783.32   15.80
  -1  -6   2  743.03   16.20
  -1  -6   2  789.12   17.00
   1   6   2  779.72   21.60
   1   6   2  752.12   15.10
   2  -6   2  534.65   12.20
  -2  -6  -2  528.15   13.10
   2   6  -2  495.85   17.00
   2   6  -2  518.25   14.30
   2   6  -2  475.35    9.60
  -2  -6  -2  536.45   12.80
  -2   6   2  513.05   19.00
  -2   6   2  525.25   12.90
   2   6  -2  502.35   13.00
   2  -6   2  519.35   13.60
  -2  -6  -2  509.35   11.90
   2  -6   2  521.95   12.70
   2   6  -2  532.85   12.10
  -2   6   2  498.05   18.50
   2  -6  -2  512.25   12.90
  -2   6  -2  516.65   12.10
  -2  -6   2  515.65   12.80
   2   6   2  503.45   14.20
  -2   6  -2  528.75   13.20
  -2  -6   2  514.55   12.00
  -2  -6   2  499.75   12.90
  -2   6  -2  527.25   17.40
   2  -6  -2  516.95   13.50
   2  -6  -2  532.25   13.10
  -2   6  -2  502.25   14.00
   2  -6  -2  521.05   11.10
   2   6   2  494.05   16.60
   2   6   2  502.85   12.70
   2  -6  -2  514.75   11.80
   3  -6   2  122.09    5.60
  -3   6   2  112.59    5.60
  -3  -6  -2  121.19    5.20
   3   6  -2  121.19    6.10
  -3   6   2  114.29   10.40
   3  -6   2  108.69    5.40
  -3   6   2  114.49   10.80
   3   6  -2  115.09    4.70
  -3  -6  -2  119.59    6.00
   3   6  -2  108.29    6.40
   3  -6   2  117.89    6.00
  -3  -6   2  117.29    4.80
  -3   6  -2  117.19    5.70
  -3   6  -2  110.39    4.30
  -3   6  -2  113.59    6.40
  -3  -6   2  120.69    6.10
   3   6   2  115.59    3.60
   3  -6  -2  116.89    6.00
   3  -6  -2  116.59    5.90
   3  -6  -2  113.69    5.20
   3   6   2  106.59    8.00
  -3   6  -2  113.59    8.80
  -3  -6   2  117.59    5.60
   3   6   2  112.59    6.30
   3   6   2  113.29    5.80
   3  -6  -2  117.39    5.10
   4   6  -2  406.16   13.40
  -4  -6  -2  408.46   11.20
  -4   6   2  401.16   19.40
   4   6  -2  410.46   12.70
   4  -6   2  400.06   12.90
  -4  -6  -2  407.46   12.40
  -4   6   2  404.76   17.90
   4  -6   2  383.36   11.70
   4  -6   2  399.96   12.30
   4   6  -2  394.36   10.40
   4  -6  -2  418.16   12.40
  -4  -6   2  406.76   12.70
  -4   6  -2  380.66   14.00
   4   6   2  406.46   11.20
  -4   6  -2  393.96   12.30
   4  -6  -2  398.36   10.60
  -4  -6   2  399.16   11.70
  -4   6  -2  410.66   17.60
   4  -6  -2  421.76   13.00
   4   6   2  393.06   12.10
   4   6   2  417.66   13.50
  -5   6   2   18.30    5.80
   5   6  -2   14.30    3.50
   5  -6   2   22.20    3.50
  -5   6   2   16.30    6.50
  -5  -6  -2   11.60    2.30
   5   6  -2   24.20    3.70
   5   6  -2   14.00    3.80
   5  -6   2   18.70    3.90
  -5  -6  -2   21.30    3.30
   5   6   2   15.80    3.30
   5  -6  -2   14.00    3.00
  -5   6  -2   18.20    3.20
  -5  -6   2   19.40    2.30
   5  -6  -2   18.60    3.50
  -5  -6   2   25.50    4.00
   5   6   2   17.60    2.90
  -5  -6   2   21.60    3.60
   5   6   2   14.50    3.30
  -5   6  -2   18.30    5.60
   6   6  -2   12.00    3.70
   6   6  -2   10.90    3.00
   6  -6   2   14.90    3.50
  -6   6   2    9.90    6.70
  -6  -6  -2   10.40    2.70
  -6   6   2   13.70    5.90
   6  -6   2   16.80    3.80
  -6  -6  -2   15.20    3.10
   6   6  -2    6.40    3.30
   6  -6  -2   11.60    2.70
  -6   6  -2   12.00    3.70
   6   6   2   19.80    3.70
  -6  -6   2   12.20    2.80
   6   6   2    9.80    2.70
  -6  -6   2   10.00    3.70
   6   6   2   13.90    3.70
   6  -6  -2   13.20    3.90
  -6   6  -2   11.40    5.60
   7   6  -2    4.90    3.40
  -7   6   2    7.40    7.10
  -7   6   2    4.50    7.30
   7   6  -2    3.90    3.20
  -7  -6  -2    4.80    3.30
   7  -6   2    2.10    3.40
   7  -6   2    4.50    2.50
  -7  -6  -2    4.20    4.00
   7   6  -2    2.40    3.10
  -7  -6   2    2.80    2.10
  -7   6  -2    2.20    5.10
   7  -6  -2    4.50    3.40
   7  -6  -2    3.40    1.90
  -7   6  -2    4.20    3.50
  -7  -6   2   -0.10    3.30
   7   6   2   -0.50    2.70
   7   6   2    5.90    2.70
   7   6   2   -0.70    3.10
  -8  -6  -2   80.49    7.60
  -8   6   2   70.29    7.50
   8  -6   2   70.79    8.40
   8  -6   2   67.19    7.60
  -8  -6  -2   86.39    8.60
   8   6  -2   75.39    7.70
   8   6  -2   62.99    6.80
   8   6  -2   79.19    8.20
  -8   6   2   82.59   14.00
  -8   6  -2   62.69   10.70
  -8  -6   2   97.19    9.20
   8   6   2   80.89    8.00
  -8  -6   2   77.39    7.10
   8   6   2   85.29    7.10
  -8   6  -2   76.29    7.30
   9   6  -2    3.00    3.40
   9   6  -2    4.60    4.10
   9   6  -2    0.40    3.90
   9   6   2   -1.70    4.20
   0  -7  -2  171.98    6.80
   0   7  -2  160.18    7.00
   0   7   2  161.18    9.60
   0   7   2  152.38    7.20
   0   7   2  160.08    5.80
   0   7   2  154.88    5.30
   0  -7   2  158.28    5.10
   0   7  -2  160.58    9.70
   0  -7  -2  143.29    5.30
   0  -7  -2  154.68    5.80
   0   7  -2  158.38    5.90
   0  -7   2  164.38    5.30
   0   7  -2  159.08    6.10
   0  -7   2  157.38    6.20
   0  -7  -2  170.88    6.80
   1   7  -2   34.90    5.40
   1   7  -2   30.50    3.40
  -1  -7  -2   30.50    3.10
  -1   7   2   25.00    1.80
   1  -7   2   31.90    3.40
  -1   7   2   28.60    3.20
  -1   7   2   28.50    5.20
   1   7  -2   30.00    4.00
   1  -7   2   35.30    3.80
   1  -7   2   24.90    1.70
  -1   7   2   29.10    6.10
   1   7  -2   31.50    3.20
   1  -7   2   27.70    2.80
  -1  -7  -2   29.00    2.30
  -1  -7  -2   30.00    3.20
  -1  -7  -2   33.80    3.50
   1   7   2   31.20    5.70
   1  -7  -2   25.30    2.80
   1   7   2   28.90    2.50
  -1   7  -2   22.70    3.40
   1   7   2   31.00    3.80
   1   7   2   37.00    3.30
  -1   7  -2   28.50    3.30
  -1  -7   2   33.40    3.10
  -1   7  -2   30.90    5.30
   1  -7  -2   29.90    2.80
   1  -7  -2   40.20    4.00
  -1   7  -2   28.10    2.60
  -1  -7   2   28.70    3.10
  -1  -7   2   32.10    3.40
   1  -7  -2   30.30    3.60
   2   7  -2   44.00    4.20
   2   7  -2   50.99    7.10
   2  -7   2   46.40    4.50
  -2  -7  -2   44.70    3.50
   2  -7   2   42.70    3.30
   2   7  -2   47.40    4.30
   2   7  -2   50.19    3.60
  -2   7   2   40.20    6.10
   2  -7   2   50.19    3.70
   2  -7   2   42.90    3.70
  -2  -7  -2   41.50    3.80
  -2  -7  -2   46.00    4.10
  -2   7   2   51.69    3.80
  -2   7   2   40.20    7.50
   2   7   2   43.30    3.90
  -2   7  -2   46.20    4.10
   2  -7  -2   46.20    3.90
  -2  -7   2   49.00    4.30
  -2  -7   2   46.80    3.80
   2   7   2   40.10    5.70
   2  -7  -2   43.20    3.00
   2   7   2   44.00    2.50
   2   7   2   52.39    5.20
  -2   7  -2   50.29    6.20
  -2   7  -2   38.70    3.40
   2  -7  -2   40.40    4.20
   2  -7  -2   53.49    4.70
  -2  -7   2   45.10    3.20
  -3   7   2   62.59    8.70
   3   7  -2   67.39    4.80
   3  -7   2   67.79    5.50
  -3  -7  -2   73.49    4.90
   3   7  -2   73.59    4.00
   3  -7   2   72.99    4.90
  -3  -7  -2   76.59    4.90
   3   7  -2   76.09    6.00
  -3   7   2   81.79   10.30
  -3   7   2   73.29    4.90
   3   7   2   76.79    5.30
   3  -7  -2   73.69    4.50
   3  -7  -2   73.79    3.50
   3  -7  -2   78.59    5.50
  -3   7  -2   75.39    5.10
  -3  -7   2   74.99    4.90
  -3   7  -2   74.59    4.00
   3  -7  -2   82.19    5.40
   3   7   2   76.19    5.70
  -3  -7   2   75.99    4.30
  -3   7  -2   76.99    7.90
   3   7   2   79.19    7.30
  -3  -7   2   78.59    5.30
   4   7  -2   77.79    6.00
  -4  -7  -2   81.59    5.40
   4  -7   2   82.49    5.90
   4  -7   2   73.29    5.10
  -4   7   2   75.99   10.40
  -4   7   2   87.19   10.00
  -4  -7  -2   76.19    5.00
   4   7  -2   74.19    6.50
  -4   7   2   78.49    5.90
   4   7  -2   76.59    4.40
  -4   7  -2   86.69    6.20
   4  -7  -2   86.89    5.60
   4  -7  -2   70.29    5.30
   4   7   2   76.19    4.80
  -4   7  -2   80.39    9.00
  -4  -7   2   80.89    5.30
   4   7   2   76.89    5.90
   4   7   2   80.39    5.90
  -4  -7   2   74.39    5.40
  -4  -7   2   80.39    4.30
   4  -7  -2   78.89    4.70
   5   7  -2   19.70    4.40
  -5  -7  -2   21.10    3.20
  -5   7   2   14.10    6.50
   5  -7   2   14.50    3.60
  -5  -7  -2   23.80    4.20
  -5   7   2   14.50    3.20
   5   7  -2   22.20    3.60
  -5   7   2   23.50    8.50
   5   7  -2   22.10    4.10
   5  -7   2   23.60    4.20
   5   7   2   23.70    4.10
   5  -7  -2   19.20    3.30
  -5  -7   2   22.80    3.70
   5   7   2   20.60    3.00
   5   7   2   14.90    3.50
  -5   7  -2   18.20    3.60
   5  -7  -2   19.60    4.00
  -5   7  -2   21.50    6.30
  -5  -7   2   19.80    3.30
   6  -7   2    2.60    3.40
   6  -7   2    2.30    2.90
  -6  -7  -2    7.40    2.00
   6   7  -2    3.60    2.40
   6   7  -2    7.90    3.10
  -6  -7  -2    7.10    3.20
   6   7  -2   10.10    3.20
  -6   7   2    5.30    3.40
  -6  -7  -2   13.00    3.50
  -6   7   2    6.20    6.10
  -6   7   2    4.00    6.30
   6   7   2    5.30    2.60
   6  -7  -2    9.00    3.60
   6   7   2    6.00    2.60
  -6   7  -2    4.80    7.40
   6  -7  -2    4.50    2.80
  -6  -7   2    9.00    3.80
  -6  -7   2   10.90    3.30
   6   7   2    1.70    2.90
  -6   7  -2    8.30    3.50
   7  -7   2   28.90    5.70
  -7   7   2   33.60    5.10
  -7   7   2   47.60   11.80
   7   7  -2   34.80    6.00
  -7  -7  -2   31.50    6.00
   7  -7   2   28.50    5.20
   7   7  -2   35.60    5.00
   7   7  -2   35.10    5.80
  -7  -7  -2   30.60    5.00
  -7  -7   2   31.80    4.90
  -7  -7   2   39.60    5.50
   7  -7  -2   28.50    4.80
  -7   7  -2   32.40    5.50
   7   7   2   37.20    5.30
   7  -7  -2   28.00    4.50
  -7   7  -2   40.20    8.90
   7   7   2   32.60    5.50
  -8   7   2   51.69   13.40
   8  -7   2   26.20    5.50
   8   7  -2   26.70    5.30
   8   7  -2   35.70    6.00
  -8  -7  -2   36.70    6.10
   8   7  -2   26.00    5.50
   8  -7   2   24.50    5.90
  -8  -7  -2   31.20    5.30
  -8   7   2   31.80    6.00
  -8  -7   2   53.49    7.00
  -8  -7   2   39.50    5.20
   8  -7  -2   38.30    6.80
   8   7   2   29.10    5.70
   8   7   2   37.50    6.20
  -8   7  -2   26.60    5.90
   8  -7  -2   28.50    5.90
  -8   7  -2   17.80    9.90
   0   8  -2   36.90    6.40
   0   8   2   34.60    2.80
   0  -8  -2   32.70    3.00
   0   8  -2   35.10    4.30
   0  -8   2   33.00    2.50
   0  -8   2   39.40    4.00
   0   8   2   33.40    4.50
   0   8  -2   25.90    3.10
   0  -8  -2   29.40    2.50
   0  -8  -2   36.70    3.30
   0   8   2   37.10    6.70
   0  -8  -2   36.60    3.80
   0   8  -2   31.70    3.20
   0  -8   2   35.20    2.60
   0   8   2   38.20    3.50
   0  -8  -2   36.70    4.20
  -1  -8  -2    2.10    2.10
   1  -8   2    0.00    1.50
  -1  -8  -2    1.00    2.00
  -1   8   2    1.00    2.00
  -1   8   2    1.50    2.20
   1  -8   2   -0.50    1.40
   1   8  -2    0.70    1.80
  -1  -8  -2    3.90    2.00
  -1   8   2    4.50    4.60
  -1  -8  -2   -0.90    1.30
   1   8  -2   -1.60    3.00
  -1   8   2    2.10    3.00
  -1  -8  -2   -1.00    1.20
   1  -8   2    0.60    1.10
   1   8  -2    2.30    1.90
   1   8  -2    1.50    1.70
   1   8   2   -1.60    2.10
   1   8   2    2.20    3.60
   1  -8  -2    1.90    2.10
  -1  -8   2    0.00    1.30
  -1   8  -2   -2.70    3.20
  -1   8  -2   -1.10    1.40
   1  -8  -2   -1.50    1.20
   1   8   2   -0.80    1.40
   1  -8  -2    0.30    1.40
  -1   8  -2    0.40    1.80
  -1   8  -2    0.20    1.60
  -1  -8   2   -0.30    1.50
   1  -8  -2    1.80    1.30
  -1  -8   2    0.70    2.00
   1   8   2    0.30    1.20
  -2   8   2   17.80    4.70
   2  -8   2   22.60    3.70
  -2   8   2   20.50    3.00
   2   8  -2   19.30    3.20
   2   8  -2   22.30    5.40
   2   8  -2   24.80    3.00
   2  -8   2   19.30    3.10
  -2  -8  -2   20.10    3.00
  -2  -8  -2   20.60    3.50
   2   8  -2   19.50    3.80
   2  -8   2   21.20    3.00
  -2   8   2   22.50    5.90
  -2  -8   2   26.60    3.10
   2   8   2   28.40    5.40
   2   8   2   19.00    3.60
  -2   8  -2   20.70    3.00
   2   8   2   21.80    2.20
   2  -8  -2   17.50    3.00
   2  -8  -2   20.80    2.60
  -2   8  -2   25.60    3.80
  -2  -8   2   23.40    3.20
   2  -8  -2   21.50    3.30
   2   8   2   18.10    2.70
  -2  -8   2   21.10    3.40
  -2   8  -2   17.40    4.70
  -3   8   2    8.00    4.70
  -3   8   2    7.10    2.90
  -3   8   2    5.00    3.70
   3  -8   2    7.40    2.30
  -3  -8  -2    6.60    2.70
   3   8  -2    6.60    3.00
   3  -8   2   10.40    2.60
   3   8  -2   10.10    2.80
   3   8  -2    7.70    2.00
  -3  -8  -2    5.80    2.00
   3   8   2    4.80    2.50
   3  -8  -2    6.30    2.50
  -3   8  -2    9.80    4.40
   3  -8  -2    7.90    2.80
  -3  -8   2    6.40    2.10
   3  -8  -2    6.80    1.70
   3   8   2    5.90    3.10
  -3  -8   2    7.50    2.60
  -3  -8   2    3.90    2.70
   3   8   2   10.00    4.70
  -3   8  -2    8.00    2.60
  -4  -8  -2   59.79    5.70
  -4  -8  -2   57.89    5.00
   4  -8   2   57.49    6.00
   4   8  -2   66.09    6.90
  -4  -8  -2   66.49    5.90
  -4   8   2   58.19    9.50
  -4   8   2   56.49    8.20
   4   8  -2   58.89    3.90
   4  -8   2   54.09    5.20
  -4   8   2   62.79    5.50
   4   8  -2   60.69    6.00
  -4  -8   2   55.99    4.10
   4   8   2   58.39    5.60
  -4  -8   2   66.39    6.10
   4  -8  -2   54.89    5.30
   4   8   2   52.09    6.20
  -4   8  -2   59.39    5.70
  -4  -8   2   61.59    5.40
   4  -8  -2   51.79    5.20
  -4   8  -2   47.90    8.90
   4   8   2   59.49    4.40
   5   8  -2   28.70    4.40
  -5  -8  -2   26.80    4.10
   5  -8   2   38.20    5.70
   5   8  -2   34.10    5.30
  -5   8   2   40.20    9.10
   5  -8   2   33.70    4.70
  -5  -8  -2   41.80    5.40
   5   8  -2   35.10    5.70
  -5   8   2   38.70    5.20
  -5  -8  -2   29.00    3.80
   5   8   2   31.40    4.80
  -5   8  -2   31.30    7.40
  -5   8  -2   36.10    4.70
   5  -8  -2   32.40    5.00
  -5  -8   2   39.70    5.40
   5  -8  -2   29.90    4.20
  -5  -8   2   32.60    4.20
   5   8   2   40.10    4.90
  -6  -8  -2    2.00    2.30
  -6  -8  -2    3.00    3.20
   6   8  -2    5.80    3.00
  -6  -8  -2    7.80    3.50
   6  -8   2    2.10    2.20
  -6   8   2    4.50    2.70
   6  -8   2    3.40    3.40
   6   8  -2    3.40    3.20
   6   8  -2    3.90    3.50
  -6   8   2   -0.70    5.60
   6   8   2   -3.20    3.20
  -6  -8   2    6.70    3.40
  -6  -8   2    9.10    3.90
  -6   8  -2    4.30    3.70
   6   8   2    4.50    2.90
   6  -8  -2    7.70    3.70
   6  -8  -2    7.70    2.70
  -6   8  -2   11.40    7.60
  -7   8   2   37.10    5.40
   7   8  -2   42.40    6.20
   7   8  -2   37.50    5.80
   7   8  -2   34.70    5.80
   7  -8   2   29.40    5.40
  -7   8   2   35.00   11.70
  -7  -8  -2   31.20    4.80
  -7  -8  -2   43.00    6.70
   7  -8   2   34.40    6.40
  -7   8  -2   29.70   10.00
  -7  -8   2   31.40    5.30
  -7  -8   2   50.79    6.80
   7   8   2   41.60    5.90
   7   8   2   32.70    5.50
   7  -8  -2   44.70    6.00
  -7   8  -2   35.80    5.30
   7  -8  -2   47.70    5.90
   0   9  -2   62.09    5.60
   0   9  -2   71.09    5.10
   0   9  -2   72.99    8.30
   0   9   2   67.69    6.10
   0  -9   2   60.99    4.70
   0  -9  -2   68.69    4.40
   0  -9  -2   67.29    5.40
   0   9   2   68.79    4.50
   0   9   2   72.09    7.80
   0   9  -2   59.79    4.30
   0  -9   2   71.99    4.90
   0  -9  -2   66.99    5.40
   1   9  -2   22.70    3.30
   1  -9   2   21.80    3.40
  -1  -9  -2   21.30    3.60
  -1   9   2   20.90    6.20
   1  -9   2   19.30    3.50
   1   9  -2   19.60    3.00
   1   9  -2   20.30    5.30
  -1  -9  -2   22.40    3.50
  -1  -9  -2   17.30    3.20
  -1   9   2   18.00    3.80
  -1   9   2   24.10    3.20
   1   9  -2   16.90    3.70
  -1  -9  -2   19.60    2.80
  -1   9  -2   25.10    5.60
   1  -9  -2   20.90    2.90
   1  -9  -2   16.50    3.50
   1  -9  -2   20.90    3.00
   1   9   2   20.70    2.40
  -1   9  -2   25.30    3.80
  -1  -9   2   17.90    2.50
   1   9   2   16.40    3.70
   1   9   2   21.10    3.10
   1  -9  -2   22.30    3.80
   1   9   2   21.00    5.90
  -1  -9   2   24.90    3.80
  -1   9  -2   24.80    3.80
  -2   9   2   41.70    6.60
  -2  -9  -2   47.80    3.90
   2   9  -2   52.39    4.30
   2   9  -2   46.60    4.90
   2   9  -2   44.10    5.20
   2  -9   2   45.30    4.20
  -2   9   2   42.30    4.60
   2   9  -2   51.29    8.10
  -2  -9  -2   52.89    4.70
  -2   9   2   49.50    8.20
  -2   9   2   45.70    5.00
   2  -9   2   38.80    4.90
  -2  -9  -2   43.70    4.70
   2   9   2   55.29    8.40
  -2   9  -2   48.50    4.60
   2  -9  -2   47.00    4.40
  -2  -9   2   44.20    4.20
  -2  -9   2   49.30    4.70
  -2   9  -2   50.49    7.60
   2   9   2   44.60    4.40
   2   9   2   58.19    6.40
   2  -9  -2   43.20    3.60
  -2   9  -2   45.50    5.20
   2  -9  -2   51.19    5.50
  -2  -9   2   43.50    3.70
  -3  -9  -2  101.49    6.40
   3   9  -2   94.09    7.80
   3   9  -2   90.89    5.10
  -3  -9  -2   82.59    5.80
  -3   9   2  113.29   13.30
  -3   9   2   87.39    6.40
   3  -9   2   80.59    5.50
   3   9  -2   76.59    6.30
  -3  -9  -2   92.29    6.20
  -3   9   2  101.19    9.20
   3  -9   2   96.69    7.30
  -3   9   2   90.59    6.10
   3  -9  -2   98.89    7.00
  -3  -9   2   80.59    5.70
   3   9   2   91.29    6.30
  -3   9  -2   86.79   10.50
   3   9   2   86.09    9.20
  -3  -9   2   84.19    5.50
  -3   9  -2   84.09    6.10
  -3  -9   2   88.89    5.70
   3  -9  -2   80.29    6.00
   3   9   2   99.09    7.90
   4  -9   2   44.60    5.40
  -4  -9  -2   47.10    5.20
  -4  -9  -2   49.00    5.30
   4  -9   2   40.00    4.40
  -4   9   2   57.79   10.90
  -4   9   2   46.80    5.50
   4   9  -2   50.39    5.90
   4   9  -2   44.90    6.20
  -4  -9  -2   42.10    4.80
   4   9   2   45.30    5.30
  -4   9  -2   49.00    5.40
   4  -9  -2   39.70    5.20
  -4  -9   2   44.50    5.30
   4  -9  -2   43.60    5.00
  -4   9  -2   45.50    8.20
  -4  -9   2   40.80    4.10
   4   9   2   46.50    6.00
  -4  -9   2   44.40    5.00
  -5  -9  -2  153.68    7.90
   5  -9   2  150.48    8.30
  -5  -9  -2  164.08    8.80
   5  -9   2  168.28    9.90
   5   9  -2  167.68   10.90
  -5  -9  -2  175.48   10.00
  -5   9   2  168.18   15.10
  -5   9   2  166.38    9.70
   5   9  -2  161.38    9.80
   5  -9  -2  172.18   10.00
   5  -9  -2  178.38    9.50
   5   9   2  170.48   10.80
  -5   9  -2  155.68   15.00
   5   9   2  159.78    9.40
  -5  -9   2  168.08    9.40
  -5  -9   2  180.48   10.00
  -5   9  -2  166.38    9.20
  -6   9   2   24.60   10.40
   6   9  -2   20.80    4.80
   6   9  -2   22.60    5.70
   6  -9   2   21.20    4.50
  -6  -9  -2   22.50    4.60
   6   9  -2   22.30    5.40
  -6  -9  -2   17.70    4.00
  -6   9   2   14.80    4.90
   6  -9   2    8.40    4.70
  -6  -9   2   12.90    3.60
  -6   9  -2   17.60    6.80
   6   9   2   24.00    5.50
  -6  -9   2   21.80    4.40
   6  -9  -2   16.40    4.70
   6  -9  -2   20.70    4.70
  -6   9  -2   23.40    5.50
   6   9   2   15.10    3.90
  -7   9   2   17.70    4.70
   7  -9   2    2.40    4.40
   7  -9   2   10.90    4.30
  -7   9   2    8.00    7.60
   7   9  -2   15.30    4.70
   7   9  -2   18.90    5.50
   7   9  -2   22.10    4.50
  -7  -9  -2   10.60    3.70
  -7  -9  -2   23.40    5.00
   7  -9  -2    7.90    3.10
  -7   9  -2   10.80    4.20
  -7   9  -2   15.20    8.70
   7   9   2   19.20    5.30
  -7  -9   2   14.80    5.00
   7  -9  -2   12.30    3.90
   7   9   2   12.50    3.90
  -7  -9   2   11.30    3.40
   0 -10   2    9.60    2.50
   0  10  -2   14.20    5.60
   0 -10  -2   11.00    2.40
   0  10  -2    9.70    3.40
   0  10   2   13.80    3.90
   0 -10   2    7.90    2.60
   0  10   2   10.30    5.40
   0  10   2    8.50    2.00
   0 -10  -2    8.20    3.10
   0  10  -2   12.20    2.50
   0 -10  -2   15.50    3.50
   1  10  -2   44.20    4.60
  -1  10   2   42.90    4.50
  -1 -10  -2   43.90    5.00
   1 -10   2   40.30    4.90
   1  10  -2   42.80    4.30
   1  10  -2   49.10    6.00
   1  10  -2   55.69    8.50
  -1  10   2   39.60    4.90
  -1 -10  -2   42.30    4.40
  -1  10   2   48.60    7.90
   1 -10   2   59.69    5.40
   1  10   2   55.49    8.80
  -1 -10   2   40.60    4.60
  -1  10  -2   47.80    8.60
  -1  10  -2   45.30    4.60
   1  10   2   47.80    5.90
  -1  10  -2   42.70    5.20
  -1 -10   2   44.40    4.70
   1 -10  -2   37.90    4.60
   1 -10  -2   36.50    4.00
   2  10  -2   14.40    5.10
   2  10  -2    9.00    3.20
   2 -10   2   12.90    3.60
   2 -10   2    7.50    2.70
  -2 -10  -2   10.60    3.30
  -2  10   2    4.60    5.60
   2  10  -2    9.20    2.40
  -2  10   2   19.00    3.70
  -2 -10  -2    8.60    3.20
   2  10  -2   12.50    3.20
  -2  10   2    9.20    3.30
   2 -10  -2   12.40    3.50
   2  10   2    6.70    2.50
  -2  10  -2   12.60    5.80
  -2  10  -2    7.90    2.70
  -2 -10   2   11.40    3.60
   2  10   2    9.00    5.10
   2  10   2    8.10    4.00
  -3  10   2   -3.10    4.00
  -3  10   2    1.50    2.20
  -3 -10  -2    0.60    1.90
  -3  10   2    1.60    2.40
  -3 -10  -2    2.40    1.80
   3 -10   2   -1.30    2.70
   3  10  -2    4.40    2.80
  -3 -10  -2    0.40    3.00
   3  10  -2    5.00    3.50
  -3  10  -2    4.30    5.00
  -3 -10   2    2.80    3.30
   3  10   2    0.80    2.40
   3 -10  -2    0.90    2.30
  -3 -10   2    2.10    2.30
   3  10   2    2.90    3.30
  -3  10  -2    1.60    2.40
   3 -10  -2   -1.40    2.50
   3  10   2   -1.00    3.00
  -3 -10   2    0.90    1.80
   4  10  -2   10.50    3.80
  -4 -10  -2   14.50    3.10
   4  10  -2   14.20    4.10
  -4 -10  -2   10.30    3.20
  -4  10   2   23.70    4.60
  -4  10   2   22.90    7.30
  -4 -10  -2   19.40    3.50
   4 -10   2   18.50    4.60
   4 -10  -2   23.30    4.60
  -4 -10   2   10.50    4.00
  -4 -10   2   21.10    3.70
   4  10   2   10.40    3.70
  -4  10  -2   20.10    4.10
   4  10   2   15.50    4.00
   4 -10  -2   11.60    3.60
  -4  10  -2   12.20    6.80
   5  10  -2   38.50    6.00
  -5 -10  -2   29.20    4.40
  -5  10   2   39.70    5.30
   5 -10   2   31.90    6.00
  -5 -10  -2   32.80    5.30
   5  10  -2   36.70    5.90
  -5  10   2   29.20   10.40
  -5 -10  -2   41.60    6.00
   5  10   2   32.90    6.50
  -5 -10   2   36.70    5.60
  -5 -10   2   45.60    5.90
  -5  10  -2   37.90    5.40
   5  10   2   37.70    5.70
   5 -10  -2   33.10    4.90
  -5  10  -2   29.10    8.60
   5 -10  -2   26.10    5.00
  -6  10   2   35.30   11.30
  -6 -10  -2   39.90    5.60
   6  10  -2   40.90    6.60
  -6  10   2   37.80    6.50
   6 -10   2   28.20    6.10
  -6 -10  -2   25.50    4.70
   6  10  -2   34.30    6.30
   6 -10  -2   33.10    5.10
  -6  10  -2   42.50   10.50
   6 -10  -2   29.10    5.20
  -6 -10   2   31.90    5.00
   6  10   2   34.50    6.00
  -6  10  -2   36.60    5.60
   6  10   2   39.90    7.10
  -6 -10   2   42.50    6.40
   0  11   2   28.30    6.80
   0 -11   2   29.00    5.30
   0  11  -2   19.90    3.80
   0  11  -2   34.40    7.80
   0  11   2   26.60    4.60
   0 -11  -2   18.80    3.30
   0  11  -2   26.80    4.70
   0 -11  -2   24.90    4.20
   0 -11   2   28.00    4.50
  -1  11   2   24.70    4.40
  -1 -11  -2   25.80    4.10
   1 -11   2   19.90    4.00
   1  11  -2   31.90    7.90
  -1  11   2   31.80    7.10
  -1 -11  -2   19.60    3.40
  -1  11   2   28.90    3.70
   1  11  -2   18.80    4.40
   1 -11   2   25.30    4.30
   1  11  -2   29.80    4.00
  -1  11  -2   32.30    7.10
   1 -11  -2   24.10    3.30
   1  11   2   35.90    6.10
   1  11   2   25.10    6.60
  -1  11  -2   20.10    3.50
  -1 -11   2   30.20    4.80
  -1  11  -2   30.30    4.80
  -2  11   2   17.40    6.80
   2 -11   2   13.00    3.40
  -2  11   2   12.00    3.60
   2  11  -2   18.80    6.00
  -2 -11  -2   10.60    3.70
   2  11  -2   13.90    3.60
   2  11  -2   14.30    4.70
   2 -11   2   18.30    3.70
  -2 -11  -2   16.50    3.90
  -2  11   2   16.50    3.70
  -2  11  -2   12.20    3.20
   2  11   2   19.90    6.70
  -2  11  -2   24.40    6.90
   2 -11  -2    9.20    3.60
  -2 -11   2   14.40    3.50
   2  11   2    6.40    3.40
   3  11  -2   91.79    7.70
   3 -11   2   82.99    7.10
  -3 -11  -2   90.09    7.00
  -3  11   2   84.09   11.70
  -3  11   2   74.09    6.80
  -3 -11  -2   69.89    6.70
   3  11  -2   75.19    7.80
   3 -11  -2   86.09    6.90
   3  11   2  108.69   12.40
  -3  11  -2   79.79   11.40
  -3 -11   2   84.09    7.50
  -3  11  -2   78.19    7.30
   3  11   2   74.09    8.20
  -4 -11  -2   18.30    4.10
  -4  11   2    8.10    7.50
   4 -11   2   12.00    4.30
  -4 -11  -2   15.20    4.40
   4  11  -2   12.00    5.10
  -4  11   2   12.00    4.50
   4  11  -2   11.30    4.10
  -4  11  -2   12.40    3.80
  -4  11  -2   18.00    7.20
   4  11   2    8.90    3.90
   4 -11  -2   10.40    4.30
  -4 -11   2   14.90    3.90
   4  11   2   12.00    4.00
   5  11  -2   39.40    7.20
   5  11  -2   28.80    5.70
  -5 -11  -2   44.60    6.00
  -5  11   2   29.90    9.40
  -5 -11  -2   44.70    8.20
  -5  11   2   30.80    6.10
  -5 -11  -2   42.80    7.30
   5 -11   2   27.30    5.90
  -5  11  -2   37.00    5.60
  -5  11  -2   28.20    7.20
  -5 -11   2   32.00    4.90
   5  11   2   32.70    5.60
  -5 -11   2   35.80    6.20
   5  11   2   23.20    5.70
   0 -12   2    6.10    3.60
   0  12   2    6.90    3.30
   0  12  -2    9.10    2.60
   0  12  -2   14.60    5.20
   0 -12  -2   11.50    2.90
   0  12   2   24.10    7.00
   0  12  -2    7.30    2.90
   1  12  -2   68.19   10.60
  -1 -12  -2   40.90    4.70
  -1  12   2   39.90    5.50
   1 -12   2   46.60    5.50
  -1 -12  -2   43.80    5.70
   1  12  -2   43.00    6.40
  -1  12   2   48.20    9.80
   1  12   2   52.59    8.90
  -1  12  -2   64.19   10.30
   1  12   2   33.20    5.60
  -1 -12   2   45.90    5.40
  -1  12  -2   49.10    5.50
  -2 -12  -2   13.00    4.00
  -2 -12  -2   14.20    4.20
   2  12  -2    6.30    3.90
  -2  12   2   18.70    6.80
  -2  12  -2   10.40    3.20
   2  12   2   10.70    4.80
  -2  12  -2   22.40    5.90
  -2 -12   2    8.70    3.30
   3  12  -2   37.00    6.20
   3 -12   2   27.20    5.50
  -3 -12  -2   37.00    5.40
  -3  12   2   35.10    4.90
  -3 -12  -2   35.80    5.00
  -3  12   2   45.30   10.40
  -3  12  -2   44.60    6.00
  -3 -12   2   33.10    5.00
   3  12   2   32.90    6.10
   0   0   3    0.50    0.30
   0   0  -3    0.50    0.40
   0   0   3    0.40    1.50
   0   0  -3   -0.10    1.10
   0   0  -3    1.20    0.80
   0   0  -3    0.10    0.50
   0   0   3   -0.60    0.90
   0   0  -3   -0.20    0.40
   0   0   3   -0.20    0.30
   1   0  -3 1735.33   30.90
   1   0   3 1817.12   31.00
  -1   0  -3 1834.02   31.20
  -1   0   3 1792.62   35.60
   1   0  -3 1831.72   31.10
  -1   0   3 1791.82   29.80
  -1   0   3 1820.52   31.90
   1   0  -3 1817.82   31.70
  -1   0  -3 1754.12   32.90
   1   0   3 1805.92   30.30
   1   0   3 1799.62   32.80
  -1   0  -3 1771.12   31.80
  -1   0   3 1831.12   32.90
  -1   0  -3 1855.81   31.40
  -1   0   3 1796.12   31.00
   2   0  -3  217.88    4.70
  -2   0   3  226.08    4.10
  -2   0  -3  228.18    5.80
   2   0  -3  224.78    5.60
  -2   0   3  221.48    4.60
   2   0   3  217.18    5.40
  -2   0  -3  222.18    6.00
   2   0   3  226.38    5.80
  -2   0   3  222.98    5.80
   2   0  -3  227.28    6.00
  -2   0  -3  220.58    5.00
   2   0  -3  219.68    5.30
   2   0   3  224.58    5.60
  -2   0   3  232.38   10.10
   3   0   3  138.69    4.60
  -3   0   3  142.69    3.10
  -3   0  -3  147.89    5.10
  -3   0   3  143.59    9.30
   3   0   3  139.49    4.30
   3   0   3  143.19    4.90
  -3   0   3  141.59    3.70
  -3   0  -3  141.29    4.20
   3   0  -3  147.09    4.60
   3   0   3  138.79    3.80
   3   0  -3  141.29    5.20
   3   0   3  145.69    5.00
  -3   0  -3  147.99    5.00
  -3   0   3  152.88    5.10
   3   0   3  149.88    5.10
   4   0   3   20.00    2.30
   4   0  -3   24.30    2.90
   4   0   3   22.50    2.50
   4   0   3   21.00    2.50
  -4   0   3   20.00    1.60
   4   0   3   20.80    2.40
  -4   0  -3   23.00    2.40
   4   0   3   22.70    1.90
   4   0   3   18.80    1.60
  -4   0   3   21.10    4.60
   4   0  -3   23.30    2.40
  -4   0   3   18.80    2.30
   5   0   3  369.76   10.30
   5   0   3  376.56   11.00
   5   0   3  369.56    8.90
  -5   0   3  351.26   18.30
   5   0  -3  364.26    9.80
  -5   0   3  389.66   10.80
  -5   0   3  357.56    8.60
   5   0  -3  356.46    8.90
   5   0   3  357.86   10.70
  -5   0   3  372.66    8.60
   5   0   3  357.56    8.50
   5   0  -3  368.76   11.10
  -5   0  -3  368.96   10.50
   5   0   3  375.86   10.30
   6   0   3  132.69    4.80
  -6   0   3  143.09    6.70
  -6   0  -3  133.69    6.30
   6   0  -3  137.49    6.10
   6   0   3  138.99    6.30
  -6   0   3  135.39    5.00
   6   0   3  138.29    6.90
   6   0  -3  148.39    7.40
   6   0   3  140.79    7.10
  -6   0   3  128.19    4.90
   6   0  -3  131.19    4.80
  -6   0   3  139.29   12.70
  -6   0  -3  144.19    6.30
   6   0   3  137.29    6.20
  -7   0  -3   33.50    3.70
  -7   0   3   33.70    4.10
   7   0   3   29.90    4.30
   7   0  -3   25.70    3.40
  -7   0   3   29.60    2.90
   7   0   3   27.90    4.00
   7   0  -3   36.90    4.70
  -7   0   3   36.70    9.20
  -7   0  -3   33.00    3.90
   7   0   3   28.30    3.60
  -8   0  -3  138.59    7.20
   8   0  -3  147.19    8.70
  -8   0   3  156.78   17.60
   8   0   3  138.59    7.50
  -8   0  -3  128.69    6.80
  -8   0  -3  121.49    6.50
   8   0  -3  115.19    6.70
   8   0   3  115.99    7.40
  -8   0   3  123.79    7.50
   9   0  -3    8.80    3.00
  -9   0  -3    5.50    3.00
   9   0   3    5.80    2.90
  -9   0  -3    8.20    2.80
  -9   0   3    5.50    2.30
   9   0  -3    4.30    2.80
   0  -1  -3 8732.43  140.19
   0   1  -3 8227.48  156.88
   0  -1   3 8406.16  150.18
   0  -1   3 8354.46  156.68
   0   1  -3 8493.55  146.69
   0   1   3 8317.47  142.99
   0  -1  -3 8641.44  146.29
   0  -1  -3 8255.67  150.78
   0  -1  -3 8487.05  148.19
   0   1  -3 8562.14  146.09
   0   1   3 8320.87  152.68
   0   1   3 8301.57  146.79
   0  -1   3 8396.86  145.19
   0  -1   3 8805.92  145.79
   0  -1   3 8498.05  145.79
   0   1   3 8105.29  169.68
   0   1   3 8066.29  143.79
  -1  -1  -3  178.78    3.60
  -1  -1  -3  180.18    4.60
  -1  -1  -3  179.48    4.50
  -1  -1  -3  182.88    4.60
   1  -1   3  183.88    4.70
   1  -1   3  186.78    4.90
  -1   1   3  183.78    4.30
   1   1  -3  183.18    4.30
  -1   1   3  188.78    4.40
   1  -1   3  188.28    4.60
  -1   1   3  175.18    7.80
  -1  -1  -3  173.78    3.40
   1   1  -3  178.58    4.60
   1   1  -3  176.98    4.90
  -1   1   3  184.88    4.10
   1   1   3  184.98    6.80
   1   1   3  178.38    4.80
   1   1   3  183.38    3.70
  -1  -1   3  184.68    4.70
   1   1   3  183.58    4.60
   1   1   3  180.88    4.50
  -1   1  -3  188.08    4.50
   1  -1  -3  181.48    4.40
  -1   1  -3  187.48    4.90
  -1  -1   3  188.38    4.20
   1  -1  -3  178.38    4.80
   1  -1  -3  181.38    4.10
  -1   1  -3  180.58    4.90
  -1   1  -3  180.18    4.50
  -1   1  -3  184.08    4.90
   2  -1   3  227.28    6.10
   2  -1   3  214.08    5.20
   2   1  -3  214.58    5.10
  -2  -1  -3  217.98    5.50
  -2  -1  -3  216.38    4.40
  -2   1   3  211.88    3.80
  -2   1   3  211.98    9.60
  -2  -1  -3  215.08    5.70
  -2   1   3  191.38    4.90
   2   1  -3  215.48    5.60
   2   1  -3  214.48    6.20
   2  -1   3  223.18    6.00
   2  -1   3  220.98    5.90
  -2   1   3  218.98    5.40
   2  -1  -3  227.08    6.00
  -2   1  -3  223.88    6.30
   2   1   3  225.28    5.50
   2   1   3  220.78    5.80
   2  -1  -3  218.68    4.70
   2   1   3  218.78    5.00
  -2  -1   3  227.58    6.10
  -2  -1   3  214.88    5.10
   2  -1  -3  218.08    4.80
   2   1   3  217.08    5.70
  -2   1  -3  229.48    5.60
   2   1   3  223.78    5.20
   3  -1   3  608.54   13.60
   3  -1   3  596.04   10.60
  -3   1   3  625.94   12.70
  -3   1   3  605.84   19.80
  -3  -1  -3  598.44   13.00
   3  -1   3  631.54   13.70
   3   1  -3  627.94   13.20
  -3   1   3  615.04   11.00
   3   1  -3  621.34   13.80
  -3  -1  -3  626.84   12.70
   3   1  -3  626.04   13.90
  -3   1   3  630.54   10.90
   3  -1   3  598.44   12.00
   3  -1  -3  622.24   12.20
   3   1   3  626.04   12.70
   3   1   3  617.54   13.40
   3  -1  -3  614.94   13.60
  -3  -1   3  623.04   12.20
   3   1   3  601.24   12.70
  -3   1  -3  639.54   12.80
   3  -1  -3  592.74   12.80
   3   1   3  624.74   13.10
  -3  -1   3  597.54   10.40
   3   1   3  618.04   12.70
   3   1   3  612.54   12.90
  -3  -1   3  631.54   13.70
  -3   1  -3  620.44   13.50
  -4   1   3  554.34   10.60
   4  -1   3  553.14   11.20
  -4   1   3  557.24   12.40
  -4  -1  -3  531.65   12.00
  -4  -1  -3  538.45   12.50
   4  -1   3  544.05   12.50
  -4   1   3  554.04   10.50
   4   1  -3  537.65   12.70
   4  -1   3  561.24   13.50
   4   1  -3  550.44   13.80
  -4   1   3  567.84   21.00
   4  -1   3  548.45   13.50
  -4  -1   3  517.75    9.90
   4  -1  -3  547.15   11.80
   4  -1  -3  546.65   13.40
  -4   1  -3  538.65   12.20
   4   1   3  544.45   12.60
  -4  -1   3  542.85   11.60
   4   1   3  551.34   13.00
  -4  -1   3  557.94   13.40
   4   1   3  543.05   12.00
   4   1   3  553.04   12.20
   4  -1  -3  546.95   12.10
   4   1   3  549.85   12.50
  -4   1  -3  545.35   12.90
   4   1   3  564.54   13.10
   5  -1   3   99.09    5.30
  -5  -1  -3   93.79    5.10
   5  -1   3   90.19    5.10
   5  -1   3   94.19    5.00
   5  -1   3   90.29    3.50
  -5   1   3   90.09    3.30
   5   1  -3  101.79    5.70
  -5   1   3   89.39    3.20
  -5  -1  -3   83.39    4.00
  -5  -1  -3   90.49    4.60
   5   1  -3   98.59    4.70
  -5   1   3   98.29    4.80
  -5   1   3   95.99    9.40
   5   1   3   87.29    4.10
   5  -1  -3   94.39    4.20
   5   1   3   96.99    5.00
  -5  -1   3   94.29    5.00
   5   1   3  100.59    4.70
   5  -1  -3   91.69    4.10
  -5  -1   3   87.99    2.80
  -5   1  -3   88.19    4.60
  -5  -1   3   92.39    3.90
   5  -1  -3  104.89    5.70
   5   1   3   97.19    5.20
   5   1   3  103.59    5.30
  -6   1   3  394.26   10.10
  -6   1   3  433.36   22.40
   6   1  -3  426.26   13.30
  -6  -1  -3  399.46   12.20
  -6  -1  -3  421.66   11.40
   6  -1   3  403.16   12.90
   6   1  -3  382.16    9.20
   6   1  -3  408.46   11.80
  -6   1   3  394.56    9.40
   6  -1   3  396.06   11.90
  -6   1   3  414.46   11.60
  -6  -1  -3  383.86   10.60
   6  -1   3  427.56   13.10
  -6  -1   3  414.06   12.60
   6   1   3  416.16   12.20
   6   1   3  419.46   11.80
   6  -1  -3  383.96   10.10
  -6  -1   3  397.36   10.30
   6  -1  -3  403.96   12.70
   6  -1  -3  395.76   10.70
   6   1   3  392.96   12.30
  -6   1  -3  392.66   11.70
   6   1   3  394.56   10.50
  -7  -1  -3   67.49    4.70
   7   1  -3   69.29    5.30
  -7  -1  -3   65.49    4.80
   7  -1   3   63.09    5.30
   7   1  -3   60.29    5.70
  -7   1   3   76.19   13.20
  -7   1   3   61.49    4.50
   7  -1   3   67.89    5.90
  -7  -1  -3   65.39    4.40
   7  -1   3   64.09    5.00
  -7  -1   3   81.89   13.70
   7   1   3   80.89    5.70
   7   1   3   61.89    5.00
  -7  -1   3   66.69    5.60
   7  -1  -3   58.99    5.70
  -7  -1   3   63.79    4.10
   7   1   3   64.89    5.60
   7  -1  -3   69.39    4.50
  -8   1   3   24.60    3.50
   8   1  -3   28.20    4.10
  -8   1   3   47.50   12.70
  -8  -1  -3   19.80    3.80
   8  -1   3   30.90    4.90
   8   1  -3   24.90    4.70
  -8  -1  -3   26.50    3.60
   8   1   3   29.80    4.10
  -8   1  -3   24.30    3.40
  -8   1  -3   32.80    6.00
  -8  -1   3   39.50   10.30
   8  -1  -3   20.80    3.20
   8  -1  -3   25.10    4.20
   8   1   3   27.40    4.00
  -8  -1   3   26.80    4.50
  -8   1  -3   29.90    4.30
  -9  -1  -3   12.20    3.80
  -9   1  -3    7.10    4.90
   0  -2  -3 3672.73   65.19
   0   2   3 3637.74   64.79
   0  -2  -3 3611.74   64.89
   0   2  -3 3708.93   67.19
   0   2  -3 3778.92   65.09
   0   2  -3 3753.42   74.69
   0  -2   3 3671.93   64.39
   0   2  -3 3769.42   61.99
   0  -2   3 3658.63   65.79
   0  -2  -3 3690.53   65.09
   0   2   3 3629.64   62.79
   0  -2  -3 3724.53   64.79
   0   2   3 3723.33   74.49
   0   2   3 3772.72   67.59
   1   2  -3  995.30   19.10
  -1  -2  -3 1020.00   18.10
   1   2  -3 1007.70   18.40
  -1  -2  -3  985.80   18.00
  -1   2   3  995.30   18.00
   1  -2   3  988.60   17.50
  -1   2   3 1018.30   17.70
  -1   2   3 1009.40   24.40
   1  -2   3 1006.60   18.90
  -1  -2  -3  996.70   18.50
   1   2  -3  953.30   17.20
   1   2  -3  984.20   17.70
  -1   2   3  997.30   21.50
   1  -2   3 1000.10   17.90
   1   2   3 1009.10   18.90
   1   2   3  999.10   22.80
  -1   2  -3  978.30   19.50
   1  -2  -3 1019.80   18.90
   1  -2  -3 1004.80   18.70
   1   2   3  991.90   16.70
   1   2   3 1019.60   18.40
   1  -2  -3  995.90   17.80
   1  -2  -3 1004.10   18.00
  -1  -2   3 1008.20   18.20
  -1  -2   3  989.50   18.60
   1   2   3 1010.70   19.60
   1  -2  -3  997.90   18.20
  -1   2  -3 1009.20   18.50
   1  -2  -3  994.60   16.90
   1   2   3  973.40   17.10
  -1   2  -3  988.40   17.50
   2   2  -3 1196.48   22.30
  -2   2   3 1192.48   20.80
   2   2  -3 1189.28   22.10
  -2  -2  -3 1198.48   22.20
  -2   2   3 1175.68   28.40
  -2   2   3 1174.68   26.30
   2   2  -3 1201.58   20.80
   2   2  -3 1181.68   23.00
  -2   2   3 1184.38   21.00
  -2  -2  -3 1214.98   21.40
   2  -2   3 1191.38   22.60
   2   2  -3 1150.28   20.10
  -2  -2  -3 1184.38   20.70
   2  -2   3 1193.68   22.70
   2  -2   3 1189.48   22.60
  -2   2  -3 1211.68   22.20
   2   2   3 1190.88   22.30
   2  -2  -3 1221.08   20.20
   2  -2  -3 1198.58   22.60
  -2  -2   3 1298.67   21.30
   2   2   3 1178.08   21.00
   2  -2  -3 1194.68   22.10
  -2   2  -3 1193.18   24.00
   2  -2  -3 1187.58   21.30
  -2   2  -3 1157.58   22.20
  -2   2  -3 1203.18   22.60
   2   2   3 1225.68   22.60
   2  -2  -3 1198.98   22.50
   2   2   3 1188.18   21.20
  -2  -2   3 1208.68   21.80
   2  -2  -3 1178.58   20.20
  -2  -2   3 1183.48   22.70
   3  -2   3  784.82   15.10
  -3  -2  -3  825.32   16.60
   3   2  -3  818.92   16.80
   3  -2   3  814.12   17.00
  -3   2   3  814.42   24.00
  -3   2   3  806.32   15.40
   3  -2   3  796.12   17.20
   3   2  -3  827.52   17.60
  -3   2   3  801.12   13.60
   3  -2   3  812.42   17.20
  -3   2   3  809.72   14.20
  -3  -2  -3  803.92   13.80
  -3   2   3  798.72   13.50
  -3  -2  -3  813.72   15.50
  -3  -2   3  802.92   13.90
   3   2   3  832.32   16.80
   3   2   3  800.82   16.60
   3   2   3  815.22   16.00
   3   2   3  837.72   17.00
  -3  -2   3  826.02   17.40
  -3   2  -3  804.52   19.00
  -3   2  -3  821.02   16.60
  -3  -2   3  823.02   16.10
   3  -2  -3  814.22   16.80
   3  -2  -3  800.52   16.50
   3  -2  -3  814.42   14.70
   3  -2  -3  819.92   17.30
  -3   2  -3  818.22   16.90
   3   2   3  802.92   15.90
   4  -2   3  442.96   11.40
  -4  -2  -3  443.66   10.00
   4   2  -3  460.55   11.60
   4   2  -3  455.45   12.20
   4  -2   3  427.26   11.80
   4   2  -3  451.95   12.00
  -4   2   3  429.26    8.40
   4  -2   3  454.65   12.20
  -4  -2  -3  462.25   11.00
   4  -2   3  438.76    9.20
  -4   2   3  450.35   10.10
  -4   2   3  468.55   18.40
   4  -2  -3  446.36    9.50
   4  -2  -3  439.76   10.70
  -4   2  -3  449.66   13.80
   4  -2  -3  450.05   11.70
  -4  -2   3  452.65   12.00
   4   2   3  438.96   10.90
   4   2   3  441.46   10.90
  -4   2  -3  455.65   11.00
  -4  -2   3  438.46   10.40
   4   2   3  437.16   11.50
   4   2   3  447.46   11.10
  -4   2  -3  455.55   11.40
   4   2   3  446.96   10.80
  -4  -2   3  426.96    8.30
   5  -2   3  385.46   11.60
  -5   2   3  380.06    9.80
  -5  -2  -3  382.86   11.10
   5  -2   3  383.86   11.90
   5   2  -3  379.96   11.10
  -5   2   3  371.56    8.10
   5   2  -3  400.26   12.10
  -5  -2  -3  383.86    9.40
  -5   2   3  393.16   18.50
   5   2  -3  368.76   11.20
  -5  -2  -3  398.96   10.50
  -5   2  -3  381.76   10.80
   5  -2  -3  392.86   11.50
   5   2   3  379.86   11.20
   5   2   3  391.66   10.80
   5  -2  -3  378.16   10.00
  -5   2  -3  376.36   14.10
  -5  -2   3  373.46    7.70
   5   2   3  371.86   10.30
  -5  -2   3  386.76   10.00
  -5  -2   3  378.86   11.60
   5   2   3  400.96   10.70
   5  -2  -3  377.16    9.10
  -5   2  -3  386.76   10.50
   6   2  -3  137.39    7.10
  -6  -2  -3  142.09    7.00
  -6   2   3  134.39    5.60
   6  -2   3  139.39    7.60
   6   2  -3  139.29    7.00
  -6  -2  -3  136.39    5.40
  -6   2   3  137.89   14.00
   6  -2   3  143.39    7.30
  -6  -2  -3  134.09    5.90
  -6   2  -3  138.29    6.50
  -6  -2   3  134.89    6.80
  -6   2  -3  145.89    9.70
   6   2   3  130.89    6.30
  -6   2  -3  150.58   11.20
   6   2   3  146.39    7.20
   6   2   3  126.99    6.40
   6  -2  -3  135.99    7.10
  -6   2  -3  135.89    6.20
   6  -2  -3  135.59    5.20
   6  -2  -3  140.09    5.90
   6   2   3  138.59    6.20
  -6  -2   3  134.29    5.80
   7   2  -3  121.49    7.10
   7  -2   3  105.19    6.80
  -7  -2  -3  107.49    5.50
  -7   2   3  103.09    5.50
  -7   2   3  106.59   12.70
   7   2  -3  110.59    6.90
  -7  -2  -3  107.79    6.80
   7  -2   3  108.49    7.00
   7   2   3  106.99    5.70
   7   2   3  121.79    6.80
  -7   2  -3  114.99   10.00
   7  -2  -3  102.79    5.10
  -7  -2   3  101.89    5.10
   7  -2  -3  105.99    5.00
   7   2   3  106.89    6.40
   7  -2  -3  102.79    6.50
  -7  -2   3  112.69    7.40
  -7   2  -3  134.89   11.10
  -7   2  -3  108.29    6.40
  -8  -2  -3   29.10    4.50
   8   2  -3   28.30    4.40
  -8   2   3   48.10    9.20
   8  -2   3   24.00    4.30
  -8   2   3   63.79   12.50
  -8  -2  -3   36.20    4.10
   8   2  -3   31.60    5.10
   8  -2   3   33.20    5.30
   8   2   3   36.20    5.20
  -8   2  -3   46.40    8.00
  -8  -2   3   31.40    3.90
  -8   2  -3   34.30    4.00
  -8  -2   3   33.90    4.70
  -8   2  -3   35.90    4.50
   8   2   3   33.90    4.40
   8  -2  -3   35.10    5.20
  -9  -2  -3   33.10    5.10
  -9  -2  -3   34.10    5.50
   9   2  -3   25.40    5.20
  -9   2   3   48.00    9.30
   9   2  -3   26.90    4.70
  -9   2  -3   32.60    4.80
  -9   2  -3   60.29   10.90
  -9   2  -3   24.30    4.40
  -9  -2   3   23.10    4.40
   9   2   3   25.10    4.30
   9   2   3   24.40    4.40
   9  -2  -3   23.30    4.30
   0   3   3 4098.49   68.79
   0   3   3 4012.50   71.89
   0   3   3 4081.59   74.99
   0  -3  -3 4075.39   67.89
   0   3   3 4025.60   70.79
   0   3   3 4083.19   70.29
   0  -3   3 3990.20   72.49
   0   3   3 4167.98   70.69
   0  -3  -3 3962.00   68.69
   0   3  -3 3874.11   68.59
   0   3  -3 4041.90   72.29
   0  -3  -3 4165.58   68.59
   0   3  -3 4135.19   82.09
   0  -3   3 4162.58   68.39
   0  -3  -3 4079.99   68.69
   0  -3  -3 4131.89   68.49
   0   3  -3 4010.70   71.59
   1   3  -3  922.51   16.80
   1  -3   3  926.91   17.60
  -1   3   3  928.01   21.80
  -1  -3  -3  937.61   17.90
  -1  -3  -3  928.01   17.20
   1   3  -3  941.51   20.80
   1   3  -3  935.51   17.70
  -1   3   3  895.51   16.40
   1  -3   3  940.41   18.40
  -1  -3  -3  918.91   17.80
   1  -3   3  937.11   16.80
  -1   3   3  952.00   24.60
  -1   3   3  946.01   17.50
   1   3  -3  908.91   18.50
  -1  -3  -3  915.41   17.40
   1   3   3  912.81   15.80
   1  -3  -3  939.91   17.40
  -1   3  -3  931.01   20.00
  -1   3  -3  943.61   17.20
   1  -3  -3  921.31   17.50
  -1   3  -3  957.50   18.10
   1   3   3  943.01   20.00
   1  -3  -3  936.31   18.30
  -1  -3   3  908.21   17.90
   1   3   3  948.01   23.30
   1   3   3  931.61   17.50
   1  -3  -3  912.81   15.80
   1   3   3  932.71   18.40
  -1  -3   3  965.40   17.90
   1  -3  -3  954.50   16.40
  -2  -3  -3 1217.18   23.00
   2   3  -3 1199.58   22.30
   2   3  -3 1191.88   20.50
  -2   3   3 1202.58   21.20
  -2  -3  -3 1179.68   21.10
  -2  -3  -3 1187.08   22.50
  -2  -3  -3 1144.19   20.60
   2  -3   3 1193.58   23.00
   2   3  -3 1202.98   22.70
  -2   3   3 1198.78   29.80
   2   3  -3 1177.38   23.60
  -2   3   3 1207.48   27.50
  -2   3   3 1191.68   20.70
   2  -3   3 1182.78   22.80
   2  -3   3 1219.58   23.30
  -2  -3  -3 1171.88   21.20
  -2   3   3 1145.59   19.90
   2   3   3 1159.28   21.10
   2   3   3 1192.28   22.70
   2  -3  -3 1208.78   22.10
  -2  -3   3 1141.69   20.50
   2  -3  -3 1161.08   22.60
  -2   3  -3 1150.28   21.10
  -2   3  -3 1168.18   20.40
   2   3   3 1191.58   24.70
  -2  -3   3 1188.18   20.70
  -2   3  -3 1186.08   25.40
  -2  -3   3 1209.08   22.30
   2  -3  -3 1177.48   21.90
  -2  -3   3 1198.68   23.00
   2   3   3 1200.28   20.70
  -2   3  -3 1210.58   22.70
   2   3   3 1190.08   23.00
   2  -3  -3 1199.08   19.90
   2  -3  -3 1210.08   23.00
  -3  -3  -3  207.98    4.50
  -3  -3  -3  204.38    5.20
   3   3  -3  221.68    6.30
   3   3  -3  215.08    6.80
  -3   3   3  212.38    9.90
  -3  -3  -3  220.28    7.00
  -3   3   3  198.28    3.80
   3  -3   3  211.98    7.30
  -3  -3  -3  198.98    3.90
   3  -3   3  198.58    6.60
  -3  -3  -3  205.78    6.30
  -3   3   3  215.58   11.30
   3   3  -3  206.88    7.20
  -3   3   3  210.78    5.10
   3  -3   3  211.08    7.10
  -3   3  -3  216.78    6.70
   3   3   3  193.28    6.80
   3  -3  -3  214.38    5.00
   3  -3  -3  223.48    6.90
   3   3   3  223.68    7.00
  -3  -3   3  201.28    4.40
   3  -3  -3  212.58    7.00
  -3   3  -3  216.98    9.10
   3   3   3  206.78    5.50
   3   3   3  215.98    6.80
  -3  -3   3  214.98    6.30
  -3  -3   3  207.88    4.70
   3   3   3  205.98    5.80
  -3   3  -3  202.18    7.20
   3  -3  -3  216.08    6.50
  -3  -3   3  204.88    6.90
  -3   3  -3  208.18    6.60
  -4   3   3  280.27    6.80
   4  -3   3  275.77    8.50
   4  -3   3  285.37    9.40
   4  -3   3  272.07    8.90
   4   3  -3  283.37    9.20
   4   3  -3  300.07    9.00
  -4  -3  -3  268.67    6.60
  -4  -3  -3  288.17    8.20
  -4   3   3  264.77   12.60
   4  -3   3  266.67    6.30
  -4   3   3  272.37    5.40
  -4   3   3  275.37   13.90
  -4  -3  -3  280.87    8.90
   4   3  -3  288.97    9.40
  -4   3  -3  291.47   11.60
  -4  -3   3  273.57    8.00
   4   3   3  286.67    8.70
   4   3   3  281.07    8.80
   4  -3  -3  278.17    8.70
  -4   3  -3  273.77    8.40
   4   3   3  277.97    7.60
   4   3   3  281.77    7.90
   4  -3  -3  287.27    8.50
   4  -3  -3  271.97    5.90
  -4   3  -3  266.87   10.50
  -4   3  -3  284.77    8.50
  -4  -3   3  282.47    9.10
  -4  -3   3  265.47    5.90
   4  -3  -3  282.27    9.20
  -5  -3  -3    2.80    1.70
   5  -3   3    1.70    1.90
  -5  -3  -3    1.70    0.90
   5   3  -3    1.40    1.50
   5   3  -3    0.90    1.50
   5  -3   3    2.40    2.00
   5  -3   3    0.60    0.60
  -5   3   3   -0.10    1.00
  -5   3   3    0.70    4.10
   5  -3   3    1.00    1.40
  -5   3   3    0.30    3.30
   5   3  -3    1.20    1.40
  -5   3   3    0.10    0.60
  -5  -3  -3    1.90    1.90
  -5   3  -3    0.40    3.10
   5  -3  -3   -1.70    1.20
  -5  -3   3    1.40    1.40
   5  -3  -3    0.20    0.60
   5   3   3    2.20    1.30
  -5  -3   3    1.20    1.60
  -5   3  -3    0.10    2.00
  -5  -3   3    0.80    0.70
   5  -3  -3   -0.20    1.60
  -5   3  -3   -0.70    1.40
   5   3   3   -1.50    0.80
   5  -3  -3    1.70    1.90
   5   3   3    1.10    1.50
  -5   3  -3    1.40    1.40
  -6   3   3  152.48   12.20
  -6  -3  -3  144.29    6.40
  -6  -3  -3  164.18    7.70
  -6   3   3  164.58   14.80
   6   3  -3  164.08    8.10
   6  -3   3  151.68    8.00
   6   3  -3  169.08    8.00
  -6   3   3  143.89    5.60
   6   3  -3  156.38    7.80
   6  -3   3  155.88    8.40
   6   3   3  150.78    6.80
  -6   3  -3  133.79    6.60
   6  -3  -3  137.29    5.50
  -6   3  -3  155.78   10.50
   6  -3  -3  156.48    6.60
  -6  -3   3  151.18    8.00
   6   3   3  149.69    7.60
   6  -3  -3  153.48    7.30
  -6  -3   3  143.99    6.20
  -6   3  -3  151.18   10.70
   6   3   3  153.58    7.30
  -6   3  -3  152.58    7.20
  -7  -3  -3   75.39    5.00
  -7   3   3  110.39   15.40
  -7  -3  -3   74.39    5.60
   7   3  -3   66.99    6.30
   7   3  -3   75.69    6.20
   7  -3   3   88.59    7.20
   7  -3   3   70.99    6.70
  -7   3   3   79.69   11.60
  -7   3  -3  104.09    9.50
   7  -3  -3   73.19    4.80
  -7   3  -3   78.09    9.40
   7   3   3   65.69    5.30
   7   3   3   72.79    6.40
  -7  -3   3   65.99    4.90
  -7   3  -3   61.79    5.00
  -7  -3   3   79.79    7.00
   7  -3  -3   77.49    5.70
   7   3   3   82.69    5.80
  -8  -3  -3    9.20    2.60
  -8   3   3   20.00    9.20
   8   3  -3    4.90    2.70
   8  -3   3   11.40    3.30
  -8   3   3   20.80    7.90
   8  -3   3    7.20    3.60
   8   3  -3    8.60    3.50
  -8  -3  -3   10.90    3.50
  -8  -3   3   12.10    4.20
   8   3   3   12.50    3.40
   8   3   3   10.00    3.80
  -8  -3   3   13.30    3.00
   8  -3  -3   10.00    3.10
  -8   3  -3    9.20    5.70
  -8   3  -3   10.50    3.50
   9   3  -3   66.79    7.50
   9   3  -3   55.39    6.50
  -9  -3  -3   58.09    6.40
   9  -3   3   59.99    6.90
   9  -3   3   58.39    7.20
  -9  -3  -3   76.39    8.00
   9   3   3   56.59    6.20
  -9  -3   3   61.89    6.90
   9  -3  -3   51.19    6.40
   9   3   3   66.19    6.60
  -9   3  -3   57.29    6.40
   0  -4   3   10.70    1.40
   0  -4  -3   12.80    1.50
   0   4   3   10.90    1.30
   0   4   3   10.00    0.70
   0   4  -3   10.00    1.70
   0   4   3   12.80    2.90
   0  -4  -3   11.00    1.60
   0   4   3    9.20    1.10
   0   4  -3   13.30    2.50
   0  -4   3   11.00    1.70
   0  -4  -3   11.10    1.00
   0   4   3    9.20    1.50
   0  -4  -3    9.10    1.70
   0   4  -3    9.10    1.40
   0   4   3    8.60    3.00
  -1   4   3  397.16   15.10
  -1  -4  -3  389.06    8.60
   1   4  -3  402.76   12.40
   1  -4   3  409.76    9.20
   1   4  -3  396.46    9.20
  -1   4   3  405.06   13.40
   1  -4   3  366.16    9.40
   1   4  -3  390.86   10.10
   1  -4   3  394.16    9.20
  -1  -4  -3  385.86    9.40
  -1  -4  -3  397.66    9.20
   1  -4   3  383.26    8.00
  -1  -4  -3  382.26    9.30
  -1  -4  -3  384.26    7.20
   1   4  -3  376.86    8.20
   1   4   3  380.96    7.50
   1   4   3  392.76    9.90
  -1   4  -3  384.76    8.90
   1  -4  -3  385.66    8.80
  -1  -4   3  389.86    9.20
  -1   4  -3  385.26   11.90
   1   4   3  395.66   14.30
   1  -4  -3  369.96    7.10
  -1  -4   3  386.06    9.30
   1  -4  -3  392.56    9.30
   1  -4  -3  395.86    9.80
   1  -4  -3  394.06    8.10
   1   4   3  378.66   11.70
   1   4   3  381.96    8.90
  -1   4  -3  397.96    9.50
   2   4  -3  601.54   13.50
   2   4  -3  595.64   12.80
   2  -4   3  590.84   13.40
   2   4  -3  572.14   10.80
  -2  -4  -3  596.64   13.50
  -2   4   3  588.64   20.30
  -2  -4  -3  592.84   13.10
  -2  -4  -3  583.64   11.60
   2  -4   3  593.74   13.70
   2   4  -3  603.64   14.50
  -2   4   3  590.04   18.10
  -2  -4  -3  604.54   12.10
   2  -4   3  605.84   13.90
   2   4   3  604.54   13.30
   2   4   3  603.44   16.00
  -2  -4   3  597.34   11.80
  -2   4  -3  589.84   11.60
  -2   4  -3  602.84   16.40
  -2  -4   3  601.44   13.60
   2  -4  -3  599.64   13.30
   2  -4  -3  602.04   13.70
  -2   4  -3  566.14   11.70
   2  -4  -3  577.74   12.80
  -2  -4   3  598.54   13.20
   2  -4  -3  558.54   10.90
  -2   4  -3  592.04   13.50
   2   4   3  586.14   10.20
   2  -4  -3  601.44   10.90
   3  -4   3   62.79    3.80
  -3  -4  -3   70.19    4.20
  -3   4   3   60.49    7.30
   3  -4   3   66.69    3.90
  -3   4   3   56.79    1.80
  -3  -4  -3   58.79    2.40
  -3  -4  -3   58.39    1.50
  -3   4   3   61.99    6.20
   3   4  -3   63.49    3.30
   3  -4   3   59.99    4.20
  -3  -4  -3   62.69    3.50
  -3  -4  -3   56.59    2.40
   3   4  -3   62.49    4.40
   3   4  -3   65.09    4.10
  -3   4   3   62.49    2.20
  -3   4  -3   62.89    1.90
   3   4   3   70.69    4.20
  -3   4  -3   62.69    3.80
  -3   4  -3   60.79    4.40
  -3  -4   3   58.99    3.80
   3  -4  -3   69.89    4.10
   3  -4  -3   61.59    3.70
   3   4   3   59.59    3.60
  -3   4  -3   71.09    6.60
   3   4   3   62.49    3.00
   3  -4  -3   61.89    2.70
  -3  -4   3   60.59    2.50
  -3  -4   3   63.19    3.50
   4  -4   3   96.79    5.20
   4   4  -3   95.89    5.70
   4  -4   3   92.49    5.00
   4  -4   3   95.09    5.60
  -4  -4  -3   92.69    3.00
  -4   4   3   85.39    2.90
  -4   4   3   91.49   10.10
  -4  -4  -3   91.89    4.70
   4   4  -3   99.39    5.40
  -4  -4  -3   93.39    5.30
  -4   4   3   92.19    8.50
   4  -4  -3   88.89    4.50
   4   4   3   89.69    5.20
  -4  -4   3   95.89    5.60
   4  -4  -3   90.79    5.40
   4   4   3   92.49    4.30
  -4   4  -3  100.49    7.40
  -4   4  -3   92.29    5.80
  -4  -4   3   97.79    4.70
   4  -4  -3   91.69    3.50
  -4   4  -3   92.59    4.90
   4   4   3   98.09    5.60
   4  -4  -3   91.79    5.10
  -5  -4  -3  274.77    8.70
  -5   4   3  277.17   14.80
   5   4  -3  275.97   10.20
  -5   4   3  261.37   16.70
   5  -4   3  256.87    9.10
   5   4  -3  271.17    9.60
  -5  -4  -3  262.37    9.60
  -5   4   3  262.97    6.60
   5  -4   3  274.77   10.10
   5   4  -3  281.17   10.10
   5  -4   3  275.07   10.50
  -5  -4   3  251.47    6.30
  -5  -4   3  251.57    8.50
   5  -4  -3  277.67    9.00
  -5  -4   3  254.57    9.70
   5   4   3  257.77    9.60
  -5   4  -3  267.07   13.00
  -5   4  -3  260.87    9.30
   5   4   3  267.67    8.60
  -5   4  -3  253.47   11.20
   5  -4  -3  267.57   10.10
   5   4   3  264.57    9.60
   5  -4  -3  273.27    9.20
   6  -4   3   29.90    4.20
  -6   4   3   30.80    8.20
  -6  -4  -3   24.90    3.30
   6  -4   3   28.10    4.30
  -6  -4  -3   28.30    4.10
   6   4  -3   22.80    3.70
  -6   4   3   33.10    6.90
   6   4  -3   31.10    4.20
   6   4  -3   23.40    3.50
   6   4   3   28.20    3.70
   6   4   3   25.60    3.20
  -6  -4   3   31.80    3.70
  -6  -4   3   25.80    4.30
  -6   4  -3   26.60    3.70
  -6   4  -3   28.60    6.50
   6  -4  -3   31.50    3.70
   6  -4  -3   27.80    3.90
   6  -4  -3   27.10    4.30
   6   4   3   25.40    3.60
  -7   4   3   86.19   13.00
  -7  -4  -3   67.29    5.00
  -7   4   3   78.89   11.00
   7  -4   3   68.69    6.80
   7   4  -3   52.69    6.10
   7  -4   3   63.89    6.40
  -7  -4  -3   71.29    6.50
   7   4  -3   77.49    6.00
   7   4  -3   73.09    6.50
  -7  -4   3   73.89    7.10
   7  -4  -3   69.79    4.70
   7   4   3   72.19    5.50
  -7  -4   3   76.39    5.00
  -7   4  -3   73.59    6.30
   7   4   3   73.29    5.90
   7  -4  -3   69.89    6.30
  -7   4  -3   72.79    8.70
   7   4   3   67.39    6.40
   8   4  -3  101.79    8.80
  -8  -4  -3   86.49    6.50
   8   4  -3   91.19    7.90
   8  -4   3   86.49    7.60
  -8   4   3  118.39   16.80
   8  -4   3   84.19    7.00
  -8   4   3  118.79   14.60
   8  -4  -3   85.79    7.40
  -8  -4   3   92.39    6.30
  -8   4  -3   97.69    6.70
   8   4   3   90.79    6.20
   8   4   3   89.89    7.90
   8   4   3   98.19    6.90
  -8   4  -3   81.59   10.20
  -8  -4   3  107.79    9.20
  -9   4   3   60.79   15.50
  -9  -4  -3   38.70    5.80
   9  -4   3   29.40    5.40
   9   4  -3   38.00    6.10
  -9   4   3   41.80   10.00
   9  -4   3   35.40    6.00
  -9  -4  -3   36.90    5.90
   9   4  -3   29.90    5.60
  -9  -4   3   43.60    6.60
   9   4   3   33.00    5.10
  -9   4  -3   35.80    5.70
   9   4   3   35.30    5.40
   0  -5  -3   13.50    1.40
   0  -5  -3   12.40    1.80
   0   5   3    8.90    3.60
   0   5   3   13.10    1.40
   0   5  -3   10.00    2.50
   0   5  -3    9.30    1.90
   0   5   3   10.40    2.90
   0   5  -3   16.40    2.30
   0  -5   3   15.80    2.00
   0  -5  -3   13.90    1.80
   0  -5  -3   14.60    2.20
   0   5   3   12.60    1.60
   0  -5   3   14.00    1.50
  -1  -5  -3  382.26    7.70
   1   5  -3  388.76    9.60
  -1  -5  -3  393.66    9.70
   1   5  -3  382.26    9.80
  -1  -5  -3  385.26   10.00
  -1   5   3  386.76    9.40
  -1   5   3  401.76   14.80
   1  -5   3  391.26    9.70
  -1  -5  -3  390.76    9.80
   1  -5   3  384.66    8.20
   1  -5   3  399.86    9.60
   1   5  -3  379.56    8.60
   1   5  -3  391.36   10.70
  -1   5   3  394.76   15.60
   1   5  -3  407.36   13.40
  -1   5   3  384.46    7.40
   1  -5  -3  384.56    8.60
  -1   5  -3  389.56    9.70
   1   5   3  388.66   13.00
   1  -5  -3  400.96   10.50
   1  -5  -3  379.76    9.80
  -1  -5   3  382.06    9.50
   1   5   3  384.96    9.30
  -1   5  -3  397.66   10.10
  -1  -5   3  386.96    9.80
  -1   5  -3  387.36   12.90
   1   5   3  381.46    8.00
   1  -5  -3  387.96    9.20
   2   5  -3   51.69    3.80
   2  -5   3   49.40    3.00
  -2  -5  -3   49.20    3.30
   2  -5   3   46.80    3.10
  -2  -5  -3   45.30    2.60
   2   5  -3   45.00    1.80
  -2   5   3   45.40    6.90
   2  -5   3   48.20    3.60
   2  -5   3   48.60    3.40
   2   5  -3   44.30    3.50
   2   5  -3   50.59    5.20
  -2  -5  -3   43.40    3.00
   2   5  -3   56.19    3.30
   2  -5   3   45.60    3.50
  -2   5   3   49.50    7.30
  -2  -5   3   47.50    2.70
   2  -5  -3   47.40    3.30
  -2   5  -3   46.40    5.80
  -2  -5   3   49.00    3.50
  -2   5  -3   50.69    2.70
   2   5   3   46.20    4.00
   2  -5  -3   45.70    3.00
   2  -5  -3   43.10    1.50
  -2   5  -3   48.00    3.90
   2   5   3   49.00    4.90
   2   5   3   47.60    1.70
  -2  -5   3   46.90    3.50
   2  -5  -3   47.30    2.20
   2  -5  -3   50.79    3.70
   2   5   3   46.80    3.30
   3  -5   3  523.85   13.40
  -3  -5  -3  506.65   10.80
   3  -5   3  507.85   13.10
   3   5  -3  501.15   13.30
   3  -5   3  529.15   14.00
  -3   5   3  530.25   18.70
   3   5  -3  513.35   14.20
  -3  -5  -3  507.15   12.50
  -3   5   3  512.65   20.80
  -3  -5  -3  521.65   13.30
   3   5  -3  509.65   12.20
   3   5   3  521.75   13.20
   3   5   3  519.95   16.20
   3  -5  -3  517.55   13.30
  -3  -5   3  493.25   10.80
  -3  -5   3  538.55   13.70
   3  -5  -3  524.75   13.40
   3   5   3  509.05   14.10
  -3   5  -3  515.95   13.30
   3   5   3  493.15   11.50
   3  -5  -3  505.15   11.40
  -3  -5   3  516.05   12.90
  -3   5  -3  516.25   17.10
  -3   5  -3  486.55   12.20
  -4  -5  -3  298.27   10.00
  -4   5   3  310.07   15.20
   4  -5   3  310.67   10.30
   4  -5   3  280.47    9.40
  -4   5   3  298.97   17.40
   4  -5   3  296.67   10.60
   4   5  -3  320.87   11.00
   4   5  -3  290.07    9.90
  -4  -5  -3  311.17    9.30
   4   5   3  295.87    9.80
   4   5   3  305.97   10.70
  -4   5  -3  280.87   10.60
   4  -5  -3  300.67    7.90
   4  -5  -3  300.67    9.80
  -4   5  -3  302.27   10.00
  -4  -5   3  299.27    9.30
  -4  -5   3  303.07    7.40
  -4  -5   3  296.77   10.10
   4   5   3  302.87    8.70
   4  -5  -3  299.37   10.10
  -4   5  -3  315.37   14.40
  -5   5   3   17.50    5.60
   5  -5   3   12.80    3.30
   5   5  -3   19.10    3.30
   5   5  -3    7.20    3.20
  -5  -5  -3   14.10    2.70
  -5   5   3   12.70    6.00
   5   5  -3   14.60    2.90
   5  -5   3   19.80    3.50
  -5  -5  -3   18.00    3.30
   5   5   3   13.70    2.40
  -5  -5   3   12.90    2.50
   5   5   3   19.30    3.60
  -5   5  -3   17.40    3.40
   5   5   3   14.30    3.40
   5  -5  -3   14.60    2.80
  -5   5  -3   19.60    5.80
   5  -5  -3   16.70    3.10
  -5  -5   3   14.90    3.50
  -6   5   3   71.59   10.80
   6   5  -3   60.79    5.90
   6   5  -3   63.09    6.40
   6   5  -3   52.49    5.30
  -6  -5  -3   64.19    4.70
  -6  -5  -3   63.89    5.10
   6  -5   3   61.59    6.00
   6  -5   3   55.59    5.90
  -6   5   3   70.09   11.40
  -6  -5   3   63.59    6.10
  -6   5  -3   58.09    8.40
   6   5   3   54.59    5.00
   6   5   3   60.69    6.00
   6   5   3   53.99    4.80
  -6   5  -3   60.89    5.00
   6  -5  -3   55.89    5.70
  -6  -5   3   56.39    5.10
   6  -5  -3   58.29    4.50
   7  -5   3   92.49    8.00
   7   5  -3   73.29    6.80
  -7   5   3   76.89   13.30
  -7   5   3   97.49   13.00
  -7  -5  -3   81.69    5.40
   7   5  -3   70.89    6.90
   7  -5   3   70.79    7.00
   7   5  -3   82.49    6.70
  -7  -5  -3   78.09    6.00
  -7  -5   3   83.29    8.00
   7  -5  -3   74.39    5.60
   7   5   3   74.69    5.60
  -7   5  -3   83.09   11.10
  -7  -5   3   78.79    6.00
  -7   5  -3   81.19    6.20
   7   5   3   78.09    6.90
   7   5   3   83.29    6.20
   8  -5   3    0.90    2.30
   8   5  -3    3.70    2.80
  -8   5   3    6.20    7.80
  -8   5   3    8.00    9.70
   8  -5   3    2.90    2.60
   8   5  -3   -2.70    3.20
  -8  -5  -3    2.00    3.60
  -8  -5  -3    4.40    2.60
   8   5  -3    3.10    3.60
   8   5   3    0.50    2.60
  -8   5  -3   -4.30    6.00
   8   5   3    2.90    2.60
  -8  -5   3    0.30    1.80
   8   5   3   -4.30    3.30
  -8   5  -3    0.00    2.30
  -8  -5   3    6.40    4.10
  -9   5   3   56.69   12.10
   9  -5   3   56.19    7.30
  -9  -5  -3   57.79    7.80
   9   5  -3   56.69    6.80
  -9  -5  -3   49.40    6.40
   9  -5   3   58.69    7.50
   9   5  -3   66.09    7.70
  -9   5  -3   51.29    6.10
  -9  -5   3   49.70    5.20
  -9  -5   3   70.39    7.90
   9   5   3   59.59    7.80
   0   6   3   69.99    7.30
   0  -6  -3   68.79    3.10
   0  -6  -3   71.59    4.20
   0   6   3   66.09    3.40
   0   6  -3   66.69    4.00
   0   6  -3   63.99    3.70
   0   6   3   68.99    3.00
   0  -6   3   68.29    3.00
   0  -6  -3   70.69    3.70
   0   6  -3   66.59    6.00
   0   6  -3   66.89    3.60
   0  -6  -3   69.19    4.20
   0   6   3   67.39    6.10
   0  -6   3   71.79    3.90
  -1  -6  -3  200.78    5.10
  -1   6   3  201.88   11.20
  -1   6   3  204.48   10.80
   1  -6   3  194.68    5.20
   1  -6   3  203.38    6.60
  -1  -6  -3  195.08    6.60
   1   6  -3  199.38    6.80
  -1  -6  -3  193.18    7.00
   1   6  -3  190.88    9.80
  -1  -6  -3  195.58    6.70
   1  -6   3  203.08    6.70
  -1   6   3  204.38    6.60
   1   6  -3  202.38    6.60
  -1   6   3  190.68    4.60
   1   6  -3  203.18    7.80
  -1   6  -3  208.48    6.90
   1   6   3  194.88    6.20
   1  -6  -3  193.28    6.20
   1  -6  -3  213.68    7.60
  -1   6  -3  199.28    7.00
   1   6   3  196.08    5.30
  -1   6  -3  196.48    9.90
   1   6   3  197.98    9.80
   1  -6  -3  205.58    7.10
  -1  -6   3  204.58    6.90
  -1  -6   3  202.28    6.50
   1  -6  -3  189.58    5.70
  -2   6   3  223.68   13.30
   2   6  -3  221.18    5.20
  -2  -6  -3  227.18    7.90
   2  -6   3  220.38    7.50
  -2  -6  -3  226.88    7.00
  -2   6   3  214.58    7.30
   2   6  -3  224.48    7.20
  -2  -6  -3  233.08    7.80
   2  -6   3  211.38    8.20
   2  -6   3  228.68    7.40
   2  -6   3  225.68    8.20
   2   6  -3  219.98    7.80
  -2   6   3  220.78   12.10
   2   6  -3  211.98   10.90
   2   6  -3  226.88    8.60
   2   6   3  223.18   10.50
  -2  -6   3  223.48    7.70
  -2   6  -3  226.18    6.90
   2   6   3  225.88    8.90
  -2   6  -3  214.28    7.70
   2   6   3  227.78    7.50
   2   6   3  218.38    5.20
   2  -6  -3  218.28    7.30
  -2  -6   3  222.18    7.70
   2  -6  -3  214.18    5.80
  -2  -6   3  216.78    6.60
  -2   6  -3  236.78   11.40
   2  -6  -3  233.28    7.60
   2  -6  -3  228.18    8.10
   3   6  -3  238.18    9.50
   3  -6   3  215.78    8.20
  -3   6   3  249.28   14.20
   3  -6   3  241.78    8.60
  -3  -6  -3  239.48    6.80
  -3   6   3  234.48   15.30
   3  -6   3  241.08    9.20
  -3  -6  -3  240.28    8.10
  -3  -6  -3  236.88    8.60
   3   6  -3  235.58    7.50
   3   6  -3  231.08    8.70
  -3   6  -3  243.78    8.90
   3   6   3  255.77    9.60
  -3   6  -3  225.08   11.60
   3   6   3  251.07    8.40
  -3  -6   3  242.08    8.30
   3  -6  -3  225.18    8.40
   3  -6  -3  244.08    8.90
  -3  -6   3  242.18    8.80
   3   6   3  234.48   11.20
  -3  -6   3  228.18    6.80
  -3   6  -3  231.78    6.40
   4  -6   3  205.28    9.20
  -4   6   3  206.38   15.80
   4   6  -3  199.18    8.70
  -4  -6  -3  201.28    7.70
   4   6  -3  201.78    9.00
   4   6  -3  214.08    7.40
  -4   6   3  216.68   13.30
  -4  -6  -3  215.28    8.70
   4  -6   3  205.88    8.40
  -4  -6   3  203.48    8.80
   4   6   3  197.18    7.00
  -4  -6   3  207.18    8.20
  -4   6  -3  208.58   11.90
   4   6   3  210.58    8.60
   4   6   3  199.98    9.20
   4  -6  -3  208.28    8.40
   4  -6  -3  202.68    6.70
   4  -6  -3  191.98    8.10
  -4   6  -3  205.28    8.50
  -5  -6  -3  155.68    8.00
   5  -6   3  146.69    8.10
   5   6  -3  155.28    7.90
  -5  -6  -3  161.28    7.10
   5   6  -3  159.08    8.50
   5  -6   3  160.68    7.90
   5   6  -3  152.28    8.20
  -5   6   3  157.48   15.40
  -5   6   3  174.48   14.40
   5   6   3  156.28    8.10
   5   6   3  145.59    6.30
   5  -6  -3  152.58    7.90
  -5  -6   3  158.08    8.60
   5  -6  -3  174.78    8.10
  -5   6  -3  145.49   12.20
   5   6   3  157.78    8.20
  -5   6  -3  165.08    7.80
  -5  -6   3  164.18    7.70
  -6   6   3   42.80    9.70
   6  -6   3   59.49    6.00
   6   6  -3   54.69    5.80
  -6  -6  -3   51.89    5.70
   6   6  -3   47.40    5.40
  -6   6   3   53.39   10.50
   6  -6   3   45.60    5.80
  -6  -6  -3   46.60    4.30
   6   6  -3   57.69    6.70
  -6   6  -3   47.40    9.10
   6   6   3   53.49    6.00
   6  -6  -3   52.99    5.10
  -6  -6   3   54.89    5.00
  -6  -6   3   53.09    6.20
   6   6   3   58.29    4.50
   6  -6  -3   50.69    5.90
  -6   6  -3   51.09    5.70
   6   6   3   54.59    6.00
   7   6  -3   10.80    3.40
   7  -6   3    4.40    3.30
  -7  -6  -3    5.30    2.60
  -7   6   3    1.70    7.30
  -7  -6  -3    4.60    2.50
   7  -6   3    1.40    3.40
  -7   6   3    6.00    5.80
   7   6  -3    2.90    3.30
   7   6  -3   15.20    4.40
  -7  -6   3    2.00    2.00
  -7   6  -3    8.00    3.90
   7   6   3    7.60    2.90
  -7   6  -3    7.00    7.00
   7  -6  -3    9.20    2.60
   7   6   3   15.20    4.20
   7  -6  -3    9.40    3.80
  -7  -6   3   10.90    4.20
   8  -6   3   66.59    7.20
  -8  -6  -3   86.49    9.20
  -8  -6  -3   54.59    6.20
   8   6  -3   60.09    7.40
   8   6  -3   65.69    7.70
   8  -6   3   76.79    8.70
  -8   6   3   77.09   13.20
   8   6  -3   71.29    7.30
  -8   6  -3   76.39   11.30
  -8  -6   3   85.49    8.30
   8   6   3   66.89    7.80
  -8   6  -3   76.49    7.80
  -8  -6   3   54.29    6.00
   8   6   3   69.49    7.20
   0  -7   3  288.27    9.00
   0  -7  -3  273.67    8.90
   0   7   3  273.37    7.80
   0   7  -3  273.87   12.30
   0   7   3  265.77    7.10
   0   7  -3  274.17    9.30
   0  -7  -3  286.57    8.10
   0   7  -3  281.67    8.90
   0   7   3  266.57   12.60
   0   7   3  286.07   14.70
   0  -7   3  266.17    7.20
   0   7  -3  268.67    8.20
   0  -7  -3  277.67    9.10
   0  -7   3  272.37    7.70
   0  -7  -3  261.87    7.30
   1   7  -3  671.03   17.30
   1   7  -3  685.73   15.50
   1   7  -3  665.63   21.20
   1  -7   3  680.33   15.20
  -1   7   3  674.63   15.20
  -1  -7  -3  644.54   15.60
  -1   7   3  674.33   22.80
  -1  -7  -3  698.43   15.70
  -1   7   3  667.93   22.20
   1  -7   3  668.33   13.00
   1  -7   3  663.33   16.40
   1   7  -3  652.33   15.60
   1   7  -3  652.53   14.10
  -1  -7  -3  653.03   15.90
   1  -7   3  656.93   15.50
   1   7   3  666.23   14.90
  -1   7  -3  683.43   16.10
   1  -7  -3  661.53   16.50
  -1  -7   3  658.63   14.90
   1  -7  -3  667.83   16.10
  -1   7  -3  684.03   16.20
   1   7   3  640.34   13.60
  -1  -7   3  685.53   15.90
   1  -7  -3  655.13   14.30
   1  -7  -3  642.54   14.90
   1   7   3  668.03   21.00
   1   7   3  669.33   17.60
  -1   7  -3  666.73   20.90
   2  -7   3  331.77    9.50
   2   7  -3  300.97   13.90
  -2   7   3  310.87   15.90
   2   7  -3  332.37   11.40
  -2  -7  -3  340.17   10.40
   2   7  -3  318.57    9.30
   2   7  -3  314.47   10.10
  -2  -7  -3  331.87    9.40
   2  -7   3  334.17   11.00
  -2   7   3  332.17   10.10
   2  -7   3  308.97    9.60
  -2  -7  -3  315.97   10.00
  -2   7   3  332.37   16.30
   2   7   3  335.67   14.10
   2  -7  -3  320.47   10.00
   2   7   3  348.37   10.00
  -2  -7   3  327.77   10.00
  -2   7  -3  326.97   10.60
   2  -7  -3  333.77   10.90
   2   7   3  329.97   11.60
   2  -7  -3  317.57    9.70
  -2   7  -3  319.67    9.40
  -2  -7   3  311.97    9.00
  -2   7  -3  353.86   14.90
   2  -7  -3  334.57    8.30
  -2  -7   3  331.27   10.10
  -3   7   3  274.17   16.00
   3   7  -3  282.27    8.80
  -3   7   3  273.27    9.50
  -3  -7  -3  283.27    9.50
   3   7  -3  287.97   11.30
   3  -7   3  292.07   10.70
  -3   7   3  283.07   16.40
  -3  -7  -3  284.27   10.00
   3  -7   3  282.57    9.70
   3   7  -3  282.87   10.20
   3  -7  -3  280.67    9.70
   3   7   3  280.97   10.90
   3  -7  -3  282.47   10.30
   3  -7  -3  269.57    7.00
  -3  -7   3  276.27    9.80
  -3  -7   3  290.17   10.10
  -3   7  -3  274.17   14.00
  -3  -7   3  263.97    8.10
   3   7   3  272.67    9.40
   3   7   3  279.07   13.70
  -3   7  -3  273.07    9.80
  -4  -7  -3    5.30    2.80
   4   7  -3    7.10    2.10
  -4   7   3    6.30    6.50
  -4   7   3    0.30    5.60
   4  -7   3    9.90    3.20
   4   7  -3    7.20    2.90
  -4   7   3    8.00    2.40
   4  -7   3   11.60    2.60
  -4  -7  -3    9.00    2.10
   4   7  -3   10.50    3.40
  -4   7  -3    4.70    5.10
  -4  -7   3    6.00    2.20
   4  -7  -3   10.60    2.90
   4   7   3    8.60    2.80
   4   7   3    3.20    2.30
   4  -7  -3    8.40    2.80
  -4  -7   3    8.70    3.10
   4   7   3    5.10    1.90
  -4   7  -3   10.70    2.80
  -4  -7   3    9.80    1.90
  -5   7   3  212.38   17.20
   5  -7   3  206.28   10.00
   5   7  -3  191.28    9.30
   5   7  -3  228.28   11.20
  -5  -7  -3  213.68    9.30
  -5  -7  -3  205.48    8.20
   5  -7   3  206.68    9.40
  -5   7   3  213.28    9.60
  -5   7   3  211.98   17.20
  -5   7  -3  211.68    9.30
   5   7   3  209.48   10.50
  -5   7  -3  208.68   14.60
   5  -7  -3  199.38    9.80
  -5  -7   3  224.08   10.30
   5  -7  -3  203.18    9.30
   5   7   3  209.58    9.70
   5   7   3  195.48    8.00
  -5  -7   3  201.38    8.60
   6   7  -3   44.50    5.40
   6  -7   3   55.19    6.30
  -6   7   3   48.50   10.50
  -6   7   3   43.40    5.60
   6   7  -3   49.70    6.40
   6   7  -3   54.59    6.50
  -6  -7  -3   35.80    4.80
  -6   7   3   63.79   11.70
  -6  -7  -3   42.90    4.40
   6  -7   3   47.80    6.30
   6   7   3   56.09    6.60
  -6   7  -3   45.10    5.30
   6  -7  -3   46.40    5.20
   6  -7  -3   44.80    5.70
  -6  -7   3   57.79    6.90
   6   7   3   44.10    5.40
  -6  -7   3   40.60    5.20
  -6   7  -3   50.09    8.70
   7   7  -3   -0.10    2.50
   7  -7   3    9.00    4.10
  -7  -7  -3    4.00    3.30
   7   7  -3    2.10    2.80
   7   7  -3    3.30    2.70
  -7  -7  -3   -2.40    2.10
  -7   7   3    1.50    6.20
   7  -7   3    1.10    2.30
  -7   7   3    0.50    3.40
   7   7   3    0.80    3.40
  -7   7  -3   -7.00    6.40
  -7  -7   3    3.60    2.90
  -7   7  -3   -0.70    2.20
  -7  -7   3    0.40    2.80
   7   7   3    1.20    3.40
   7  -7  -3    7.40    3.70
   7  -7  -3   -2.40    2.30
  -8  -7  -3   55.59    8.20
  -8  -7  -3   45.30    5.90
   8   7  -3   39.40    6.60
   8  -7   3   42.20    6.60
   8  -7   3   32.00    5.80
  -8   7   3   36.40    6.00
  -8   7   3   46.30   11.10
   8   7  -3   46.20    6.70
   8   7  -3   47.80    7.30
   8   7   3   34.20    5.60
  -8  -7   3   34.00    4.80
  -8   7  -3   46.10    5.90
   8   7   3   40.70    5.80
  -8   7  -3   32.60    8.50
  -8  -7   3   44.30    6.60
   8  -7  -3   39.90    5.40
   0   8   3  720.03   19.00
   0  -8  -3  679.83   17.40
   0   8  -3  686.63   22.90
   0  -8   3  670.43   14.60
   0   8  -3  708.63   16.50
   0  -8  -3  720.13   16.30
   0  -8   3  701.43   17.00
   0  -8   3  683.83   15.40
   0   8   3  726.33   23.70
   0   8  -3  702.13   18.10
   0   8  -3  701.13   16.90
   0  -8  -3  690.03   17.30
   0   8   3  697.23   15.50
  -1  -8  -3  272.27    9.00
   1  -8   3  285.47    8.80
   1   8  -3  275.07   14.00
  -1   8   3  297.77   15.70
   1   8  -3  257.27    7.60
  -1   8   3  285.07   14.80
   1  -8   3  287.57    9.50
   1   8  -3  281.67   10.80
  -1  -8  -3  292.67    9.90
   1   8  -3  286.47    9.20
  -1  -8  -3  294.67    9.70
   1   8  -3  289.47    9.60
   1  -8   3  288.27   10.30
  -1   8   3  280.47    8.80
  -1  -8   3  280.97    8.50
  -1  -8   3  277.17    7.70
   1   8   3  278.17   13.60
  -1   8  -3  275.37    9.70
   1  -8  -3  279.07    8.70
   1   8   3  271.17    8.40
  -1   8  -3  284.57    9.80
   1   8   3  279.17   10.90
   1  -8  -3  280.67    9.90
   1  -8  -3  268.57   10.00
  -1   8  -3  281.97   13.70
  -1   8  -3  281.17    8.40
   1  -8  -3  264.97    8.20
  -1  -8   3  290.67    9.60
   2   8  -3  288.47    9.30
  -2   8   3  279.07   15.50
   2   8  -3  289.07   11.20
  -2  -8  -3  298.87    9.90
  -2   8   3  294.87    9.90
   2  -8   3  302.87   11.00
  -2  -8  -3  284.57    9.10
   2  -8   3  289.17    9.30
   2   8  -3  285.17   14.70
  -2  -8  -3  288.07   10.00
   2   8  -3  306.97   10.50
  -2   8   3  298.27   16.30
   2  -8   3  293.07    9.40
   2  -8  -3  282.87    9.50
  -2   8  -3  269.57    8.00
  -2   8  -3  294.47    9.50
   2  -8  -3  293.67   10.10
   2  -8  -3  294.67   10.50
  -2  -8   3  292.97   10.00
   2   8   3  289.17    9.50
   2  -8  -3  287.87    8.10
  -2   8  -3  296.67   14.70
  -2   8  -3  274.97   10.00
   2   8   3  292.97   14.60
  -2  -8   3  291.57    9.50
   2   8   3  305.37   12.00
  -3  -8  -3  245.88    9.30
  -3   8   3  245.98   15.20
  -3  -8  -3  230.48    9.40
   3   8  -3  238.48    9.80
  -3   8   3  240.58   16.30
  -3   8   3  255.37    9.40
   3   8  -3  249.68    8.50
   3  -8   3  224.98    9.00
   3  -8   3  227.28   10.10
   3   8  -3  245.18   11.00
   3  -8  -3  240.68    9.20
  -3  -8   3  233.48    9.10
   3   8   3  230.38   10.50
  -3  -8   3  225.98    9.00
  -3  -8   3  245.28    8.20
  -3   8  -3  252.57   14.20
   3   8   3  244.78   14.00
  -3   8  -3  245.88   10.00
   3  -8  -3  244.98    9.70
   3   8   3  234.38    9.20
  -4   8   3   47.80    8.60
   4   8  -3   54.69    6.00
  -4   8   3   56.49   10.50
  -4   8   3   61.39    5.70
  -4  -8  -3   54.49    4.40
   4  -8   3   53.29    5.50
   4   8  -3   59.49    6.50
  -4  -8  -3   57.19    5.30
   4  -8   3   59.59    5.60
   4   8  -3   60.69    4.40
   4   8   3   50.19    5.30
  -4  -8   3   47.50    4.00
  -4   8  -3   58.29    8.50
  -4  -8   3   56.99    5.40
  -4  -8   3   58.99    5.50
   4  -8  -3   47.00    5.10
   4   8   3   44.40    5.50
  -4   8  -3   52.89    5.30
   4  -8  -3   49.20    5.40
  -5   8   3   43.30    8.60
  -5  -8  -3   41.00    4.60
  -5   8   3   46.40   10.90
  -5   8   3   55.59    5.70
  -5  -8  -3   52.89    5.90
   5  -8   3   39.40    4.80
   5   8  -3   46.80    6.20
   5   8  -3   47.30    5.40
   5  -8   3   53.29    6.30
  -5  -8   3   43.60    5.60
   5  -8  -3   41.60    5.10
  -5   8  -3   45.10    8.30
   5   8   3   47.30    5.70
  -5  -8   3   49.10    5.50
   5  -8  -3   39.50    5.20
   5   8   3   48.30    6.20
  -5   8  -3   44.10    5.80
  -6   8   3   25.20   10.50
   6   8  -3   22.20    5.50
   6  -8   3   22.30    4.60
   6   8  -3   17.10    4.40
   6   8  -3   21.30    4.60
  -6  -8  -3   28.40    4.00
  -6  -8  -3   16.60    4.20
   6  -8   3   21.00    5.00
  -6   8   3   28.10    5.10
  -6  -8  -3   28.60    4.80
  -6   8  -3   19.10    4.10
   6  -8  -3   24.10    4.80
   6   8   3   24.20    4.80
   6   8   3   17.20    4.70
   6  -8  -3   22.70    4.30
  -6  -8   3   30.60    5.40
  -6  -8   3   19.80    3.70
  -6   8  -3   16.90    7.70
   7   8  -3  120.19    9.40
  -7  -8  -3  139.39    9.30
   7   8  -3  111.59    9.80
   7  -8   3  113.69   10.20
   7   8  -3  113.39   10.20
  -7  -8  -3  141.79   10.80
  -7   8   3  123.89    8.80
  -7   8   3  134.19   16.70
  -7   8  -3  125.29   13.00
   7  -8  -3  124.69    7.90
   7  -8  -3  122.89    9.80
   7   8   3  113.49    9.70
   7   8   3  124.59    9.60
  -7  -8   3  113.29    7.60
  -7   8  -3  107.49    9.30
  -7  -8   3  135.69    9.40
   0   9   3   21.30    2.80
   0   9  -3   24.20    3.60
   0  -9  -3   20.90    2.80
   0  -9   3   18.30    3.50
   0   9   3   24.70    4.30
   0   9   3   24.00    5.40
   0   9  -3   18.30    2.90
   0   9  -3   30.90    6.60
   0  -9   3   28.60    3.50
   0  -9  -3   20.00    3.60
   0  -9  -3   24.70    3.90
   0   9  -3   22.00    3.60
   1   9  -3  132.09   10.20
   1  -9   3  120.09    6.20
  -1   9   3  122.39   11.20
  -1  -9  -3  114.49    6.40
   1   9  -3  135.19    6.20
  -1  -9  -3  127.19    6.50
  -1   9   3  120.89    5.80
  -1  -9  -3  117.39    6.70
  -1  -9  -3  119.19    6.60
   1   9  -3  130.99    6.80
  -1   9   3  119.39    7.10
   1   9  -3  109.19    6.90
  -1   9   3  123.69   11.10
   1  -9   3  127.69    7.40
  -1   9  -3  125.19    6.50
  -1  -9   3  113.49    6.30
  -1   9  -3  113.09    5.50
   1  -9  -3  129.79    5.80
   1   9   3  117.59    9.50
   1  -9  -3  128.89    7.30
   1   9   3  120.69    8.20
   1  -9  -3  121.29    6.70
  -1   9  -3  123.09    6.90
   1   9   3  125.89    5.70
  -1  -9   3  121.99    5.50
  -1   9  -3  138.19   10.80
  -2  -9  -3   68.19    5.10
  -2   9   3   62.79    5.40
   2  -9   3   56.19    5.70
  -2  -9  -3   56.29    5.30
  -2   9   3   65.59    8.70
   2   9  -3   66.89    5.50
   2  -9   3   51.69    4.40
   2  -9   3   54.19    4.40
  -2  -9  -3   58.19    4.70
   2   9  -3   51.79    5.70
  -2   9   3   73.49   10.70
   2   9  -3   56.29    4.20
   2   9  -3   62.09    9.10
   2  -9  -3   63.19    5.20
  -2   9  -3   63.99    8.80
  -2   9  -3   63.99    5.60
   2   9   3   59.49    7.30
  -2  -9   3   57.39    4.70
   2  -9  -3   55.59    3.90
   2   9   3   63.39    4.90
  -2   9  -3   57.29    4.60
   2  -9  -3   56.49    4.60
   2   9   3   68.59    6.90
  -2  -9   3   52.59    5.40
   3   9  -3    9.70    3.80
  -3   9   3   10.50    2.80
   3  -9   3   15.10    3.80
   3   9  -3   11.80    2.60
   3  -9   3    7.20    2.60
   3   9  -3    4.70    3.00
  -3  -9  -3   14.80    3.30
  -3   9   3   11.30    5.70
  -3  -9  -3   13.60    2.90
  -3   9   3   13.00    4.50
  -3  -9  -3   10.60    2.80
   3   9   3   13.50    3.20
  -3  -9   3   13.90    3.10
  -3  -9   3   15.30    3.70
   3   9   3    8.30    3.20
  -3   9  -3   14.20    3.90
   3  -9  -3   14.00    3.20
   3  -9  -3   10.30    2.80
  -3   9  -3   14.50    5.80
   3   9   3    7.40    5.00
   4  -9   3   19.80    4.60
  -4   9   3   25.30    4.70
  -4  -9  -3   29.60    4.60
   4  -9   3   17.90    3.60
  -4   9   3   20.20    7.40
  -4  -9  -3   26.30    4.50
   4   9  -3   31.30    5.40
  -4   9   3   20.00    5.50
  -4  -9  -3   22.60    3.40
   4   9  -3   22.10    4.50
   4   9  -3   21.60    4.00
  -4   9  -3   21.80    4.70
   4  -9  -3   19.20    3.80
   4  -9  -3   19.00    3.80
   4   9   3   21.60    4.10
  -4   9  -3   20.30    6.90
  -4  -9   3   22.70    4.10
   4   9   3   26.80    5.20
  -4  -9   3   25.80    3.80
   5   9  -3   35.50    5.20
   5   9  -3   38.00    6.20
  -5   9   3   53.69   11.80
  -5  -9  -3   45.30    5.90
   5  -9   3   28.00    4.30
  -5  -9  -3   31.90    4.50
   5  -9   3   34.40    5.80
  -5   9   3   45.20    5.90
  -5  -9  -3   32.40    4.50
  -5   9  -3   37.10    5.90
   5   9   3   47.20    6.80
   5  -9  -3   38.70    5.40
  -5  -9   3   40.90    5.60
  -5   9  -3   41.50    9.10
   5   9   3   37.40    5.20
   5  -9  -3   45.20    5.50
  -5  -9   3   32.20    4.60
  -6  -9  -3  104.89    7.30
   6   9  -3  123.19    9.10
  -6  -9  -3  158.98   10.30
   6   9  -3  121.39    8.60
  -6  -9  -3  112.89    8.90
  -6   9   3  105.69   15.70
  -6   9   3  108.99    8.00
   6  -9   3  117.99    8.70
   6  -9   3  122.69   10.40
   6   9  -3  126.89   10.70
  -6   9  -3  131.09    9.80
   6   9   3  103.49    8.70
   6   9   3  118.99    9.10
  -6  -9   3  115.89    9.30
  -6  -9   3  112.09    8.40
   6  -9  -3  106.09    7.70
  -6   9  -3  110.29   13.90
   6  -9  -3  116.99    9.20
   7   9  -3   31.40    5.30
  -7   9   3   26.80    5.10
  -7  -9  -3   17.60    4.90
   7  -9   3   20.40    5.10
  -7   9   3   22.90   12.90
   7   9  -3    9.10    4.70
  -7  -9  -3   36.30    6.50
   7   9  -3   22.30    6.20
   7  -9   3   29.60    6.50
   7   9   3   22.00    4.90
  -7   9  -3   35.70    9.80
  -7  -9   3   31.50    5.50
  -7  -9   3   21.00    5.00
   7   9   3   22.80    4.60
   7  -9  -3   39.30    5.90
   7  -9  -3   34.90    6.30
   0  10   3   73.09   10.10
   0  10  -3   70.79    5.00
   0 -10  -3   76.69    4.90
   0  10  -3   68.39    5.70
   0  10  -3   76.09   10.30
   0 -10  -3   62.79    5.80
   0 -10   3   64.99    6.10
   0  10   3   83.09    7.80
   0 -10   3   77.29    6.00
   0 -10  -3   65.69    5.40
  -1 -10  -3   19.30    3.40
  -1  10   3   15.10    3.20
   1  10  -3   16.50    2.70
  -1 -10  -3   18.80    3.60
  -1  10   3   22.70    6.80
   1 -10   3   23.70    3.80
   1  10  -3   22.30    6.00
  -1  10   3   15.20    3.60
  -1 -10  -3   20.50    3.50
   1 -10   3   11.50    2.90
   1  10  -3   20.00    3.40
   1  10  -3   20.90    4.30
   1 -10  -3   20.00    3.10
  -1  10  -3   24.40    4.10
   1 -10  -3   18.10    3.90
  -1 -10   3   18.70    3.90
   1  10   3   17.80    4.30
   1  10   3   20.80    6.00
   1 -10  -3   20.40    3.80
  -1  10  -3   19.30    3.80
  -1  10  -3   16.90    6.10
  -2  10   3   46.00    4.90
   2 -10   3   49.00    5.00
   2  10  -3   52.79    5.50
  -2  10   3   42.20    5.10
  -2 -10  -3   46.00    4.70
   2  10  -3   39.60    5.70
   2 -10   3   38.40    5.20
  -2  10   3   56.29    9.90
   2  10  -3   41.20    7.70
   2  10  -3   43.60    4.30
  -2 -10  -3   46.40    4.90
  -2 -10   3   41.70    4.80
  -2  10  -3   53.49    5.60
   2  10   3   30.20    5.10
   2 -10  -3   46.50    5.40
  -2  10  -3   57.79    8.50
   2  10   3   48.30    8.00
  -3 -10  -3   52.69    5.10
  -3 -10  -3   63.09    6.00
   3 -10   3   46.60    5.90
   3  10  -3   52.79    6.00
  -3  10   3   53.39    5.70
   3  10  -3   52.79    4.70
  -3 -10  -3   59.89    6.00
  -3  10   3   55.59    5.70
  -3  10   3   65.69   11.30
   3  10  -3   41.90    5.80
  -3  10  -3   78.19   10.80
   3  10   3   61.79    7.50
   3  10   3   72.79   10.20
   3 -10  -3   54.99    5.90
  -3 -10   3   58.19    5.40
  -3  10  -3   59.09    5.90
  -3 -10   3   52.99    5.50
  -4 -10  -3   58.19    6.00
  -4  10   3   56.69    5.70
   4  10  -3   66.89    6.90
  -4 -10  -3   56.79    5.80
   4  10  -3   64.59    7.50
  -4 -10  -3   56.59    5.80
  -4  10   3   55.29   11.60
   4 -10   3   62.39    7.20
  -4  10  -3   62.69   10.20
   4 -10  -3   44.90    5.50
   4 -10  -3   55.19    6.20
  -4 -10   3   56.29    5.90
  -4  10  -3   58.19    6.70
   4  10   3   61.29    7.60
  -4 -10   3   63.49    6.10
   4  10   3   66.39    6.40
  -5  10   3   77.99    7.10
  -5 -10  -3   86.39    7.90
  -5  10   3   94.79   13.60
   5  10  -3   80.39    9.10
   5  10  -3   79.19    7.50
  -5 -10  -3   84.49    7.80
  -5 -10  -3   71.99    5.70
   5 -10   3   83.19    8.70
  -5  10  -3   76.99    7.30
   5 -10  -3   87.89    7.90
  -5 -10   3   80.79    6.90
   5 -10  -3   68.89    7.10
   5  10   3   77.49    7.50
   5  10   3   63.59    7.50
  -5 -10   3   81.29    7.20
  -5  10  -3   80.99   11.00
  -6  10   3    3.70    4.30
   6  10  -3    9.30    3.70
  -6  10   3    6.00    6.90
   6  10  -3    7.90    5.40
  -6 -10  -3   16.40    4.90
   6  10  -3    6.50    4.00
   6 -10   3    6.90    3.70
  -6 -10  -3    5.00    3.20
   6  10   3    6.90    4.20
   6  10   3    5.70    4.50
  -6  10  -3    8.40    6.90
   6 -10  -3   12.10    4.50
  -6 -10   3    5.70    4.10
  -6 -10   3    7.70    3.30
   6 -10  -3    7.10    4.10
  -6  10  -3   -0.10    5.00
   0 -11  -3   47.60    5.40
   0  11  -3   52.49    9.70
   0  11  -3   48.10    5.70
   0  11  -3   46.30    5.10
   0  11   3   53.79    7.00
   0 -11  -3   46.80    4.50
   0 -11  -3   40.60    5.10
   0  11   3   43.30    8.50
   0 -11   3   42.50    5.10
   0 -11   3   46.20    5.50
  -1 -11  -3   49.90    5.60
  -1  11   3   51.09    6.50
   1 -11   3   52.29    5.60
   1 -11   3   39.20    5.40
  -1  11   3   62.79   10.10
   1  11  -3   53.49    5.10
   1  11  -3   74.79   10.90
   1  11  -3   56.69    6.40
  -1 -11  -3   45.20    4.70
   1 -11  -3   42.60    5.60
   1  11   3   53.59    6.60
   1  11   3   71.99   10.60
  -1 -11   3   56.09    5.70
  -1 -11   3   49.80    5.70
  -1  11  -3   48.50    8.40
  -1  11  -3   53.79    6.30
  -1  11  -3   46.90    5.00
  -2 -11  -3    5.20    3.20
  -2  11   3    4.40    3.20
  -2  11   3    8.70    5.20
   2 -11   3    5.90    3.50
   2  11  -3    4.00    3.10
  -2 -11  -3    4.50    3.00
   2  11  -3    2.90    3.40
   2  11  -3    5.60    5.60
  -2  11   3    8.30    2.60
   2 -11   3    4.00    2.90
  -2  11  -3   11.20    5.80
  -2 -11   3    6.10    3.60
   2  11   3    8.60    4.30
   2 -11  -3    7.90    3.00
  -2  11  -3    2.50    2.40
   2  11   3   11.60    4.70
   3 -11   3   15.40    4.40
   3  11  -3   15.00    3.60
   3  11  -3   15.90    4.30
  -3 -11  -3   10.60    3.90
  -3  11   3    8.30    7.20
  -3  11   3   10.50    3.90
  -3 -11  -3   11.30    3.20
  -3 -11   3   11.40    4.20
   3 -11  -3   11.70    4.00
  -3  11  -3   12.80    3.60
   3  11   3   24.10    6.80
  -3  11  -3   20.60    6.60
   3  11   3   11.70    4.90
  -4 -11  -3    9.00    4.00
  -4 -11  -3   13.80    3.40
   4  11  -3    8.90    4.30
   4 -11   3   14.50    4.70
  -4  11   3   11.10    4.30
   4  11  -3    5.60    4.30
  -4  11   3   10.00    8.10
  -4  11  -3    5.10    4.20
  -4 -11   3   10.60    4.30
   4  11   3   14.90    5.20
   4  11   3    9.40    3.60
  -4  11  -3   17.30    6.50
   4 -11  -3    9.80    3.40
   5  11  -3   51.09    7.00
  -5 -11  -3   50.69    6.10
   5  11  -3   55.89    7.40
   5 -11   3   49.99    6.80
  -5 -11  -3   59.19    6.30
  -5  11   3   57.49    7.00
   5  11   3   53.69    6.70
   5 -11  -3   63.49    7.60
   5  11   3   50.39    7.30
  -5 -11   3   51.99    5.90
  -5  11  -3   57.59    7.60
  -5  11  -3   56.09    9.10
   0 -12   3    2.80    3.50
   0  12  -3    3.50    2.60
   0  12   3   10.00    4.60
   0  12   3    1.10    3.90
   0  12  -3    5.00    3.10
   0  12  -3   10.80    4.20
   0 -12  -3    3.70    3.40
  -1 -12  -3   58.39    6.30
  -1 -12  -3   52.89    5.20
   1  12  -3   81.79   12.00
  -1  12   3   48.30    6.90
   1  12  -3   49.40    6.70
  -1  12   3   55.49    9.30
   1  12   3   56.59    7.60
   1  12   3   94.69   11.10
  -1 -12   3   49.99    5.60
  -1  12  -3   49.40    5.80
   2 -12   3   -1.90    3.20
  -2  12   3    6.80    4.60
   2  12  -3   22.20    6.30
  -2 -12  -3    0.30    3.30
  -2 -12  -3    2.70    3.40
   2  12  -3   10.80    4.50
   2 -12   3    1.80    2.20
  -2  12   3    4.20    3.50
   2  12   3    3.90    4.20
  -2  12  -3    4.50    2.90
  -2 -12   3    2.00    2.60
   2  12   3   15.80    4.50
  -3 -12  -3   -1.70    2.10
  -3  12   3    2.70    2.80
   3  12  -3    5.40    4.20
   3 -12   3    6.30    3.40
  -3 -12  -3    0.20    3.20
  -3  12   3    4.60    7.10
   3  12   3   -1.70    2.80
  -3 -12   3   -0.10    4.30
  -3  12  -3   -1.70    3.60
   3 -12  -3    1.70    3.40
   1   0   4 2641.54   47.80
  -1   0  -4 2647.94   47.70
   1   0  -4 2611.04   46.10
   1   0   4 2652.13   45.40
   1   0  -4 2703.13   45.20
  -1   0   4 2593.34   46.60
  -1   0   4 2687.23   51.09
   1   0  -4 2685.43   45.40
  -1   0   4 2658.53   46.30
  -1   0   4 2679.83   45.30
   1   0  -4 2570.24   45.20
  -1   0  -4 2698.23   45.70
  -1   0  -4 2715.93   45.60
   2   0  -4 1606.04   28.60
  -2   0  -4 1643.14   29.80
   2   0   4 1649.54   29.30
   2   0  -4 1592.34   29.60
   2   0   4 1659.23   29.20
   2   0  -4 1624.44   29.10
  -2   0  -4 1676.03   28.20
   2   0  -4 1620.34   27.70
  -2   0   4 1567.44   27.80
  -2   0   4 1632.24   27.60
   2   0   4 1654.03   29.00
  -2   0   4 1640.64   29.20
  -2   0  -4 1632.44   29.40
  -2   0   4 1630.74   36.60
   3   0   4  632.44   13.10
   3   0  -4  635.64   14.20
  -3   0  -4  608.04   13.90
  -3   0   4  631.74   13.50
  -3   0  -4  625.24   12.30
  -3   0   4  615.24   20.90
  -3   0   4  621.34   10.70
  -3   0   4  608.24   11.60
   3   0   4  610.54   13.20
   3   0  -4  622.94   12.90
   3   0   4  637.34   13.80
   3   0   4  611.24   12.00
  -3   0  -4  649.93   13.70
  -4   0   4  209.98   12.90
   4   0   4  226.18    6.70
  -4   0   4  217.58    4.50
  -4   0  -4  225.08    6.20
   4   0   4  217.38    6.40
  -4   0  -4  221.18    7.00
   4   0   4  217.68    5.60
   4   0  -4  227.98    6.70
   4   0   4  226.78    7.20
   4   0  -4  222.28    7.70
  -4   0   4  219.98    7.20
   4   0   4  218.78    7.40
  -4   0  -4  218.68    7.30
  -4   0   4  216.38    5.40
   4   0   4  225.68    7.10
   5   0  -4    1.40    1.40
   5   0  -4   -0.40    1.00
  -5   0   4   -0.40    0.80
   5   0  -4   -0.20    1.20
   5   0   4   -0.30    1.30
   5   0   4   -0.50    1.20
  -5   0  -4   -0.30    1.00
  -5   0  -4   -1.10    0.80
   5   0   4    0.90    0.70
   5   0   4   -0.10    1.10
   5   0   4    1.80    1.10
   5   0   4    2.20    1.80
  -5   0  -4   -0.50    1.00
  -5   0   4    1.80    1.60
  -5   0   4    0.00    3.40
  -5   0   4   -0.30    0.60
  -6   0   4   35.80    4.00
   6   0   4   31.10    3.70
   6   0   4   32.10    4.00
   6   0  -4   33.90    3.00
   6   0   4   29.90    3.30
  -6   0  -4   27.10    3.40
   6   0   4   31.50    3.80
  -6   0  -4   25.90    3.50
   6   0  -4   29.90    4.10
   6   0  -4   33.00    3.40
  -6   0   4   28.40    2.30
  -6   0   4   39.80    8.70
  -6   0  -4   31.90    3.10
  -7   0  -4    5.40    1.60
  -7   0   4    6.70    2.00
   7   0  -4    5.10    2.10
   7   0   4    3.70    2.40
  -7   0  -4    7.90    2.20
   7   0   4   12.50    3.00
  -7   0  -4    0.80    1.40
  -7   0   4    5.20    6.70
   7   0  -4    5.50    2.80
   7   0   4    7.60    3.00
   8   0   4    2.50    2.70
   8   0  -4    3.10    2.30
   8   0  -4    3.40    2.40
  -8   0   4    4.20    7.90
  -8   0  -4    2.40    2.50
  -8   0  -4    0.10    2.10
  -8   0   4    6.50    2.90
   8   0   4    5.30    3.10
  -8   0  -4   -2.40    1.10
   9   0  -4   -1.50    2.10
  -9   0   4    1.20    1.90
  -9   0  -4    2.70    3.00
  -9   0  -4    3.50    2.90
  -9   0  -4   -0.50    2.20
   0   1   4 2975.60   56.49
   0   1  -4 3086.49   51.29
   0  -1   4 3075.29   54.19
   0   1  -4 2991.90   53.59
   0   1   4 2967.00   51.09
   0  -1   4 2966.70   59.29
   0   1   4 3031.20   54.69
   0   1  -4 2921.01   53.59
   0  -1  -4 3065.89   51.49
   0  -1   4 2936.01   57.29
   0  -1   4 3044.80   51.19
   0   1   4 3195.88   54.79
   0  -1  -4 3016.40   50.89
   0   1  -4 3102.69   56.29
  -1  -1  -4 1977.70   34.10
   1  -1   4 1984.50   37.50
   1   1  -4 2030.90   35.00
  -1  -1  -4 1989.20   35.40
   1  -1   4 1997.90   34.80
  -1  -1  -4 2045.70   35.10
   1  -1   4 2043.80   41.20
  -1  -1  -4 1929.71   37.60
  -1   1   4 1996.20   34.70
  -1  -1  -4 2038.20   35.10
   1  -1   4 2062.89   35.40
  -1   1   4 1966.80   40.80
   1   1  -4 1979.90   34.70
  -1   1   4 2016.80   34.60
   1   1   4 1967.30   40.00
   1   1   4 1994.40   38.90
  -1  -1   4 1972.40   39.90
  -1   1  -4 2070.39   34.60
   1   1   4 1988.00   33.50
   1  -1  -4 2031.00   35.20
  -1   1  -4 1988.90   39.00
  -1   1  -4 2022.70   36.00
   1  -1  -4 2033.10   35.60
  -1  -1   4 2008.00   34.20
   1   1   4 2047.40   35.20
   1  -1  -4 2002.20   34.00
  -1   1  -4 2068.39   35.40
  -1   1  -4 2038.50   35.30
   1  -1  -4 2021.40   34.50
  -1  -1   4 2058.09   34.30
   1  -1  -4 1947.71   34.70
  -1  -1   4 2018.40   35.10
  -2  -1  -4 1044.30   19.80
  -2  -1  -4 1024.60   17.80
   2  -1   4 1038.50   19.90
   2   1  -4 1026.70   19.10
  -2   1   4 1025.70   19.20
   2  -1   4 1079.79   20.30
  -2  -1  -4 1005.10   19.10
  -2   1   4 1036.60   26.60
   2  -1   4 1017.00   19.70
  -2  -1  -4 1044.60   19.50
   2  -1   4 1026.50   19.20
  -2  -1   4 1051.39   19.90
  -2   1  -4 1041.90   20.10
   2  -1  -4 1039.60   19.80
  -2   1  -4 1036.90   19.10
   2  -1  -4 1044.10   18.10
   2   1   4 1009.70   19.20
  -2   1  -4 1087.09   21.50
  -2   1  -4 1033.00   20.10
  -2  -1   4 1047.60   18.60
   2   1   4 1040.80   19.70
   2  -1  -4 1046.50   19.80
   2   1   4 1043.10   18.70
  -2   1  -4 1015.10   19.50
   2   1   4 1033.20   19.80
  -2  -1   4 1035.00   26.70
   3  -1   4 1066.39   18.60
  -3   1   4 1084.09   18.60
   3  -1   4 1107.09   21.80
   3   1  -4 1109.99   22.30
  -3   1   4 1109.29   30.00
  -3  -1  -4 1109.09   21.50
   3  -1   4 1091.39   20.60
   3   1  -4 1150.98   21.50
   3  -1   4 1115.59   22.00
  -3  -1  -4 1123.09   21.20
  -3  -1  -4 1097.69   19.50
  -3   1   4 1101.49   20.90
   3  -1  -4 1143.19   22.20
  -3  -1   4 1081.59   20.00
   3   1   4 1100.19   20.70
   3  -1  -4 1089.19   20.20
  -3   1  -4 1103.49   21.90
   3   1   4 1094.39   20.40
   3   1   4 1108.99   21.30
   3   1   4 1088.09   21.20
   3   1   4 1105.29   20.80
  -3   1  -4 1095.19   20.80
  -3  -1   4 1103.99   21.90
   3   1   4 1110.29   21.60
  -3   1  -4 1111.59   22.00
  -3   1  -4 1090.69   22.50
  -4  -1  -4 1429.86   27.40
  -4  -1  -4 1402.06   23.80
  -4  -1  -4 1432.96   27.10
   4  -1   4 1447.96   28.30
   4  -1   4 1428.26   28.40
  -4   1   4 1440.06   24.00
  -4   1   4 1402.56   24.40
   4  -1   4 1370.36   24.00
   4  -1   4 1429.86   26.20
  -4   1   4 1425.86   27.00
  -4   1   4 1455.45   38.70
  -4  -1  -4 1435.26   28.50
   4   1  -4 1445.46   27.50
   4   1  -4 1429.46   28.70
  -4  -1  -4 1424.86   25.50
  -4  -1   4 1427.26   28.10
   4  -1  -4 1437.16   27.10
   4   1   4 1453.15   27.80
   4   1   4 1407.76   27.10
  -4   1  -4 1431.76   28.10
  -4   1  -4 1410.06   28.00
   4   1   4 1388.56   26.70
   4   1   4 1406.46   26.50
   4   1   4 1451.85   27.20
  -4  -1   4 1421.66   25.90
   4  -1  -4 1430.16   28.50
  -4   1  -4 1424.76   30.10
   4   1   4 1443.56   27.80
   4  -1  -4 1424.36   26.30
  -4   1  -4 1433.56   26.80
   5  -1   4  304.57   10.00
  -5  -1  -4  315.37    8.80
  -5   1   4  294.17    6.40
   5   1  -4  301.07    9.20
  -5   1   4  287.97    6.70
   5   1  -4  296.97   10.30
   5  -1   4  299.27    7.70
  -5  -1  -4  310.07    7.80
  -5   1   4  296.57   17.20
  -5  -1  -4  317.97    9.30
   5  -1   4  306.77   10.00
  -5   1   4  302.57    9.00
  -5  -1  -4  302.77    9.90
  -5   1  -4  303.17    8.60
  -5   1  -4  315.77    9.80
   5  -1  -4  312.07    8.60
   5   1   4  303.87    8.80
  -5   1  -4  285.37    9.50
   5  -1  -4  295.67    8.20
   5   1   4  294.07    9.10
  -5  -1   4  298.37    7.80
   5   1   4  294.47    8.50
   5  -1  -4  320.37   10.30
   5   1   4  291.17    8.10
  -5  -1   4  278.17    5.90
  -5  -1   4  297.17    9.60
   5   1   4  307.87    9.70
   5   1   4  293.97    9.40
  -6   1   4  313.17   19.80
   6  -1   4  343.97   11.60
   6   1  -4  321.07   10.30
  -6   1   4  333.47   10.10
   6   1  -4  303.27    8.30
   6   1  -4  307.57   11.40
   6  -1   4  313.17    8.10
  -6  -1  -4  316.97   10.00
   6  -1   4  326.87   11.00
  -6  -1  -4  304.47    9.50
  -6  -1  -4  308.27    8.60
  -6  -1  -4  316.57   10.80
   6  -1  -4  338.97   11.50
  -6   1  -4  314.27   10.50
   6   1   4  346.07   11.10
  -6  -1   4  308.67    8.50
  -6  -1   4  306.07   10.50
   6  -1  -4  313.47    9.10
  -6   1  -4  302.87    9.50
   6   1   4  321.07   10.60
   6   1   4  313.47   10.30
  -6  -1   4  312.77   19.40
   6   1   4  339.37   10.30
   6  -1  -4  317.47    9.30
  -6   1  -4  303.47   10.40
   6   1   4  304.37    8.70
  -7  -1  -4   25.40    3.50
   7   1  -4   22.10    3.20
  -7  -1  -4   24.10    3.20
  -7  -1  -4   25.50    3.90
  -7   1   4   32.60   10.20
  -7  -1  -4   21.00    2.80
   7   1  -4   27.50    4.40
  -7   1   4   19.00    3.20
   7  -1   4   25.00    4.20
   7  -1   4   22.90    3.60
   7   1   4   20.90    3.50
   7  -1  -4   22.70    3.00
  -7  -1   4   24.20    2.70
   7   1   4   23.00    3.90
   7  -1  -4   17.70    2.70
  -7  -1   4   26.50    4.10
  -7  -1   4   23.80    8.40
  -7   1  -4   24.40    4.80
  -7   1  -4   27.60    4.00
   7   1   4   17.50    3.60
  -7   1  -4   25.50    3.10
   7  -1  -4   22.40    4.00
   8   1  -4   61.69    5.70
   8  -1   4   56.99    5.90
  -8   1   4   68.99    5.50
  -8  -1  -4   70.79    5.50
  -8  -1  -4   72.19    5.60
   8   1  -4   66.79    6.80
  -8   1   4  109.69   17.70
   8  -1   4   68.39    6.60
  -8  -1   4   69.49    6.50
   8   1   4   72.89    5.50
  -8   1  -4   66.29    5.70
  -8  -1   4  117.09   18.60
   8   1   4   59.99    6.10
  -8   1  -4   64.59    5.30
  -8   1  -4   72.09    5.40
   8  -1  -4   62.69    6.20
  -9  -1  -4   -1.60    2.60
   9   1  -4    1.20    2.40
  -9   1  -4    3.50    3.00
  -9  -1   4    3.70    3.30
  -9   1  -4    1.60    2.00
   9  -1  -4    2.40    2.40
   9   1   4   -3.40    2.70
   0  -2  -4   64.69    2.80
   0   2  -4   65.09    2.80
   0  -2   4   58.29    2.70
   0  -2   4   63.29    2.90
   0   2   4   66.49    5.60
   0  -2   4   58.99    2.50
   0  -2  -4   59.99    2.70
   0   2   4   60.29    3.90
   0   2  -4   59.69    2.60
   0   2   4   61.19    1.90
   0   2   4   57.49    2.70
   0  -2   4   59.29    3.30
   0   2  -4   61.59    2.80
   0   2  -4   62.29    3.20
   1   2  -4 1449.06   25.90
  -1   2   4 1433.76   25.50
   1   2  -4 1435.26   26.50
   1   2  -4 1430.76   25.40
   1  -2   4 1458.35   26.50
  -1  -2  -4 1410.66   25.70
  -1  -2  -4 1449.76   26.00
   1  -2   4 1422.46   25.50
  -1   2   4 1468.05   33.10
  -1   2   4 1438.46   25.30
  -1   2   4 1412.56   29.10
   1   2  -4 1433.06   25.10
   1   2   4 1404.66   30.90
   1  -2  -4 1402.46   25.30
  -1   2  -4 1417.16   26.40
   1  -2  -4 1399.26   24.20
   1   2   4 1434.76   26.30
  -1  -2   4 1448.26   25.50
   1  -2  -4 1425.96   25.00
  -1   2  -4 1431.16   25.80
   1   2   4 1439.76   25.70
  -1  -2   4 1442.26   26.00
   1  -2  -4 1455.45   26.30
   1   2   4 1452.45   26.70
  -1   2  -4 1427.56   26.30
  -1   2  -4 1472.75   26.50
   2  -2   4 1402.96   26.30
  -2   2   4 1380.16   24.70
   2   2  -4 1356.16   23.40
   2  -2   4 1429.06   26.60
   2  -2   4 1400.66   26.30
  -2   2   4 1427.16   24.90
  -2  -2  -4 1422.16   26.10
   2   2  -4 1398.26   26.80
   2   2  -4 1388.76   24.80
  -2   2   4 1381.66   33.40
   2   2  -4 1423.66   26.00
  -2  -2  -4 1419.06   25.40
  -2   2   4 1416.56   30.50
  -2   2  -4 1396.66   24.70
   2   2   4 1439.66   26.10
  -2   2  -4 1389.06   27.00
   2  -2  -4 1433.56   26.40
  -2  -2   4 1409.16   25.20
   2   2   4 1409.06   26.30
   2   2   4 1402.46   24.10
  -2   2  -4 1402.96   26.40
   2  -2  -4 1394.76   24.80
  -2   2  -4 1392.76   26.60
   2   2   4 1380.56   24.80
  -2   2  -4 1414.86   25.70
   2  -2  -4 1416.56   25.70
   2   2   4 1388.06   24.00
  -2  -2   4 1422.46   26.40
  -3   2   4   70.69    7.40
  -3  -2  -4   65.79    2.10
  -3  -2  -4   70.49    3.10
  -3   2   4   68.09    2.90
  -3   2   4   65.39    2.30
   3  -2   4   68.49    2.90
  -3  -2  -4   72.79    3.70
   3  -2   4   70.19    3.80
   3  -2   4   69.99    3.70
   3  -2   4   70.49    3.70
   3   2  -4   65.99    2.60
   3   2  -4   72.79    4.10
  -3  -2  -4   67.99    1.90
   3   2  -4   69.39    3.50
   3   2   4   66.79    3.50
  -3  -2   4   71.19    4.00
   3  -2  -4   70.79    3.50
   3   2   4   69.49    3.70
   3   2   4   63.69    2.70
   3   2   4   65.19    2.70
   3   2   4   68.49    3.20
   3  -2  -4   60.99    3.30
  -3  -2   4   69.59    3.00
   3  -2  -4   64.09    2.40
  -3   2  -4   65.29    3.50
  -3   2  -4   69.39    3.60
   3   2   4   64.89    3.50
  -3   2  -4   62.69    4.10
   4   2  -4   28.50    3.10
   4   2  -4   33.90    3.60
   4  -2   4   30.00    2.00
  -4   2   4   27.20    5.60
  -4  -2  -4   30.50    1.60
  -4   2   4   28.10    0.80
  -4   2   4   29.60    2.20
  -4  -2  -4   27.00    2.20
  -4   2   4   27.20    0.80
  -4   2   4   29.50    1.30
   4  -2   4   26.70    3.00
   4   2  -4   31.60    3.50
   4  -2   4   32.40    3.30
  -4  -2  -4   28.10    2.90
   4  -2   4   31.80    3.40
   4  -2  -4   31.60    1.90
   4   2   4   30.70    2.40
  -4   2  -4   34.70    3.00
  -4  -2   4   30.10    2.20
   4   2   4   31.90    3.00
   4   2   4   32.20    3.00
   4   2   4   28.90    3.10
   4   2   4   34.90    3.20
   4  -2  -4   31.10    2.90
  -4   2  -4   27.40    3.00
  -4   2  -4   34.10    4.00
   4  -2  -4   32.70    3.20
  -4  -2   4   28.50    3.10
   5   2  -4  635.74   16.60
  -5   2   4  613.44   14.00
   5  -2   4  588.64   12.60
   5  -2   4  620.84   16.10
   5  -2   4  619.04   16.10
  -5   2   4  655.23   25.70
  -5  -2  -4  618.64   14.80
  -5  -2  -4  611.04   13.80
   5   2  -4  624.74   15.50
   5  -2  -4  607.64   13.10
  -5   2  -4  615.24   18.20
  -5  -2   4  616.34   13.80
  -5   2  -4  619.34   15.40
   5  -2  -4  602.74   14.40
  -5   2  -4  626.44   14.80
  -5  -2   4  607.14   15.90
   5  -2  -4  611.64   15.70
   5   2   4  613.94   14.50
   5   2   4  603.94   14.20
   5   2   4  635.14   14.80
   5   2   4  617.54   15.50
   5   2   4  606.04   14.80
   6  -2   4  115.09    7.00
   6  -2   4  112.99    7.00
  -6   2   4  106.29    5.00
   6   2  -4  109.59    6.30
  -6  -2  -4  113.59    6.20
  -6  -2  -4  109.49    5.80
   6   2  -4  111.59    6.70
  -6   2   4   97.69   11.70
  -6  -2  -4  108.19    5.00
  -6  -2   4  105.99    4.80
  -6   2  -4  102.59    6.00
   6   2   4  106.89    5.50
   6   2   4  114.69    5.90
   6   2   4  101.29    6.30
  -6  -2   4  113.29    6.80
   6  -2  -4  118.09    5.50
   6  -2  -4  108.39    6.60
   6   2   4  117.59    5.90
  -6   2  -4  105.59    5.50
  -6   2  -4  108.59    7.80
   6  -2  -4  106.99    4.60
   7   2  -4   51.49    5.10
  -7   2   4   33.70    3.40
   7   2  -4   36.30    4.80
   7  -2   4   34.20    4.50
  -7   2   4   52.09   12.30
  -7  -2  -4   38.90    4.10
  -7  -2  -4   33.50    4.20
   7  -2   4   45.90    5.60
  -7   2  -4   40.80    4.10
   7  -2  -4   44.10    4.80
   7   2   4   36.30    4.50
   7   2   4   42.60    4.60
   7   2   4   41.90    4.50
  -7  -2   4   42.00    3.80
  -7   2  -4   56.49    7.70
   7  -2  -4   39.60    3.60
   7   2   4   43.60    3.90
  -7  -2   4   37.30    4.50
   8  -2   4   62.29    6.30
  -8   2   4  120.49   17.70
   8   2  -4   63.79    6.60
  -8  -2  -4   63.89    5.50
  -8  -2  -4   63.39    6.00
   8   2  -4   60.89    6.10
   8  -2   4   71.89    7.10
  -8  -2   4   69.59    6.00
  -8   2  -4   87.89    9.50
  -8   2  -4   71.49    6.10
  -8   2  -4   63.49    6.40
   8   2   4   74.59    5.50
  -8  -2   4   93.09   16.00
   8  -2  -4   51.99    6.10
   8   2   4   55.59    6.10
   9   2  -4   56.99    7.30
  -9  -2  -4   58.19    6.40
   9   2  -4   63.59    6.20
   9  -2   4   54.89    6.40
   9   2   4   52.49    6.50
   9   2   4   57.89    6.20
  -9   2  -4   57.19    5.90
  -9  -2   4   53.49    6.20
  -9   2  -4   61.99    6.30
   9  -2  -4   58.29    6.80
   0   3  -4   37.90    2.30
   0   3   4   34.20    3.50
   0  -3  -4   32.30    2.40
   0  -3  -4   37.50    2.30
   0   3  -4   36.80    3.20
   0  -3   4   35.20    2.20
   0  -3   4   36.00    2.30
   0   3  -4   35.30    2.20
   0   3   4   33.80    1.30
   0  -3  -4   35.00    2.20
   0  -3  -4   33.20    1.80
   0   3   4   34.00    4.80
   0   3   4   34.80    1.40
   0   3  -4   35.50    2.20
   0   3   4   35.40    2.30
   1  -3   4  116.69    3.70
   1  -3   4  117.79    4.50
  -1  -3  -4  117.89    3.90
  -1   3   4  106.99    9.10
  -1  -3  -4  115.29    4.20
   1  -3   4  114.79    4.20
  -1  -3  -4  114.39    4.30
  -1   3   4  106.69    6.50
  -1  -3  -4  114.99    3.90
  -1   3   4  117.99    3.90
   1   3  -4  117.49    3.70
   1   3  -4  113.09    4.50
   1   3  -4  117.99    4.20
  -1  -3   4  117.79    4.20
   1   3   4  125.89    4.00
  -1   3  -4  116.09    5.20
   1   3   4  114.19    4.60
   1  -3  -4  118.19    3.90
   1  -3  -4  117.09    4.40
  -1   3  -4  115.49    4.50
   1   3   4  110.09    2.20
  -1   3  -4  111.09    4.10
   1   3   4  110.79    2.50
   1  -3  -4  110.89    3.00
   1   3   4  116.19    5.30
  -1   3  -4  113.89    3.60
   1   3   4  113.19    7.30
   1  -3  -4  123.39    4.50
  -1  -3   4  112.19    4.10
   2   3  -4  131.19    4.80
   2  -3   4  131.69    4.90
   2   3  -4  130.89    3.70
  -2  -3  -4  134.19    4.00
  -2  -3  -4  139.19    5.00
   2  -3   4  141.29    5.30
  -2   3   4  133.39    4.10
  -2   3   4  136.49    7.40
  -2  -3  -4  132.09    4.20
  -2   3   4  132.09    3.90
   2  -3   4  142.79    5.40
   2   3  -4  134.99    4.80
   2   3  -4  138.69    5.60
  -2  -3  -4  134.99    5.10
  -2   3   4  132.49    9.90
   2  -3  -4  130.59    2.70
   2  -3  -4  133.19    4.70
   2   3   4  130.39    3.60
   2   3   4  122.29    3.30
   2  -3  -4  129.59    5.00
  -2  -3   4  139.09    4.70
   2  -3  -4  129.89    4.20
  -2   3  -4  128.79    5.00
   2   3   4  133.69    4.90
   2   3   4  134.39    5.70
   2   3   4  131.29    5.20
  -2   3  -4  131.09    6.20
  -2  -3   4  139.59    5.10
   2  -3  -4  125.79    4.30
   3  -3   4 1116.29   22.90
   3   3  -4 1102.79   23.20
   3  -3   4 1118.89   22.60
  -3  -3  -4 1114.69   22.60
  -3  -3  -4 1094.19   20.50
   3   3  -4 1088.19   19.50
  -3  -3  -4 1110.29   19.50
  -3   3   4 1103.79   30.60
  -3   3   4 1089.19   20.00
   3   3  -4 1021.70   18.90
   3  -3   4 1091.49   22.50
  -3   3   4 1098.69   27.70
   3   3  -4 1108.49   21.70
   3   3  -4 1104.99   22.30
  -3  -3  -4 1112.59   21.90
   3   3   4 1103.99   22.20
   3   3   4 1077.69   20.40
   3   3   4 1102.79   22.30
  -3   3  -4 1108.99   24.90
   3  -3  -4 1132.09   19.10
   3  -3  -4 1067.49   18.60
  -3   3  -4 1097.89   21.90
   3  -3  -4 1107.39   22.40
  -3  -3   4 1121.99   22.80
   3  -3  -4 1103.19   22.30
   3  -3  -4 1119.29   21.80
   3   3   4 1063.19   20.20
  -3   3  -4 1071.09   22.20
   3   3   4 1110.49   22.50
  -3   3  -4 1051.39   21.40
  -3  -3   4 1095.79   21.30
   4  -3   4  343.87   10.60
   4  -3   4  348.07   10.30
   4   3  -4  349.67   10.70
   4   3  -4  360.66   11.10
  -4  -3  -4  360.86    7.50
  -4   3   4  350.76   16.70
  -4  -3  -4  344.77    6.60
   4  -3   4  352.56    8.10
   4  -3   4  344.87   10.70
  -4  -3  -4  361.16   10.40
  -4  -3  -4  349.67    8.40
  -4   3   4  349.37    8.30
  -4  -3  -4  373.46   10.00
   4   3  -4  358.66   10.30
  -4   3   4  346.77   14.50
   4   3   4  354.76   10.20
  -4   3  -4  327.37   11.20
   4  -3  -4  371.16   10.20
   4   3   4  339.67   10.10
  -4  -3   4  368.46    9.40
   4   3   4  355.16   10.20
   4   3   4  349.57    9.00
  -4  -3   4  366.36   10.80
   4  -3  -4  337.07    7.10
  -4   3  -4  356.76    9.90
  -4  -3   4  331.67    6.50
   4  -3  -4  358.26   10.00
  -4   3  -4  348.47   10.10
  -4   3  -4  348.87   12.30
   4   3   4  342.67    8.80
   5  -3   4  344.17   10.90
   5  -3   4  358.16    8.40
  -5   3   4  353.96   16.00
  -5  -3  -4  370.66   11.30
  -5   3   4  374.86    9.30
   5  -3   4  348.27   11.70
   5   3  -4  375.86   12.00
   5   3  -4  375.36   11.90
  -5  -3  -4  377.66   10.60
  -5   3   4  385.16   20.20
  -5  -3  -4  385.86    8.50
   5   3  -4  363.76   11.20
  -5  -3  -4  364.16    9.10
   5  -3   4  373.46   12.00
  -5  -3   4  365.96   10.10
   5   3   4  373.46   10.30
  -5   3  -4  365.86   14.30
  -5   3  -4  362.16   10.90
  -5   3  -4  360.16   13.90
   5   3   4  373.36   11.10
   5  -3  -4  371.76   11.10
   5  -3  -4  376.46   10.60
   5   3   4  375.06   11.50
  -5  -3   4  376.56   11.80
   5   3   4  384.96   10.20
  -5   3  -4  356.96   10.80
   6   3  -4    2.90    2.00
   6   3  -4    4.80    2.30
  -6   3   4    2.40    5.80
  -6   3   4    3.50    1.60
  -6  -3  -4    4.30    2.10
  -6  -3  -4    1.20    1.50
   6  -3   4    2.80    2.00
   6  -3   4    2.70    1.90
   6   3  -4    7.10    2.80
  -6   3   4    5.90    3.60
  -6   3  -4    3.60    1.90
  -6   3  -4    6.90    2.90
   6   3   4    5.10    2.10
  -6   3  -4    5.90    1.90
  -6  -3   4    5.30    2.30
   6   3   4    3.30    1.50
   6   3   4    1.10    2.50
   6  -3  -4    7.30    2.40
  -6  -3   4    1.80    1.40
   6  -3  -4    2.70    1.70
  -6   3  -4    1.60    3.50
  -7   3   4  115.29   16.90
  -7   3   4  101.99   12.90
   7  -3   4   71.79    6.90
  -7  -3  -4   81.49    5.60
   7   3  -4   82.89    6.30
  -7  -3  -4   86.69    6.60
   7  -3   4   78.89    6.20
   7   3  -4   88.69    6.50
  -7  -3   4   89.29    5.30
  -7   3  -4   85.09    8.30
   7   3   4   80.69    5.60
   7  -3  -4   76.19    5.80
  -7  -3   4   95.49    7.20
   7   3   4   82.29    6.90
   7   3   4   80.59    5.50
  -7   3  -4   75.39    5.30
   7  -3  -4   82.89    5.30
   8   3  -4    6.40    2.60
  -8  -3  -4    2.80    2.30
   8   3  -4    5.70    2.80
   8  -3   4    4.50    3.20
   8  -3   4   -1.80    3.00
  -8   3   4    3.80    9.00
  -8   3   4    9.60    5.40
  -8  -3  -4    0.30    2.70
   8   3   4    4.30    2.60
  -8  -3   4    0.20    1.40
  -8   3  -4    4.80    3.10
   8   3   4    2.00    2.60
  -8   3  -4    4.90    4.80
   8  -3  -4    5.80    2.60
  -8  -3   4    0.00    3.30
  -9   3   4  160.58   18.90
   9   3  -4  119.59    8.10
  -9  -3  -4  135.89   10.00
   9  -3   4  104.69    9.10
  -9  -3  -4  123.09    8.10
   9  -3   4  116.09   10.00
   9   3  -4  118.29    8.90
  -9   3   4  163.48   15.10
  -9  -3   4  128.89    9.60
   9   3   4  134.59    8.40
   9  -3  -4  114.69    9.10
   9   3   4  120.19    9.40
  -9   3  -4  111.09    8.80
  -9   3  -4  144.59    8.80
   0   4  -4   56.09    3.00
   0  -4   4   49.50    2.50
   0   4  -4   51.79    3.90
   0   4   4   50.99    2.20
   0   4   4   51.99    3.20
   0  -4   4   46.90    2.70
   0  -4  -4   48.10    2.80
   0  -4  -4   43.50    2.80
   0   4   4   51.49    4.50
   0   4  -4   45.70    2.80
   0  -4  -4   49.60    2.90
   0  -4  -4   49.90    1.90
   0   4   4   49.90    5.50
   0  -4  -4   49.10    2.50
   0   4  -4   51.49    2.90
  -1  -4  -4 1951.40   34.60
  -1   4   4 1927.91   40.40
   1  -4   4 1962.70   34.00
   1   4  -4 1947.01   34.20
   1   4  -4 1966.40   36.30
  -1   4   4 1967.40   44.20
   1   4  -4 1967.10   39.50
  -1  -4  -4 1938.61   35.00
  -1   4   4 1935.91   35.00
   1   4  -4 1933.51   35.10
   1  -4   4 1966.10   36.00
  -1  -4  -4 1984.70   35.30
   1  -4   4 1979.30   35.10
  -1  -4  -4 1963.20   35.40
  -1  -4   4 1963.40   35.20
   1   4   4 1939.31   34.60
   1  -4  -4 1953.50   33.50
   1  -4  -4 1920.41   35.90
  -1  -4   4 1935.51   35.10
  -1   4  -4 1920.21   38.20
   1  -4  -4 1992.60   35.20
   1   4   4 1918.31   42.80
   1   4   4 1976.10   36.00
   1  -4  -4 1933.51   34.30
  -1   4  -4 1910.01   34.60
  -1   4  -4 1957.80   35.50
   1   4   4 1996.30   38.70
   1   4   4 1903.11   32.70
  -2  -4  -4 1131.39   21.00
  -2   4   4 1140.09   27.90
  -2  -4  -4 1107.39   22.50
   2  -4   4 1139.09   23.10
   2  -4   4 1134.09   22.70
  -2  -4  -4 1101.89   21.10
  -2   4   4 1127.29   21.20
   2   4  -4 1146.49   22.70
   2   4  -4 1155.58   22.20
  -2  -4  -4 1151.38   22.50
   2   4  -4 1139.79   20.20
   2  -4   4 1132.29   23.20
   2   4  -4 1121.49   23.60
  -2   4   4 1150.68   31.70
  -2  -4   4 1146.09   22.70
  -2   4  -4 1115.29   25.20
  -2   4  -4 1172.88   22.70
   2   4   4 1121.79   23.10
   2  -4  -4 1140.79   22.20
   2   4   4 1093.19   20.00
  -2  -4   4 1131.19   22.10
   2  -4  -4 1133.49   21.90
   2  -4  -4 1128.29   23.00
   2   4   4 1103.69   19.30
   2  -4  -4 1131.69   19.40
   2   4   4 1148.59   25.20
   2   4   4 1115.19   22.20
  -2   4  -4 1124.49   20.40
  -3  -4  -4  121.79    5.60
  -3  -4  -4  119.99    3.70
  -3  -4  -4  121.19    5.10
  -3  -4  -4  118.69    3.90
   3   4  -4  131.39    5.20
  -3   4   4  116.89    8.90
   3   4  -4  121.59    6.10
   3  -4   4  127.69    5.70
  -3   4   4  122.09   11.20
   3  -4   4  133.99    5.80
   3   4  -4  120.79    3.20
   3   4  -4  128.19    5.70
  -3   4   4  119.89    3.60
   3  -4   4  134.59    6.00
   3   4   4  128.59    5.80
   3   4   4  116.19    3.60
  -3   4  -4  128.59    7.90
  -3   4  -4  118.59    5.30
   3  -4  -4  120.89    5.50
   3   4   4  133.09    6.10
   3  -4  -4  128.29    4.90
   3   4   4  119.39    5.40
  -3  -4   4  126.69    5.80
  -3  -4   4  127.29    5.20
  -3   4  -4  113.69    3.60
   3  -4  -4  120.39    3.70
   3  -4  -4  122.59    4.80
   3   4   4  127.29    4.10
   3  -4  -4  119.99    5.20
   4  -4   4    7.60    2.40
   4  -4   4    6.70    1.70
  -4  -4  -4    1.90    1.80
   4   4  -4    6.00    2.00
  -4  -4  -4    5.20    2.20
   4  -4   4    5.70    1.80
  -4  -4  -4    7.10    1.30
  -4   4   4    7.50    4.50
  -4   4   4    7.20    5.10
   4   4  -4    3.60    2.10
  -4   4   4    5.90    1.30
   4  -4  -4    7.50    2.30
  -4  -4   4    4.20    1.50
  -4  -4   4    9.40    1.10
   4  -4  -4    6.30    0.90
   4  -4  -4    7.20    2.00
  -4   4  -4    3.80    1.80
  -4  -4   4    6.40    2.00
  -4   4  -4    8.40    2.50
   4   4   4    3.60    2.00
   4   4   4    8.00    2.40
   4  -4  -4    7.30    2.10
  -4   4  -4    6.10    4.10
   4   4   4    7.60    1.50
   5  -4   4  357.06   12.10
   5  -4   4  342.87   12.60
  -5  -4  -4  378.76   10.90
   5   4  -4  347.17   12.00
   5   4  -4  358.76   12.00
  -5   4   4  356.36    8.40
  -5  -4  -4  365.46   11.40
  -5   4   4  368.06   20.70
   5  -4   4  349.17   12.10
   5  -4   4  357.16    9.10
  -5   4   4  368.36   16.70
   5   4  -4  362.56   11.60
  -5   4  -4  363.46   11.10
  -5   4  -4  351.86   14.80
   5   4   4  356.06   11.50
   5  -4  -4  356.16   11.80
  -5  -4   4  354.56   11.80
   5   4   4  360.66   11.40
  -5  -4   4  344.07   10.20
   5   4   4  344.47    9.90
   5  -4  -4  376.56   11.20
   5  -4  -4  362.66   11.00
  -6   4   4   51.19   10.60
   6   4  -4   53.49    5.40
   6   4  -4   44.80    5.10
   6  -4   4   39.80    5.10
   6   4  -4   34.80    4.50
  -6   4   4   57.99    9.90
  -6  -4  -4   42.70    4.20
  -6  -4  -4   49.00    4.90
   6  -4   4   45.50    5.00
  -6  -4   4   38.00    4.00
   6   4   4   44.60    5.00
   6   4   4   44.00    4.70
   6  -4  -4   39.70    4.50
  -6  -4   4   38.80    4.70
  -6   4  -4   48.40    5.10
   6  -4  -4   39.10    4.00
  -6   4  -4   50.79    7.60
   6   4   4   45.90    4.00
  -7   4   4   48.30   12.20
  -7  -4  -4   38.50    4.80
   7   4  -4   36.40    5.10
  -7   4   4   51.09   10.20
  -7  -4  -4   30.60    3.90
   7   4  -4   36.60    5.40
   7  -4   4   35.40    5.20
   7   4  -4   40.60    5.30
   7  -4   4   35.20    5.00
  -7  -4   4   40.10    5.50
   7   4   4   31.80    3.70
  -7   4  -4   36.90    4.90
  -7  -4   4   36.80    4.20
   7  -4  -4   34.20    4.40
  -7   4  -4   48.50    8.20
   7   4   4   32.50    4.30
   7   4   4   34.00    5.20
   7  -4  -4   33.00    4.10
   8   4  -4   28.50    5.20
  -8  -4  -4   49.60    6.30
  -8   4   4   59.39   14.50
   8   4  -4   45.70    6.20
   8  -4   4   40.30    5.70
   8  -4   4   52.39    6.70
  -8   4   4   49.20   10.40
  -8  -4   4   43.10    4.40
   8   4   4   46.30    5.00
  -8   4  -4   44.10    5.50
   8  -4  -4   33.00    4.70
  -8  -4   4   48.70    6.60
   8   4   4   49.90    5.80
  -8   4  -4   46.50    9.20
  -9  -4  -4   31.90    5.90
   9   4  -4   23.90    5.20
   9  -4   4   27.50    5.00
  -9   4   4   46.50   10.80
   9  -4   4   19.80    4.50
  -9  -4  -4   25.30    4.50
  -9   4   4   40.10   14.60
   9   4  -4   25.00    5.70
  -9  -4   4   24.90    5.60
  -9   4  -4   22.50    5.30
   9   4   4   32.30    6.00
  -9   4  -4   14.10    4.60
   0  -5  -4   14.20    2.00
   0   5   4   13.00    0.70
   0  -5  -4   14.30    1.80
   0   5  -4   14.20    2.30
   0   5  -4   14.20    2.10
   0   5   4   11.60    3.80
   0   5   4   12.50    3.90
   0  -5  -4   13.00    2.10
   0   5  -4   11.50    3.00
   0   5  -4   16.40    2.10
   0  -5  -4   14.20    1.30
   0   5   4   12.50    1.50
   0   5   4   12.60    1.60
   0  -5   4   15.20    1.90
   0  -5   4   14.50    2.30
   1  -5   4  328.07    9.70
   1   5  -4  361.36   10.20
  -1   5   4  351.16   14.00
  -1  -5  -4  340.37    9.00
   1  -5   4  316.27    9.00
   1   5  -4  335.87    9.10
   1  -5   4  333.47    7.80
   1   5  -4  338.57    8.10
  -1   5   4  341.17   14.90
   1   5  -4  338.27   12.30
  -1  -5  -4  341.27    9.30
  -1  -5  -4  337.77    6.20
  -1  -5  -4  340.07    8.90
   1  -5   4  343.27    9.10
   1  -5   4  351.56    9.20
  -1   5  -4  349.17    8.90
  -1   5  -4  339.57    9.50
  -1  -5   4  339.97    8.90
  -1  -5   4  339.27    9.10
   1   5   4  341.07   12.10
   1  -5  -4  331.57    7.70
   1  -5  -4  338.37    8.30
   1  -5  -4  335.47    9.00
  -1   5  -4  341.37   11.90
   1  -5  -4  338.67    9.70
   1   5   4  345.07   15.00
   1   5   4  336.47    8.50
   1   5   4  341.47    7.10
  -2  -5  -4  359.26    8.50
   2  -5   4  366.26   10.80
   2  -5   4  373.26   10.50
  -2  -5  -4  365.86   10.10
   2   5  -4  351.76    7.70
   2   5  -4  366.76   10.90
  -2   5   4  362.76   14.70
  -2  -5  -4  364.26    9.00
   2  -5   4  374.26   10.20
  -2  -5  -4  367.36   10.00
  -2   5   4  360.66   17.60
   2   5  -4  366.56    9.60
   2   5  -4  361.46   10.10
   2  -5   4  359.36    7.90
  -2   5  -4  357.06    8.50
   2  -5  -4  371.86    9.70
  -2  -5   4  366.26   10.00
  -2   5  -4  348.97   12.40
  -2   5  -4  362.96   10.10
   2   5   4  378.56    9.80
   2   5   4  367.16   12.80
   2   5   4  352.86    6.40
   2  -5  -4  354.26    9.50
  -2  -5   4  364.56    9.80
   2  -5  -4  365.06   10.30
   2  -5  -4  362.26    7.60
   3  -5   4  244.28    9.00
   3  -5   4  236.58    8.30
   3   5  -4  247.68    9.30
   3   5  -4  224.78    4.60
   3  -5   4  236.18    8.20
   3   5  -4  233.38    7.70
  -3  -5  -4  227.78    8.30
  -3   5   4  234.08   13.00
  -3  -5  -4  233.28    6.30
   3   5  -4  233.18    8.30
  -3   5   4  231.88   15.60
  -3  -5  -4  237.98    8.00
  -3  -5  -4  230.48    6.00
  -3   5  -4  237.88    8.10
   3  -5  -4  237.98    8.50
   3  -5  -4  238.18    7.70
   3   5   4  222.08    7.90
  -3  -5   4  234.78    8.50
  -3  -5   4  231.38    6.10
   3   5   4  223.58    8.60
  -3   5  -4  239.78   11.40
   3  -5  -4  237.68    8.00
  -3  -5   4  230.38    7.90
  -3   5  -4  227.98    5.40
   3   5   4  235.68   10.40
   4   5  -4  195.48    7.30
  -4   5   4  209.08   16.00
   4  -5   4  194.18    8.30
   4   5  -4  194.78    8.00
   4  -5   4  196.28    8.20
   4  -5   4  190.38    7.90
  -4  -5  -4  191.38    7.40
  -4   5   4  190.18   11.90
  -4  -5  -4  196.28    7.90
   4   5  -4  196.68    8.90
   4   5   4  188.18    7.90
  -4   5  -4  186.48    7.50
  -4  -5   4  198.18    5.30
   4  -5  -4  196.88    5.70
   4   5   4  184.58    6.30
  -4  -5   4  208.68    8.60
  -4   5  -4  202.58   11.60
  -4  -5   4  199.08    7.50
   4   5   4  203.18    8.70
   4  -5  -4  202.48    8.20
   4  -5  -4  201.68    8.20
  -5   5   4  346.97   17.40
   5   5  -4  365.96   12.60
  -5  -5  -4  349.87   10.80
   5   5  -4  336.77   12.60
   5  -5   4  327.27   12.00
  -5  -5  -4  324.47   11.30
  -5   5   4  340.07   20.80
   5   5  -4  355.76   12.10
   5  -5   4  347.87   12.20
   5   5   4  339.37    9.80
   5   5   4  332.97   11.60
  -5  -5   4  360.96   10.80
  -5  -5   4  345.67   11.90
   5   5   4  330.77   11.90
   5  -5  -4  343.37   11.10
  -5   5  -4  334.07   11.30
   5  -5  -4  358.56   12.30
  -5   5  -4  334.77   15.50
   6   5  -4   21.70    4.50
   6   5  -4   24.80    4.40
   6  -5   4   26.20    4.20
  -6  -5  -4   26.50    3.70
   6  -5   4   24.40    3.90
  -6   5   4   25.80    7.90
   6   5  -4   25.20    4.50
  -6  -5  -4   30.70    4.40
  -6   5   4   26.20    7.00
  -6  -5   4   25.60    4.00
  -6  -5   4   27.50    3.90
  -6   5  -4   23.20    6.50
   6   5   4   26.10    4.20
   6   5   4   23.10    2.90
   6  -5  -4   22.70    3.30
  -6   5  -4   23.00    3.60
   6   5   4   31.60    4.50
  -7  -5  -4    5.50    2.50
   7   5  -4    3.90    3.20
  -7   5   4   15.20    9.50
   7   5  -4    6.20    2.70
   7  -5   4    3.20    3.30
  -7  -5  -4    6.10    3.30
   7   5  -4    5.20    3.30
  -7   5   4    0.90    4.90
   7  -5   4    2.20    2.70
  -7   5  -4    6.90    3.40
  -7   5  -4    4.40    4.20
   7   5   4    6.40    3.50
   7  -5  -4    4.50    2.50
   7   5   4   -0.30    1.80
  -7  -5   4    1.70    3.20
  -7  -5   4    3.70    2.50
   7   5   4    0.70    2.70
  -8   5   4   19.40    8.20
  -8   5   4   24.10    9.90
   8   5  -4   15.00    4.60
   8  -5   4   10.30    4.20
   8  -5   4   26.50    5.00
   8   5  -4   17.70    4.20
  -8  -5  -4   24.00    4.90
   8   5   4   18.50    4.80
  -8  -5   4   20.70    5.20
   8   5   4   27.20    4.50
  -8   5  -4   24.40    4.30
  -8  -5   4   22.80    3.60
   9  -5   4   17.00    4.50
   9   5  -4   16.70    5.00
  -9  -5  -4   17.00    5.50
  -9   5   4   30.90   10.80
   9  -5   4    7.80    3.70
   9   5  -4   10.70    4.80
  -9  -5  -4    9.80    3.60
  -9   5   4   13.50   17.70
  -9   5  -4   12.40    4.40
   9   5   4   16.90    5.20
  -9  -5   4   18.50    5.30
   0   6  -4   63.09    4.20
   0   6   4   68.99    3.00
   0  -6  -4   62.19    3.90
   0   6  -4   63.39    5.80
   0   6  -4   62.39    4.10
   0  -6  -4   61.69    4.20
   0  -6  -4   66.49    2.80
   0  -6  -4   68.79    3.60
   0   6   4   68.99    7.00
   0  -6   4   58.69    3.20
   0  -6   4   60.39    3.70
   0   6   4   61.99    3.20
   0   6   4   60.19    6.60
   0   6  -4   64.19    3.70
  -1   6   4   48.80    3.10
  -1   6   4   50.39    7.40
   1   6  -4   44.90    4.00
   1  -6   4   51.29    3.50
  -1  -6  -4   47.20    3.40
  -1  -6  -4   50.79    3.60
   1  -6   4   50.09    3.30
  -1  -6  -4   47.20    1.80
   1   6  -4   45.30    2.70
   1  -6   4   48.70    2.70
  -1   6   4   41.00    6.10
   1   6  -4   47.60    3.60
  -1  -6  -4   47.00    3.20
   1   6  -4   42.40    4.80
   1   6  -4   42.10    3.20
  -1  -6   4   45.90    3.10
   1  -6  -4   47.40    2.90
   1   6   4   46.70    2.30
   1  -6  -4   46.80    3.80
   1  -6  -4   47.00    3.60
  -1  -6   4   47.60    3.40
   1   6   4   45.70    3.00
  -1   6  -4   40.40    5.20
  -1   6  -4   39.10    3.50
   1  -6  -4   48.10    2.80
  -1   6  -4   47.80    3.40
   1   6   4   47.50    5.70
   2  -6   4  158.18    4.40
   2  -6   4  164.68    6.40
  -2  -6  -4  164.28    6.70
   2   6  -4  162.98    6.60
   2   6  -4  174.58   10.00
  -2  -6  -4  172.68    6.80
   2  -6   4  157.28    7.20
  -2  -6  -4  161.58    5.90
   2   6  -4  163.58    7.30
  -2   6   4  152.68   10.40
   2   6  -4  161.38    6.10
   2   6  -4  147.79    4.30
   2  -6   4  166.48    6.90
   2  -6   4  167.48    6.20
  -2   6   4  154.68   12.60
   2  -6  -4  168.38    6.30
  -2   6  -4  162.18    7.00
   2  -6  -4  160.08    6.00
  -2   6  -4  155.48    5.40
  -2  -6   4  160.98    6.40
   2  -6  -4  160.58    6.80
   2   6   4  162.28    6.30
  -2  -6   4  161.58    6.60
   2   6   4  152.68    3.70
   2   6   4  156.28    7.60
  -2   6  -4  154.68    8.80
   2  -6  -4  158.68    4.60
   2   6   4  158.18    9.10
   3   6  -4  133.29    6.60
   3   6  -4  133.89    5.70
  -3  -6  -4  138.79    6.00
   3  -6   4  135.59    6.60
   3  -6   4  132.99    6.80
  -3  -6  -4  129.69    6.20
  -3   6   4  131.09   13.50
  -3   6   4  128.19   10.30
  -3  -6  -4  127.09    4.70
   3   6  -4  132.39    7.30
  -3   6  -4  144.29    6.90
   3   6   4  119.09    5.80
   3  -6  -4  134.59    6.30
  -3   6  -4  128.49    8.50
   3   6   4  132.79    8.60
  -3  -6   4  141.89    6.80
   3  -6  -4  125.09    6.30
   3   6   4  143.49    7.20
  -3  -6   4  123.59    6.10
   3   6   4  130.59    4.70
  -4   6   4  140.49   15.00
  -4   6   4  129.19   12.40
   4  -6   4  123.69    6.60
  -4  -6  -4  128.39    6.30
   4   6  -4  132.19    7.70
   4  -6   4  132.99    7.10
   4   6  -4  121.39    6.90
  -4  -6  -4  121.09    6.40
   4   6  -4  117.99    5.60
  -4  -6   4  119.99    6.60
   4   6   4  133.29    5.30
  -4  -6   4  122.69    6.40
  -4   6  -4  128.79   10.10
   4  -6  -4  128.19    6.60
  -4  -6   4  122.59    4.50
   4   6   4  126.09    7.10
   4  -6  -4  123.09    6.90
   4   6   4  124.69    6.70
  -4   6  -4  120.29    6.80
   5  -6   4   55.69    5.60
   5  -6   4   53.69    5.60
  -5   6   4   57.29   10.50
   5   6  -4   64.09    5.90
  -5  -6  -4   68.19    5.20
  -5  -6  -4   60.89    4.90
   5   6  -4   64.89    5.80
  -5   6   4   71.69   10.30
  -5  -6   4   56.59    5.10
  -5   6  -4   73.89    9.40
   5   6   4   69.39    6.20
   5  -6  -4   59.69    5.60
  -5  -6   4   61.09    6.10
  -5   6  -4   65.69    5.20
   5   6   4   55.09    5.10
   5   6   4   58.29    4.00
   5  -6  -4   64.19    5.80
   6   6  -4   99.49    7.60
  -6   6   4  119.69   14.60
   6   6  -4  101.19    7.40
   6  -6   4   84.99    7.70
  -6  -6  -4   95.09    5.60
  -6  -6  -4   95.99    7.00
   6   6  -4   90.99    7.40
  -6   6   4   74.09   12.50
   6  -6   4   80.59    7.30
  -6   6  -4   98.69    7.10
   6   6   4   91.29    6.70
   6   6   4   90.59    7.10
  -6  -6   4  103.59    8.00
   6  -6  -4  100.09    6.30
  -6   6  -4   90.49   11.00
  -6  -6   4   93.29    5.90
   6  -6  -4   99.99    7.00
   7   6  -4   42.00    5.70
  -7   6   4   36.00   11.10
   7  -6   4   35.40    5.30
  -7  -6  -4   35.20    4.10
  -7  -6  -4   30.50    4.60
   7  -6   4   45.80    6.60
   7   6  -4   48.80    6.60
   7   6  -4   32.30    5.60
  -7   6   4   42.60    9.70
  -7   6  -4   41.00    5.00
  -7  -6   4   41.40    4.60
  -7   6  -4   48.50    8.60
   7   6   4   33.90    5.60
   7  -6  -4   41.30    4.70
  -7  -6   4   49.90    6.20
   7   6   4   34.70    4.80
  -8   6   4   84.99   15.50
  -8   6   4  110.69   15.40
   8   6  -4   95.69    8.00
   8  -6   4   70.49    7.80
   8   6  -4   87.49    8.70
   8   6  -4   75.99    8.30
   8  -6   4   91.69    9.30
  -8  -6  -4   90.79    7.90
   8  -6  -4   89.39    6.90
  -8  -6   4   91.79    8.70
  -8   6  -4   77.99    7.50
  -8  -6   4   70.89    6.50
   8   6   4   93.59    8.70
   0   7  -4   20.00    3.20
   0   7  -4   16.90    4.30
   0   7   4   16.90    2.20
   0   7   4   14.30    4.10
   0   7   4   16.00    5.00
   0  -7  -4   13.60    2.80
   0  -7   4   19.40    3.10
   0   7  -4   17.50    2.60
   0  -7   4   15.10    2.10
   0   7  -4   17.80    2.40
   0   7   4   16.30    1.90
   0  -7  -4   19.40    2.50
   0   7  -4   16.30    2.60
   0  -7  -4   10.10    1.40
   0  -7  -4   14.00    2.40
  -1   7   4  134.19    5.40
  -1  -7  -4  131.49    6.00
   1  -7   4  138.29    5.90
  -1   7   4  125.69   10.80
  -1  -7  -4  121.89    5.90
  -1  -7  -4  134.49    6.00
  -1   7   4  129.19    9.40
   1  -7   4  128.39    4.40
   1   7  -4  125.99    6.00
   1   7  -4  130.99    8.70
   1   7  -4  132.39    5.80
   1   7  -4  123.09    4.80
   1  -7   4  132.39    6.20
   1   7  -4  129.39    6.50
  -1  -7   4  125.49    5.20
  -1   7  -4  130.49    9.00
  -1   7  -4  140.69    6.20
   1  -7  -4  136.49    6.40
   1  -7  -4  140.09    6.40
   1  -7  -4  125.39    4.90
   1   7   4  136.19    9.30
  -1   7  -4  139.49    5.90
  -1  -7   4  132.29    6.00
   1   7   4  123.09    5.10
   1   7   4  128.79    4.30
   2   7  -4  250.97   10.00
   2   7  -4  248.18    8.90
   2  -7   4  232.08    8.40
   2   7  -4  235.18    8.10
   2  -7   4  237.58    9.40
  -2   7   4  229.28   14.70
  -2  -7  -4  216.88    8.30
   2  -7   4  239.38    8.30
  -2  -7  -4  230.78    7.80
  -2   7   4  229.98   13.30
  -2  -7  -4  233.98    8.50
  -2   7   4  237.38    8.30
   2   7  -4  244.28   12.30
  -2  -7   4  249.58    8.60
   2  -7  -4  229.38    7.90
  -2  -7   4  239.18    8.40
   2  -7  -4  232.28    6.40
   2   7   4  220.98    7.90
   2  -7  -4  230.88    8.50
   2  -7  -4  223.98    9.00
   2   7   4  221.78    9.50
  -2   7  -4  249.68   12.40
  -2   7  -4  228.78    7.50
   2   7   4  236.78   12.10
  -2   7  -4  239.78    9.10
   3   7  -4  225.78    8.20
  -3  -7  -4  218.98    8.50
   3   7  -4  230.98    9.70
  -3   7   4  226.08    8.70
  -3  -7  -4  222.38    7.10
   3   7  -4  238.18    9.10
  -3  -7  -4  219.18    8.40
  -3   7   4  212.28   13.60
  -3   7   4  219.78   15.80
   3  -7   4  216.68    8.70
   3  -7   4  208.58    9.50
  -3   7  -4  222.08   11.80
  -3  -7   4  223.98    8.60
   3   7   4  232.08   10.20
   3   7   4  228.88    8.70
   3  -7  -4  223.18    8.50
  -3   7  -4  223.28    8.80
   3  -7  -4  226.18    9.40
   3   7   4  201.48    6.70
  -3  -7   4  224.88    8.70
   3   7   4  223.88   11.70
   4   7  -4   86.29    5.00
  -4   7   4   85.19   10.30
   4  -7   4   86.49    6.70
   4  -7   4   81.09    5.50
  -4  -7  -4   76.99    5.40
  -4   7   4   82.79   11.50
   4   7  -4   76.29    6.70
  -4  -7  -4   89.29    5.80
   4   7  -4   93.39    6.60
   4  -7  -4   84.29    6.20
   4   7   4   83.19    6.00
  -4  -7   4   75.49    5.20
  -4   7  -4   88.99    9.50
   4  -7  -4   88.09    5.70
  -4  -7   4   82.69    5.80
  -4   7  -4   82.79    5.70
   4   7   4   89.39    7.00
  -5  -7  -4   31.10    4.00
   5   7  -4   42.70    5.90
   5  -7   4   32.00    5.10
   5  -7   4   28.90    4.30
  -5   7   4   36.50    9.50
   5   7  -4   42.20    5.30
  -5   7   4   32.80    9.30
  -5  -7  -4   40.70    5.10
  -5   7  -4   37.80    5.10
   5  -7  -4   39.70    5.00
   5   7   4   30.60    4.20
   5   7   4   33.50    4.70
  -5   7  -4   39.80    7.20
  -5  -7   4   34.90    5.20
   5  -7  -4   40.90    5.00
  -5  -7   4   35.60    4.20
  -6  -7  -4   59.09    6.00
   6   7  -4   57.49    6.60
   6   7  -4   58.89    7.20
  -6   7   4   53.79   11.60
  -6  -7  -4   50.69    5.10
   6   7  -4   59.99    6.30
  -6   7   4   65.79   12.50
   6  -7   4   55.29    6.00
   6  -7   4   56.59    6.60
  -6   7  -4   60.19    6.20
  -6  -7   4   57.09    5.90
   6  -7  -4   50.79    5.30
   6   7   4   41.40    5.20
  -6   7  -4   62.39   10.00
   6   7   4   41.90    5.50
   6  -7  -4   50.79    5.90
  -6  -7   4   64.19    7.00
   7   7  -4    5.30    3.80
   7  -7   4    5.00    4.10
  -7   7   4   -2.80    8.20
  -7  -7  -4    6.00    2.80
   7  -7   4    0.90    3.20
  -7  -7  -4    6.20    3.60
   7   7  -4    6.50    3.10
   7   7  -4    5.30    3.90
  -7   7   4   -5.70    7.70
   7   7   4    0.90    3.30
  -7  -7   4    1.30    2.90
  -7  -7   4    4.00    2.90
  -7   7  -4    3.70    3.80
  -7   7  -4   -0.50    6.80
   7  -7  -4    4.70    3.10
   7   7   4    7.00    3.90
  -8  -7  -4  135.39   11.30
   8   7  -4  104.69    9.50
  -8   7   4  118.39   17.30
  -8  -7  -4   96.49    7.80
   8  -7   4  104.69   10.30
   8  -7   4   95.19    8.20
   8   7  -4  107.39    8.70
   8   7  -4  124.59   10.20
  -8   7   4  118.49    9.60
  -8  -7   4  112.99   10.70
   8   7   4  105.69    9.60
  -8  -7   4  115.89    8.20
   8   7   4   92.89    7.80
   8  -7  -4   93.59    7.50
  -8   7  -4   95.79    8.80
   0   8  -4    5.00    3.00
   0  -8  -4    0.60    2.20
   0   8   4    4.40    3.80
   0  -8   4    3.80    1.70
   0  -8   4    2.00    1.10
   0   8   4    2.70    1.70
   0  -8   4    1.90    1.80
   0  -8  -4    1.00    1.40
   0  -8  -4    2.40    1.80
   0   8  -4    5.60    2.50
   0   8  -4    3.10    1.70
   0   8  -4    4.60    1.80
   0   8  -4    2.60    1.90
   0   8   4    4.10    3.40
   1   8  -4  165.48   10.60
   1   8  -4  155.78    7.80
   1  -8   4  168.28    8.20
  -1  -8  -4  175.98    7.20
   1   8  -4  158.58    5.70
   1   8  -4  168.38    7.10
  -1   8   4  171.28   11.40
  -1   8   4  170.38   12.90
   1   8  -4  171.68    7.30
  -1  -8  -4  163.28    7.60
  -1  -8  -4  165.88    7.10
  -1   8   4  165.58    6.70
   1  -8   4  159.88    6.70
   1  -8   4  170.78    7.10
  -1   8  -4  168.68    7.30
   1  -8  -4  153.88    7.10
  -1  -8   4  179.38    6.60
   1  -8  -4  154.38    6.00
  -1   8  -4  173.08    7.20
   1  -8  -4  168.68    6.20
   1   8   4  172.28    6.30
   1   8   4  161.48    5.40
  -1  -8   4  181.08    7.80
  -1   8  -4  172.28    6.60
   1   8   4  164.68    8.40
   1  -8  -4  180.78    8.10
   1   8   4  176.28   11.30
  -1   8  -4  178.98   11.30
   2   8  -4   34.70    4.20
   2   8  -4   25.70    3.30
   2   8  -4   33.00    6.10
  -2   8   4   32.90    7.80
  -2  -8  -4   31.90    3.80
  -2  -8  -4   31.90    3.60
  -2   8   4   30.60    3.40
   2  -8   4   35.40    3.70
   2  -8   4   22.00    3.90
   2  -8   4   34.30    3.90
  -2   8   4   27.70    6.40
  -2  -8  -4   33.40    3.90
   2   8  -4   32.40    4.60
   2  -8  -4   32.90    4.30
  -2   8  -4   31.10    3.90
  -2  -8   4   30.60    3.70
  -2  -8   4   34.30    3.70
   2  -8  -4   28.60    3.90
  -2   8  -4   38.90    3.80
   2  -8  -4   32.90    3.50
   2   8   4   31.30    4.90
   2   8   4   31.90    3.70
   2  -8  -4   30.60    2.70
   2   8   4   36.80    6.00
  -2   8  -4   32.90    5.80
  -3   8   4   19.50    3.10
  -3  -8  -4   20.60    3.20
  -3  -8  -4   16.70    2.50
  -3   8   4   25.90    6.90
   3  -8   4   23.70    3.80
  -3  -8  -4   20.40    3.60
   3   8  -4   22.60    3.90
  -3   8   4   18.90    6.20
   3   8  -4   15.20    3.80
   3   8  -4   22.40    3.00
   3  -8   4   20.60    3.50
   3   8   4   22.30    4.60
   3   8   4   25.10    5.50
   3  -8  -4   19.20    3.40
  -3  -8   4   25.60    3.80
  -3   8  -4   20.80    5.00
   3   8   4   20.10    3.40
   3  -8  -4   15.30    3.00
  -3   8  -4   20.00    4.10
  -3  -8   4   24.40    3.60
   4   8  -4   12.90    3.20
   4   8  -4   13.60    4.10
  -4  -8  -4   19.00    3.20
  -4   8   4   14.30    5.60
   4   8  -4   21.30    3.20
  -4   8   4   13.70    6.40
  -4   8   4   24.00    4.10
   4  -8   4   16.60    3.60
   4  -8   4   10.70    3.70
  -4  -8  -4   15.20    3.10
   4   8   4   23.40    4.60
   4   8   4   13.00    3.30
  -4  -8   4   19.70    3.50
  -4   8  -4   14.50    4.00
   4  -8  -4   19.60    3.90
  -4  -8   4   22.90    3.80
  -4   8  -4   14.30    5.80
   4  -8  -4   12.40    3.20
  -5  -8  -4    3.90    2.10
  -5  -8  -4    5.60    3.20
  -5   8   4   -1.90    5.90
   5   8  -4    6.00    3.60
   5   8  -4    7.50    3.00
  -5   8   4    7.90    6.20
  -5   8   4    5.10    2.50
   5  -8   4    5.70    2.80
   5  -8   4    3.30    2.10
  -5  -8   4    8.50    3.40
  -5   8  -4    7.00    5.70
   5   8   4    5.70    3.10
   5  -8  -4    1.40    2.70
  -5  -8   4    6.40    3.40
  -5   8  -4   -3.00    3.00
   5  -8  -4    2.20    2.60
   5   8   4    4.50    3.60
  -6  -8  -4   18.80    4.60
  -6   8   4   11.70    7.40
  -6   8   4    0.50    3.40
  -6   8   4   14.20    9.00
   6  -8   4    8.50    3.40
   6   8  -4   10.30    3.60
   6   8  -4   19.70    4.40
   6   8  -4    9.30    4.10
   6  -8   4   18.20    4.30
  -6  -8  -4    7.20    2.80
  -6   8  -4   16.10    4.70
  -6  -8   4    8.10    4.10
   6   8   4    8.30    3.80
   6  -8  -4   11.60    3.80
   6  -8  -4   12.20    4.10
  -6   8  -4   17.10    7.30
   6   8   4   16.50    4.70
  -6  -8   4   11.00    3.10
   7   8  -4   18.40    4.70
  -7   8   4    5.80   10.10
   7   8  -4    9.50    4.60
  -7  -8  -4    8.40    4.00
   7   8  -4    9.90    4.60
   7  -8   4   14.40    4.30
  -7   8   4   18.50    4.20
   7  -8   4   11.70    5.00
  -7  -8  -4   11.50    4.30
   7  -8  -4    9.20    3.80
  -7  -8   4    5.40    3.80
  -7   8  -4   14.00    7.50
   7   8   4    4.20    4.10
  -7   8  -4   10.80    3.70
   7   8   4   16.30    5.10
  -7  -8   4   18.10    5.40
   0  -9  -4   63.99    5.40
   0   9  -4   74.79    5.00
   0   9   4   68.19    9.10
   0   9  -4   56.69    4.60
   0  -9   4   74.49    5.80
   0   9  -4   56.69    5.50
   0   9   4   64.59    4.20
   0  -9  -4   66.99    5.10
   0   9  -4   74.39    8.00
   0   9   4   67.59    5.70
   0  -9  -4   70.59    4.70
  -1   9   4  100.89   10.30
  -1   9   4   86.39    5.30
   1   9  -4   77.29    5.00
  -1  -9  -4   81.19    5.00
   1   9  -4   81.59    5.70
   1   9  -4   83.89    9.30
   1  -9   4   86.39    5.10
   1  -9   4   80.49    5.30
   1  -9   4   89.39    6.00
   1   9  -4   86.39    6.60
  -1  -9  -4   81.89    5.80
  -1   9   4   78.79    8.70
  -1  -9  -4   77.49    6.00
  -1  -9   4   85.09    4.80
  -1   9  -4   81.49    5.70
  -1  -9   4   88.69    6.30
   1  -9  -4   86.09    5.80
  -1   9  -4   86.39    6.10
   1   9   4   90.29    9.30
  -1   9  -4   88.69    9.30
   1  -9  -4   97.99    6.40
   1   9   4   83.69    6.50
  -1   9  -4   87.19    5.00
   1  -9  -4   89.49    4.80
   2  -9   4  108.79    5.80
   2  -9   4  110.19    6.00
   2   9  -4  111.29    6.20
   2  -9   4  116.59    7.70
  -2   9   4  106.99   11.00
  -2   9   4  106.59    6.30
  -2   9   4   93.99   10.10
   2   9  -4  101.89    9.50
   2   9  -4  103.79    6.80
  -2  -9  -4  109.39    6.70
   2   9  -4  102.79    7.60
  -2  -9  -4   99.89    6.60
  -2  -9  -4   91.39    5.30
   2   9   4   97.69    9.00
  -2   9  -4  102.09    7.00
   2   9   4   99.99    8.00
   2  -9  -4  103.39    6.70
   2  -9  -4  108.09    7.10
  -2   9  -4  103.89    9.90
   2   9   4  105.29    5.80
  -2  -9   4  105.69    6.30
  -2  -9   4   95.89    5.50
   3   9  -4   39.50    4.30
   3   9  -4   36.00    5.40
   3  -9   4   31.60    4.00
  -3   9   4   49.90   10.30
   3  -9   4   41.80    5.20
  -3   9   4   36.10    4.30
  -3  -9  -4   37.80    4.70
  -3   9   4   41.70    7.20
  -3  -9  -4   31.50    4.00
   3   9  -4   43.80    4.90
   3  -9  -4   40.70    5.10
   3   9   4   48.90    8.00
   3   9   4   41.50    5.90
   3  -9  -4   36.30    4.30
  -3   9  -4   37.00    6.80
   3   9   4   25.80    3.80
  -3   9  -4   46.90    5.10
  -3  -9   4   43.30    4.80
  -3  -9   4   25.30    4.40
   4  -9   4   34.30    4.70
   4   9  -4   26.10    3.30
  -4  -9  -4   29.10    4.80
  -4   9   4   39.70   10.50
   4   9  -4   32.70    5.20
   4   9  -4   24.00    4.50
  -4   9   4   33.80    7.40
  -4  -9  -4   36.60    4.80
   4  -9   4   26.40    5.10
  -4   9   4   38.60    5.10
  -4  -9   4   31.10    4.70
  -4  -9   4   33.10    4.50
   4  -9  -4   20.50    3.90
   4   9   4   22.50    4.10
  -4   9  -4   38.00    4.90
  -4   9  -4   31.70    7.40
   4   9   4   33.60    5.80
   4  -9  -4   28.70    4.70
   5   9  -4    5.00    3.70
  -5   9   4   15.50    4.30
   5   9  -4   22.50    4.70
   5  -9   4   17.00    4.50
  -5  -9  -4   20.00    3.40
  -5   9   4   15.40    7.40
  -5  -9  -4   12.20    3.40
   5  -9   4    9.80    3.50
  -5  -9   4   11.40    3.20
   5   9   4   14.00    3.90
  -5  -9   4   15.30    4.20
   5  -9  -4   12.00    3.80
   5  -9  -4   19.30    4.40
   5   9   4   13.30    3.80
  -5   9  -4   14.20    5.40
  -5   9  -4   23.10    4.30
  -6  -9  -4   26.70    5.30
   6   9  -4   27.50    5.60
   6  -9   4   34.60    6.30
  -6   9   4   26.60    4.70
   6   9  -4   29.60    5.70
  -6  -9  -4   30.40    5.40
   6   9  -4   28.30    6.30
   6  -9   4   30.40    5.00
  -6  -9  -4   16.40    3.80
  -6   9   4   18.40    8.10
   6   9   4   33.80    5.50
  -6   9  -4   30.10    5.10
   6   9   4   23.50    5.20
  -6  -9   4   32.70    5.90
  -6   9  -4   27.40    8.30
  -6  -9   4   31.80    5.20
   6  -9  -4   30.80    5.50
   6  -9  -4   37.70    5.90
   7  -9   4  110.69   10.80
   7   9  -4  132.39   10.40
   7   9  -4  129.29   11.50
   7  -9   4  139.69   10.20
  -7  -9  -4  107.09   11.80
   7   9  -4  122.19    9.40
   7   9   4  121.99   10.00
  -7  -9   4  150.68   12.90
   7   9   4  118.29   10.30
   7  -9  -4  113.59    8.20
   0  10  -4    5.30    2.20
   0 -10   4    3.60    3.00
   0 -10  -4    4.50    1.90
   0 -10   4    5.70    3.20
   0  10  -4    9.20    2.60
   0  10   4    6.50    2.70
   0 -10  -4    6.50    2.30
   0  10   4   12.00    5.50
   0 -10  -4    5.10    2.40
   0  10  -4    4.70    2.90
   0  10  -4   10.20    4.50
  -1 -10  -4   24.80    3.80
  -1  10   4   29.50    6.70
   1 -10   4   24.80    3.60
   1  10  -4   23.80    4.10
  -1 -10  -4   30.70    4.20
   1  10  -4   30.60    3.70
  -1  10   4   28.20    4.90
  -1 -10  -4   26.90    4.40
   1  10  -4   19.90    5.60
   1  10  -4   17.50    3.50
  -1  10   4   24.90    3.50
   1 -10   4   18.50    4.00
   1  10   4   23.60    4.40
  -1  10  -4   19.80    3.70
   1 -10  -4   21.10    3.70
   1 -10  -4   26.60    4.60
   1 -10  -4   22.20    4.00
   1  10   4   22.80    5.70
  -1  10  -4   24.90    3.70
  -1  10  -4   27.80    4.40
  -1  10  -4   26.30    6.00
  -1 -10   4   22.30    3.60
   2 -10   4    3.20    2.40
   2  10  -4    2.40    2.80
  -2 -10  -4    5.20    2.30
  -2  10   4   14.50    6.90
   2 -10   4    7.10    3.10
   2  10  -4   10.80    4.80
   2  10  -4    3.40    2.50
   2  10  -4    3.50    2.30
  -2  10   4    3.90    2.60
  -2 -10  -4    7.50    2.60
   2  10   4    4.80    4.60
  -2 -10   4    5.10    3.40
  -2  10  -4   10.10    4.90
   2 -10  -4   10.90    3.50
  -2  10  -4   14.00    3.90
   2  10   4    6.90    3.00
   3  10  -4   46.80    5.70
  -3 -10  -4   38.70    4.50
   3 -10   4   36.50    5.10
  -3 -10  -4   45.80    5.00
  -3  10   4   50.79    5.50
  -3  10   4   50.19    9.30
  -3 -10  -4   47.20    5.50
   3  10  -4   49.50    6.20
   3  10  -4   36.20    4.10
   3  10   4   36.30    4.50
   3 -10  -4   45.50    5.90
  -3  10  -4   47.10    7.70
  -3  10  -4   57.09    6.50
   3  10   4   35.80    5.70
   3  10   4   61.89    9.90
  -3 -10   4   39.60    4.60
  -3 -10   4   52.69    5.90
  -4 -10  -4   40.00    5.10
   4 -10   4   40.50    6.20
   4  10  -4   45.20    7.00
  -4  10   4   39.10    5.00
  -4 -10  -4   44.40    5.50
   4  10  -4   41.00    6.00
  -4 -10  -4   41.10    5.20
  -4  10   4   39.50    9.40
  -4 -10   4   31.70    4.40
   4  10   4   55.49    7.50
  -4 -10   4   36.00    5.40
   4  10   4   28.50    4.60
  -4  10  -4   34.30    5.00
  -4  10  -4   34.60    7.90
   4 -10  -4   40.10    5.80
  -5  10   4   31.40   10.90
  -5  10   4   15.70    3.90
  -5 -10  -4   17.30    4.00
   5 -10   4   14.30    4.10
   5  10  -4   16.60    4.50
  -5 -10  -4   28.30    5.20
  -5 -10  -4   20.80    4.20
   5  10  -4   19.00    5.00
   5 -10   4   16.10    3.90
  -5 -10   4   22.60    5.00
   5 -10  -4   19.20    4.80
  -5 -10   4   12.10    3.60
   5  10   4   19.60    4.60
  -5  10  -4   15.30    5.00
   5  10   4   16.90    4.50
  -5  10  -4   22.90    6.30
  -6 -10  -4   15.10    3.90
   6  10  -4   22.50    5.30
   6  10  -4   10.60    4.40
   6 -10   4   13.80    4.40
   6 -10   4   16.80    4.70
  -6 -10  -4   17.00    4.30
   6  10  -4   17.30    5.30
  -6  10   4   20.40    5.20
   6 -10  -4   20.40    5.30
   6  10   4   15.70    5.50
   6 -10  -4   15.80    4.80
  -6 -10   4   25.20    5.40
   6  10   4   14.70    4.70
  -6  10  -4   12.30    5.30
   0  11   4   60.89    6.90
   0 -11   4   63.29    6.50
   0  11  -4   52.79    5.50
   0 -11  -4   74.89    7.10
   0 -11   4   51.89    5.90
   0  11  -4   67.69   10.00
   0  11  -4   58.69    6.50
   0  11   4   64.79    9.50
   0 -11  -4   56.19    5.10
   0 -11  -4   61.19    6.10
   1  11  -4   21.10    4.60
   1 -11   4   39.80    5.60
   1 -11   4   39.10    5.10
   1  11  -4   33.60    4.20
  -1 -11  -4   33.30    4.60
  -1  11   4   33.90    7.50
   1  11  -4   45.50    9.00
  -1 -11  -4   26.70    3.80
  -1  11   4   42.60    6.20
  -1 -11   4   25.80    4.60
   1  11   4   42.50    7.80
  -1  11  -4   48.50    8.40
   1 -11  -4   35.40    4.80
  -1  11  -4   31.30    4.20
   1 -11  -4   37.60    5.00
   1  11   4   32.10    5.90
  -1 -11   4   37.60    4.60
   2  11  -4   22.90    4.20
   2  11  -4   25.00    3.60
  -2  11   4   17.00    4.40
  -2 -11  -4   19.20    4.00
   2 -11   4   19.90    4.70
  -2 -11  -4   25.80    4.20
   2  11  -4   27.30    8.40
  -2  11   4   28.00    8.40
   2 -11   4   25.70    3.90
   2  11  -4   21.30    5.00
   2  11   4   33.40    6.20
  -2 -11   4   17.80    3.80
   2 -11  -4   33.40    5.30
  -2  11  -4   32.90    7.60
   2  11   4   38.80    8.00
  -2  11  -4   28.40    4.90
  -3  11   4  115.89    8.00
   3  11  -4  117.99    8.70
  -3 -11  -4   91.59    7.40
  -3 -11  -4  101.89    7.10
   3  11  -4  110.19    9.50
  -3  11   4  107.39   12.60
  -3  11   4   99.69    7.80
   3 -11   4   85.59    8.30
   3 -11  -4   80.29    8.00
   3  11   4  131.29   10.50
  -3  11  -4  135.39   12.40
  -3 -11   4  107.89    7.70
  -3  11  -4  115.39    7.80
  -4 -11  -4   72.39    7.20
  -4 -11  -4   70.99    6.70
   4  11  -4   65.89    7.90
   4 -11   4   60.59    7.60
  -4  11   4   65.39    6.30
  -4  11   4   76.09   13.30
   4  11  -4   80.79    8.00
   4  11   4   68.89    8.80
  -4  11  -4  109.19   11.20
  -4 -11   4   77.19    7.60
   4 -11  -4   62.29    7.20
  -4  11  -4   76.49    7.90
   0  12  -4   67.79    8.50
   0  12   4   56.29    9.30
   0 -12   4   39.30    5.60
   0  12   4   31.90    5.70
   0 -12  -4   45.40    6.30
   0  12  -4   36.40    5.10
   1  12  -4   61.19   10.40
  -1  12   4   34.40    7.50
  -1  12   4   25.10    4.90
   1  12  -4   23.90    5.00
   1 -12   4   29.60    5.50
  -1 -12  -4   28.20    5.30
   1  12  -4   24.60    4.30
   1 -12   4   20.70    4.50
  -1 -12  -4   26.00    4.30
   1  12   4   27.00    6.30
  -1 -12   4   26.00    5.10
  -1  12  -4   29.50    4.90
   1 -12  -4   21.30    4.30
   2  12  -4   94.29    9.30
  -2 -12  -4   93.89    6.80
  -2  12   4   83.29    8.30
  -2 -12  -4   85.89    7.80
  -2  12   4  131.49   14.10
   2 -12   4   97.69    8.10
  -2 -12   4  100.39    7.50
  -2  12  -4  100.79    7.40
   2  12   4  109.99    9.30
   2 -12  -4   92.79    8.40
  -3 -12  -4   63.19    6.70
   3  12  -4   68.69    8.40
   3 -12   4   60.69    7.50
   3  12  -4   54.09    7.10
   3 -12  -4   81.29    8.40
   3  12   4   55.29    7.60
  -3  12  -4   76.59    6.90
   0   0  -5    2.80    0.90
   0   0   5   -0.90    0.90
   0   0   5    0.30    0.50
   0   0  -5    0.00    0.80
   0   0  -5    0.80    0.60
   0   0   5    1.50    2.40
   0   0  -5    0.50    0.60
   1   0  -5 3884.51   67.29
  -1   0  -5 4060.19   67.89
  -1   0   5 4166.28   71.09
  -1   0   5 3980.70   71.09
  -1   0  -5 4082.19   67.99
   1   0  -5 3981.40   71.49
  -1   0   5 3943.01   73.89
  -1   0  -5 4017.90   70.59
   1   0   5 3956.60   67.59
   1   0  -5 4020.00   67.69
   1   0   5 3876.21   82.89
   1   0   5 4019.00   67.69
  -2   0   5 2070.19   36.50
  -2   0   5 2059.79   35.20
   2   0  -5 2062.19   36.60
   2   0   5 2068.19   36.10
  -2   0  -5 2013.90   37.10
  -2   0  -5 2074.19   37.30
  -2   0  -5 2113.29   35.30
   2   0   5 2031.70   36.50
   2   0  -5 2080.49   34.20
  -2   0   5 2022.50   34.70
   2   0   5 2041.50   36.50
  -2   0  -5 2045.50   37.00
   2   0  -5 2086.59   37.00
  -2   0  -5 2132.79   37.10
  -2   0   5 2021.20   44.60
  -3   0  -5  406.86   10.60
  -3   0  -5  405.16   10.20
  -3   0   5  420.26   17.00
   3   0  -5  418.86   10.70
   3   0  -5  415.46    9.90
   3   0   5  424.76   10.00
  -3   0   5  407.16    8.10
  -3   0  -5  415.66    8.90
  -3   0   5  401.96    7.10
   3   0   5  400.96   10.10
   3   0   5  418.86    9.90
   3   0  -5  408.56    9.50
  -3   0   5  425.36   10.20
  -4   0   5  144.39    2.80
   4   0   5  152.38    6.10
   4   0   5  158.18    5.90
  -4   0  -5  146.69    4.80
   4   0  -5  142.29    5.30
  -4   0  -5  148.89    6.10
   4   0   5  145.69    5.30
  -4   0  -5  151.68    5.80
  -4   0   5  156.78   11.70
   4   0  -5  153.78    6.30
  -4   0   5  148.39    4.10
  -4   0   5  149.88    5.70
   4   0   5  149.19    4.30
   5   0  -5   15.60    2.70
  -5   0   5   14.20    2.60
  -5   0  -5   14.30    2.40
  -5   0   5   10.60    1.10
   5   0   5   13.60    1.60
   5   0  -5   14.80    2.30
  -5   0  -5   10.20    2.10
   5   0   5   12.50    2.40
   5   0   5   14.50    2.50
   5   0   5   15.70    2.00
  -5   0   5   11.50    5.20
  -5   0  -5   15.20    2.20
  -5   0   5   15.60    1.60
  -6   0  -5   19.70    2.90
  -6   0  -5   20.80    2.60
   6   0   5   16.50    2.30
   6   0  -5   23.80    3.70
  -6   0   5   15.20    1.90
  -6   0  -5   16.90    2.90
   6   0   5   16.40    3.00
  -6   0   5    8.10    5.60
  -6   0   5   16.60    2.70
   6   0  -5   18.70    2.50
   6   0   5   20.30    3.10
   6   0  -5   18.50    2.70
   7   0   5  140.29    7.60
   7   0  -5  137.59    6.70
   7   0   5  128.09    7.30
  -7   0  -5  138.59    7.10
  -7   0  -5  134.39    6.10
  -7   0   5  129.79   14.50
  -7   0   5  146.99    7.50
   7   0  -5  135.49    7.70
  -7   0  -5  138.89    7.10
   8   0  -5    1.10    2.20
  -8   0   5   10.00    7.00
  -8   0   5    1.60    1.90
   8   0   5   -1.50    1.60
  -8   0  -5    0.30    2.20
   8   0  -5   -1.00    1.80
  -8   0  -5    1.50    2.40
  -9   0   5   -0.80    1.80
   9   0  -5   -4.80    2.80
  -9   0  -5   -2.70    2.40
  -9   0  -5    1.30    2.40
   0  -1  -5   33.40    1.80
   0   1   5   30.30    2.30
   0  -1  -5   31.00    1.80
   0   1   5   31.80    2.00
   0   1   5   28.70    4.00
   0  -1   5   30.60    2.10
   0   1  -5   35.00    2.00
   0   1   5   35.70    2.30
   0  -1   5   30.20    3.30
   0  -1   5   34.60    2.30
   0  -1   5   34.80    2.30
   0  -1  -5   30.60    2.10
   0   1  -5   31.50    1.90
   0   1  -5   31.20    2.30
   1  -1   5  116.09    4.00
  -1   1   5  113.79    3.80
   1   1  -5  105.49    3.90
   1  -1   5  113.49    4.70
  -1  -1  -5  108.89    2.90
  -1   1   5  113.49    4.10
   1  -1   5  110.59    3.20
  -1  -1  -5  109.49    4.10
   1  -1   5  114.69    4.20
  -1  -1  -5  118.79    4.10
   1   1  -5  106.39    3.80
  -1   1   5  112.09    7.20
  -1  -1  -5  108.49    3.20
  -1  -1  -5  111.79    4.00
   1   1   5  108.19    3.10
   1  -1  -5  108.19    3.50
  -1  -1   5  118.39    4.10
  -1  -1   5  107.69    6.50
  -1   1  -5  114.19    3.60
   1  -1  -5  111.09    3.30
  -1  -1   5  116.29    3.50
  -1   1  -5  104.39    4.30
   1  -1  -5  105.29    2.80
  -1   1  -5  108.09    4.80
   1  -1  -5  111.69    2.90
  -1  -1   5  109.29    3.40
  -1   1  -5  117.69    4.10
   1   1   5  117.19    4.10
   1  -1  -5  105.29    4.10
   1   1   5  113.89    6.40
  -2   1   5   41.90    2.40
  -2  -1  -5   47.10    2.90
   2  -1   5   45.70    3.00
  -2  -1  -5   45.90    2.80
   2   1  -5   45.90    1.00
  -2   1   5   45.50    5.20
  -2  -1  -5   44.20    1.60
  -2   1   5   43.30    2.20
   2  -1   5   44.90    3.00
   2  -1   5   43.00    2.60
   2  -1   5   45.30    2.60
  -2  -1  -5   46.40    2.70
   2   1  -5   42.70    2.80
   2   1  -5   47.40    2.40
  -2  -1  -5   44.00    2.00
   2   1   5   46.60    2.70
   2   1   5   48.00    1.90
   2  -1  -5   44.30    1.40
  -2   1  -5   43.00    2.30
  -2   1  -5   45.80    2.90
   2   1   5   40.50    2.30
  -2  -1   5   42.20    2.70
   2   1   5   41.50    2.00
   2  -1  -5   44.90    1.80
  -2  -1   5   46.20    2.20
  -2   1  -5   41.90    2.10
   2  -1  -5   40.40    2.60
   2  -1  -5   45.90    2.90
  -2  -1   5   41.50    4.80
  -2   1  -5   46.10    2.80
  -3  -1  -5  264.47    5.90
   3  -1   5  276.87    8.00
  -3   1   5  256.27   13.30
  -3   1   5  257.67    5.00
   3   1  -5  263.77    7.40
  -3   1   5  270.47    7.30
  -3  -1  -5  264.77    7.50
   3   1  -5  271.97    7.00
   3  -1   5  266.07    7.10
  -3  -1  -5  268.07    8.30
   3  -1   5  263.57    7.60
   3   1  -5  268.77    8.30
  -3  -1  -5  261.87    7.70
   3   1   5  268.47    6.90
  -3   1  -5  276.47    8.10
  -3  -1   5  268.77    7.90
   3   1   5  271.37    7.40
   3   1   5  274.87    7.70
  -3  -1   5  273.97    6.40
   3  -1  -5  269.97    6.60
  -3   1  -5  258.77    8.00
   3  -1  -5  262.77    7.90
  -3   1  -5  261.57    7.60
  -3   1  -5  268.87    7.00
  -3  -1   5  282.87   13.60
   4   1  -5   54.49    3.80
  -4  -1  -5   50.99    3.70
   4   1  -5   49.70    3.50
  -4   1   5   45.90    7.30
   4  -1   5   54.39    3.10
  -4  -1  -5   53.49    3.30
  -4  -1  -5   51.89    4.00
  -4  -1  -5   49.30    2.40
   4  -1   5   52.69    3.50
  -4   1   5   55.39    3.50
  -4   1   5   48.20    1.60
   4  -1   5   49.40    1.50
   4  -1   5   55.29    4.00
   4  -1  -5   46.40    2.80
   4   1   5   48.80    3.00
  -4   1  -5   48.70    3.90
  -4  -1   5   49.70    3.50
  -4  -1   5   56.69    7.90
   4   1   5   53.29    3.50
  -4   1  -5   55.09    4.00
   4   1   5   49.30    2.80
   4   1   5   48.60    3.50
   4  -1  -5   49.70    3.30
  -4   1  -5   49.00    3.50
  -4   1  -5   52.09    3.20
   4   1   5   58.19    3.80
   4  -1  -5   51.59    3.70
  -4  -1   5   55.59    2.70
   4   1   5   51.39    2.80
  -5   1   5  619.84   25.80
  -5  -1  -5  597.84   14.30
  -5  -1  -5  597.94   12.60
  -5   1   5  573.34   11.10
  -5  -1  -5  586.04   14.70
   5   1  -5  595.74   16.10
  -5  -1  -5  599.14   15.50
   5   1  -5  601.64   14.70
   5  -1   5  617.84   15.80
   5  -1   5  581.74   15.30
  -5   1   5  618.74   14.40
   5  -1   5  577.14   13.10
   5   1   5  576.64   14.80
   5  -1  -5  585.64   14.00
  -5   1  -5  587.74   13.60
   5  -1  -5  587.44   13.50
   5   1   5  583.94   13.20
   5   1   5  592.74   14.40
  -5  -1   5  605.34   12.80
   5   1   5  591.44   14.00
   5   1   5  596.04   15.00
  -5   1  -5  561.94   15.00
  -5  -1   5  589.14   25.40
   5   1   5  598.04   13.80
  -5   1  -5  610.14   17.10
  -5  -1   5  593.54   15.10
   5  -1  -5  580.94   15.60
  -5   1  -5  590.84   15.00
   6  -1   5    3.70    1.40
   6   1  -5    3.00    2.60
  -6  -1  -5    4.40    1.90
  -6   1   5    2.60    1.50
   6   1  -5    3.30    1.40
  -6   1   5   -0.90    5.10
   6   1  -5    2.10    2.10
  -6  -1  -5    6.70    2.30
   6  -1   5    2.30    2.20
  -6  -1  -5    3.60    1.50
   6  -1   5   -1.20    2.10
   6   1   5    3.50    1.50
   6   1   5    1.00    1.40
   6   1   5    3.30    1.90
   6  -1  -5    4.20    2.60
   6  -1  -5    1.90    1.30
  -6  -1   5    7.70    5.60
  -6  -1   5    3.20    1.40
  -6   1  -5    4.80    2.40
   6  -1  -5    2.50    1.50
   6   1   5    0.20    1.60
   6   1   5    4.00    2.30
  -6   1  -5    3.10    1.60
  -6  -1   5    3.30    1.90
  -6   1  -5    3.80    3.00
   6   1   5    2.80    1.80
   7  -1   5   66.69    5.40
  -7   1   5  124.79   17.70
   7   1  -5   85.59    6.70
   7   1  -5   66.59    5.30
  -7  -1  -5   72.19    5.00
  -7   1   5   73.59    4.90
  -7  -1  -5   72.59    4.90
   7  -1   5   80.69    6.00
  -7   1  -5   61.89    4.40
  -7   1  -5   76.89    5.30
   7  -1  -5   67.49    4.50
   7   1   5   79.29    6.00
  -7  -1   5   99.59   16.10
  -7  -1   5   74.89    5.50
  -7   1  -5   93.29    7.70
   7   1   5   79.69    5.10
   7  -1  -5   76.89    6.70
   7   1   5   69.89    6.20
   7  -1  -5   65.79    4.30
   8   1  -5   48.10    5.20
  -8   1   5   62.39   14.50
  -8   1   5   42.10    4.70
   8   1  -5   41.10    5.50
  -8  -1  -5   39.30    4.80
   8  -1   5   28.70    4.30
   8  -1   5   35.40    5.00
  -8  -1  -5   45.50    5.30
  -8   1  -5   35.20    4.30
   8  -1  -5   40.20    5.50
  -8   1  -5   43.80    4.60
  -8   1  -5   37.20    4.70
  -8  -1   5   42.50    5.30
   8   1   5   36.80    5.30
  -8  -1   5   68.99   15.10
  -9  -1  -5   16.90    3.80
   9   1  -5   14.50    3.80
   9   1  -5   15.10    4.60
  -9  -1  -5   20.10    4.00
   9  -1   5   13.30    4.40
  -9   1  -5   24.50    4.40
  -9   1  -5   12.10    3.50
   9  -1  -5   28.20    5.30
  -9  -1   5   19.00    4.20
   0  -2   5 1565.84   28.10
   0  -2  -5 1508.05   25.60
   0  -2  -5 1527.35   27.70
   0  -2   5 1545.25   27.80
   0   2   5 1508.65   28.00
   0  -2   5 1532.05   30.10
   0   2   5 1562.64   34.90
   0  -2  -5 1548.15   28.20
   0   2  -5 1513.85   27.90
   0   2  -5 1581.54   27.90
   0  -2   5 1548.65   27.60
   0   2   5 1537.95   29.70
  -1  -2  -5 1142.89   21.70
   1  -2   5 1133.69   20.70
   1   2  -5 1154.88   21.30
   1   2  -5 1154.28   21.70
   1  -2   5 1163.18   21.50
  -1   2   5 1111.09   24.60
  -1   2   5 1137.09   29.40
  -1  -2  -5 1152.88   21.80
  -1   2   5 1156.88   21.30
  -1   2   5 1147.69   21.40
   1  -2   5 1161.88   22.30
  -1  -2   5 1180.08   21.80
  -1   2  -5 1150.68   22.10
  -1   2  -5 1165.78   21.50
   1   2   5 1138.79   27.20
   1  -2  -5 1152.18   22.10
  -1  -2   5 1112.39   26.50
   1  -2  -5 1162.88   21.00
  -1   2  -5 1130.69   21.80
   1  -2  -5 1167.88   20.60
  -1   2  -5 1159.28   22.20
   1   2   5 1160.88   22.20
   1   2   5 1162.88   22.10
  -1  -2   5 1138.29   21.10
  -2  -2  -5  366.96    7.40
   2   2  -5  373.16    6.90
  -2  -2  -5  387.76    9.10
   2   2  -5  389.16    8.60
  -2   2   5  387.56   12.80
  -2   2   5  383.46    8.70
  -2   2   5  381.46   15.40
   2   2  -5  388.96    9.50
   2  -2   5  399.26    9.80
  -2  -2  -5  388.16    9.50
   2  -2   5  375.26    9.80
  -2   2   5  381.66    8.50
   2  -2   5  373.56    7.40
   2  -2   5  390.46    9.60
   2  -2  -5  384.46    8.30
   2   2   5  387.56    9.80
   2   2   5  371.06    7.40
   2  -2  -5  383.96    9.00
   2  -2  -5  377.16    9.60
  -2  -2   5  385.86   14.80
  -2  -2   5  377.16    9.50
  -2   2  -5  376.96    9.90
  -2   2  -5  375.06    8.60
  -2  -2   5  373.46    8.50
   2   2   5  378.26    8.40
  -2   2  -5  391.76    9.10
  -2   2  -5  378.36    9.70
  -2   2  -5  368.96    9.30
   2   2   5  379.86    9.30
   3   2  -5  105.09    4.60
  -3   2   5  106.29    9.40
  -3   2   5  101.09    4.00
  -3  -2  -5  102.79    4.20
   3  -2   5  107.89    5.00
   3   2  -5  102.19    3.70
  -3  -2  -5  107.79    4.60
   3  -2   5  103.49    4.70
  -3  -2  -5   99.79    2.30
  -3   2   5  100.69    3.40
   3  -2   5  104.09    3.90
   3  -2   5  100.19    4.70
   3   2   5  100.69    4.00
  -3   2  -5  101.89    5.10
   3   2   5   98.59    3.30
  -3  -2   5  107.89    4.00
   3  -2  -5  101.59    3.40
  -3   2  -5  105.19    5.20
   3  -2  -5  101.79    4.50
  -3  -2   5  104.39    4.70
   3  -2  -5  106.69    4.70
  -3   2  -5  107.19    4.50
   3   2   5  101.89    3.40
  -3   2  -5  100.69    4.60
   3  -2  -5  102.19    3.20
   3   2   5  106.19    4.70
   3   2   5  114.99    4.90
   4  -2   5  118.99    5.80
  -4  -2  -5  119.29    3.20
   4   2  -5  122.69    5.90
   4  -2   5  122.29    5.70
  -4   2   5  112.29   10.80
   4  -2   5  123.39    4.50
  -4  -2  -5  110.79    2.80
   4   2  -5  120.59    5.50
  -4   2   5  117.79    4.70
  -4  -2  -5  128.29    5.50
   4  -2   5  122.89    5.70
  -4  -2  -5  123.39    4.90
  -4   2   5  117.79    3.50
   4   2   5  114.59    5.30
  -4   2  -5  125.99    6.00
   4   2   5  119.69    5.60
   4   2   5  122.19    5.00
  -4   2  -5  118.29    5.40
   4  -2  -5  119.49    5.40
   4   2   5  114.09    4.40
   4   2   5  118.09    5.00
  -4  -2   5  113.59    5.50
  -4   2  -5  109.09    5.90
   4  -2  -5  115.89    4.00
   4  -2  -5  112.59    5.30
  -4   2  -5  125.19    5.20
  -4  -2   5  122.89    4.60
   4   2   5  113.09    4.30
   5  -2   5  174.68    7.60
   5   2  -5  173.38    7.80
  -5   2   5  181.98   13.80
   5  -2   5  188.38    8.00
  -5  -2  -5  171.68    7.00
  -5  -2  -5  173.88    6.20
  -5  -2  -5  169.58    4.70
   5  -2   5  169.08    5.50
  -5   2   5  168.78    6.10
   5   2  -5  169.08    7.10
  -5  -2  -5  164.68    7.40
  -5   2  -5  185.78    7.50
   5   2   5  175.68    6.20
  -5   2  -5  180.18    8.90
  -5  -2   5  171.58    6.00
   5  -2  -5  176.78    6.90
   5   2   5  175.18    6.90
  -5  -2   5  164.18    7.20
  -5   2  -5  180.98    6.90
   5   2   5  169.98    6.40
   5   2   5  159.08    7.20
   5  -2  -5  169.28    5.50
   5  -2  -5  180.68    7.40
  -5   2  -5  165.48    7.20
   5   2   5  174.58    6.90
  -6  -2  -5  458.35   11.90
  -6   2   5  449.26   24.60
  -6  -2  -5  464.15   13.10
   6  -2   5  468.05   14.40
   6  -2   5  455.85   14.40
  -6   2   5  427.16   11.80
   6   2  -5  464.35   13.60
   6   2  -5  438.76   14.30
   6   2   5  438.66   12.00
  -6   2  -5  464.15   16.50
   6  -2  -5  462.45   14.10
   6  -2  -5  445.56   11.10
   6   2   5  463.25   13.20
  -6   2  -5  469.55   12.80
  -6   2  -5  480.85   14.30
  -6  -2   5  500.05   26.20
   6   2   5  446.16   12.10
   6   2   5  455.35   13.50
   6  -2  -5  447.86   12.30
  -6  -2   5  458.85   13.90
  -7   2   5    2.40    1.90
   7  -2   5    4.30    2.40
   7   2  -5    4.00    3.10
   7  -2   5    2.20    2.60
   7   2  -5    2.90    2.10
  -7  -2  -5    6.70    2.50
  -7   2   5    5.70    8.10
  -7  -2  -5    2.20    2.00
  -7   2  -5    9.60    2.80
   7   2   5    5.70    2.00
  -7  -2   5   12.10    7.80
  -7  -2   5    2.20    2.10
   7   2   5    5.20    2.60
  -7   2  -5    6.40    3.10
   7  -2  -5    3.30    2.20
   7   2   5    7.30    3.10
   7  -2  -5    5.30    2.10
  -7   2  -5    0.80    2.20
  -7  -2   5    5.70    1.90
   8  -2   5   20.40    4.00
   8  -2   5   15.30    3.70
  -8  -2  -5   23.20    3.40
   8   2  -5   19.80    4.10
   8   2  -5   25.50    4.40
  -8   2   5   43.50   11.90
  -8  -2  -5   26.30    4.20
  -8   2  -5   20.30    3.30
   8   2   5   21.70    3.70
  -8  -2   5   38.20   10.20
  -8  -2   5   22.50    4.10
   8   2   5   19.80    3.80
   8  -2  -5   22.00    4.00
  -8   2  -5   21.10    4.30
  -9   2   5   38.60    8.20
  -9   2   5   50.69   12.10
   0  -3   5    4.40    1.40
   0   3  -5    6.80    1.50
   0  -3   5    1.20    1.10
   0  -3  -5    0.50    0.70
   0   3   5    2.30    0.90
   0   3   5    2.40    3.10
   0   3  -5    1.90    0.80
   0   3  -5    1.60    1.40
   0  -3  -5    1.90    0.90
   0  -3   5    0.90    0.90
   0  -3   5    0.30    1.20
   0   3  -5    1.80    0.90
   0  -3  -5    3.40    0.90
   0  -3  -5    1.60    0.90
   0   3   5    2.00    1.80
  -1  -3  -5  296.97    7.90
   1  -3   5  309.17    7.50
   1   3  -5  297.17    7.20
  -1  -3  -5  293.37    7.70
  -1   3   5  303.97    7.30
   1   3  -5  292.67    8.30
   1  -3   5  305.67    8.30
   1   3  -5  312.47    7.90
  -1   3   5  302.17   10.80
  -1  -3  -5  299.17    7.70
  -1   3   5  304.47   14.50
  -1   3   5  295.87    7.60
  -1   3  -5  301.47    8.40
  -1   3  -5  306.77    7.90
   1  -3  -5  304.67    7.60
  -1   3  -5  296.37    8.80
   1   3   5  300.37   12.20
   1  -3  -5  304.17    8.40
  -1  -3   5  291.87    7.50
   1  -3  -5  301.87    6.50
   1   3   5  301.77    9.10
   1  -3  -5  296.67    6.30
   1  -3  -5  293.57    8.10
  -1  -3   5  302.97    7.90
   1   3   5  297.47    8.20
  -2   3   5  550.74   16.80
  -2   3   5  561.14   20.10
   2   3  -5  574.34   13.60
  -2   3   5  548.95   11.40
   2  -3   5  563.54   13.20
  -2   3   5  551.24   11.60
  -2  -3  -5  551.44   11.50
  -2  -3  -5  545.25   11.90
   2  -3   5  547.05   13.10
   2   3  -5  559.14   12.60
   2  -3   5  564.14   12.90
  -2  -3  -5  557.44   12.70
   2   3  -5  539.85   11.30
   2  -3  -5  543.05   11.70
   2  -3  -5  548.65   11.70
   2   3   5  551.44   13.00
   2   3   5  550.14   13.60
   2   3   5  542.15    9.80
  -2   3  -5  540.25   13.50
   2   3   5  540.25   10.90
  -2   3  -5  561.64   13.40
  -2  -3   5  547.75   12.80
   2  -3  -5  544.85   13.10
  -2   3  -5  543.15   12.50
  -2  -3   5  550.04   12.00
   2   3   5  562.34   12.50
  -3   3   5  694.03   13.90
  -3  -3  -5  680.53   13.20
   3   3  -5  693.43   15.30
   3   3  -5  632.44   11.90
  -3   3   5  680.93   20.60
   3   3  -5  693.13   16.60
   3  -3   5  692.93   16.00
   3   3  -5  690.43   13.50
  -3   3   5  675.13   23.40
  -3  -3  -5  692.33   14.30
  -3  -3  -5  698.63   15.50
   3   3  -5  664.33   15.50
   3  -3   5  671.83   16.00
   3  -3   5  702.13   16.20
  -3   3   5  686.63   13.40
  -3   3  -5  648.64   13.10
   3   3   5  695.33   14.00
  -3   3  -5  691.23   15.80
   3  -3  -5  677.03   12.30
   3  -3  -5  711.83   15.90
   3  -3  -5  718.93   11.80
   3  -3  -5  690.03   14.10
   3   3   5  661.93   13.10
  -3  -3   5  689.73   15.90
  -3  -3   5  702.23   14.60
   3   3   5  692.93   15.90
   3   3   5  702.53   15.60
  -3   3  -5  681.63   17.30
   3  -3  -5  691.03   15.10
  -3   3  -5  675.83   13.00
  -3   3  -5  699.83   16.40
  -3   3  -5  689.73   15.20
  -4   3   5    3.80    0.80
   4   3  -5    5.20    1.80
   4  -3   5    3.20    1.40
  -4   3   5   -1.90    4.10
  -4   3   5    4.60    3.00
   4  -3   5    5.70    1.30
  -4  -3  -5    4.00    1.90
  -4  -3  -5    2.00    1.30
   4  -3   5    3.80    1.60
   4  -3   5    7.70    2.00
   4   3  -5    4.10    1.60
  -4  -3  -5    5.30    1.70
  -4  -3  -5    4.00    0.60
  -4   3   5    3.90    1.50
  -4   3  -5    4.80    1.60
   4   3   5    4.00    1.90
  -4   3  -5    4.30    3.00
  -4  -3   5    3.50    1.60
   4  -3  -5    2.20    1.80
  -4   3  -5    3.60    1.50
   4  -3  -5    2.70    1.70
   4   3   5    2.60    1.10
  -4   3  -5    3.80    1.90
   4   3   5    4.10    2.10
  -4  -3   5    4.90    2.10
   4  -3  -5    4.70    0.90
   4   3   5    5.50    1.50
   4   3   5    2.60    1.30
   5   3  -5   10.40    2.40
  -5   3   5   14.50    2.10
  -5   3   5   15.70    4.60
   5   3  -5    9.80    3.20
   5  -3   5   12.40    2.70
   5  -3   5   13.20    3.20
   5  -3   5   13.50    1.80
  -5   3   5   19.00    6.80
   5   3  -5   18.40    3.10
  -5  -3  -5   19.70    3.20
  -5  -3  -5   18.00    2.30
  -5  -3  -5   16.60    2.90
   5  -3  -5   15.90    2.60
   5   3   5   17.70    2.50
  -5   3  -5   17.40    3.00
   5   3   5   11.80    2.60
   5   3   5   16.80    2.20
   5  -3  -5   14.70    1.50
   5   3   5   17.10    2.80
   5  -3  -5   14.60    2.60
  -5   3  -5   13.90    3.10
  -5  -3   5   10.50    2.90
   5   3   5   15.20    2.80
  -5   3  -5   13.50    2.40
  -5  -3   5   18.40    2.40
  -5   3  -5   13.50    3.60
   6  -3   5  144.69    8.10
  -6   3   5  140.99   11.30
   6  -3   5  128.59    7.70
  -6   3   5  135.49    5.60
   6   3  -5  148.19    7.90
  -6  -3  -5  141.69    6.90
   6   3  -5  130.19    6.90
  -6  -3  -5  138.49    7.20
  -6  -3  -5  113.79    5.80
  -6   3   5  137.39   15.90
  -6  -3   5  141.19    6.10
   6   3   5  135.39    6.40
  -6  -3   5  150.38    8.00
   6   3   5  152.58    7.70
   6   3   5  137.39    5.90
   6  -3  -5  133.89    6.90
   6   3   5  132.49    6.40
  -6   3  -5  129.39    9.20
   6  -3  -5  136.59    6.60
  -6   3  -5  143.09    7.10
  -7   3   5   35.00   10.80
   7  -3   5   12.00    3.10
  -7  -3  -5   20.00    4.30
   7   3  -5   11.90    3.70
  -7  -3  -5   14.50    3.30
  -7   3   5   18.60    7.10
   7   3  -5   17.20    3.90
   7  -3   5   15.70    4.10
   7   3   5   14.60    2.90
  -7   3  -5   20.80    3.80
   7  -3  -5   15.20    3.20
   7  -3  -5   17.50    3.10
  -7   3  -5   22.20    3.90
  -7  -3   5   18.10    3.50
  -7  -3   5   15.10    2.90
  -7   3  -5   13.60    5.00
   7   3   5   14.10    2.90
   7   3   5   18.10    4.20
   8  -3   5   15.80    4.30
  -8  -3  -5   13.50    3.30
   8  -3   5   12.10    4.40
  -8   3   5   21.40    7.40
   8   3  -5   12.20    3.70
  -8  -3  -5   11.60    3.10
   8   3  -5   15.00    4.30
  -8   3   5   26.50   11.70
  -8  -3   5   32.20   10.00
  -8  -3   5   12.10    4.30
   8   3   5   13.40    4.10
   8  -3  -5   18.70    4.40
  -8   3  -5    8.70    2.80
  -8   3  -5   16.10    3.70
   8   3   5   11.50    2.70
   9   3  -5   17.50    4.40
  -9   3   5   32.20    8.60
   9  -3   5   12.80    4.50
   9   3  -5   15.00    4.90
  -9   3   5   30.20   12.40
  -9  -3  -5   14.20    3.70
   9  -3   5    8.90    4.50
   9   3   5   19.30    4.40
  -9   3  -5   16.40    4.10
  -9  -3   5   12.00    4.60
  -9   3  -5    8.20    4.30
   9  -3  -5   14.30    3.80
   0   4  -5 1223.98   23.40
   0  -4   5 1227.98   23.30
   0   4  -5 1218.38   23.60
   0   4  -5 1176.58   26.10
   0   4   5 1145.19   20.70
   0   4   5 1228.78   31.60
   0  -4  -5 1188.38   23.30
   0  -4  -5 1210.58   22.50
   0  -4  -5 1211.28   23.80
   0   4   5 1225.88   27.40
   0  -4  -5 1223.18   23.50
   0   4   5 1227.68   23.90
   0   4  -5 1216.58   23.20
   0  -4   5 1193.18   22.70
  -1  -4  -5  338.17    8.70
  -1   4   5  337.27   13.00
   1   4  -5  338.37    9.50
   1  -4   5  343.27    9.40
   1  -4   5  337.27    8.00
   1  -4   5  346.77    8.80
  -1  -4  -5  331.47    8.50
  -1   4   5  344.67    8.80
  -1  -4  -5  345.47    9.10
  -1  -4  -5  331.37    8.60
  -1   4   5  339.47   15.80
   1   4  -5  341.27    8.20
   1   4  -5  348.57    9.00
   1   4   5  338.07   10.80
   1   4   5  313.07    6.50
  -1   4  -5  338.37    9.30
  -1   4  -5  344.77    9.10
  -1  -4   5  336.77    8.70
   1  -4  -5  325.87    7.20
   1  -4  -5  340.47    8.70
   1  -4  -5  349.87    9.50
   1   4   5  338.07    9.50
  -1   4  -5  325.47   10.50
   1   4   5  316.97    6.30
   1   4   5  331.67    8.30
  -1   4  -5  335.77    8.20
  -1  -4   5  334.07    8.80
   1   4   5  341.97   14.40
   2   4  -5  488.35   12.10
  -2  -4  -5  524.35   12.50
   2   4  -5  487.05   12.80
  -2   4   5  491.45   10.40
  -2   4   5  495.35   19.80
   2  -4   5  497.95   10.70
  -2  -4  -5  485.75   11.00
   2  -4   5  505.35   12.70
  -2   4   5  506.55   16.90
  -2   4   5  489.15   11.00
  -2  -4  -5  486.15   11.00
   2  -4   5  488.25   12.60
   2   4  -5  491.15   10.40
  -2  -4  -5  507.75   12.30
   2   4  -5  519.45   12.10
   2  -4   5  492.55   12.30
  -2  -4   5  506.65   12.20
   2   4   5  502.45   11.80
  -2   4  -5  522.25   12.20
   2   4   5  477.95    9.00
   2  -4  -5  491.95   11.40
   2  -4  -5  492.75   12.50
   2   4   5  495.25   12.60
   2  -4  -5  476.65    8.30
  -2   4  -5  505.95   12.80
   2   4   5  480.85    9.40
   2   4   5  508.35   14.10
   2  -4  -5  491.55    8.90
  -2   4  -5  497.65   14.00
  -2  -4   5  509.25   11.80
  -3   4   5   76.29    9.20
   3  -4   5   68.29    4.50
   3   4  -5   67.19    4.50
   3  -4   5   74.49    4.60
  -3  -4  -5   73.39    3.00
   3   4  -5   65.49    2.60
   3   4  -5   72.69    4.60
  -3  -4  -5   70.29    4.20
  -3  -4  -5   73.19    4.10
  -3  -4  -5   65.19    3.10
  -3   4   5   72.59    3.20
  -3   4   5   75.79    3.10
   3   4  -5   68.79    4.20
  -3   4   5   64.39    6.60
   3  -4   5   74.19    5.00
   3   4   5   69.69    2.80
   3  -4  -5   69.69    3.80
   3   4   5   72.39    4.40
   3   4   5   68.49    4.20
  -3   4  -5   62.69    5.70
   3   4   5   71.99    2.70
  -3  -4   5   72.99    4.70
   3  -4  -5   70.29    3.70
  -3  -4   5   70.19    4.10
   3  -4  -5   70.39    4.30
  -3   4  -5   71.79    4.60
  -4   4   5   56.19    7.60
   4   4  -5   45.40    4.70
  -4  -4  -5   48.30    2.90
   4  -4   5   51.79    4.80
  -4  -4  -5   59.19    4.30
  -4  -4  -5   58.69    4.30
   4  -4   5   54.69    4.20
   4  -4   5   56.39    4.10
   4  -4   5   56.49    3.00
  -4   4   5   50.19    8.70
  -4   4   5   51.49    3.00
   4   4  -5   54.69    4.60
  -4  -4  -5   49.99    2.20
   4  -4  -5   51.69    4.40
   4   4   5   50.89    2.80
   4   4   5   50.19    2.90
  -4  -4   5   51.19    4.20
  -4  -4   5   55.59    3.60
   4   4   5   47.60    3.90
   4  -4  -5   51.19    3.90
   4   4   5   58.29    4.20
   4   4   5   58.49    4.50
  -4   4  -5   52.39    3.90
  -4   4  -5   51.99    5.40
   4  -4  -5   49.30    1.90
  -5   4   5   75.09   11.20
   5  -4   5   71.79    3.40
  -5  -4  -5   69.19    3.60
  -5  -4  -5   59.69    4.30
   5   4  -5   67.09    5.50
  -5   4   5   72.59    8.50
   5   4  -5   62.79    5.20
  -5  -4  -5   65.09    4.90
  -5   4   5   65.99    3.50
   5   4  -5   79.19    6.10
   5  -4   5   67.59    5.70
   5  -4   5   64.09    5.00
  -5   4  -5   61.69    6.50
   5  -4  -5   72.59    4.70
  -5   4  -5   71.19    5.30
   5   4   5   67.89    3.80
  -5  -4   5   73.29    4.40
   5   4   5   72.69    5.50
  -5  -4   5   85.29    6.10
   5   4   5   68.59    4.90
   5  -4  -5   74.19    5.20
  -6   4   5  100.79   12.00
   6  -4   5   87.59    6.20
  -6  -4  -5   88.09    6.50
   6   4  -5   79.99    6.30
  -6   4   5  104.49   14.30
   6   4  -5   94.59    6.60
  -6  -4  -5   92.49    5.90
   6   4  -5   96.39    7.20
   6  -4   5   99.79    7.40
  -6  -4   5   91.29    5.00
   6   4   5   91.59    6.60
  -6   4  -5   93.49    8.90
   6   4   5   87.29    6.00
  -6   4  -5   80.59    5.40
   6   4   5   79.69    4.50
   6  -4  -5  100.29    6.40
   6  -4  -5   89.09    5.50
  -6  -4   5   96.79    7.00
   7  -4   5   47.70    5.80
   7  -4   5   45.40    5.70
   7   4  -5   50.49    6.10
   7   4  -5   53.09    5.60
  -7   4   5   64.59   11.30
  -7  -4  -5   47.40    4.70
  -7  -4  -5   52.49    5.60
  -7   4   5   77.59   15.60
   7  -4  -5   54.79    5.20
  -7   4  -5   52.99    5.60
   7   4   5   37.50    4.60
   7  -4  -5   51.39    5.30
  -7  -4   5   45.30    5.80
  -7   4  -5   55.29    8.50
   7   4   5   47.60    5.90
  -7  -4   5   44.40    4.20
   7   4   5   45.00    4.40
   8  -4   5   89.59    7.40
  -8  -4  -5   79.19    5.70
  -8  -4  -5   80.59    7.70
   8   4  -5   80.79    7.80
  -8   4   5  104.69   19.30
   8   4  -5   74.39    7.00
  -8   4   5   98.19   14.10
   8  -4   5   68.79    7.30
  -8   4  -5   83.79    7.10
   8   4   5   83.69    7.70
   8  -4  -5   82.69    6.60
  -8   4  -5   72.09    5.90
  -8  -4   5   83.79    8.20
  -9   4   5   46.70   13.30
   9   4  -5   28.40    5.20
   9  -4   5   31.50    6.10
   9   4  -5   33.10    5.20
  -9  -4  -5   36.00    5.40
  -9   4   5   49.80   12.10
   9  -4   5   31.10    5.50
  -9   4  -5   29.10    5.90
  -9  -4   5   28.70    5.90
   9   4   5   19.60    4.50
  -9   4  -5   33.40    5.50
   9  -4  -5   15.10    4.50
   0   5   5 1816.32   34.40
   0  -5   5 1849.71   34.00
   0  -5  -5 1786.12   32.80
   0   5   5 1832.82   38.90
   0  -5  -5 1801.22   34.10
   0   5   5 1823.52   43.40
   0   5  -5 1800.72   34.30
   0   5  -5 1820.02   34.10
   0  -5   5 1841.22   33.10
   0   5  -5 1815.92   38.20
   0  -5  -5 1822.82   34.40
   0   5  -5 1844.82   33.80
   1  -5   5  565.94   13.10
   1   5  -5  552.04   12.10
  -1   5   5  557.44   18.00
  -1   5   5  581.84   21.60
   1   5  -5  574.34   14.20
  -1   5   5  566.94   13.10
   1  -5   5  549.15   11.80
  -1  -5  -5  553.94   12.90
   1  -5   5  566.94   14.10
   1   5  -5  556.24   13.00
  -1  -5  -5  541.15   12.40
  -1  -5  -5  535.05   12.70
   1   5  -5  561.04   16.90
  -1  -5  -5  569.44   13.40
  -1   5  -5  550.04   12.50
   1  -5  -5  568.54   13.90
   1  -5  -5  562.14   13.00
   1   5   5  546.65   10.50
   1   5   5  525.05   10.00
   1   5   5  563.34   16.30
   1  -5  -5  563.24   11.90
  -1  -5   5  549.85   13.10
   1  -5  -5  549.05   11.30
  -1   5  -5  558.34   16.00
  -1   5  -5  540.95   13.30
   1   5   5  552.84   19.90
   1   5   5  550.34   13.90
  -1  -5   5  541.55   12.70
  -1   5  -5  565.34   13.50
   1   5   5  537.95   12.20
   2  -5   5   35.80    2.20
  -2  -5  -5   37.30    2.60
   2  -5   5   41.00    4.10
  -2   5   5   37.80    2.80
  -2  -5  -5   39.60    2.80
  -2   5   5   37.30    7.90
  -2   5   5   51.69    7.50
  -2  -5  -5   41.40    3.70
   2   5  -5   41.00    2.30
   2   5  -5   38.30    3.50
   2   5  -5   34.90    2.90
   2   5  -5   35.90    3.50
   2  -5   5   36.50    3.70
   2  -5   5   37.40    3.30
  -2  -5  -5   39.50    3.20
  -2  -5   5   37.40    3.10
   2  -5  -5   40.50    2.80
  -2  -5   5   39.10    3.10
  -2   5  -5   45.10    4.00
   2   5   5   35.60    1.60
   2  -5  -5   38.70    1.80
   2   5   5   44.10    3.60
  -2   5  -5   37.30    2.30
  -2   5  -5   39.00    4.80
   2  -5  -5   39.90    3.40
   2  -5  -5   39.30    3.80
   2   5   5   35.90    4.50
   2   5   5   43.00    4.10
   3   5  -5  846.12   19.80
  -3  -5  -5  859.41   17.10
   3   5  -5  880.71   19.10
  -3  -5  -5  842.52   19.50
   3  -5   5  863.71   20.40
  -3   5   5  865.71   30.40
  -3  -5  -5  858.11   19.10
  -3  -5  -5  844.62   17.00
   3  -5   5  837.42   19.70
   3  -5   5  865.91   20.10
  -3   5   5  857.41   25.80
   3   5  -5  857.81   20.80
  -3  -5   5  883.11   19.90
   3   5   5  826.02   16.20
   3  -5  -5  862.71   18.50
   3  -5  -5  847.12   19.10
  -3   5  -5  853.71   19.50
   3   5   5  882.21   22.60
   3   5   5  851.31   19.10
   3  -5  -5  894.61   20.10
  -3   5  -5  846.82   22.40
   3   5   5  877.71   20.70
  -3  -5   5  850.81   18.70
   4  -5   5  759.82   19.30
  -4  -5  -5  747.13   15.20
  -4   5   5  782.42   29.20
   4  -5   5  740.03   18.90
   4   5  -5  767.62   20.00
  -4   5   5  754.02   25.20
  -4  -5  -5  774.92   18.10
   4   5  -5  732.93   18.50
  -4  -5  -5  750.22   18.70
   4   5  -5  740.23   17.50
  -4   5  -5  708.43   18.00
   4   5   5  777.92   18.50
  -4  -5   5  764.72   17.60
   4  -5  -5  732.63   18.30
  -4  -5   5  780.52   19.00
  -4   5  -5  763.12   22.30
   4   5   5  744.83   19.20
   4  -5  -5  745.63   18.50
   5  -5   5  123.59    7.00
   5   5  -5  120.89    7.30
   5   5  -5  114.99    7.00
  -5  -5  -5  122.59    6.70
   5  -5   5  132.79    7.50
   5   5  -5  131.99    8.00
  -5  -5  -5  124.79    6.50
  -5   5   5  121.09   12.60
  -5   5   5  116.89   15.60
   5   5   5  106.49    6.50
   5   5   5  121.39    6.60
  -5   5  -5  123.89    6.60
  -5  -5   5  120.89    6.30
   5  -5  -5  125.29    7.00
  -5   5  -5  116.89    9.80
  -5  -5   5  130.99    7.70
   5   5   5  114.29    4.90
   6   5  -5   98.89    7.10
  -6  -5  -5  110.79    7.30
  -6  -5  -5   98.89    6.20
   6  -5   5   95.89    7.70
   6   5  -5   94.39    6.80
  -6   5   5   92.29   10.90
  -6   5   5  108.59   14.90
   6  -5   5  102.89    7.40
   6   5  -5   94.59    7.10
   6   5   5   93.39    6.40
   6   5   5   98.39    7.10
  -6   5  -5   91.39    6.00
   6  -5  -5  101.69    6.50
  -6   5  -5   99.19   10.00
  -6  -5   5  108.79    7.80
  -6  -5   5   98.99    5.70
   7   5  -5   32.80    4.90
   7   5  -5   40.00    5.90
  -7   5   5   43.60   10.60
  -7  -5  -5   54.69    6.20
   7  -5   5   31.10    5.30
  -7  -5  -5   31.80    4.30
   7  -5   5   35.30    5.20
   7   5  -5   37.40    5.20
  -7   5   5   46.80   13.10
  -7   5  -5   34.40    7.50
  -7  -5   5   34.30    5.50
   7   5   5   39.40    5.50
  -7   5  -5   33.30    4.90
   7   5   5   39.80    5.10
   7  -5  -5   37.70    4.70
  -7  -5   5   35.10    4.10
  -8   5   5  119.89   19.30
   8  -5   5  100.19    9.30
  -8   5   5  112.69   15.30
  -8  -5  -5   89.79    6.60
   8   5  -5  100.69    9.00
   8   5  -5   94.99    8.50
  -8  -5  -5   96.09    8.50
   8  -5   5   89.59    7.60
  -8   5  -5   80.89    6.60
  -8  -5   5   92.69    6.70
  -8   5  -5  103.39    9.30
  -8  -5   5  110.09    9.60
   8   5   5   98.19    7.80
   9   5  -5   66.39    7.50
  -9   5   5   75.99   17.60
   9   5  -5   54.29    7.30
  -9  -5  -5   69.59    7.10
   9  -5   5   59.99    8.30
   9  -5   5   62.39    7.60
  -9   5  -5   67.89    7.60
  -9   5  -5   75.09    7.80
   9   5   5   65.99    8.20
   0   6   5    2.50    1.20
   0   6  -5    1.90    2.50
   0   6  -5    2.90    1.90
   0  -6  -5    1.70    0.70
   0  -6   5    1.50    1.50
   0  -6  -5    3.40    1.50
   0   6  -5    1.20    1.60
   0  -6  -5   -0.10    1.60
   0  -6   5    1.20    1.00
   0  -6  -5    0.00    0.90
   0   6  -5    1.30    1.40
   0   6   5    0.10    2.20
   0   6   5   -0.60    2.30
   0   6   5    1.60    1.10
   1  -6   5  180.58    7.50
   1   6  -5  189.58    7.50
   1  -6   5  195.58    7.10
  -1  -6  -5  178.08    6.60
   1  -6   5  179.48    6.60
   1   6  -5  191.08    7.10
   1   6  -5  181.68    5.90
   1   6  -5  195.18    7.10
   1   6  -5  196.98    9.90
   1  -6   5  184.58    5.80
  -1  -6  -5  191.08    7.00
  -1   6   5  187.88   12.90
  -1  -6  -5  184.68    6.50
  -1   6   5  193.68   10.90
   1   6   5  186.88    4.80
  -1   6  -5  185.28    7.00
  -1   6  -5  173.88    9.30
   1   6   5  185.98    6.10
   1   6   5  183.38   12.20
   1  -6  -5  186.68    5.50
  -1  -6   5  188.18    6.60
   1  -6  -5  186.78    6.80
  -1   6  -5  185.88    7.20
  -1   6  -5  189.18    6.60
   1  -6  -5  200.58    7.50
   1  -6  -5  189.88    5.90
  -1  -6   5  195.08    7.20
   1   6   5  189.08    9.40
   2   6  -5  656.53   17.00
   2  -6   5  635.84   15.50
  -2  -6  -5  619.34   14.40
   2  -6   5  608.24   16.10
   2  -6   5  611.84   12.70
  -2  -6  -5  643.94   15.50
   2   6  -5  643.34   15.00
   2   6  -5  615.74   15.50
  -2   6   5  609.74   21.90
  -2  -6  -5  621.34   15.20
  -2   6   5  632.64   23.90
   2   6   5  643.94   19.10
   2   6   5  608.64   14.60
   2   6   5  594.74   12.10
  -2   6  -5  627.54   15.70
  -2  -6   5  648.34   15.40
   2  -6  -5  612.04   12.20
  -2  -6   5  630.14   15.20
   2  -6  -5  621.24   16.00
   2  -6  -5  641.44   15.20
  -2   6  -5  604.44   18.50
   2  -6  -5  622.24   14.50
  -3  -6  -5   46.40    3.80
   3   6  -5   57.29    4.30
   3   6  -5   51.79    5.20
  -3  -6  -5   54.49    4.70
  -3   6   5   60.89    9.20
  -3   6   5   51.29    9.50
  -3  -6  -5   51.59    3.20
   3   6  -5   61.49    4.80
  -3  -6  -5   48.60    2.80
   3  -6   5   52.39    4.90
   3  -6   5   52.69    4.60
   3  -6  -5   59.29    4.40
   3   6   5   50.29    3.00
  -3  -6   5   56.89    4.30
  -3  -6   5   52.89    4.00
   3  -6  -5   50.19    4.10
  -3   6  -5   54.39    4.90
   3   6   5   49.30    5.20
  -3   6  -5   50.29    5.50
   3   6   5   54.19    4.00
   3  -6  -5   52.69    4.90
   3   6   5   50.19    5.80
   4   6  -5   24.80    3.70
  -4  -6  -5   20.20    3.20
   4   6  -5   25.40    4.30
  -4   6   5   22.30    7.50
   4  -6   5   23.10    3.80
   4  -6   5   21.80    3.60
   4   6  -5   22.40    3.20
  -4   6   5   26.50    8.60
  -4  -6  -5   21.50    3.30
   4  -6  -5   30.30    4.20
  -4  -6   5   27.30    4.10
   4   6   5   23.40    3.40
  -4  -6   5   21.60    3.00
  -4   6  -5   23.00    5.00
  -4   6  -5   27.30    4.00
   4   6   5   23.80    4.20
   4  -6  -5   21.30    3.50
  -5   6   5  126.39   12.10
  -5   6   5  125.69   15.20
   5  -6   5  120.49    7.60
   5  -6   5  112.59    7.90
   5   6  -5  110.49    7.60
  -5  -6  -5  113.59    6.70
   5   6  -5  120.79    7.60
  -5  -6  -5  113.69    6.60
  -5   6  -5  107.79    6.50
   5   6   5  119.19    7.30
   5  -6  -5  117.59    7.30
  -5  -6   5  119.09    6.30
  -5  -6   5  122.59    7.20
   5   6   5  118.89    7.40
  -5   6  -5  108.69   10.10
  -6   6   5   62.89   10.60
   6  -6   5   57.79    6.60
  -6  -6  -5   59.69    5.80
   6   6  -5   56.49    6.40
  -6   6   5   62.09   11.50
   6   6  -5   57.09    6.70
   6  -6   5   56.49    6.00
   6   6  -5   64.69    6.60
  -6  -6  -5   49.30    4.90
  -6   6  -5   54.09    5.90
  -6  -6   5   50.79    4.90
   6   6   5   56.59    6.00
  -6   6  -5   54.99    8.70
   6  -6  -5   55.39    5.80
  -6  -6   5   65.59    6.40
   6   6   5   55.69    6.30
   7   6  -5   39.20    5.50
   7  -6   5   53.49    7.00
  -7  -6  -5   35.00    4.90
  -7   6   5   47.10   11.80
   7  -6   5   33.10    5.50
  -7   6   5   37.60   12.40
  -7  -6  -5   38.60    4.90
   7   6  -5   41.90    6.20
   7   6  -5   36.20    5.50
   7   6   5   47.00    6.40
  -7   6  -5   35.50    4.80
  -7  -6   5   36.70    4.30
  -7  -6   5   30.00    5.00
   7  -6  -5   36.60    5.10
   7   6   5   35.40    5.30
  -8  -6  -5   37.90    5.40
  -8   6   5   37.50   13.10
  -8   6   5   53.49   13.30
   8  -6   5   38.30    6.50
   8   6  -5   44.30    6.00
   8  -6   5   40.70    6.80
   8   6  -5   36.80    6.20
   8  -6  -5   40.70    5.20
   8   6   5   44.30    6.10
  -8   6  -5   36.20    5.20
   8   6   5   40.70    6.40
  -8  -6   5   39.00    6.80
  -8  -6   5   35.70    5.00
   0  -7   5   36.30    3.10
   0   7  -5   37.70    3.50
   0   7   5   34.20    2.80
   0   7   5   34.90    5.80
   0   7  -5   36.40    3.90
   0  -7  -5   33.30    3.10
   0  -7  -5   33.70    4.00
   0   7   5   29.30    5.80
   0   7   5   33.90    2.60
   0   7  -5   30.50    3.70
   0  -7   5   32.00    3.50
   0   7  -5   33.50    5.70
   0  -7  -5   27.90    3.60
   1   7  -5  360.76   10.70
  -1   7   5  359.46    9.80
   1  -7   5  336.77   10.30
  -1  -7  -5  370.46   10.50
  -1  -7  -5  359.86   10.70
  -1  -7  -5  353.96   11.00
  -1   7   5  356.76   17.40
   1   7  -5  359.86   15.10
   1  -7   5  351.56   10.40
   1  -7   5  357.16    8.80
   1   7  -5  364.16   10.90
   1   7  -5  343.57    9.20
   1   7  -5  359.66   11.60
  -1   7   5  369.36   16.30
  -1   7  -5  351.76   11.00
  -1   7  -5  355.56   10.50
  -1   7  -5  350.16   10.80
  -1  -7   5  342.87    9.90
   1  -7  -5  355.26    9.00
  -1   7  -5  366.46   14.70
   1   7   5  365.26   14.70
   1   7   5  341.97    8.00
   1  -7  -5  355.26   11.30
  -1  -7   5  363.26   10.70
   1   7   5  358.96    9.60
   1  -7  -5  356.96   10.70
   2   7  -5   40.20    4.20
  -2   7   5   44.70    8.30
  -2  -7  -5   36.50    3.80
   2   7  -5   35.70    3.80
   2  -7   5   38.70    3.80
  -2  -7  -5   40.60    3.90
  -2   7   5   35.00    7.40
   2   7  -5   41.40    4.60
  -2  -7  -5   40.20    3.70
   2  -7   5   35.80    4.10
   2  -7   5   38.90    4.00
  -2   7   5   41.40    3.80
   2   7   5   38.90    4.80
  -2  -7   5   39.70    3.80
   2   7   5   41.80    3.80
  -2  -7   5   41.20    4.00
  -2   7  -5   44.60    6.40
   2  -7  -5   43.00    4.00
  -2   7  -5   47.60    3.40
  -2   7  -5   36.70    4.30
   2  -7  -5   39.40    3.40
   2   7   5   38.30    6.00
   2  -7  -5   36.10    2.40
   2  -7  -5   40.10    4.50
   3   7  -5  165.38    8.30
   3   7  -5  161.68    7.80
  -3  -7  -5  150.68    5.90
   3   7  -5  162.08    7.20
  -3  -7  -5  159.78    7.70
   3  -7   5  146.19    8.10
  -3   7   5  165.78   13.80
   3  -7   5  158.68    7.70
  -3  -7  -5  156.68    7.10
  -3   7   5  157.48   13.30
   3   7   5  173.88    9.00
   3   7   5  158.38    9.80
  -3   7  -5  147.39    7.20
   3  -7  -5  167.18    7.10
   3  -7  -5  160.78    7.80
  -3   7  -5  169.28   10.10
   3  -7  -5  159.48    7.10
  -3  -7   5  163.18    7.70
  -3  -7   5  144.19    6.80
   3   7   5  158.28    7.20
  -4  -7  -5  247.28    9.60
   4   7  -5  253.27    9.40
   4  -7   5  233.58   10.40
   4  -7   5  266.67   10.60
  -4  -7  -5  243.48    9.80
   4   7  -5  247.38   10.20
  -4   7   5  256.87   20.10
   4   7  -5  260.97   11.70
  -4   7   5  253.17   17.60
   4   7   5  268.27   11.20
   4  -7  -5  250.87    9.90
  -4   7  -5  254.37   10.00
   4  -7  -5  256.07   10.20
  -4  -7   5  255.37    9.50
   4   7   5  247.98    9.90
  -4  -7   5  272.17   10.60
  -4   7  -5  254.27   13.40
  -5   7   5   38.80    9.30
   5   7  -5   50.79    6.20
   5   7  -5   35.70    4.90
  -5   7   5   43.60    9.20
   5  -7   5   43.50    5.70
  -5  -7  -5   43.90    4.80
   5  -7   5   27.90    4.90
  -5  -7  -5   43.20    5.30
   5  -7  -5   46.20    5.00
  -5   7  -5   51.89    5.80
  -5  -7   5   50.19    5.90
   5  -7  -5   35.80    4.50
   5   7   5   45.50    6.10
   5   7   5   41.00    5.20
  -5   7  -5   43.00    7.10
  -5  -7   5   37.60    4.30
   6   7  -5    1.40    2.20
   6   7  -5    1.50    2.50
  -6   7   5    1.10    5.80
  -6  -7  -5    3.90    2.80
  -6  -7  -5   10.00    3.80
  -6   7   5    6.10    9.10
   6  -7   5    6.70    2.90
   6  -7   5   14.70    4.10
   6   7  -5    9.40    3.90
   6   7   5    5.60    2.80
  -6  -7   5    7.40    3.80
  -6  -7   5    5.90    3.20
   6   7   5    5.00    2.70
  -6   7  -5   15.50    6.20
   6  -7  -5    6.00    3.00
  -6   7  -5    0.30    3.20
   7  -7   5    6.80    4.30
   7   7  -5   15.70    4.70
   7   7  -5   15.80    4.70
  -7  -7  -5    3.90    3.50
  -7  -7  -5    7.00    3.00
   7  -7   5   16.90    4.70
  -7   7   5    9.50    9.90
   7   7  -5   13.60    4.10
  -7   7   5   21.50   10.40
   7   7   5   11.60    3.70
   7  -7  -5   14.30    3.30
  -7  -7   5    8.80    2.80
  -7   7  -5   11.00    4.50
   7   7   5   10.50    4.00
  -7  -7   5    8.30    4.60
  -8  -7  -5   10.60    3.70
   8   7  -5    4.70    4.10
   8   7  -5    4.50    3.30
   8   7  -5    4.70    3.40
   8  -7   5    2.60    2.90
  -8   7   5    0.00   10.20
   8  -7   5    2.70    4.60
  -8   7  -5    3.50    4.00
   8   7   5    6.30    3.20
  -8  -7   5    1.40    3.60
   8   7   5    2.30    4.30
  -8  -7   5    0.40    3.10
   8  -7  -5    4.20    3.30
   0   8  -5  287.37   10.40
   0   8   5  274.07   14.30
   0   8  -5  262.67    8.70
   0  -8  -5  273.67   10.10
   0  -8  -5  270.27    9.70
   0   8  -5  278.17   14.10
   0   8  -5  272.67    9.30
   0  -8   5  282.87    8.10
   0   8   5  276.07   17.10
   0  -8   5  293.37   10.10
   0   8  -5  283.97    9.90
   0  -8   5  274.37    8.90
   0  -8  -5  264.57    8.50
  -1   8   5  255.57   16.00
   1   8  -5  249.08    9.30
  -1   8   5  250.17    8.10
   1  -8   5  245.38    8.80
   1  -8   5  252.47    9.00
  -1  -8  -5  240.08    9.00
   1   8  -5  232.38    7.50
  -1  -8  -5  236.48    8.80
  -1  -8  -5  243.68    8.50
  -1   8   5  250.07   14.50
   1   8  -5  251.17   13.70
   1   8  -5  256.17   10.00
   1   8  -5  263.87    9.30
   1  -8   5  253.27   10.20
   1   8   5  255.17    8.00
  -1   8  -5  250.47   12.70
   1  -8  -5  266.47    9.50
  -1  -8   5  261.27    8.40
   1   8   5  263.07   13.20
  -1   8  -5  248.28    9.10
  -1   8  -5  250.37    9.30
   1  -8  -5  240.28    7.40
  -1  -8   5  249.88    9.50
  -1   8  -5  255.97    9.70
   1  -8  -5  248.78    9.90
   2  -8   5   62.79    6.00
  -2   8   5   75.89   10.50
   2  -8   5   73.09    4.90
   2   8  -5   73.39    6.20
   2   8  -5   71.19    4.70
  -2   8   5   88.19   10.80
  -2  -8  -5   69.29    4.80
  -2  -8  -5   71.99    5.10
   2   8  -5   70.79    5.00
  -2   8   5   71.29    5.10
   2  -8   5   72.69    5.10
  -2  -8  -5   76.89    5.50
  -2  -8   5   70.29    5.00
  -2   8  -5   84.39    5.80
  -2   8  -5   62.99    5.80
  -2   8  -5   59.69    6.70
  -2  -8   5   71.49    4.60
   2  -8  -5   65.09    4.40
   2  -8  -5   79.09    6.00
   2  -8  -5   69.39    5.60
   2   8   5   71.99    6.90
   2   8   5   61.89    4.50
   2   8   5   64.69    7.10
   3  -8   5  168.88    8.10
   3   8  -5  179.58    9.20
   3   8  -5  158.88    7.10
  -3  -8  -5  146.29    7.20
  -3  -8  -5  160.18    8.10
  -3   8   5  160.48   14.70
  -3   8   5  174.58   14.90
  -3   8   5  167.38    7.90
   3   8  -5  157.18    8.30
   3  -8   5  168.78    8.80
  -3  -8  -5  149.59    6.10
  -3  -8   5  158.78    7.80
   3  -8  -5  156.48    7.40
  -3   8  -5  150.88   10.30
  -3  -8   5  164.28    7.60
  -3   8  -5  156.48    7.90
   3   8   5  177.98   11.90
   3   8   5  144.69    7.00
   3   8   5  163.88    9.00
   3  -8  -5  150.78    8.40
  -4  -8  -5   46.60    4.70
   4   8  -5   38.50    4.00
   4  -8   5   39.10    5.50
   4   8  -5   43.70    5.50
  -4   8   5   41.90   10.10
  -4   8   5   43.20    9.40
   4  -8   5   44.00    5.20
  -4  -8  -5   45.80    5.20
   4   8  -5   31.40    4.80
  -4   8   5   43.90    5.10
  -4  -8   5   40.80    5.10
   4   8   5   42.60    5.50
   4   8   5   42.50    4.60
  -4   8  -5   38.60    4.70
   4  -8  -5   31.70    4.20
  -4  -8   5   41.70    4.60
   4  -8  -5   44.20    5.20
  -4   8  -5   56.49    8.20
  -5   8   5   26.70    8.40
  -5   8   5   20.10    4.10
  -5  -8  -5   20.60    4.30
   5  -8   5   20.30    4.30
   5  -8   5   24.30    4.50
   5   8  -5   16.10    3.90
   5   8  -5   17.80    4.00
  -5   8   5   22.70    8.60
  -5  -8  -5   14.10    3.00
  -5  -8   5   23.20    3.80
   5   8   5   18.50    4.30
  -5   8  -5   28.10    6.90
   5  -8  -5   15.20    3.50
  -5  -8   5   22.70    4.80
   5  -8  -5   14.90    3.70
   5   8   5   13.00    3.70
  -5   8  -5   14.20    3.50
   6   8  -5   54.59    7.00
   6   8  -5   65.99    7.80
  -6   8   5   60.19   11.60
  -6  -8  -5   62.99    6.70
   6  -8   5   61.19    6.80
   6   8  -5   54.59    7.00
   6  -8   5   56.09    7.40
  -6   8   5   47.50    6.00
  -6   8   5   52.99   12.10
  -6  -8  -5   51.09    5.30
  -6   8  -5   48.20    5.80
  -6  -8   5   59.89    6.20
   6   8   5   58.89    6.70
  -6   8  -5   57.59    8.60
  -6  -8   5   65.69    7.20
   6   8   5   61.39    7.30
   6  -8  -5   58.49    6.40
   7   8  -5   15.80    5.60
   7  -8   5   10.50    3.70
   7   8  -5    5.00    3.60
  -7   8   5    7.60    7.70
   7  -8   5    6.00    4.50
  -7  -8  -5   16.30    4.60
  -7   8   5    6.50    3.40
  -7  -8  -5   12.30    3.60
   7   8  -5    8.10    3.60
   7  -8  -5   12.30    3.60
  -7  -8   5    9.70    3.90
   7   8   5    8.20    4.50
   7   8   5   13.70    4.70
  -7  -8   5   12.00    4.90
  -7   8  -5    5.80    4.40
   0  -9  -5   20.40    3.30
   0   9  -5   21.00    3.10
   0   9  -5   22.40    3.50
   0   9  -5   19.60    3.70
   0   9  -5   14.80    2.90
   0  -9   5   19.40    3.30
   0  -9  -5   16.60    2.70
   0   9  -5   19.60    5.70
   0  -9   5   17.40    2.90
   0   9   5   18.70    5.70
   0  -9  -5   21.30    3.40
   1   9  -5    7.80    5.00
  -1   9   5   11.90    2.60
   1   9  -5    8.80    2.60
   1  -9   5    9.20    2.40
   1  -9   5    7.60    2.60
  -1   9   5    9.10    4.20
   1  -9   5   11.60    3.40
   1   9  -5    6.60    2.10
  -1  -9  -5    6.60    1.90
  -1   9   5    8.00    4.60
  -1  -9  -5    9.00    3.00
  -1  -9  -5    6.70    2.60
   1   9  -5    8.00    2.90
  -1   9  -5    2.10    2.30
  -1  -9   5    7.50    3.30
  -1   9  -5    7.00    3.50
   1  -9  -5    5.40    2.90
  -1  -9   5   10.10    2.30
   1  -9  -5    5.20    1.80
  -1   9  -5    7.10    3.10
   1  -9  -5    4.30    2.30
  -1   9  -5    6.40    2.30
  -1   9  -5    8.80    2.40
   1   9   5   11.60    4.80
   1   9   5    3.40    3.30
   2  -9   5   19.20    3.10
  -2   9   5   24.40    3.30
   2   9  -5   16.80    4.10
  -2  -9  -5   22.40    3.60
   2  -9   5   16.40    3.20
   2   9  -5   20.80    3.60
   2   9  -5   21.20    3.60
  -2  -9  -5   25.20    4.10
   2  -9   5   17.90    4.20
  -2  -9  -5   21.30    3.10
  -2   9   5   22.70    5.70
  -2   9   5   26.40    7.60
   2  -9  -5   25.10    4.10
  -2  -9   5   22.70    3.60
   2   9   5   20.20    3.20
  -2  -9   5   22.50    3.40
  -2   9  -5   26.10    5.90
   2   9   5   36.20    7.20
   2  -9  -5   20.20    4.00
   2   9   5   20.80    4.10
  -2   9  -5   25.50    4.40
  -2   9  -5   19.40    3.70
   3  -9   5   14.80    3.50
   3  -9   5   16.60    3.70
   3   9  -5   13.20    3.60
   3   9  -5   21.30    3.10
   3   9  -5   23.20    4.90
  -3   9   5   22.30    6.40
  -3  -9  -5   18.90    3.90
  -3   9   5   16.70    3.50
  -3   9   5   25.80    7.20
  -3  -9  -5   17.70    3.30
  -3  -9   5   20.40    3.40
  -3   9  -5   21.10    5.80
  -3   9  -5   15.60    4.00
   3   9   5   15.50    3.40
   3   9   5   18.50    4.80
   3  -9  -5   19.00    3.60
   3   9   5   23.90    5.70
  -3  -9   5   17.50    3.40
   4   9  -5   24.30    4.60
  -4   9   5   22.10    4.30
  -4   9   5   29.10    7.90
   4   9  -5   18.20    4.40
  -4  -9  -5   20.80    4.10
   4  -9   5   25.30    5.10
   4  -9   5   22.50    3.80
  -4   9   5   26.10    8.20
  -4  -9  -5   22.80    4.40
   4   9  -5   22.80    3.20
   4   9   5   23.70    4.70
  -4   9  -5   33.40    5.30
  -4  -9   5   32.70    5.10
   4  -9  -5   26.40    4.80
  -4  -9   5   28.20    4.70
   4  -9  -5   21.90    3.90
   4   9   5   28.00    4.60
  -4   9  -5   22.70    6.40
   5  -9   5   -2.40    3.50
  -5  -9  -5    5.60    2.40
   5   9  -5    2.90    2.80
   5  -9   5    8.10    2.90
  -5   9   5    1.80    5.90
  -5   9   5    5.30    8.90
  -5   9   5    5.40    3.60
   5   9  -5    3.50    4.10
  -5  -9  -5    8.00    3.00
  -5  -9   5    9.60    3.80
  -5   9  -5   -0.20    3.80
   5   9   5    4.50    3.60
  -5   9  -5    0.20    4.80
  -5  -9   5    1.00    3.20
   5  -9  -5    8.00    3.40
   5   9   5    5.90    3.30
   5  -9  -5   -1.70    1.90
  -6  -9  -5   76.69    6.80
  -6   9   5   88.09    8.20
  -6  -9  -5   88.29    8.20
   6  -9   5   94.89    9.60
   6  -9   5   84.89    8.40
  -6   9   5   88.99   15.80
   6   9  -5   97.09    8.90
   6   9  -5  112.49    9.90
   6   9  -5   92.69    9.50
  -6  -9   5   81.89    7.30
  -6   9  -5   98.29    8.70
  -6   9  -5   98.29   11.50
   6   9   5  102.79    8.80
   6  -9  -5   83.39    7.10
   6   9   5   82.59    8.60
  -6  -9   5   93.89    8.80
   0 -10  -5    9.00    3.20
   0 -10   5    4.80    2.40
   0 -10  -5    4.40    2.50
   0 -10   5    8.70    3.50
   0  10  -5    6.80    2.40
   0  10  -5    4.80    2.40
   0  10  -5   10.70    4.50
   0  10   5    6.00    3.50
   0 -10  -5    3.90    1.80
   0  10   5    6.10    3.70
   0  10  -5   10.50    2.70
   1  10  -5   33.40    5.10
   1 -10   5   45.00    4.70
   1 -10   5   41.30    5.50
   1  10  -5   46.30    8.00
  -1 -10  -5   41.40    5.30
  -1  10   5   40.70    8.30
   1  10  -5   42.60    4.80
  -1 -10  -5   41.20    4.60
   1  10  -5   47.40    4.80
  -1 -10  -5   42.80    4.70
  -1  10  -5   50.69    8.60
   1 -10  -5   39.50    5.30
  -1 -10   5   46.00    4.90
   1 -10  -5   31.20    4.70
   1  10   5   46.90    8.10
  -1  10  -5   33.10    4.30
   1  10   5   42.50    6.10
  -1  10  -5   39.10    4.40
   2  10  -5   67.39    6.10
   2 -10   5   77.19    6.60
  -2  10   5   73.09    5.80
   2  10  -5   74.69    5.30
  -2 -10  -5   83.79    6.20
  -2 -10  -5   75.39    5.60
   2 -10   5   78.69    6.60
  -2 -10  -5   70.49    5.50
  -2  10   5   84.99   11.10
   2  10  -5   72.59    6.50
   2  10   5   81.29   10.00
  -2  10  -5   75.29    6.30
   2  10   5   81.89    8.20
  -2  10  -5   71.89    6.00
   2 -10  -5   67.49    6.20
  -2 -10   5   69.39    6.10
   2 -10  -5   70.89    6.00
  -2  10  -5   91.69   10.00
  -3 -10  -5    8.10    2.80
   3  10  -5   19.00    4.30
   3  10  -5   10.20    3.80
   3  10  -5   12.90    3.20
   3 -10   5    9.10    3.40
  -3  10   5    5.90    3.20
  -3 -10  -5   15.40    4.00
  -3  10   5   23.90    8.70
  -3 -10   5   14.90    3.50
   3  10   5   10.60    3.50
   3  10   5   20.60    6.60
   3 -10  -5    9.30    3.10
  -3  10  -5   12.30    3.40
  -3 -10   5   11.40    3.30
  -3  10  -5   17.70    5.50
   4 -10   5   23.70    4.00
  -4  10   5   27.10    4.30
   4 -10   5   27.60    5.00
  -4 -10  -5   33.90    4.70
  -4 -10  -5   25.50    4.50
  -4  10   5   19.60    9.40
   4  10  -5   26.70    5.10
   4  10  -5   27.50    5.30
  -4 -10   5   20.70    3.80
  -4  10  -5   24.60    4.40
   4 -10  -5   25.20    5.20
  -4 -10   5   18.80    3.90
  -4  10  -5   30.80    7.00
   4  10   5   26.80    4.50
   4  10   5   29.70    6.10
   5 -10   5   41.70    6.00
   5  10  -5   41.90    6.60
  -5 -10  -5   43.70    5.60
   5  10  -5   42.30    6.90
  -5  10   5   46.20   10.60
  -5  10   5   45.70    6.00
   5 -10   5   30.80    5.50
  -5 -10  -5   37.40    5.90
  -5 -10  -5   46.00    6.30
  -5  10  -5   45.70    6.10
  -5  10  -5   50.99    8.60
   5 -10  -5   39.80    5.80
   5  10   5   54.19    7.50
  -5 -10   5   37.10    5.20
  -5 -10   5   44.50    5.40
   5  10   5   43.90    6.20
   0 -11  -5  212.88   10.50
   0  11   5  261.17   16.70
   0 -11   5  209.58   10.90
   0  11  -5  221.78    9.80
   0  11  -5  253.07   15.80
   0  11   5  237.98   12.70
   0 -11  -5  236.68   11.20
   0 -11   5  218.38   10.00
  -1 -11  -5   31.40    4.00
   1 -11   5   29.60    4.80
  -1  11   5   27.40    7.50
  -1 -11  -5   35.60    5.00
   1  11  -5   42.10    8.50
   1 -11   5   32.10    5.40
   1  11  -5   24.80    4.40
   1  11  -5   35.70    4.80
  -1 -11  -5   38.20    5.10
  -1  11   5   33.30    5.80
   1  11  -5   25.50    4.40
   1  11   5   33.70    6.00
  -1  11  -5   49.70    9.00
   1 -11  -5   30.30    4.70
  -1  11  -5   27.90    4.20
   1 -11  -5   36.00    5.40
   1  11   5   46.40    8.10
  -1 -11   5   36.20    5.20
  -2  11   5   10.10    4.10
  -2 -11  -5   15.60    3.70
   2  11  -5   25.30    4.20
   2 -11   5   16.10    4.80
   2  11  -5   19.50    4.40
  -2  11   5   13.60    5.70
   2  11  -5   25.50    5.40
  -2 -11  -5   21.20    4.10
  -2  11  -5   21.70    4.70
  -2 -11   5   18.10    3.90
   2 -11  -5   17.80    4.40
  -2  11  -5   24.80    6.00
   2  11   5   15.70    5.10
   2  11   5   36.70    7.10
  -2  11  -5   19.90    4.10
  -3 -11  -5   17.70    4.00
  -3  11   5   14.40    3.80
   3  11  -5   22.00    5.40
  -3  11   5   25.60    7.60
  -3  11   5   20.30    4.50
   3 -11   5   21.40    5.30
  -3 -11  -5   21.70    4.40
   3  11  -5   16.70    4.00
   3 -11  -5   13.70    3.70
  -3  11  -5   29.30    5.90
  -3  11  -5   18.80    4.50
  -3 -11   5   22.60    5.10
  -3  11  -5   18.90    4.80
   3  11   5   19.00    5.60
  -4 -11  -5   26.30    5.20
   4  11  -5   25.50    5.90
   4 -11   5   19.30    5.40
  -4  11   5   19.40    7.70
   4  11  -5   20.40    5.30
  -4  11   5   12.70    3.50
  -4 -11  -5   22.80    4.30
  -4  11  -5   36.60    6.70
  -4 -11   5   17.20    4.20
   4  11   5   20.90    6.10
   4 -11  -5   21.50    5.20
  -4  11  -5   20.50    5.00
  -4  11  -5   24.10    5.40
   0 -12  -5    3.10    2.60
   0 -12   5    0.50    2.50
   0  12  -5    3.30    3.10
   0  12   5    2.30    2.60
   0 -12  -5    3.60    3.60
   0 -12   5    5.40    3.70
   1 -12   5   40.70    5.60
  -1  12   5   66.79   10.50
  -1 -12  -5   49.60    6.00
   1  12  -5   40.50    6.10
  -1  12   5   38.70    6.50
   1  12  -5   44.00    5.00
   1 -12   5   42.40    6.30
   1  12   5   51.39    7.70
  -1  12  -5   52.79    6.30
   1 -12  -5   44.40    5.60
  -1 -12   5   52.49    6.50
   2 -12   5   -1.00    2.40
  -2  12   5    1.60    3.50
  -2 -12  -5    4.30    3.50
  -2 -12  -5   -2.30    1.90
  -2  12   5    2.80    3.60
   2  12  -5    4.50    4.00
   2  12   5    1.80    3.00
  -2 -12   5   -0.90    3.70
   2 -12  -5    4.00    3.60
  -2  12  -5   -0.20    2.40
   0   0  -6  494.25   10.40
   0   0   6  499.25   15.60
   0   0  -6  496.55   10.40
   0   0  -6  522.95   11.50
   0   0   6  491.25   11.10
   0   0   6  500.65   10.70
   0   0  -6  513.25   10.70
  -1   0   6  130.69    7.70
   1   0   6  132.79    4.70
  -1   0  -6  139.09    4.80
  -1   0  -6  137.19    5.00
  -1   0  -6  137.69    4.50
   1   0   6  142.29    4.80
   1   0  -6  133.19    4.70
   1   0  -6  133.99    4.40
  -1   0  -6  130.59    3.80
  -1   0   6  128.29    3.70
  -1   0   6  139.69    4.70
   1   0  -6  132.39    3.70
   1   0  -6  127.69    3.60
   1   0   6  132.99    6.80
   2   0  -6  198.58    6.20
   2   0   6  196.08    5.60
   2   0   6  195.38    6.20
  -2   0   6  199.48   11.00
  -2   0   6  198.78    4.40
  -2   0  -6  205.28    6.60
  -2   0   6  193.28    4.60
  -2   0   6  202.58    6.10
   2   0  -6  200.18    6.10
   2   0  -6  192.68    4.20
  -2   0  -6  195.98    6.20
  -2   0  -6  196.58    5.10
   3   0   6   28.60    2.40
  -3   0  -6   23.20    1.50
  -3   0  -6   25.70    2.70
  -3   0   6   24.00    2.40
  -3   0   6   26.60    1.00
   3   0  -6   25.50    2.80
  -3   0  -6   26.50    2.10
   3   0  -6   22.80    2.20
  -3   0   6   22.30    4.90
  -3   0  -6   21.90    1.70
   3   0  -6   28.80    2.40
   3   0   6   27.20    2.20
   3   0   6   23.40    2.40
  -3   0  -6   28.20    2.90
  -4   0   6  159.78    4.30
   4   0   6  165.28    6.20
   4   0  -6  162.68    6.80
  -4   0   6  167.38   12.70
   4   0   6  161.78    6.60
   4   0  -6  157.58    5.70
  -4   0   6  152.18    3.10
  -4   0  -6  154.58    6.50
   4   0   6  167.88    6.00
  -4   0   6  172.78    6.30
  -4   0  -6  159.68    6.40
  -4   0  -6  158.48    5.10
  -4   0   6  164.98    3.20
   4   0   6  157.08    4.70
  -5   0  -6  175.38    7.50
  -5   0  -6  170.98    5.80
   5   0  -6  174.58    7.60
  -5   0   6  182.88    7.30
  -5   0   6  194.28   14.40
   5   0   6  172.38    7.10
   5   0  -6  162.28    6.40
  -5   0   6  175.98    4.80
   5   0   6  173.98    7.50
  -5   0  -6  186.48    7.40
   5   0   6  182.68    6.60
   6   0   6  263.67    8.50
  -6   0   6  274.17    9.60
   6   0  -6  274.67    8.60
  -6   0  -6  279.47    9.70
  -6   0  -6  255.17    9.60
   6   0   6  259.87    9.50
  -6   0   6  282.67   19.00
   6   0   6  258.97   10.00
  -6   0  -6  268.47    8.00
   6   0  -6  271.07   10.70
   6   0  -6  277.07    9.20
   7   0   6   87.19    6.20
  -7   0   6   81.49    6.10
   7   0  -6   75.79    5.30
   7   0  -6   81.69    6.10
   7   0  -6   85.49    5.50
  -7   0  -6   76.99    5.30
  -7   0  -6   86.49    5.90
  -7   0   6  118.79   17.90
   7   0   6   81.09    6.60
  -8   0  -6    1.00    2.40
   8   0  -6   -3.50    2.40
   8   0  -6    0.50    2.00
  -8   0   6   23.30    9.50
   8   0   6    2.20    2.40
  -8   0   6    2.70    2.10
   8   0   6    2.00    2.80
  -8   0  -6    4.90    2.60
  -9   0  -6    4.40    3.20
   9   0   6    0.60    3.10
  -9   0  -6   -1.50    2.50
  -9   0   6    1.60    2.10
   9   0  -6    3.20    3.30
   0  -1   6 1438.66   26.00
   0  -1  -6 1409.16   26.50
   0   1   6 1395.76   26.70
   0   1  -6 1411.26   25.70
   0  -1   6 1414.66   30.10
   0   1  -6 1435.96   25.90
   0  -1   6 1427.26   26.20
   0   1   6 1404.16   32.80
   0   1  -6 1398.16   26.30
   0   1   6 1441.66   26.20
   0  -1  -6 1405.06   25.50
   0  -1  -6 1414.16   25.60
   0   1   6 1388.36   26.20
   1  -1   6 1522.55   28.10
   1   1  -6 1548.35   28.10
  -1   1   6 1522.85   27.90
   1   1  -6 1534.55   28.10
  -1  -1  -6 1555.14   28.50
  -1   1   6 1550.44   27.90
  -1  -1  -6 1531.45   28.30
  -1  -1  -6 1508.75   28.00
  -1  -1  -6 1525.05   26.50
  -1   1   6 1489.65   35.50
   1  -1   6 1544.85   30.20
   1   1  -6 1502.75   26.40
   1  -1   6 1457.05   29.20
   1  -1   6 1542.35   28.50
  -1   1  -6 1489.85   27.40
   1   1   6 1577.54   33.70
   1  -1  -6 1521.15   26.90
  -1  -1   6 1533.65   27.30
   1  -1  -6 1545.55   28.50
  -1  -1   6 1518.95   28.20
  -1   1  -6 1531.85   28.40
   1  -1  -6 1544.55   26.50
   1   1   6 1536.25   28.50
   1   1   6 1480.35   29.20
   1  -1  -6 1551.14   27.30
  -1  -1   6 1568.44   27.10
  -1  -1   6 1541.85   34.20
  -1   1  -6 1537.75   28.50
   2   1  -6  104.89    2.40
   2   1  -6  104.59    4.20
  -2   1   6  100.89    7.90
  -2   1   6  110.19    3.90
   2  -1   6  102.69    4.60
  -2  -1  -6  104.79    4.40
  -2  -1  -6  101.89    2.90
   2  -1   6  105.89    4.30
   2   1  -6  104.79    4.40
  -2  -1  -6  108.79    4.60
  -2   1   6  114.39    4.50
  -2  -1  -6  100.59    2.80
  -2  -1  -6  114.99    4.60
   2  -1   6  108.69    4.40
  -2   1  -6  105.49    3.90
   2   1   6  111.69    4.60
  -2  -1   6  106.29    3.40
  -2   1  -6  111.89    4.70
   2  -1  -6  104.89    4.50
  -2  -1   6  106.29    3.50
  -2  -1   6  103.29    4.30
   2   1   6  106.59    3.50
  -2   1  -6  101.79    4.60
   2  -1  -6  102.09    2.70
  -2   1  -6  101.29    2.50
   2  -1  -6  105.09    3.10
   2  -1  -6  105.29    4.10
  -2  -1   6  104.39    8.00
   2   1   6  107.69    4.10
  -3  -1  -6  204.78    6.80
   3   1  -6  198.38    7.00
  -3  -1  -6  203.68    7.20
  -3   1   6  217.08   13.00
  -3  -1  -6  231.58    6.30
  -3  -1  -6  199.78    4.80
   3   1  -6  206.38    6.50
   3   1  -6  202.08    6.30
   3  -1   6  204.28    6.30
  -3   1   6  216.98    6.50
   3  -1   6  199.08    6.80
   3  -1   6  217.48    6.90
  -3  -1  -6  205.78    6.70
  -3   1  -6  198.58    7.00
  -3   1  -6  215.58    7.20
   3  -1  -6  194.18    5.60
  -3  -1   6  197.48   12.20
   3   1   6  203.18    6.50
  -3  -1   6  220.68    7.10
   3   1   6  212.48    6.90
   3  -1  -6  192.48    4.20
   3  -1  -6  197.58    4.70
  -3   1  -6  202.18    6.00
  -3   1  -6  201.78    6.00
   3  -1  -6  203.28    6.80
  -3  -1   6  211.38    5.40
   3   1   6  203.88    5.80
   3  -1  -6  206.18    7.00
  -4  -1  -6  596.14   15.10
   4   1  -6  615.84   14.10
   4  -1   6  597.74   13.40
   4  -1   6  563.04   10.70
  -4  -1  -6  574.54   11.80
  -4   1   6  605.64   13.90
  -4  -1  -6  593.64   14.40
   4  -1   6  599.44   15.00
   4   1  -6  597.44   15.30
  -4   1   6  595.74   23.50
   4  -1   6  610.54   14.60
  -4  -1  -6  616.44   14.20
  -4   1   6  564.54   10.40
   4   1   6  607.04   14.20
  -4   1  -6  615.44   15.00
   4   1   6  599.14   14.30
  -4   1  -6  589.14   14.90
  -4  -1   6  579.34   12.20
   4  -1  -6  588.74   13.00
   4   1   6  599.44   13.50
  -4   1  -6  569.74   14.20
   4  -1  -6  605.94   15.00
  -4  -1   6  597.04   14.60
  -4   1  -6  585.84   13.10
  -4  -1   6  593.14   23.80
  -5  -1  -6  110.09    6.00
  -5  -1  -6  121.99    6.00
  -5   1   6  111.09    5.50
   5   1  -6  112.49    5.70
   5  -1   6  111.49    6.00
   5   1  -6  113.89    6.30
  -5   1   6  126.59   13.50
   5  -1   6  118.59    6.20
  -5  -1  -6  114.19    5.40
  -5  -1  -6  112.09    4.10
   5  -1   6  113.99    5.00
   5   1   6  121.69    5.50
   5  -1  -6  113.59    5.50
   5   1   6  117.69    4.70
  -5   1  -6  113.79    6.30
   5  -1  -6  122.29    6.50
   5  -1  -6  112.79    4.90
  -5  -1   6  109.99    5.70
   5   1   6  114.49    5.30
  -5   1  -6  114.89    5.90
  -5  -1   6  113.99    4.20
  -5   1  -6  122.19    5.20
   5   1   6  120.39    5.80
  -5   1  -6  123.19    6.40
  -5  -1   6  121.49   13.00
   6  -1   6  307.67   11.20
  -6  -1  -6  322.67   10.60
  -6  -1  -6  322.17   10.30
   6   1  -6  313.67   11.60
   6  -1   6  308.67   11.30
  -6   1   6  323.27   21.80
   6   1  -6  302.27   10.30
  -6   1   6  302.67    9.90
  -6  -1   6  318.07   21.20
   6  -1  -6  327.57    9.50
   6  -1  -6  313.17    9.70
  -6  -1   6  330.27   11.20
  -6   1  -6  313.97    9.50
   6   1   6  306.67   10.70
  -6   1  -6  310.07   12.20
   6   1   6  309.37   10.20
   6  -1  -6  331.67   11.80
  -6   1  -6  331.87   11.30
   6   1   6  320.37    9.90
  -7   1   6   18.10    8.70
   7   1  -6   19.50    3.40
   7   1  -6   17.30    3.60
   7  -1   6   22.70    4.30
  -7  -1  -6   17.30    3.10
  -7  -1  -6   24.90    3.80
   7  -1   6   22.50    3.90
  -7   1   6   18.10    3.40
  -7   1  -6   16.20    2.60
  -7  -1   6   16.70    3.70
  -7  -1   6   28.60   10.50
  -7   1  -6   23.20    3.70
   7   1   6   18.80    3.30
   7  -1  -6   19.20    2.90
   7  -1  -6   21.60    4.10
   7  -1  -6   18.70    2.80
   8   1  -6   38.60    4.90
  -8   1   6   71.99   16.30
  -8  -1  -6   36.20    4.60
  -8  -1  -6   35.50    5.10
   8  -1   6   47.90    6.00
   8   1  -6   40.50    5.80
   8  -1   6   31.50    4.40
  -8   1   6   33.60    4.10
  -8   1  -6   42.30    5.10
   8  -1  -6   33.00    4.90
  -8   1  -6   39.90    4.80
   8   1   6   38.10    5.30
  -8  -1   6   38.60    4.80
  -8  -1   6   93.99   16.40
  -9  -1  -6   43.30    5.40
   9  -1   6   46.20    6.60
   9   1  -6   35.80    5.40
  -9  -1  -6   32.30    4.90
   9   1  -6   31.70    5.00
   9  -1  -6   28.90    4.90
  -9   1  -6   35.40    4.90
  -9  -1   6   25.90    5.00
   0   2   6   77.09    3.70
   0   2  -6   73.39    3.30
   0  -2   6   74.89    4.70
   0   2   6   70.99    4.30
   0  -2  -6   69.59    3.70
   0  -2  -6   72.99    3.20
   0   2   6   73.49    7.90
   0  -2   6   74.89    3.50
   0  -2  -6   70.89    2.00
   0   2  -6   70.89    3.40
   0   2   6   73.69    3.40
   0  -2   6   73.19    3.50
   1  -2   6  678.93   14.80
   1   2  -6  690.73   14.20
  -1  -2  -6  670.53   14.40
   1  -2   6  667.73   14.10
  -1  -2  -6  678.83   14.30
   1   2  -6  689.03   14.40
  -1   2   6  671.23   21.90
  -1   2   6  688.83   14.10
  -1   2   6  652.33   16.90
  -1   2   6  664.03   14.00
   1  -2   6  672.33   14.30
  -1  -2   6  671.93   13.90
  -1  -2   6  675.53   14.30
  -1   2  -6  686.63   14.90
  -1   2  -6  689.93   14.70
   1  -2  -6  669.13   13.40
   1   2   6  690.13   19.90
   1  -2  -6  663.33   14.60
  -1  -2   6  667.93   13.60
   1   2   6  676.53   14.70
  -1  -2   6  660.23   18.80
  -1   2  -6  634.44   14.50
  -1   2  -6  693.53   14.10
   1  -2  -6  676.03   12.80
   1  -2  -6  684.73   13.10
  -1   2  -6  656.23   13.90
   1   2   6  674.63   14.20
  -2  -2  -6  701.23   14.80
   2  -2   6  692.03   15.60
   2   2  -6  708.83   14.40
  -2   2   6  719.03   22.90
  -2  -2  -6  687.73   15.10
  -2   2   6  678.33   14.10
  -2   2   6  702.53   19.00
  -2  -2  -6  659.63   12.40
  -2   2   6  689.33   14.30
   2   2  -6  652.53   12.00
   2   2  -6  692.13   15.10
   2   2   6  682.23   12.10
  -2   2  -6  675.03   14.10
  -2   2  -6  713.43   14.60
   2  -2  -6  714.43   15.50
  -2   2  -6  695.83   15.50
   2   2   6  675.93   13.90
   2  -2  -6  699.23   14.40
  -2  -2   6  713.43   15.30
   2   2   6  685.03   20.10
  -2  -2   6  691.83   14.00
  -2   2  -6  706.33   15.70
  -2   2  -6  684.03   14.40
  -2  -2   6  697.13   21.80
   2   2   6  692.23   12.70
   2   2   6  719.23   15.60
   2  -2  -6  702.63   13.60
  -3  -2  -6  806.82   14.30
   3  -2   6  833.22   18.40
   3  -2   6  845.22   18.80
  -3  -2  -6  858.11   18.30
  -3   2   6  844.82   17.00
  -3  -2  -6  857.51   17.50
   3  -2   6  851.91   18.60
   3   2  -6  858.51   16.90
   3  -2   6  846.72   17.30
  -3   2   6  845.62   27.30
   3   2  -6  876.61   18.10
  -3   2   6  831.62   16.30
  -3  -2   6  852.71   18.30
   3  -2  -6  836.32   17.90
  -3   2  -6  847.42   18.90
  -3   2  -6  817.52   17.20
   3  -2  -6  846.72   18.30
   3   2   6  833.12   17.10
   3  -2  -6  836.02   15.90
  -3  -2   6  828.62   16.60
  -3   2  -6  823.92   17.80
   3   2   6  843.42   18.30
  -3   2  -6  825.62   18.50
   3  -2  -6  834.52   15.80
  -3  -2   6  858.61   27.20
   3   2   6  804.92   15.90
  -4   2   6  240.08    6.10
  -4  -2  -6  246.78    7.70
  -4  -2  -6  229.68    5.10
   4   2  -6  247.78    8.20
  -4   2   6  244.28    7.40
   4  -2   6  237.18    7.10
  -4   2   6  242.08   15.40
   4  -2   6  239.28    8.50
   4  -2   6  241.58    8.60
   4   2  -6  255.47    9.00
  -4  -2  -6  250.17    8.30
   4   2   6  251.47    8.40
   4   2   6  242.88    7.50
   4  -2  -6  231.28    6.30
  -4  -2   6  248.88    7.00
  -4   2  -6  232.28    8.30
   4   2   6  256.47    8.40
  -4  -2   6  238.78    8.30
   4  -2  -6  240.28    8.00
  -4  -2   6  236.78   15.10
  -4   2  -6  234.08    8.60
   4   2   6  237.08    6.80
   4   2   6  245.58    7.70
  -4   2  -6  231.68    8.20
  -4   2  -6  246.68    7.50
   4  -2  -6  250.67    8.50
  -5  -2  -6  101.69    6.30
  -5  -2  -6  116.59    5.40
   5  -2   6  117.09    6.20
  -5   2   6  101.79    4.80
   5  -2   6  105.49    4.70
   5   2  -6  109.39    6.20
   5   2  -6  105.89    6.00
  -5   2   6  116.29   14.20
  -5  -2  -6  109.69    5.90
   5  -2   6  103.79    6.30
  -5  -2   6  104.49    4.60
   5   2   6  107.89    5.60
   5   2   6  114.39    5.00
  -5   2  -6  107.69    5.10
  -5  -2   6  110.29    5.90
  -5  -2   6  120.99   12.10
   5   2   6  112.89    5.80
  -5   2  -6  112.19    6.70
  -5   2  -6  102.79    6.20
   5   2   6  109.79    4.70
  -5   2  -6   99.19    5.60
   5  -2  -6  104.19    5.30
   5   2   6  108.59    5.20
   5   2   6  112.89    5.80
   5  -2  -6   95.89    5.80
  -6   2   6  362.46   23.50
  -6   2   6  341.07   10.30
   6  -2   6  332.57   11.80
   6   2  -6  352.86   11.70
  -6  -2  -6  330.97   10.20
  -6  -2  -6  348.97   11.20
   6  -2   6  347.87   12.60
   6   2  -6  352.26   12.90
   6   2   6  329.07   11.30
   6   2   6  349.47   10.20
  -6  -2   6  349.57   12.10
  -6   2  -6  338.97   10.50
  -6  -2   6  361.56   23.00
   6   2   6  351.96   11.10
  -6  -2   6  345.27    9.50
  -6   2  -6  336.97   11.90
   6  -2  -6  329.67   11.50
  -6   2  -6  346.57   13.50
   6  -2  -6  329.77   10.50
   6   2   6  338.17   10.00
   6   2   6  354.26   11.30
   6  -2  -6  316.27    9.10
  -7  -2  -6   48.10    5.00
   7   2  -6   40.50    5.40
  -7   2   6   58.09   14.50
   7  -2   6   35.50    5.00
  -7  -2  -6   39.70    4.70
   7   2  -6   41.40    5.00
  -7   2   6   43.50    4.00
   7  -2   6   42.30    5.50
  -7   2  -6   35.40    4.90
  -7   2  -6   40.20    4.40
   7  -2  -6   43.50    5.30
   7   2   6   36.10    4.60
  -7  -2   6   38.90    5.20
   7  -2  -6   48.50    4.60
  -7  -2   6   63.29   13.60
   8  -2   6    5.40    2.60
  -8   2   6   17.80    8.60
   8   2  -6    9.10    3.20
   8   2  -6    5.80    3.60
  -8  -2  -6    7.70    2.90
  -8   2   6   10.80    6.10
  -8  -2  -6    3.20    2.10
   8  -2   6    4.80    3.50
   8  -2  -6    6.40    3.70
  -8   2  -6    8.70    3.10
  -8  -2   6   34.80   11.10
   8   2   6    9.20    2.70
  -8   2  -6   12.40    3.80
  -8  -2   6   11.60    3.20
  -9  -2  -6   47.80    5.70
  -9  -2  -6   42.20    5.60
  -9   2   6   95.29   16.50
   9   2  -6   30.90    5.10
   9  -2   6   36.30    5.70
   9   2  -6   37.10    5.90
   9  -2   6   33.10    5.70
  -9   2  -6   52.49    6.70
   9  -2  -6   39.70    5.60
  -9  -2   6   39.80    5.40
  -9   2  -6   33.00    5.00
   0   3  -6   21.80    2.40
   0   3   6   23.00    2.40
   0   3   6   18.60    4.80
   0   3  -6   21.60    2.40
   0  -3   6   24.40    2.30
   0  -3  -6   22.00    2.30
   0  -3   6   21.20    2.10
   0  -3  -6   20.90    2.10
   0   3   6   21.50    3.50
   0  -3   6   18.90    2.20
   0  -3  -6   22.40    2.40
   0  -3   6   19.30    2.40
   1   3  -6    8.70    1.40
  -1   3   6    7.00    1.40
   1   3  -6    6.40    1.70
  -1   3   6    6.90    1.30
   1  -3   6    8.20    0.80
  -1  -3  -6    6.60    1.30
   1  -3   6    8.10    1.50
  -1   3   6    6.20    3.80
   1   3  -6    8.70    1.80
  -1   3   6    6.60    3.00
   1  -3   6    8.90    1.60
  -1  -3  -6    9.70    1.80
  -1  -3  -6    9.40    1.80
   1  -3  -6    6.60    1.00
   1  -3  -6    7.70    1.30
   1   3   6   11.10    0.80
  -1   3  -6    9.20    1.90
  -1  -3   6    8.20    1.80
   1   3   6    7.80    1.60
   1  -3  -6    7.50    1.80
   1  -3  -6    7.30    1.50
  -1  -3   6    8.10    2.40
  -1  -3   6    7.90    1.50
   1  -3  -6    7.10    1.00
   1   3   6    6.80    2.60
  -1   3  -6    5.60    1.60
  -1   3  -6    3.90    1.70
   1   3   6    6.80    2.00
  -2   3   6   40.20    5.40
  -2  -3  -6   43.80    3.00
   2  -3   6   49.00    3.50
  -2  -3  -6   43.60    2.70
  -2   3   6   50.39    2.80
   2   3  -6   56.19    3.60
  -2   3   6   39.60    3.00
   2   3  -6   45.90    2.70
  -2   3   6   42.80    7.50
   2  -3   6   40.40    3.40
   2  -3   6   42.70    3.00
   2   3  -6   44.10    3.40
  -2  -3  -6   45.50    2.50
   2  -3  -6   45.70    2.70
   2  -3  -6   48.20    3.50
   2   3   6   39.40    3.10
  -2   3  -6   46.70    3.10
  -2   3  -6   52.69    3.90
  -2  -3   6   38.60    2.90
   2   3   6   46.10    3.30
   2  -3  -6   36.90    3.00
   2   3   6   42.60    2.20
  -2   3  -6   41.60    3.20
   2  -3  -6   42.00    1.00
   2  -3  -6   41.30    2.40
  -2  -3   6   44.40    3.10
  -3  -3  -6  377.86    8.70
   3   3  -6  405.16   10.60
   3  -3   6  381.26   11.00
  -3  -3  -6  398.16   10.70
   3   3  -6  386.16    9.00
  -3  -3  -6  392.36    9.70
  -3   3   6  382.86    9.30
  -3   3   6  389.16   15.10
   3   3  -6  395.26   11.50
   3  -3   6  383.76   11.20
   3   3  -6  406.66   10.80
  -3   3   6  375.56    8.90
  -3   3   6  397.66   18.20
   3  -3   6  390.56   11.30
   3   3   6  409.86   11.30
  -3  -3   6  396.76   11.00
   3  -3  -6  398.76   11.10
  -3  -3   6  392.06    9.70
   3   3   6  399.86   10.70
  -3   3  -6  386.56   11.30
  -3   3  -6  364.96   11.10
  -3   3  -6  388.46   10.90
   3  -3  -6  390.46    9.20
   3  -3  -6  378.76    7.90
   3   3   6  374.76    9.10
  -3   3  -6  388.56   10.20
   3  -3  -6  381.06   10.00
  -4  -3  -6   66.99    2.40
  -4  -3  -6   62.39    4.10
   4  -3   6   66.49    4.50
   4  -3   6   71.69    4.80
  -4   3   6   65.59    3.80
  -4   3   6   61.49    6.70
  -4   3   6   72.19    9.90
  -4   3   6   72.09    2.90
   4   3  -6   74.29    4.80
   4  -3   6   64.19    4.50
  -4  -3  -6   72.29    3.70
   4  -3   6   65.79    3.40
   4  -3  -6   76.89    4.50
  -4   3  -6   63.59    4.60
  -4  -3   6   69.39    3.70
   4   3   6   58.59    4.40
   4   3   6   66.39    3.70
   4   3   6   76.59    4.90
   4   3   6   62.89    4.00
  -4   3  -6   67.29    5.60
   4   3   6   67.09    3.00
  -4   3  -6   68.99    4.10
  -4   3  -6   69.89    4.10
  -4   3  -6   66.69    5.00
  -4  -3   6   70.39    4.50
   4  -3  -6   63.09    2.50
   4  -3  -6   68.29    4.60
  -5   3   6  304.47   15.30
   5  -3   6  289.07   10.80
  -5  -3  -6  291.57   10.00
   5   3  -6  314.87   10.70
  -5   3   6  313.87   20.10
   5  -3   6  305.97   11.10
  -5   3   6  300.37    8.60
  -5  -3  -6  299.67    8.80
  -5  -3  -6  306.07   10.60
   5  -3   6  283.67    8.10
   5   3  -6  292.57   10.90
   5   3   6  311.87   10.00
  -5   3  -6  293.17   10.60
   5   3   6  289.37    8.20
  -5  -3   6  305.17   10.60
   5   3   6  305.87   10.30
   5   3   6  305.07   10.40
   5   3   6  295.27    9.20
   5  -3  -6  304.17    9.90
  -5   3  -6  305.37    9.90
  -5   3  -6  309.17   12.10
  -5  -3   6  297.07    8.80
  -5   3  -6  287.57   10.30
   5  -3  -6  302.97   10.20
   6  -3   6  109.09    7.30
  -6   3   6  105.69   10.30
  -6  -3  -6   99.49    5.00
  -6  -3  -6  107.79    6.60
   6  -3   6  107.79    6.80
  -6  -3  -6  108.69    6.40
  -6   3   6  120.79   16.00
   6   3  -6   99.79    7.30
   6   3  -6  103.49    6.90
  -6   3   6   97.79    4.80
  -6   3  -6   97.89    7.00
   6   3   6  110.19    6.90
  -6  -3   6  102.59    5.30
   6   3   6  115.39    5.30
  -6  -3   6  111.19    6.70
   6  -3  -6   94.79    6.40
  -6   3  -6  104.69    8.20
  -6  -3   6  120.59   15.30
   6   3   6  104.89    5.80
   6  -3  -6  109.99    6.30
   6   3   6   98.29    5.80
  -6   3  -6  109.19    6.30
  -7   3   6   74.39   14.90
  -7  -3  -6   56.69    5.40
   7  -3   6   57.49    6.20
  -7   3   6   88.49   12.70
   7   3  -6   46.00    6.00
   7   3  -6   49.30    5.30
  -7  -3  -6   51.39    5.80
   7  -3   6   52.19    5.80
   7   3   6   62.49    6.20
  -7  -3   6   53.79    4.40
  -7  -3   6   44.50    5.20
  -7   3  -6   55.69    5.90
   7   3   6   58.69    4.60
  -7  -3   6   87.89   16.40
   7   3   6   43.70    4.70
  -7   3  -6   52.89    5.00
   7  -3  -6   56.39    5.10
   7  -3  -6   53.49    5.90
   8   3  -6   34.90    5.30
  -8   3   6   46.20   14.10
   8  -3   6   18.90    4.80
   8  -3   6   20.80    5.00
  -8  -3  -6   24.20    4.40
  -8  -3  -6   27.30    4.30
   8   3  -6   22.00    4.40
  -8   3   6   47.20   10.00
  -8   3  -6   23.20    4.20
  -8   3  -6   23.80    4.20
  -8  -3   6   62.29   13.70
  -8  -3   6   36.70    5.70
   8  -3  -6   32.60    4.70
   8   3   6   30.40    5.30
  -9   3   6   61.59   11.50
   9  -3   6   38.30    6.20
   9   3  -6   39.40    6.40
   9  -3   6   42.90    6.00
   9   3  -6   41.80    6.00
  -9   3   6   69.59   15.20
  -9  -3  -6   41.40    5.50
  -9   3  -6   37.10    6.20
   9  -3  -6   48.70    6.50
  -9  -3   6   36.10    6.20
   0  -4   6   46.70    3.30
   0   4   6   44.40    6.40
   0  -4  -6   44.00    3.00
   0  -4  -6   41.70    2.50
   0   4  -6   42.90    2.90
   0   4  -6   42.90    3.00
   0  -4   6   41.90    3.50
   0  -4   6   51.49    3.20
   0   4   6   46.50    5.40
   0  -4   6   50.99    3.30
   0   4   6   47.70    3.50
   0  -4  -6   49.70    3.10
   0   4  -6   44.80    3.20
   0  -4  -6   41.80    3.00
   0   4  -6   48.10    3.90
   1   4  -6  100.69    4.00
  -1   4   6   93.69    9.10
   1  -4   6  101.99    4.40
   1   4  -6   94.79    4.60
  -1  -4  -6  107.99    4.40
  -1  -4  -6   94.09    4.60
   1   4  -6   92.79    4.60
  -1  -4  -6  100.09    4.20
  -1  -4  -6  103.09    4.30
   1  -4   6   95.79    4.80
  -1   4   6   95.99    7.00
  -1   4   6   97.09    4.50
   1   4   6  107.39    8.70
  -1   4  -6   95.69    4.90
   1   4   6   90.49    2.50
  -1   4  -6   93.29    5.30
   1  -4  -6   94.79    3.20
   1   4   6   96.79    4.90
   1   4   6  101.79    5.90
   1  -4  -6   96.09    4.60
   1  -4  -6   99.99    4.90
  -1   4  -6   99.29    3.90
   1  -4  -6   98.09    4.20
  -1  -4   6   99.59    4.60
  -1  -4   6   98.39    4.50
  -1   4  -6   97.59    4.50
   2   4  -6   53.89    2.90
  -2  -4  -6   52.59    3.80
  -2  -4  -6   47.90    3.60
   2  -4   6   55.79    3.30
   2   4  -6   59.59    3.60
  -2   4   6   47.80    2.70
   2  -4   6   48.60    3.90
  -2   4   6   48.40    8.50
   2   4  -6   55.59    3.90
  -2  -4  -6   54.29    3.10
   2  -4   6   53.69    4.00
  -2   4   6   49.10    2.90
  -2   4   6   47.70    5.60
  -2  -4  -6   55.49    3.10
   2   4   6   47.70    3.90
   2   4   6   54.89    3.60
   2  -4  -6   49.30    1.50
   2   4   6   51.29    2.20
  -2   4  -6   46.80    3.60
  -2   4  -6   50.89    3.80
   2  -4  -6   50.39    2.70
   2  -4  -6   50.39    3.60
   2  -4  -6   50.39    3.00
   2   4   6   46.40    3.50
  -2  -4   6   57.99    3.70
  -2   4  -6   63.69    4.30
  -2  -4   6   51.39    3.50
   3  -4   6  404.86   11.60
  -3  -4  -6  414.46   11.40
  -3  -4  -6  400.16   10.00
   3  -4   6  410.56   12.00
   3   4  -6  423.76   11.40
  -3   4   6  401.56   16.00
  -3  -4  -6  410.66   11.70
  -3  -4  -6  398.96    9.30
  -3   4   6  419.86    9.60
   3  -4   6  391.26   11.60
   3   4  -6  393.66   12.20
   3   4  -6  415.16    9.20
   3   4  -6  406.76   11.50
  -3   4   6  392.36    9.50
  -3   4   6  406.26   20.70
   3   4   6  403.26   11.70
   3  -4  -6  436.06   12.00
  -3   4  -6  423.06   11.20
   3   4   6  419.96   11.30
  -3   4  -6  428.26   12.20
   3  -4  -6  394.46    7.90
   3  -4  -6  412.16   10.20
  -3  -4   6  399.86   11.60
   3  -4  -6  420.16   10.40
   3   4   6  382.76    7.90
  -3  -4   6  399.36   10.60
   3   4   6  396.36    9.00
  -3   4  -6  389.56   12.30
  -4   4   6  344.77    8.00
  -4   4   6  348.97   16.00
   4   4  -6  358.36   11.20
   4  -4   6  357.16   11.60
  -4  -4  -6  341.37   10.40
  -4   4   6  348.57   19.00
  -4  -4  -6  336.97   10.90
   4  -4   6  346.27    9.10
   4   4  -6  353.16   11.90
  -4  -4  -6  345.47    9.10
   4  -4   6  337.07   11.20
   4   4   6  340.77   10.60
  -4  -4   6  332.67    9.60
   4   4   6  333.57    7.90
  -4   4  -6  339.07   10.30
   4   4   6  345.17   11.10
   4  -4  -6  345.07   10.10
   4  -4  -6  341.37   10.80
  -4   4  -6  351.96   12.80
   4   4   6  338.27    8.80
  -4  -4   6  356.16   11.40
  -4   4  -6  358.26   11.70
   4   4   6  332.87   11.00
  -5  -4  -6  261.97    7.70
   5  -4   6  254.07    7.50
   5  -4   6  265.77   10.80
   5   4  -6  257.77   10.30
   5  -4   6  264.27   10.50
  -5  -4  -6  277.07    9.80
  -5   4   6  275.17   15.10
   5   4  -6  280.47   10.90
  -5  -4  -6  290.77   10.70
   5   4  -6  277.37   10.90
  -5   4   6  280.47   18.50
  -5   4   6  266.97    7.70
  -5   4  -6  259.27   10.30
   5   4   6  255.27    9.60
   5  -4  -6  278.07    9.70
  -5  -4   6  274.87    8.80
   5  -4  -6  265.47    9.60
  -5  -4   6  269.67   10.20
   5   4   6  256.47    8.10
   5   4   6  254.07    9.80
  -5   4  -6  260.17    9.30
  -5   4  -6  254.07   11.90
  -6   4   6   36.10   10.00
  -6  -4  -6   38.80    4.50
   6   4  -6   32.20    4.70
   6  -4   6   28.00    4.30
  -6   4   6   43.20    9.20
   6  -4   6   30.70    4.80
  -6  -4  -6   37.60    5.00
   6   4  -6   37.90    5.30
  -6   4  -6   27.80    4.70
   6   4   6   35.20    4.70
  -6  -4   6   34.20    5.00
  -6  -4   6   31.00    3.40
   6   4   6   34.10    3.60
  -6   4  -6   31.00    3.90
   6  -4  -6   34.30    4.40
   6   4   6   34.20    4.30
   6  -4  -6   35.10    4.30
  -6   4  -6   31.20    6.00
  -7  -4  -6   19.20    3.70
   7   4  -6   20.40    4.40
   7   4  -6   20.90    4.30
   7  -4   6   15.10    3.70
  -7  -4  -6   19.90    3.80
  -7   4   6   29.10   11.90
   7  -4   6   13.20    3.50
  -7   4   6   31.50    9.20
  -7   4  -6   19.20    4.00
   7  -4  -6   24.80    4.30
  -7   4  -6   20.30    3.50
  -7  -4   6   14.90    4.30
   7   4   6   18.70    3.30
   7  -4  -6   21.60    3.40
   7   4   6   21.30    4.60
  -7  -4   6   19.40    3.20
  -8   4   6   10.00   11.50
   8  -4   6    1.30    3.30
  -8  -4  -6    1.60    2.70
  -8  -4  -6    1.30    3.10
   8   4  -6    2.20    2.40
   8  -4   6    0.60    2.30
  -8   4   6   -0.40    4.50
   8   4  -6    2.50    3.80
  -8   4  -6    1.30    2.20
   8   4   6    2.70    3.90
  -8   4  -6    2.70    2.80
   8  -4  -6   -3.00    2.80
  -8  -4   6   -0.20    2.60
   9  -4   6   35.70    6.60
   9  -4   6   32.80    5.60
  -9  -4  -6   36.60    5.60
   9   4  -6   33.90    6.40
  -9   4   6   51.09   12.50
  -9   4   6   65.69   17.60
   9   4  -6   42.80    5.90
  -9  -4   6   46.80    6.30
  -9   4  -6   38.20    6.20
  -9   4  -6   40.60    6.00
   9  -4  -6   42.20    6.20
   9   4   6   35.20    6.50
   0   5  -6  189.88    6.70
   0   5  -6  183.98    6.80
   0  -5   6  174.08    6.90
   0   5   6  190.78    4.40
   0  -5   6  187.08    6.30
   0  -5  -6  183.58    6.50
   0   5   6  185.58    9.80
   0   5   6  180.88    6.70
   0   5  -6  180.78    8.70
   0  -5  -6  176.88    6.80
   0   5   6  173.48   11.20
   0  -5  -6  175.28    6.30
   0  -5   6  174.78    6.30
   0   5  -6  179.88    6.40
   0  -5  -6  184.58    5.80
  -1  -5  -6  138.89    5.40
  -1   5   6  136.99   11.00
  -1  -5  -6  146.49    6.10
   1  -5   6  136.29    5.60
  -1  -5  -6  145.89    5.70
   1   5  -6  136.99    6.30
   1  -5   6  133.39    5.20
   1   5  -6  135.29    5.10
  -1  -5  -6  140.19    5.40
  -1   5   6  139.09    5.60
  -1   5   6  143.29    9.90
   1  -5   6  146.49    6.40
   1   5  -6  143.49    6.00
   1  -5  -6  153.88    6.00
   1   5   6  139.59   10.00
  -1   5  -6  137.19    6.00
   1   5   6  137.19    3.60
  -1   5  -6  138.69    5.30
  -1   5  -6  141.69    7.20
  -1  -5   6  135.09    5.40
   1   5   6  151.38    6.40
  -1   5  -6  135.09    6.10
   1   5   6  138.29    2.90
   1  -5  -6  133.99    6.10
   1  -5  -6  136.09    4.30
   1   5   6  148.89    8.00
  -1  -5   6  140.09    5.50
   2  -5   6  609.04   15.80
  -2   5   6  621.74   25.10
  -2  -5  -6  610.54   15.00
   2  -5   6  601.34   15.60
   2   5  -6  613.54   15.00
   2   5  -6  587.64   12.90
   2   5  -6  633.84   16.10
  -2  -5  -6  620.74   14.90
   2   5  -6  606.34   14.80
  -2  -5  -6  604.44   13.80
   2  -5   6  626.24   15.20
  -2  -5  -6  622.14   13.80
  -2   5   6  616.24   14.00
   2  -5   6  612.44   13.20
  -2   5   6  624.44   20.50
  -2   5  -6  624.64   14.90
   2   5   6  633.44   15.80
  -2  -5   6  588.64   14.60
   2  -5  -6  642.44   15.70
   2   5   6  623.84   17.40
   2   5   6  610.34   14.20
  -2  -5   6  615.34   14.60
  -2   5  -6  604.14   17.00
   2  -5  -6  619.84   14.40
  -2   5  -6  615.14   15.50
   3  -5   6   71.69    5.10
  -3   5   6   67.29    3.70
  -3  -5  -6   67.59    3.40
   3   5  -6   73.59    5.10
  -3  -5  -6   67.39    3.40
  -3  -5  -6   61.09    4.60
   3   5  -6   69.39    4.40
  -3   5   6   62.79    7.40
  -3   5   6   65.69   10.60
   3   5  -6   69.09    5.50
   3  -5   6   71.69    5.50
   3   5  -6   67.79    3.00
  -3  -5  -6   69.79    4.90
   3  -5  -6   70.79    5.20
   3  -5  -6   68.59    4.30
  -3   5  -6   65.99    4.50
   3   5   6   56.89    4.50
  -3  -5   6   71.89    4.70
  -3  -5   6   68.49    5.00
  -3   5  -6   62.99    5.10
   3   5   6   77.89    5.10
   3   5   6   66.19    5.60
  -3   5  -6   67.69    6.10
   4   5  -6   20.90    3.60
  -4  -5  -6   25.80    3.30
  -4   5   6   27.40    6.90
  -4  -5  -6   21.90    3.60
   4   5  -6   21.80    3.60
   4  -5   6   19.60    3.20
  -4   5   6   17.90    8.50
   4  -5   6   19.90    3.40
  -4  -5  -6   23.80    2.50
   4   5  -6   22.80    3.10
  -4   5  -6   19.90    4.20
  -4  -5   6   14.80    3.40
  -4   5  -6   19.20    3.80
   4   5   6   16.20    2.80
   4  -5  -6   18.70    3.10
  -4  -5   6   21.10    3.30
  -4   5  -6   14.90    3.30
   4   5   6   20.40    3.30
  -5  -5  -6  121.49    6.80
   5   5  -6  120.79    7.80
   5  -5   6  110.59    7.30
  -5  -5  -6  125.99    7.40
  -5   5   6  129.19   13.10
   5  -5   6  121.89    7.30
   5   5  -6  119.39    6.90
   5   5  -6  119.49    8.00
  -5   5   6  128.99   17.60
  -5   5  -6  124.59    6.60
  -5   5  -6  112.09    8.20
   5   5   6  121.89    7.20
   5   5   6  125.09    7.40
  -5  -5   6  131.29    7.30
  -5  -5   6  124.39    6.40
   5  -5  -6  117.99    6.40
   5  -5  -6  122.89    7.00
  -5   5  -6  127.09    7.80
  -6   5   6    6.90    6.90
   6   5  -6   13.10    3.80
   6   5  -6    1.00    2.90
  -6   5   6   15.80    9.60
  -6  -5  -6    6.60    2.40
   6  -5   6    4.00    2.40
   6  -5   6    6.80    3.40
  -6  -5  -6    5.40    3.00
   6   5  -6   11.30    3.40
   6   5   6    4.10    2.70
   6   5   6    8.90    3.40
   6  -5  -6    4.60    2.70
   6  -5  -6    4.90    2.80
  -6   5  -6    3.80    3.60
  -6  -5   6    5.90    3.50
  -6   5  -6    7.80    3.40
  -6  -5   6    5.90    2.60
  -6   5  -6    4.40    2.40
   7  -5   6   65.69    6.90
   7   5  -6   58.39    6.70
  -7   5   6   85.69   16.30
  -7   5   6   87.09   13.80
  -7  -5  -6   56.99    6.60
   7   5  -6   55.69    6.40
  -7  -5  -6   66.39    6.00
   7  -5   6   61.99    7.30
   7   5   6   68.39    5.70
  -7  -5   6   64.99    7.00
   7  -5  -6   67.59    5.40
   7  -5  -6   58.39    6.00
  -7  -5   6   62.49    5.60
  -7   5  -6   56.19    5.50
   7   5   6   63.69    6.70
  -7   5  -6   51.99    6.60
   8   5  -6   81.59    8.00
  -8  -5  -6  100.39    8.80
   8  -5   6   80.19    8.00
  -8   5   6  119.39   16.90
   8  -5   6   85.29    8.70
  -8  -5  -6   82.39    6.70
   8   5  -6   78.19    8.10
  -8   5   6  139.89   21.60
  -8   5  -6   80.89    8.50
   8  -5  -6   77.69    6.70
  -8   5  -6   84.89    6.70
   8   5   6   76.19    7.80
  -8  -5   6   86.99    8.20
   0   6   6  642.24   19.90
   0   6   6  611.84   15.50
   0  -6   6  643.34   15.10
   0  -6  -6  629.44   14.00
   0   6   6  594.34   13.00
   0  -6   6  640.44   14.20
   0  -6  -6  612.84   15.10
   0   6  -6  638.44   14.80
   0   6   6  639.14   23.70
   0   6  -6  637.14   15.30
   0   6  -6  629.34   15.50
   0  -6  -6  620.34   15.50
   0   6  -6  624.44   19.00
   1   6  -6    3.20    2.00
   1   6  -6    2.80    2.30
  -1   6   6    1.10    1.60
   1  -6   6    5.30    1.80
   1   6  -6    1.80    1.50
  -1  -6  -6    0.90    1.90
  -1   6   6    0.60    4.40
  -1   6   6    2.70    4.50
   1  -6   6    1.10    1.20
   1   6  -6    3.50    1.40
  -1  -6  -6    0.10    1.50
  -1  -6  -6    5.90    2.00
   1  -6  -6    1.50    1.40
   1  -6  -6    2.00    1.00
  -1  -6   6    2.20    2.00
  -1  -6   6    0.80    1.20
  -1   6  -6    0.20    1.20
   1  -6  -6    0.30    1.30
  -1   6  -6    2.00    1.90
  -1   6  -6    2.50    1.90
   1   6   6    3.10    1.50
   1   6   6   -0.10    2.60
   1   6   6    0.80    0.80
   1   6   6   -0.80    3.00
   1   6   6    2.00    1.40
  -1   6  -6    0.40    1.60
  -2   6   6  416.46   18.00
   2   6  -6  394.46    9.50
  -2  -6  -6  405.76   10.40
   2   6  -6  424.46   12.10
   2  -6   6  417.36    9.80
   2  -6   6  422.46   12.20
  -2  -6  -6  394.26   11.60
   2  -6   6  399.96   12.50
   2   6  -6  400.16   11.60
  -2   6   6  395.96   19.50
   2   6  -6  428.46   13.10
  -2  -6  -6  399.86   11.40
  -2  -6  -6  405.06   10.80
  -2  -6   6  405.76   11.50
  -2   6  -6  411.16   10.10
  -2   6  -6  406.16   12.40
   2  -6  -6  405.96   12.20
  -2   6  -6  394.06   14.30
   2   6   6  403.96   14.50
   2   6   6  410.56   11.10
  -2  -6   6  424.16   11.80
  -2   6  -6  421.76   12.00
   2  -6  -6  419.26   11.60
   3  -6   6   49.70    5.00
   3   6  -6   64.29    5.50
  -3  -6  -6   51.29    3.40
  -3   6   6   38.60    9.40
  -3  -6  -6   65.29    4.60
  -3   6   6   46.50    8.30
  -3  -6  -6   59.69    4.30
  -3  -6  -6   65.59    3.60
   3  -6   6   60.59    4.60
   3   6  -6   58.69    4.80
   3   6  -6   41.60    4.50
  -3  -6   6   69.89    5.30
   3   6   6   61.99    5.10
   3  -6  -6   57.39    4.10
  -3   6  -6   63.49    5.20
  -3   6  -6   65.59    5.00
  -3  -6   6   65.19    4.40
  -3   6  -6   50.59    6.10
   3   6   6   54.79    4.60
   3  -6  -6   68.19    5.30
   3   6   6   55.89    5.90
   4   6  -6  106.19    6.90
   4   6  -6   99.39    7.10
  -4   6   6  107.29   10.60
  -4  -6  -6  105.79    6.60
  -4   6   6  105.39   14.00
   4  -6   6  109.99    6.90
  -4  -6  -6   99.29    6.20
   4   6  -6  108.79    6.20
   4  -6   6  106.89    6.70
   4  -6  -6  103.29    6.80
  -4  -6   6  105.79    6.30
  -4   6  -6   94.39    8.00
  -4   6  -6   96.89    6.40
   4   6   6   86.29    6.00
  -4  -6   6   97.69    6.00
   4   6   6  101.19    7.00
   5   6  -6   39.00    5.20
  -5  -6  -6   26.70    4.60
   5  -6   6   34.80    5.20
   5  -6   6   27.00    4.50
  -5   6   6   33.60   10.50
   5   6  -6   29.80    4.70
  -5  -6  -6   34.30    4.30
  -5   6   6   38.10    9.50
  -5   6  -6   39.90    4.60
   5   6   6   36.50    4.80
  -5  -6   6   30.40    3.70
   5  -6  -6   35.20    4.50
  -5  -6   6   25.40    4.00
  -5   6  -6   31.60    6.40
   5   6   6   29.70    4.60
  -6   6   6   72.69   14.90
   6   6  -6   95.49    7.80
  -6  -6  -6   92.09    6.60
   6   6  -6   86.19    7.80
  -6  -6  -6   79.29    6.30
  -6   6   6   92.79   12.70
   6  -6   6   98.29    8.40
   6   6  -6   79.49    6.70
   6  -6   6   99.79    7.70
   6   6   6   93.69    7.40
  -6  -6   6   86.19    7.00
   6   6   6   79.09    7.10
  -6   6  -6   79.49    7.60
  -6   6  -6   91.49    7.00
  -6   6  -6   77.99    9.20
   6  -6  -6   84.39    6.10
  -6  -6   6   85.99    6.20
   7   6  -6   43.90    6.50
  -7  -6  -6   30.50    4.80
  -7   6   6   23.90   12.40
   7  -6   6   28.70    5.80
  -7   6   6   32.30   11.00
   7  -6   6   32.20    5.80
  -7  -6  -6   23.10    4.10
   7   6  -6   28.50    4.70
   7   6  -6   32.70    5.30
   7   6   6   31.00    4.80
   7   6   6   32.10    5.40
  -7  -6   6   31.90    5.10
  -7   6  -6   39.20    5.60
  -7  -6   6   33.30    4.20
   7  -6  -6   27.10    4.10
  -7   6  -6   34.70    5.00
   8  -6   6    7.90    3.80
   8   6  -6   14.90    4.90
  -8  -6  -6   12.60    3.80
  -8   6   6    3.10   11.50
   8  -6   6   19.40    5.30
  -8  -6  -6   10.00    3.00
  -8   6   6   12.60   10.40
   8   6  -6   15.50    4.50
   8  -6  -6   10.50    3.70
  -8  -6   6    9.70    4.70
  -8   6  -6   17.90    4.50
   8   6   6   12.80    4.80
  -8   6  -6   20.80    4.40
  -8  -6   6   15.50    3.90
   0   7  -6  929.61   20.90
   0  -7  -6  906.41   20.90
   0   7   6  928.71   31.00
   0  -7   6  943.91   19.30
   0   7   6  854.01   18.10
   0  -7   6  918.21   20.60
   0   7  -6  935.01   26.10
   0   7  -6  921.21   21.20
   0  -7  -6  909.21   19.10
   0   7   6  946.61   26.90
   0   7  -6  901.01   20.00
   0  -7  -6  931.61   21.20
   1   7  -6    3.50    1.40
   1   7  -6    4.00    2.20
  -1   7   6    6.90    4.80
  -1  -7  -6    6.00    2.40
  -1  -7  -6    4.40    1.90
   1   7  -6    4.80    3.50
   1  -7   6    3.80    1.70
  -1   7   6    6.60    4.00
   1   7  -6    2.60    2.20
  -1  -7  -6    1.40    1.50
   1  -7   6    4.80    2.40
  -1   7   6    5.60    1.80
   1  -7   6    3.40    1.70
   1   7  -6    2.80    1.70
  -1   7  -6    6.00    2.30
   1   7   6    6.00    4.20
  -1  -7   6    4.70    2.00
   1   7   6    4.80    3.60
  -1   7  -6    2.40    2.90
  -1   7  -6    5.30    2.00
   1  -7  -6    3.60    1.40
   1   7   6    0.90    1.40
  -1  -7   6   -0.50    1.50
   1  -7  -6    2.60    1.80
   1  -7  -6    3.50    1.80
  -1   7  -6   -0.90    2.30
   2  -7   6   86.09    5.80
  -2  -7  -6   79.09    4.80
   2  -7   6   81.49    5.50
  -2   7   6   92.39   11.10
  -2   7   6   73.79   10.20
   2   7  -6   86.59    5.00
  -2  -7  -6   95.39    5.30
  -2  -7  -6   73.59    4.90
   2   7  -6   87.89    5.80
   2   7  -6   84.89    6.20
  -2  -7   6   82.39    5.10
   2  -7  -6   81.49    5.40
   2  -7  -6   73.09    5.20
  -2   7  -6   93.59    5.60
  -2   7  -6   87.89    4.40
   2   7   6   74.49    4.70
  -2   7  -6   76.49    5.20
  -2  -7   6   86.09    5.40
  -2   7  -6   85.09    7.50
   2   7   6   86.09    7.10
   3  -7   6   20.50    3.70
   3  -7   6   14.20    3.60
   3   7  -6   14.20    3.20
  -3  -7  -6   16.50    3.30
   3   7  -6   14.70    2.70
  -3  -7  -6   11.20    1.90
  -3  -7  -6   12.50    3.20
   3   7  -6   14.80    3.60
  -3   7   6   15.30    7.30
  -3   7   6   16.20    7.30
   3  -7  -6   11.90    2.60
  -3   7  -6   13.00    3.30
   3  -7  -6   15.90    3.50
  -3  -7   6   15.80    2.90
  -3  -7   6   11.50    2.70
  -3   7  -6   14.70    4.30
   3   7   6   13.50    3.00
   3   7   6   17.40    4.60
  -3   7  -6   18.80    3.70
   3   7   6   20.10    4.30
  -4   7   6    5.90    8.00
   4  -7   6    7.40    2.40
   4   7  -6    9.10    3.60
  -4  -7  -6    6.20    3.00
  -4  -7  -6    3.30    2.00
   4   7  -6    2.10    2.70
   4  -7   6   -1.30    1.90
  -4   7   6   -2.30    6.50
   4   7  -6    0.50    2.20
   4  -7  -6    7.20    3.10
  -4  -7   6    2.90    2.10
   4   7   6    0.80    2.50
  -4   7  -6    3.70    3.10
  -4   7  -6    6.80    4.10
  -4  -7   6    2.90    2.80
   4   7   6    3.20    3.10
  -5   7   6   24.80   10.10
   5  -7   6   22.10    4.60
   5   7  -6   33.70    5.10
  -5  -7  -6   30.10    4.00
  -5   7   6   28.10    8.10
   5  -7   6   24.60    4.10
   5   7  -6   23.90    4.50
  -5  -7  -6   26.20    4.60
  -5   7  -6   27.70    5.60
  -5  -7   6   27.80    4.70
   5   7   6   27.30    4.40
   5   7   6   25.50    4.60
  -5   7  -6   24.90    4.60
  -5  -7   6   26.10    3.80
   5  -7  -6   35.30    5.30
   6  -7   6   22.10    4.20
   6   7  -6   26.70    5.60
  -6   7   6   23.70    8.20
  -6  -7  -6   18.20    3.90
  -6   7   6   15.50   10.90
   6   7  -6   31.10    5.50
   6   7  -6   22.10    5.40
  -6  -7  -6   20.50    4.10
   6  -7   6   14.90    4.40
   6  -7  -6   20.90    3.80
   6   7   6   22.00    4.10
  -6   7  -6   26.70    5.40
  -6   7  -6   22.60    4.70
  -6  -7   6   24.10    4.30
   6   7   6   27.30    4.90
  -6  -7   6   29.80    5.50
  -7  -7  -6   18.50    4.00
  -7  -7  -6   19.70    4.90
   7   7  -6   22.10    5.50
   7  -7   6   15.20    4.00
  -7   7   6   13.70   11.20
   7  -7   6   22.40    5.30
   7   7  -6   18.60    5.40
   7   7  -6   17.20    4.50
  -7   7   6   22.00   10.20
  -7   7  -6   16.70    4.10
  -7  -7   6   24.80    5.60
  -7  -7   6   25.90    4.10
   7  -7  -6   25.10    4.60
   7   7   6   14.70    4.60
   7   7   6   22.40    4.40
  -7   7  -6   15.10    4.00
   0  -8  -6   28.00    3.50
   0   8  -6   24.40    5.80
   0   8  -6   25.80    3.30
   0   8  -6   22.30    3.40
   0  -8   6   29.40    3.70
   0   8  -6   24.10    3.70
   0   8   6   26.20    6.90
   0   8  -6   23.60    3.80
   0   8   6   19.80    5.60
   0  -8   6   26.00    3.00
   0  -8  -6   23.50    2.90
   0  -8  -6   16.10    3.00
   1   8  -6  108.69    6.30
   1   8  -6   99.59    4.90
  -1   8   6   97.59    5.20
   1   8  -6  105.59    6.90
  -1  -8  -6  102.19    6.00
   1   8  -6  117.59    9.40
  -1  -8  -6  105.59    5.80
   1  -8   6  111.99    6.10
  -1   8   6  101.99   10.80
   1   8  -6  105.29    6.30
  -1  -8  -6  104.89    6.20
  -1   8   6   99.59   10.40
   1  -8   6  106.89    6.50
  -1   8  -6  101.89    5.50
   1  -8  -6  107.49    6.10
  -1   8  -6  110.69    6.30
   1   8   6  112.29    8.80
   1  -8  -6  106.79    4.80
  -1   8  -6  122.69    6.50
  -1   8  -6  105.19    8.50
  -1  -8   6  112.59    6.10
  -1  -8   6  112.29    5.70
   1   8   6  104.39    4.90
   1  -8  -6  109.79    6.40
  -2  -8  -6   21.20    3.10
  -2   8   6   21.00    6.70
   2   8  -6   25.50    4.20
   2   8  -6   21.50    3.20
   2   8  -6   26.40    4.00
   2  -8   6   29.60    4.00
  -2  -8  -6   21.30    3.40
   2  -8   6   32.70    4.80
  -2   8   6   21.50    3.20
  -2   8   6   29.10    6.60
  -2  -8  -6   19.80    3.10
  -2  -8   6   23.30    3.60
  -2   8  -6   30.80    5.90
   2  -8  -6   24.20    3.80
  -2   8  -6   19.80    3.80
   2   8   6   22.80    4.00
  -2  -8   6   22.80    3.90
   2   8   6   26.80    5.80
   2   8   6   24.50    3.20
   2  -8  -6   26.30    4.00
  -2   8  -6   30.10    4.00
  -3   8   6   35.70    8.80
  -3  -8  -6   32.30    3.90
  -3   8   6   45.60    9.90
  -3  -8  -6   46.80    5.10
   3  -8   6   37.50    4.70
   3   8  -6   36.40    5.10
  -3   8   6   33.10    4.30
   3  -8   6   29.80    4.50
  -3  -8  -6   28.70    4.40
   3   8  -6   36.90    4.50
   3   8  -6   39.60    5.10
   3   8   6   37.40    4.30
   3  -8  -6   30.60    3.70
  -3  -8   6   37.20    4.80
   3  -8  -6   28.60    4.30
  -3  -8   6   30.20    3.80
   3  -8  -6   34.50    4.10
  -3   8  -6   36.30    4.50
  -3   8  -6   40.80    6.50
   3   8   6   40.20    5.30
  -3   8  -6   33.80    4.30
   3   8   6   44.80    7.20
   4   8  -6   27.10    4.20
   4   8  -6   32.30    5.00
  -4   8   6   24.10    7.70
  -4  -8  -6   24.80    3.70
   4  -8   6   23.90    3.90
   4  -8   6   31.90    5.20
  -4  -8  -6   25.70    4.40
   4   8  -6   23.40    3.80
  -4   8   6   25.90    8.90
   4   8   6   25.80    4.50
   4   8   6   31.80    4.50
  -4   8  -6   20.00    4.50
  -4   8  -6   33.00    4.50
  -4  -8   6   25.60    4.40
  -4   8  -6   24.40    6.10
   4  -8  -6   17.80    4.10
  -4  -8   6   31.90    4.10
   5  -8   6    9.70    3.40
  -5  -8  -6   15.20    4.10
  -5   8   6    5.00    8.60
  -5  -8  -6   10.70    3.00
   5   8  -6    6.60    3.90
   5  -8   6   10.10    3.20
   5   8  -6   11.20    4.20
  -5   8   6    6.20    8.20
  -5  -8   6   12.50    3.20
   5   8   6   10.70    3.30
  -5  -8   6   22.20    4.60
  -5   8  -6    8.80    4.00
  -5   8  -6   15.60    4.20
   5   8   6    5.80    3.30
  -5   8  -6   13.10    5.00
   5  -8  -6   14.00    3.80
   6  -8   6   14.40    3.70
   6   8  -6   15.30    4.90
  -6   8   6    8.60    9.80
  -6  -8  -6    5.00    3.10
  -6   8   6    7.70    9.80
   6  -8   6    9.30    4.40
  -6  -8  -6   12.60    4.20
   6   8  -6    6.90    3.60
   6   8  -6    9.80    3.60
   6  -8  -6    8.80    3.10
   6   8   6   10.10    3.50
  -6   8  -6   17.50    4.90
  -6   8  -6   14.70    4.50
   6   8   6   10.60    3.50
  -6  -8   6   12.60    3.70
  -6  -8   6   11.80    3.70
   7  -8   6   51.79    7.10
  -7  -8  -6   49.70    5.90
   7  -8   6   49.60    7.60
   7   8  -6   54.29    7.20
   7   8  -6   67.59    8.20
   7   8  -6   58.79    7.10
  -7   8   6   63.29   13.00
  -7  -8  -6   70.19    7.70
  -7   8  -6   57.39    7.10
   7   8   6   74.19    8.50
   7  -8  -6   53.49    6.30
   7   8   6   58.89    6.80
  -7  -8   6   66.09    7.50
  -7  -8   6   38.20    5.70
  -7   8  -6   61.59    7.30
   0   9  -6   13.70    3.10
   0  -9  -6   14.60    2.70
   0  -9   6   16.40    3.60
   0   9  -6   12.90    2.70
   0   9  -6   14.10    3.30
   0   9   6   20.60    5.10
   0  -9   6   17.80    3.10
   0  -9  -6   17.20    3.60
   0   9   6   21.10    6.50
   0   9  -6   18.00    3.60
   0   9  -6   20.30    5.10
   0  -9  -6   13.90    3.00
   1   9  -6   49.20    5.70
   1  -9   6   39.20    4.30
  -1  -9  -6   42.30    5.00
  -1  -9  -6   38.70    4.10
   1  -9   6   47.40    5.20
   1  -9   6   39.90    4.30
   1   9  -6   56.29    8.40
  -1  -9  -6   46.20    4.60
  -1   9   6   43.10    8.30
  -1   9   6   46.50    8.60
   1   9  -6   39.20    4.30
   1   9  -6   47.50    4.90
   1  -9  -6   41.40    4.90
  -1   9  -6   51.59    7.70
  -1  -9   6   37.70    4.50
  -1   9  -6   47.70    4.70
  -1   9  -6   39.70    4.40
  -1  -9   6   40.20    3.90
   1   9   6   44.80    7.00
  -1   9  -6   35.50    4.10
   1   9   6   38.90    5.80
  -1   9  -6   31.40    4.10
   1  -9  -6   36.30    4.80
   2  -9   6   93.89    7.80
  -2   9   6   98.39   12.00
   2   9  -6  112.79    7.40
   2   9  -6  106.79    7.20
  -2   9   6  108.39    5.80
  -2  -9  -6  107.49    6.20
  -2   9   6  113.09   12.70
   2   9  -6  103.99    6.10
  -2  -9  -6   96.39    5.90
   2  -9   6  104.39    6.50
  -2  -9  -6  104.19    7.00
   2   9   6  109.79   10.00
  -2   9  -6  112.79    7.20
   2  -9  -6  105.89    7.10
  -2  -9   6  102.39    6.20
  -2  -9   6   97.39    7.20
  -2   9  -6   98.89    8.80
  -2   9  -6  106.39    6.80
   2   9   6  109.69    8.50
   2  -9  -6  107.49    7.50
  -3   9   6   17.30    6.50
   3  -9   6   13.40    3.40
  -3  -9  -6   20.90    4.00
  -3   9   6   16.10    3.40
   3  -9   6   14.90    3.90
   3   9  -6   12.90    3.70
   3   9  -6    7.70    2.90
   3   9  -6   21.60    3.80
  -3  -9  -6   15.00    3.20
  -3   9   6   14.20    6.40
  -3  -9   6   14.70    3.90
  -3  -9   6   15.60    3.10
   3  -9  -6   18.80    4.20
   3   9   6   18.50    5.20
   3   9   6   16.60    3.30
  -3   9  -6   18.00    3.60
  -3   9  -6   11.50    4.80
  -3   9  -6   23.50    4.50
   3   9   6   12.10    4.30
   4   9  -6  121.79    8.60
  -4   9   6  126.09   13.90
   4  -9   6  109.69    9.10
   4   9  -6  115.69    8.50
  -4  -9  -6  123.29    8.10
   4  -9   6  124.59    8.20
  -4   9   6  119.09    7.80
   4   9  -6  127.49    7.00
  -4  -9  -6  125.39    7.90
  -4   9   6  127.29   15.70
   4   9   6  141.29    9.40
   4  -9  -6  129.59    8.10
  -4  -9   6  121.09    7.40
  -4   9  -6  121.39    9.80
   4   9   6  131.49    7.80
  -4  -9   6  133.19    8.20
  -4   9  -6  123.29    8.00
  -4   9  -6  116.89    7.90
  -5   9   6   26.90    9.00
  -5  -9  -6   25.30    4.40
  -5   9   6   42.60   12.10
   5   9  -6   33.40    6.10
  -5   9   6   42.00    5.70
   5  -9   6   35.70    5.70
   5  -9   6   27.80    5.80
   5   9  -6   32.30    4.90
  -5  -9  -6   27.00    4.20
  -5   9  -6   41.50    7.50
   5  -9  -6   26.40    5.10
   5   9   6   30.80    5.30
  -5  -9   6   30.20    5.30
  -5  -9   6   28.90    4.40
  -5   9  -6   35.50    5.10
  -5   9  -6   36.30    5.90
   5   9   6   34.20    4.80
  -6   9   6    6.60    9.50
   6  -9   6    2.70    4.50
   6   9  -6   -4.00    3.90
  -6  -9  -6    0.40    3.10
   6  -9   6    1.10    3.60
  -6   9   6   -0.20    3.60
   6   9  -6    3.70    3.40
  -6  -9  -6   -0.20    2.60
   6   9  -6    4.10    4.10
  -6  -9   6    1.40    2.90
  -6  -9   6    4.80    3.90
  -6   9  -6    3.30    3.10
   6   9   6    1.00    3.80
  -6   9  -6   -3.90    2.60
   6   9   6    3.50    4.00
   6  -9  -6   -0.10    2.60
   0  10  -6    1.20    2.40
   0 -10  -6    1.60    2.00
   0 -10  -6   -1.40    1.30
   0  10  -6    2.60    4.10
   0 -10  -6    0.40    2.00
   0  10   6   -0.40    3.10
   0 -10   6    0.10    2.00
   0  10  -6   -1.30    1.60
   0  10  -6   -2.00    2.10
   0  10   6    1.00    3.20
   1 -10   6   44.90    4.80
   1  10  -6   36.80    4.70
   1  10  -6   39.40    8.40
   1  10  -6   36.20    5.10
   1 -10   6   40.70    5.10
  -1 -10  -6   44.70    4.70
  -1 -10  -6   37.70    4.80
   1  10  -6   52.59    5.40
  -1  10   6   52.29    9.30
  -1 -10  -6   53.59    5.60
   1  10   6   45.70    8.10
  -1  10  -6   54.39    9.20
  -1  10  -6   43.40    4.90
   1  10   6   43.90    6.40
   1 -10  -6   38.90    4.90
  -1  10  -6   41.50    4.70
   1 -10  -6   57.99    6.20
  -1 -10   6   45.00    5.50
   2  10  -6    8.70    3.50
   2 -10   6    9.70    3.20
  -2  10   6    4.80    6.10
  -2 -10  -6    7.60    2.40
   2  10  -6    3.90    2.70
   2  10  -6    8.20    2.90
  -2 -10  -6    4.70    2.40
  -2 -10  -6    7.30    2.60
  -2  10  -6   -0.30    2.50
  -2 -10   6   13.70    4.00
  -2  10  -6   11.90    4.00
   2  10   6   13.20    5.20
   2 -10  -6    8.20    2.90
  -2  10  -6    4.20    3.40
   2  10   6    7.50    4.20
   2 -10  -6    6.20    3.40
  -3  10   6   29.90    4.00
   3  10  -6   24.90    4.10
   3  10  -6   35.20    5.30
   3 -10   6   33.20    5.80
  -3 -10  -6   31.90    4.90
  -3 -10  -6   26.70    4.60
  -3  10   6   31.20    9.50
   3  10  -6   34.90    5.40
   3 -10   6   26.40    4.40
  -3  10  -6   34.90    5.60
  -3  10  -6   33.20    6.40
   3 -10  -6   25.40    4.90
   3  10   6   28.20    5.70
  -3 -10   6   37.80    4.90
  -3 -10   6   32.10    5.20
  -3  10  -6   29.90    5.00
  -4 -10  -6   35.60    5.30
   4 -10   6   32.20    6.00
   4  10  -6   31.50    5.30
  -4  10   6   43.30    8.30
   4  10  -6   32.60    5.40
   4  10  -6   28.30    4.30
  -4  10   6   26.50    4.80
  -4 -10  -6   31.10    4.50
  -4  10   6   30.00   10.40
   4 -10   6   37.20    5.50
   4  10   6   32.30    4.80
  -4  10  -6   44.10    7.10
   4  10   6   33.50    5.70
   4 -10  -6   33.40    5.20
  -4 -10   6   43.40    5.60
  -4  10  -6   30.40    5.40
  -4 -10   6   40.30    5.80
  -4  10  -6   33.80    5.80
  -5 -10  -6    8.60    4.20
   5  10  -6    4.60    4.30
  -5  10   6   10.70    7.00
   5  10  -6    4.70    4.10
   5 -10   6   12.90    4.90
   5 -10   6    7.70    3.20
  -5 -10  -6    4.10    3.60
  -5  10   6    9.20    4.10
  -5 -10   6   10.50    4.10
   5  10   6    3.70    3.70
   5  10   6    7.30    3.60
  -5 -10   6    7.00    4.30
  -5  10  -6    5.10    4.30
  -5  10  -6   27.60    8.30
   5 -10  -6    4.90    3.20
  -5  10  -6   10.10    4.80
   0 -11  -6   29.40    4.70
   0  11   6   44.90    8.50
   0  11  -6   48.00    8.90
   0 -11   6   26.20    4.20
   0 -11  -6   33.60    5.40
   0  11   6   31.10    6.10
   0 -11   6   20.80    5.00
   0  11  -6   25.40    4.00
   1  11  -6   17.30    3.90
   1 -11   6   14.70    3.50
  -1  11   6   23.10    6.90
  -1  11   6   14.90    4.60
   1  11  -6   12.80    3.20
  -1 -11  -6    9.40    3.10
   1  11  -6    9.60    3.30
   1 -11   6    6.80    3.90
  -1 -11  -6    9.60    2.80
   1  11  -6   19.20    6.10
  -1 -11  -6   10.70    3.20
   1  11   6   16.80    5.20
  -1  11  -6   20.10    5.00
  -1 -11   6    9.10    4.00
   1  11   6   24.70    5.70
   1 -11  -6   19.20    4.60
   1 -11  -6   15.10    3.70
  -1  11  -6   16.20    4.00
  -2 -11  -6   16.60    4.50
  -2 -11  -6   25.20    4.30
  -2  11   6   16.90    6.10
   2 -11   6   23.10    5.40
   2  11  -6   18.80    4.30
   2  11  -6   21.50    4.00
   2  11  -6   16.60    4.60
  -2 -11   6   22.90    4.90
   2 -11  -6   15.40    3.60
   2  11   6   12.30    4.10
  -2  11  -6   25.20    4.80
   3 -11   6   31.50    6.10
  -3 -11  -6   42.40    5.10
   3  11  -6   34.60    5.70
  -3  11   6   48.20   10.80
   3  11  -6   33.20    4.70
  -3 -11  -6   43.50    5.60
   3  11  -6   37.70    6.40
  -3 -11   6   39.50    5.40
  -3  11  -6   46.80    6.30
   3 -11  -6   43.00    5.80
   3  11   6   54.89    7.70
  -3  11  -6   42.50    5.80
  -4  11   6   -1.70    3.10
   4 -11   6   -3.00    3.50
   4  11  -6    4.50    4.00
  -4  11   6    0.70    5.70
  -4 -11  -6    0.50    3.40
  -4 -11  -6   -0.60    2.00
   4  11  -6   -0.30    3.70
   4  11   6    3.50    4.80
   4 -11  -6   -2.10    3.70
  -4  11  -6    0.40    3.30
  -4  11  -6    2.60    2.90
   0 -12   6   23.40    4.50
   0  12   6   36.20    7.00
   0 -12  -6   16.40    4.30
   0 -12   6   25.10    4.40
   0  12   6   17.80    5.40
   0 -12  -6   22.90    4.50
   0  12  -6   19.80    4.20
  -1 -12  -6   41.90    5.70
   1 -12   6   50.89    7.00
  -1  12   6   39.90    6.80
   1  12  -6   54.09    6.30
   1  12  -6   43.20    6.30
  -1 -12  -6   41.30    5.80
   1 -12   6   48.30    6.10
  -1 -12   6   43.80    6.30
   1  12   6   37.30    6.90
   1 -12  -6   48.20    6.20
  -1  12  -6   60.59    6.90
   1 -12  -6   43.30    6.20
  -1 -12   6   43.40    6.20
   0   0   7    1.10    2.40
   0   0  -7    1.50    0.70
   0   0  -7    1.90    1.00
   0   0   7   -1.30    1.10
   0   0   7    0.20    1.20
   0   0  -7    1.20    0.80
   0   0  -7    0.60    1.40
   0   0   7    0.20    0.80
   1   0   7  213.88    6.60
  -1   0   7  211.28    6.80
  -1   0  -7  219.98    6.60
   1   0   7  223.48    9.50
   1   0  -7  218.98    5.50
   1   0   7  222.08    7.00
  -1   0   7  219.48   10.70
  -1   0  -7  224.28    5.80
  -1   0   7  213.28    5.60
   1   0  -7  222.88    6.90
  -1   0  -7  218.08    6.80
   1   0  -7  219.88    6.30
  -1   0  -7  212.98    6.40
   1   0  -7  221.88    5.50
  -2   0  -7  282.87    8.40
   2   0  -7  295.17    6.10
   2   0  -7  282.57    8.10
  -2   0  -7  291.57    8.30
  -2   0   7  298.37   13.60
   2   0   7  293.77    8.20
   2   0   7  299.47    7.60
   2   0   7  285.67   10.50
  -2   0   7  302.37    8.40
  -2   0   7  288.67    6.20
  -2   0  -7  291.67    6.90
  -2   0  -7  285.97    8.40
  -3   0   7    0.50    0.30
  -3   0  -7   -0.40    1.10
   3   0  -7    0.80    1.30
  -3   0  -7    2.20    1.20
   3   0  -7    1.40    1.40
  -3   0  -7    0.60    1.00
  -3   0   7   -1.00    1.60
  -3   0   7    1.60    0.70
   3   0   7   -2.40    1.20
  -3   0   7   -1.10    2.90
   3   0   7    0.30    1.00
   3   0   7   -1.20    0.90
   4   0   7  166.28    6.60
  -4   0  -7  155.78    6.40
   4   0  -7  151.68    6.90
   4   0  -7  156.68    5.90
  -4   0  -7  154.08    6.70
  -4   0  -7  155.38    5.10
  -4   0  -7  149.69    5.20
  -4   0   7  156.78    4.20
  -4   0  -7  158.68    6.60
   4   0   7  166.38    6.40
  -4   0   7  164.68    6.40
   4   0   7  151.08    4.80
  -4   0   7  156.18   12.40
   4   0   7  165.58    6.30
  -5   0  -7    5.00    1.90
   5   0  -7    1.80    2.10
  -5   0   7    8.30    4.80
   5   0  -7    5.50    2.00
  -5   0  -7    7.20    1.70
   5   0   7    9.70    2.20
  -5   0   7    6.60    2.00
  -5   0  -7    6.70    2.80
  -5   0  -7    9.90    2.20
   5   0   7    5.70    2.40
   5   0   7    7.40    2.20
   6   0   7   14.90    2.50
  -6   0   7   17.40    8.30
   6   0  -7   13.90    2.90
   6   0  -7    6.50    2.30
   6   0   7    9.50    3.00
  -6   0  -7   14.20    2.20
  -6   0  -7   11.60    2.50
   6   0  -7   14.00    2.70
  -6   0  -7    7.90    2.80
  -6   0   7   13.70    3.10
   6   0   7    9.00    2.20
   7   0  -7   71.99    4.80
  -7   0  -7   71.39    5.70
   7   0   7   79.59    6.00
  -7   0   7  118.19   17.60
  -7   0  -7   79.59    6.10
   7   0   7   78.59    6.60
   7   0  -7   82.79    6.80
   7   0  -7   78.39    5.40
  -7   0   7   67.59    5.20
  -8   0   7    0.50    2.70
   8   0   7   -2.20    2.00
  -8   0   7   26.20   10.90
   8   0   7   -2.10    2.60
   8   0  -7    2.70    2.30
  -8   0  -7    0.50    1.80
  -8   0  -7   -1.80    2.20
  -9   0  -7    6.00    3.20
   9   0   7   16.10    4.70
   9   0  -7    8.10    3.90
  -9   0  -7    5.70    3.40
  -9   0   7    8.30    2.80
   0   1   7 2419.96   44.90
   0  -1   7 2530.15   44.70
   0   1  -7 2533.85   44.30
   0   1   7 2497.75   52.49
   0   1   7 2541.55   44.80
   0  -1  -7 2520.05   44.00
   0  -1   7 2513.95   44.40
   0  -1   7 2531.85   49.99
   0  -1  -7 2556.44   45.10
   0   1   7 2510.65   44.70
   0   1  -7 2517.75   45.00
   0   1  -7 2557.24   44.20
   0  -1  -7 2544.35   44.00
  -1  -1  -7 1560.24   27.60
  -1  -1  -7 1581.94   29.20
   1  -1   7 1568.84   29.30
  -1  -1  -7 1554.54   29.30
  -1   1   7 1568.54   29.10
  -1  -1  -7 1603.44   29.80
  -1   1   7 1575.24   38.00
   1  -1   7 1555.84   29.60
   1   1  -7 1582.94   29.50
   1   1  -7 1519.75   27.40
   1  -1   7 1583.64   32.20
  -1   1   7 1557.24   29.20
   1   1  -7 1616.44   29.20
   1  -1  -7 1560.44   28.30
  -1  -1   7 1584.64   29.40
   1   1   7 1525.75   28.40
   1  -1  -7 1567.94   27.60
   1  -1  -7 1599.74   28.10
  -1  -1   7 1556.34   35.70
  -1   1  -7 1576.74   29.50
  -1   1  -7 1585.04   29.80
  -1  -1   7 1596.74   28.40
   1  -1  -7 1547.95   29.70
  -1   1  -7 1557.84   28.40
   1   1   7 1584.04   29.70
   1   1   7 1565.14   35.20
   2   1  -7  153.18    5.70
  -2  -1  -7  155.18    5.90
  -2   1   7  155.08   11.00
   2   1  -7  152.48    5.40
  -2   1   7  158.38    5.80
  -2  -1  -7  151.28    5.60
  -2  -1  -7  160.68    4.20
  -2   1   7  157.28    5.20
   2  -1   7  160.68    6.00
  -2  -1  -7  167.68    6.00
   2  -1   7  160.48    5.70
   2   1  -7  151.58    3.60
   2   1   7  154.58    5.70
  -2   1  -7  151.18    5.90
  -2  -1   7  155.78    9.90
  -2   1  -7  156.28    6.20
   2   1   7  158.28    8.50
  -2  -1   7  153.18    4.50
   2  -1  -7  162.38    5.40
   2  -1  -7  155.68    4.30
  -2  -1   7  155.48    5.70
  -2   1  -7  165.78    5.10
   2   1   7  153.28    4.60
   2  -1  -7  165.58    5.90
  -2  -1   7  150.68    4.60
   3  -1   7  132.19    5.30
  -3   1   7  125.09    4.40
   3   1  -7  137.29    5.90
  -3  -1  -7  112.19    3.30
   3   1  -7  130.09    5.20
  -3   1   7  121.19   10.00
  -3   1   7  126.59    5.30
  -3  -1  -7  118.99    3.50
  -3  -1  -7  124.29    5.60
   3  -1   7  136.79    5.80
   3  -1   7  111.29    5.10
  -3  -1  -7  119.79    5.20
  -3  -1  -7  120.19    5.20
  -3   1  -7  114.69    3.10
   3  -1  -7  118.29    5.40
  -3  -1   7  121.79    3.60
  -3  -1   7  124.99    5.60
   3  -1  -7  132.39    5.60
  -3   1  -7  120.99    4.60
   3  -1  -7  112.69    3.00
  -3  -1   7  118.99    4.00
  -3   1  -7  116.59    5.40
   3   1   7  127.99    5.20
   3   1   7  125.89    4.40
   3   1   7  132.79    5.60
   3  -1  -7  123.19    3.30
  -3  -1   7  119.99   10.30
  -3   1  -7  122.99    5.80
  -4  -1  -7  175.88    4.80
   4  -1   7  184.18    6.60
  -4  -1  -7  197.88    7.20
  -4   1   7  180.88    6.80
  -4   1   7  200.18   14.00
   4   1  -7  196.68    6.80
  -4  -1  -7  186.58    7.30
   4   1  -7  177.38    7.40
   4  -1   7  175.58    7.10
  -4   1   7  186.58    5.60
   4  -1   7  186.48    7.10
   4  -1   7  169.68    4.30
  -4  -1  -7  176.08    7.30
  -4  -1   7  196.78   13.60
   4   1   7  179.88    7.00
  -4  -1   7  175.88    5.20
  -4   1  -7  178.98    7.10
   4   1   7  170.68    6.10
  -4   1  -7  174.18    6.10
   4  -1  -7  179.08    7.40
   4   1   7  185.78    7.00
  -4  -1   7  187.48    7.10
  -4   1  -7  187.98    7.60
   4  -1  -7  191.98    6.10
  -4   1  -7  169.88    5.90
   5  -1   7  240.88    8.90
  -5  -1  -7  252.87    9.10
   5   1  -7  263.17   10.10
   5  -1   7  260.57    9.70
   5  -1   7  256.27    8.10
  -5  -1  -7  250.77    6.60
  -5   1   7  261.07   18.40
   5   1  -7  255.17    8.80
  -5  -1  -7  250.97    8.50
  -5   1   7  233.58    8.40
  -5   1  -7  245.08    9.10
   5   1   7  253.87    9.20
   5   1   7  262.47    8.40
  -5  -1   7  243.58    9.10
  -5  -1   7  270.57   18.80
   5   1   7  258.17    8.90
  -5  -1   7  240.68    6.60
   5  -1  -7  233.48    9.10
   5  -1  -7  238.98    7.70
   5   1   7  238.98    7.30
   5  -1  -7  253.67    8.60
  -5   1  -7  246.08    7.80
   6   1  -7   64.39    4.60
   6  -1   7   62.79    5.30
   6  -1   7   54.89    5.70
  -6   1   7   60.49    4.90
  -6  -1  -7   65.59    5.30
   6  -1   7   56.59    4.10
  -6  -1  -7   57.69    4.70
   6   1  -7   60.69    6.00
  -6   1   7   73.09   13.00
   6  -1  -7   66.99    5.10
   6   1   7   56.59    4.60
   6  -1  -7   64.79    4.20
  -6  -1   7   76.49   13.60
  -6   1  -7   63.79    4.40
   6   1   7   69.29    5.50
   6   1   7   59.59    4.50
  -6  -1   7   65.19    5.60
   6  -1  -7   64.99    4.80
  -6   1  -7   56.39    4.80
   7  -1   7   80.79    6.20
   7   1  -7   72.39    5.70
  -7  -1  -7   75.19    6.40
  -7  -1  -7   77.29    5.50
   7  -1   7   75.79    5.80
  -7   1   7   75.09    5.10
  -7   1   7   98.69   16.90
   7   1  -7   81.19    7.30
   7  -1  -7   76.09    5.20
  -7  -1   7  115.39   18.40
   7   1   7   81.69    6.50
   7   1   7   72.59    5.40
  -7   1  -7   71.99    4.90
  -7   1  -7   72.29    5.90
  -7   1  -7   77.19    6.30
  -7  -1   7   70.29    6.30
   7   1   7   68.79    5.00
   7  -1  -7   76.59    6.00
   8   1  -7    3.80    2.50
  -8   1   7   10.30    2.80
   8  -1   7    8.80    3.50
   8  -1   7    9.80    3.80
  -8   1   7   31.40   11.80
  -8  -1  -7   11.20    2.80
   8   1  -7   14.40    3.40
   8  -1  -7    7.70    3.70
  -8   1  -7   12.60    3.50
  -8  -1   7   37.70   12.60
   8   1   7    9.90    3.00
  -8  -1   7    5.50    2.50
  -8   1  -7   13.80    3.30
  -9  -1  -7   52.49    5.90
   9   1  -7   43.30    6.70
  -9  -1  -7   45.80    6.50
   9  -1   7   56.49    7.20
  -9   1  -7   53.29    7.20
   9   1   7   50.79    6.00
   9  -1  -7   58.99    7.10
  -9   1  -7   51.99    5.90
  -9  -1   7   50.29    6.10
   0   2   7  915.41   18.80
   0   2  -7  938.81   18.50
   0   2   7  921.11   26.30
   0  -2  -7  902.41   16.00
   0  -2  -7  903.71   18.90
   0   2  -7  885.31   18.60
   0  -2   7  918.41   18.60
   0   2   7  917.41   18.50
   0  -2   7  888.91   21.50
   0  -2   7  935.91   18.70
   0  -2  -7  917.31   18.00
   0  -2  -7  912.51   18.20
   0   2   7  884.11   19.80
  -1  -2  -7  248.98    7.30
  -1   2   7  242.68   14.00
  -1   2   7  250.77    9.40
   1   2  -7  251.07    7.40
  -1  -2  -7  247.68    4.40
   1  -2   7  250.77    7.60
  -1   2   7  260.47    7.50
   1  -2   7  254.87    8.10
  -1   2   7  257.57    7.40
   1   2  -7  250.87    7.40
   1  -2   7  262.07    7.70
  -1  -2  -7  247.98    7.60
  -1  -2   7  254.67    7.00
   1   2   7  248.08    7.00
  -1   2  -7  266.57    7.80
  -1  -2   7  256.27    7.60
   1  -2  -7  250.27    7.70
   1  -2  -7  249.48    6.70
   1   2   7  251.57   11.60
  -1   2  -7  249.78    7.60
  -1   2  -7  248.08    7.00
  -1  -2   7  263.97   11.00
  -1  -2   7  256.87    6.90
   1  -2  -7  252.07    6.10
   1   2   7  252.67    7.80
   1  -2  -7  248.28    6.20
  -2   2   7  134.89    7.40
  -2   2   7  133.69    5.20
  -2   2   7  136.59   11.40
  -2   2   7  124.09    4.50
   2   2  -7  128.09    4.80
  -2  -2  -7  119.29    4.80
   2   2  -7  121.39    5.00
   2  -2   7  129.49    5.60
   2   2  -7  125.39    3.10
  -2  -2  -7  132.09    5.20
  -2  -2  -7  120.09    3.10
  -2  -2  -7  129.69    5.20
  -2   2  -7  122.79    4.00
  -2   2  -7  128.39    5.80
  -2  -2   7  139.39    4.60
   2  -2  -7  129.89    2.90
   2   2   7  124.29    3.50
  -2   2  -7  134.59    5.00
   2   2   7  131.79    4.60
   2  -2  -7  136.49    5.50
  -2  -2   7  122.89    4.50
   2   2   7  126.89    8.50
   2   2   7  130.39    5.60
  -2   2  -7  121.39    4.90
  -2   2  -7  125.09    5.50
   2  -2  -7  125.19    2.90
  -2  -2   7  136.69    9.40
   2  -2  -7  132.89    4.80
  -2  -2   7  130.59    5.30
   2  -2  -7  131.69    4.20
   2   2   7  112.29    3.30
  -3  -2  -7  537.95   13.50
   3  -2   7  557.34   13.70
   3  -2   7  538.35   13.90
   3   2  -7  542.35   12.30
   3  -2   7  547.35   12.80
  -3  -2  -7  549.35   13.10
   3  -2   7  548.35   13.90
  -3  -2  -7  533.85   14.00
  -3   2   7  529.65   11.80
  -3   2   7  548.35   22.30
  -3   2   7  539.65   12.40
  -3  -2  -7  518.95    9.70
  -3   2  -7  539.15   12.50
   3  -2  -7  526.45   12.80
  -3   2  -7  502.15   11.60
  -3   2  -7  531.55   13.80
   3   2   7  545.25   12.40
  -3  -2   7  535.25   21.30
   3   2   7  546.95   13.70
   3   2   7  512.55   11.00
  -3  -2   7  548.15   13.50
  -3   2  -7  522.95   13.70
  -3  -2   7  549.65   11.80
   3  -2  -7  549.74   11.10
  -4  -2  -7  169.98    4.10
   4  -2   7  191.28    7.80
  -4  -2  -7  191.58    8.00
  -4   2   7  181.38    6.60
   4   2  -7  188.78    6.20
   4  -2   7  182.08    7.30
   4   2  -7  188.08    7.30
  -4   2   7  196.18   15.30
  -4  -2  -7  198.98    6.90
  -4  -2  -7  192.18    7.50
   4  -2   7  184.28    6.30
   4   2  -7  188.08    7.90
  -4   2   7  181.98    5.50
  -4  -2   7  191.48    7.70
   4   2   7  191.08    7.60
  -4  -2   7  177.88    5.80
   4  -2  -7  177.38    7.00
   4  -2  -7  188.08    5.60
  -4   2  -7  182.18    6.40
   4   2   7  195.98    6.80
  -4   2  -7  174.78    7.50
   4  -2  -7  181.48    7.30
  -4   2  -7  193.18    8.00
  -4  -2   7  173.18   13.80
   4   2   7  172.78    6.50
  -4   2  -7  180.18    7.00
   5   2  -7    5.50    2.00
   5   2  -7   12.40    3.40
  -5  -2  -7    8.60    2.70
  -5   2   7   10.40    2.50
   5  -2   7    6.50    2.10
  -5   2   7   16.60    6.90
   5  -2   7    8.70    2.50
  -5  -2  -7    8.10    2.30
   5  -2   7    8.10    2.00
   5  -2  -7    6.40    2.50
   5  -2  -7    5.00    1.60
   5   2   7    7.20    2.00
  -5  -2   7    6.60    1.80
  -5   2  -7    7.70    1.90
  -5   2  -7    9.80    2.60
   5  -2  -7    8.40    2.70
   5   2   7    8.20    2.00
   5   2   7    8.50    2.30
  -5  -2   7    9.60    5.00
  -5  -2   7    6.80    2.80
   5   2   7    7.50    1.70
  -5   2  -7    4.00    2.40
  -6   2   7   34.30    3.50
   6   2  -7   45.10    4.90
   6  -2   7   33.60    4.30
  -6  -2  -7   35.50    3.80
  -6   2   7   43.30   10.60
  -6  -2  -7   32.40    3.90
   6  -2   7   37.60    4.60
   6  -2   7   32.90    3.20
   6   2  -7   34.50    4.60
   6  -2  -7   44.20    4.60
  -6  -2   7   35.50    4.60
  -6   2  -7   29.60    4.20
   6  -2  -7   36.40    4.60
   6   2   7   38.60    4.40
  -6  -2   7   39.90    3.20
   6   2   7   37.10    4.10
   6   2   7   33.70    3.50
  -6  -2   7   44.70   10.70
  -6   2  -7   31.20    3.70
  -7   2   7  136.29   19.60
   7   2  -7   92.99    6.80
  -7   2   7   88.29    5.70
   7  -2   7   84.59    7.30
  -7  -2  -7   96.39    6.20
   7   2  -7   92.89    7.00
   7  -2   7   92.09    6.60
   7  -2  -7  102.59    6.20
  -7   2  -7   98.69    6.00
  -7  -2   7  111.89   17.10
  -7   2  -7   95.79    7.20
  -7  -2   7  108.19    7.60
   7   2   7   82.69    6.30
   7  -2  -7   96.39    6.60
  -8   2   7   13.20    8.70
  -8   2   7   17.50    6.30
  -8  -2  -7    2.40    2.10
   8  -2   7   -0.40    2.50
   8   2  -7    4.00    2.30
   8   2  -7    2.00    2.50
  -8  -2  -7    1.50    2.30
   8  -2   7   -0.20    3.20
  -8   2  -7   -0.50    1.80
  -8  -2   7    1.90    2.40
   8   2   7    5.90    2.90
   8  -2  -7   -0.10    2.90
   9  -2   7   10.30    4.20
  -9  -2  -7   21.40    4.90
   9   2  -7   10.90    4.80
   9  -2   7   10.10    4.30
  -9   2   7   54.79   13.70
  -9  -2  -7   15.30    4.20
   9   2  -7   18.00    4.40
  -9  -2   7   20.50    4.90
   9  -2  -7   13.80    4.50
  -9   2  -7   22.20    4.50
  -9   2  -7   10.60    4.20
   0   3  -7  259.77    7.90
   0   3   7  254.47    9.20
   0  -3   7  268.67    7.80
   0  -3  -7  261.67    7.40
   0  -3   7  259.27    7.80
   0   3   7  257.77    7.90
   0  -3   7  260.07    7.30
   0   3   7  257.07   13.20
   0  -3  -7  258.27    8.00
   0   3  -7  253.97    7.60
   0  -3   7  247.28    9.00
  -1  -3  -7  260.27    7.70
   1  -3   7  257.97    7.70
   1   3  -7  256.37    7.70
   1  -3   7  249.18    8.00
  -1   3   7  252.27   10.30
  -1   3   7  253.57    7.20
   1  -3   7  253.87    6.50
  -1   3   7  255.27    7.60
  -1   3   7  277.17   15.70
  -1  -3  -7  255.57    7.80
   1   3  -7  265.57    7.60
  -1  -3   7  263.37    7.40
  -1  -3   7  260.07    7.70
   1   3   7  255.27    8.20
   1  -3  -7  248.98    7.90
  -1  -3   7  258.17    7.60
   1   3   7  264.77    8.40
  -1  -3   7  253.17   11.10
   1  -3  -7  252.67    7.10
   1   3   7  254.67   12.80
   1  -3  -7  254.37    5.90
   1   3   7  251.37    4.70
  -1   3  -7  252.57    8.00
  -1   3  -7  261.67    7.50
  -1   3  -7  261.87    8.30
  -2   3   7  576.94   12.80
  -2  -3  -7  552.24   13.00
  -2   3   7  571.94   17.90
  -2   3   7  571.54   22.90
   2   3  -7  580.24   12.70
   2   3  -7  562.04   13.50
  -2  -3  -7  545.45   13.40
   2  -3   7  557.54   14.00
  -2   3   7  536.15   12.60
   2  -3   7  569.54   12.90
   2  -3  -7  555.14   13.80
  -2  -3   7  572.84   12.70
   2  -3  -7  528.25   10.50
   2  -3  -7  546.85   12.10
   2  -3  -7  568.44   14.10
   2   3   7  566.84   14.10
   2  -3  -7  551.84    9.80
  -2   3  -7  567.54   14.20
  -2  -3   7  575.24   13.70
   2   3   7  566.14   13.50
   2   3   7  547.15   11.70
  -2   3  -7  540.65   13.00
  -2  -3   7  578.64   20.10
   2   3   7  565.64   19.80
   2  -3  -7  567.94   12.30
  -2   3  -7  568.64   13.20
   3  -3   7  220.38    8.20
  -3   3   7  208.18    6.80
   3   3  -7  210.68    7.50
   3   3  -7  212.38    6.50
  -3   3   7  214.78   11.40
  -3  -3  -7  210.58    7.60
   3  -3   7  217.68    8.00
  -3  -3  -7  218.18    7.10
  -3   3   7  210.88   14.20
  -3   3   7  213.38    6.40
   3   3  -7  219.48    7.60
   3  -3   7  218.68    8.20
  -3  -3   7  218.18   13.60
  -3  -3   7  220.98    6.70
   3  -3  -7  216.38    5.30
  -3   3  -7  213.68    7.40
  -3   3  -7  211.58    7.80
   3   3   7  216.58    6.50
   3  -3  -7  224.28    6.40
   3   3   7  217.48    8.00
  -3   3  -7  210.98    8.10
   3  -3  -7  208.08    7.70
  -3   3  -7  223.28    7.30
  -3  -3   7  218.38    8.10
   3  -3  -7  216.38    6.90
  -4   3   7  106.59   13.40
  -4   3   7  107.99    8.60
  -4  -3  -7   95.69    5.30
   4  -3   7  105.79    4.80
  -4  -3  -7  104.69    4.80
   4   3  -7  103.19    4.30
  -4  -3  -7   95.79    3.50
  -4   3   7   98.89    4.50
  -4   3   7  100.69    3.90
   4  -3   7  105.99    6.10
   4   3  -7  104.39    5.80
   4  -3   7  109.89    6.20
  -4  -3   7  103.69    6.00
   4  -3  -7  101.19    3.50
   4   3   7  105.19    5.60
  -4   3  -7  102.09    5.80
  -4   3  -7  101.69    5.10
  -4   3  -7   97.19    5.80
   4   3   7  102.19    5.20
   4   3   7  103.09    4.70
   4  -3  -7  100.19    5.20
  -4   3  -7   90.79    5.60
  -4  -3   7  103.69   11.10
  -4  -3   7  112.19    4.90
   4  -3  -7  100.99    5.50
   5  -3   7   58.09    4.90
   5   3  -7   61.69    4.80
   5   3  -7   56.79    5.80
  -5   3   7   58.19   10.10
  -5  -3  -7   55.49    3.70
   5  -3   7   61.29    3.90
  -5   3   7   68.59    9.30
  -5   3   7   55.89    3.70
   5  -3   7   59.49    5.50
  -5  -3  -7   65.99    5.10
  -5   3  -7   66.49    5.90
   5   3   7   64.29    5.20
  -5  -3   7   62.99   10.20
  -5   3  -7   55.89    5.90
  -5  -3   7   67.29    5.60
  -5  -3   7   62.89    4.10
   5   3   7   57.99    4.60
   5  -3  -7   61.49    5.00
  -5   3  -7   50.59    4.10
   5   3   7   53.79    4.90
   5   3   7   55.59    4.10
   5  -3  -7   57.89    5.30
   6   3  -7   73.19    6.00
  -6   3   7   97.29   11.30
  -6   3   7   75.69    4.80
  -6  -3  -7   87.59    6.20
  -6  -3  -7   92.99    6.30
  -6   3   7  108.09   15.30
   6  -3   7   81.29    6.70
  -6  -3  -7   74.09    4.40
   6   3  -7   76.89    5.70
   6  -3   7   68.09    6.40
  -6  -3   7   75.19    5.80
  -6  -3   7   94.69   14.70
   6  -3  -7   78.49    5.80
  -6   3  -7   86.29    5.30
   6   3   7   77.49    5.30
  -6   3  -7   77.49    6.40
   6  -3  -7   74.29    6.00
   6   3   7   79.79    5.40
  -6  -3   7   70.79    4.60
   6   3   7   86.39    5.10
   7  -3   7   88.09    6.90
  -7   3   7  118.29   14.00
  -7  -3  -7   90.29    7.70
   7   3  -7   96.29    7.70
   7  -3   7   87.89    7.50
  -7  -3  -7   93.29    6.70
   7   3  -7   89.79    7.10
  -7   3   7  123.29   18.90
   7  -3  -7   86.59    6.10
  -7  -3   7   83.49    6.50
  -7  -3   7  131.49   19.30
  -7   3  -7   91.29    6.40
  -7   3  -7   82.49    6.50
   7  -3  -7   87.59    6.40
   7   3   7   82.89    5.90
  -8   3   7   14.30    7.00
  -8  -3  -7    3.40    3.20
  -8  -3  -7    1.00    3.60
   8  -3   7    7.20    3.80
   8   3  -7   11.70    3.80
   8  -3   7    4.20    3.20
   8   3  -7    9.50    4.00
  -8   3   7    9.50   11.60
  -8   3  -7    5.80    3.60
  -8  -3   7   12.50    4.30
  -8   3  -7    6.50    3.20
   8  -3  -7   11.20    3.80
  -9   3   7   50.99   14.00
   9  -3   7   25.50    5.00
   9  -3   7   20.80    4.40
  -9  -3  -7   37.30    5.40
  -9   3   7   55.39   10.70
   9   3  -7   36.90    5.80
  -9  -3  -7   37.70    6.10
   9   3  -7   36.40    5.70
  -9  -3   7   27.00    5.00
   9  -3  -7   37.10    5.40
  -9   3  -7   39.50    5.70
   0  -4   7  187.88    6.30
   0  -4  -7  178.18    6.30
   0  -4  -7  189.08    6.90
   0  -4   7  194.88    7.00
   0   4  -7  184.98    6.50
   0  -4  -7  187.48    5.70
   0  -4  -7  194.38    6.90
   0   4   7  184.58    9.00
   0   4  -7  179.98    6.30
   0  -4   7  174.18    7.20
   0   4   7  191.08    6.90
   0  -4   7  185.28    6.60
   0   4   7  180.38   12.30
  -1   4   7   19.00    6.50
   1   4  -7   23.00    2.70
  -1  -4  -7   26.40    2.70
   1   4  -7   22.60    3.00
  -1   4   7   23.20    2.60
  -1  -4  -7   24.40    2.70
   1  -4   7   24.50    2.90
  -1  -4  -7   22.00    2.50
   1  -4   7   28.10    3.10
   1   4  -7   22.10    2.30
  -1  -4  -7   24.00    2.40
  -1   4   7   22.30    5.00
  -1  -4   7   24.80    2.70
  -1  -4   7   21.20    3.70
  -1  -4   7   19.90    2.40
  -1   4  -7   26.40    3.10
   1   4   7   21.90    4.60
  -1   4  -7   27.30    3.50
   1  -4  -7   25.40    3.10
   1  -4  -7   20.60    1.60
  -1  -4   7   24.10    2.60
   1   4   7   21.10    3.40
   1  -4  -7   23.10    3.10
   1   4   7   20.50    2.80
   1  -4  -7   22.90    2.60
  -1   4  -7   24.20    2.70
  -2  -4  -7  204.38    7.30
   2  -4   7  197.38    6.40
   2  -4   7  193.48    7.40
  -2  -4  -7  186.38    6.30
  -2   4   7  196.98    6.40
  -2  -4  -7  207.18    7.30
  -2   4   7  199.98   10.40
  -2   4   7  194.38    6.10
   2  -4   7  199.78    7.50
  -2   4   7  205.68   14.30
   2   4  -7  196.18    6.20
   2   4  -7  196.18    7.60
  -2  -4  -7  209.88    6.90
   2   4  -7  195.38    7.10
  -2   4  -7  196.78    7.80
  -2   4  -7  194.28    7.60
   2  -4  -7  190.28    4.00
   2   4   7  201.38    7.80
   2  -4  -7  200.68    7.70
   2   4   7  183.28    5.00
   2   4   7  194.88    7.90
   2  -4  -7  204.28    6.50
  -2   4  -7  205.88    7.00
  -2  -4   7  202.58   11.70
  -2  -4   7  194.98    7.10
   2  -4  -7  192.88    5.70
  -2  -4   7  196.88    6.80
   2   4   7  191.98   11.90
  -3   4   7  993.80   34.00
   3   4  -7  957.50   21.10
  -3  -4  -7  946.71   19.00
  -3   4   7  935.41   19.10
   3  -4   7  936.31   24.20
   3  -4   7  950.40   22.00
   3  -4   7  968.20   21.90
  -3  -4  -7  955.60   21.50
  -3   4   7  931.21   19.10
   3   4  -7  960.80   21.30
  -3  -4  -7  952.80   19.90
  -3  -4  -7  978.30   21.40
  -3   4   7  935.61   27.20
   3   4  -7  957.90   22.40
   3   4  -7  965.40   19.00
  -3  -4   7  968.10   21.40
   3  -4  -7  985.90   21.90
  -3   4  -7  933.41   21.70
   3  -4  -7  985.50   19.70
  -3   4  -7  969.00   20.80
   3  -4  -7  991.10   19.90
  -3  -4   7 1002.20   20.40
   3   4   7  944.31   20.70
   3   4   7  964.10   21.90
  -3   4  -7  942.21   21.90
   3   4   7  929.71   18.40
   3  -4  -7  954.30   16.50
  -4   4   7   -2.40    2.80
   4  -4   7    1.10    1.60
   4  -4   7    0.00    1.30
   4   4  -7    0.80    0.90
  -4  -4  -7   -0.10    1.40
  -4   4   7   -0.30    1.60
  -4   4   7    2.30    1.00
  -4   4   7    3.70    6.50
  -4  -4  -7   -1.90    1.10
   4   4  -7   -1.80    1.90
  -4  -4  -7   -0.30    1.40
   4  -4   7    1.50    1.70
   4   4   7   -3.70    1.90
  -4   4  -7   -1.30    2.20
   4  -4  -7   -3.00    1.70
  -4  -4   7   -0.40    1.60
   4   4   7   -1.50    1.60
   4  -4  -7    0.50    1.50
   4   4   7    0.60    1.00
  -4   4  -7    1.70    2.20
  -4  -4   7    2.70    1.30
   4   4   7   -4.00    1.80
  -4   4  -7    1.30    1.70
  -5  -4  -7  417.16   12.90
  -5   4   7  423.06   23.50
  -5  -4  -7  450.35   14.00
   5   4  -7  427.76   13.70
   5  -4   7  400.26   10.80
   5  -4   7  422.56   14.10
  -5   4   7  434.66   19.50
  -5  -4  -7  400.66   11.00
  -5   4   7  399.96   10.50
   5  -4   7  406.46   13.50
   5   4  -7  444.56   14.80
  -5   4  -7  426.66   14.10
   5  -4  -7  448.56   13.50
   5   4   7  393.76   12.90
  -5   4  -7  403.46   14.40
  -5  -4   7  425.46   11.80
   5   4   7  423.96   13.30
   5   4   7  448.66   13.80
  -5  -4   7  407.66   13.20
   5  -4  -7  426.56   12.70
  -5   4  -7  410.56   12.60
  -6   4   7    0.30    6.00
   6   4  -7    6.40    3.40
   6   4  -7    3.40    2.30
   6  -4   7    2.00    3.00
  -6  -4  -7    5.20    2.40
  -6   4   7    4.00    5.90
  -6  -4  -7    2.00    1.70
   6  -4   7    6.40    3.10
   6  -4  -7    5.00    2.60
   6   4   7    1.50    2.10
   6   4   7   -5.80    2.40
  -6  -4   7    6.00    5.40
  -6  -4   7    5.80    3.10
  -6   4  -7    0.00    2.90
  -6   4  -7    1.80    2.70
   6  -4  -7    1.00    1.70
  -6  -4   7    2.70    2.10
  -7   4   7   47.20   13.90
  -7   4   7   28.90    9.60
  -7  -4  -7   26.20    4.30
   7   4  -7   35.70    5.30
   7  -4   7   27.10    4.90
  -7  -4  -7   20.60    4.00
   7   4  -7   23.20    5.20
   7  -4   7   20.40    4.30
   7  -4  -7   26.90    4.20
  -7  -4   7   19.80    4.70
   7   4   7   27.20    4.90
  -7  -4   7   22.90    3.50
  -7   4  -7   19.00    3.90
  -7   4  -7   21.80    3.60
  -7  -4   7   30.90    9.50
   7  -4  -7   23.30    3.90
   8  -4   7   51.29    6.50
  -8  -4  -7   61.59    7.20
  -8   4   7  112.39   19.80
  -8  -4  -7   67.69    6.60
  -8   4   7   97.19   14.30
   8  -4   7   58.29    7.20
   8   4  -7   66.69    7.20
   8   4  -7   58.49    6.90
  -8  -4   7   80.69    7.60
   8  -4  -7   49.10    5.80
  -8   4  -7   50.19    5.40
  -8   4  -7   58.39    6.80
   9   4  -7   15.50    4.20
   9  -4   7   20.40    5.40
   9  -4   7   19.40    4.50
   9   4  -7   20.60    4.40
  -9  -4  -7   20.30    4.90
  -9   4  -7   13.00    3.90
   9  -4  -7   13.10    4.60
   0   5  -7    3.60    1.80
   0  -5  -7    2.70    1.30
   0  -5  -7    4.60    1.90
   0  -5  -7    0.70    1.40
   0  -5  -7   -0.80    1.00
   0   5  -7    2.10    1.40
   0   5   7    1.40    2.60
   0   5   7    2.20    3.70
   0   5  -7    2.90    1.90
   0   5  -7    2.20    1.60
   0  -5   7    3.40    2.00
   0  -5   7    1.10    1.20
   0  -5   7    1.80    1.50
   0   5   7    0.30    1.20
   0  -5   7    1.70    1.50
  -1   5   7  270.77    8.60
   1  -5   7  271.47    9.30
   1  -5   7  299.97    8.50
   1   5  -7  285.77    9.10
  -1  -5  -7  288.97    9.10
  -1  -5  -7  279.17    8.60
  -1   5   7  298.87   13.50
  -1  -5  -7  265.57    8.60
   1   5  -7  284.17    9.40
  -1   5   7  275.67   15.70
  -1  -5  -7  281.87    8.40
   1   5  -7  268.07    7.90
  -1   5  -7  275.97   10.40
   1   5   7  262.07    5.80
   1   5   7  262.67    5.70
   1   5   7  285.47   11.10
   1   5   7  288.27   15.40
   1   5   7  273.27    9.20
  -1  -5   7  282.37    8.80
  -1  -5   7  273.77    8.50
  -1  -5   7  274.67   12.30
   1  -5  -7  267.37    6.80
  -1   5  -7  273.67    8.70
   1  -5  -7  281.77    8.60
  -1   5  -7  274.47    9.10
   1  -5  -7  270.47    9.10
   2  -5   7   25.00    2.70
  -2   5   7   22.90    2.70
   2   5  -7   19.10    3.20
  -2  -5  -7   21.20    2.60
   2  -5   7   18.40    2.90
  -2  -5  -7   22.60    2.80
   2   5  -7   27.90    2.60
  -2   5   7   20.30    4.90
  -2  -5  -7   22.60    2.80
  -2  -5  -7   16.70    2.50
  -2   5   7   20.20    6.30
   2   5  -7   19.40    3.00
   2   5   7   19.40    3.30
   2  -5  -7   17.50    3.20
  -2  -5   7   20.30    2.70
  -2   5  -7   22.70    2.90
   2  -5  -7   18.00    1.20
   2   5   7   17.50    2.70
   2  -5  -7   26.90    3.00
  -2   5  -7   25.80    3.70
  -2  -5   7   18.00    3.10
  -2   5  -7   22.60    3.50
   3   5  -7  123.19    6.20
  -3  -5  -7  115.59    6.00
  -3  -5  -7  122.99    5.10
   3   5  -7  114.79    4.40
  -3  -5  -7  121.49    6.00
  -3   5   7  106.49    4.80
   3  -5   7  127.89    6.70
   3   5  -7  122.69    6.40
  -3   5   7  105.69   13.20
   3  -5   7  112.79    6.80
   3   5  -7  118.79    6.50
  -3   5   7  120.89    9.60
  -3  -5  -7  120.99    4.80
   3  -5  -7  114.09    6.20
   3   5   7  116.19    7.00
  -3   5  -7  110.79    6.80
  -3   5  -7  120.99    5.90
   3   5   7  131.09    6.30
   3  -5  -7  125.49    5.30
  -3  -5   7  117.99    5.50
  -3  -5   7  129.59    6.30
   3   5   7  123.59    6.70
  -3   5  -7  117.09    6.30
  -4   5   7  119.29   10.50
   4   5  -7  111.29    6.70
  -4  -5  -7  112.89    6.50
  -4  -5  -7  101.39    6.00
   4  -5   7  116.09    6.80
   4   5  -7  105.49    6.70
  -4   5   7  113.89   14.30
  -4  -5  -7  109.99    4.90
   4   5  -7  117.49    6.10
   4  -5   7  113.59    6.90
  -4   5  -7  114.59    6.70
  -4  -5   7  113.99    6.00
  -4   5  -7  111.59    6.00
   4   5   7  123.59    7.10
   4   5   7  110.19    6.40
  -4  -5   7  110.99    6.40
   4  -5  -7  115.69    6.80
  -4   5  -7  106.29    6.80
   4  -5  -7  109.09    5.50
   4   5   7  101.89    6.70
   5   5  -7   11.10    3.10
  -5   5   7    7.60    6.70
   5  -5   7    8.00    2.80
   5  -5   7    6.00    3.10
  -5  -5  -7    4.30    2.20
  -5  -5  -7    8.60    3.20
   5   5  -7    6.90    2.60
  -5   5   7   10.30    8.80
  -5   5  -7   10.10    4.00
   5   5   7   10.10    2.80
   5   5   7   10.10    3.30
   5  -5  -7   10.70    2.80
  -5  -5   7    6.60    2.20
  -5   5  -7   12.20    3.30
  -5   5  -7    1.30    3.10
   5  -5  -7    3.90    2.20
  -5  -5   7    7.10    2.70
   6  -5   7    9.00    3.10
  -6  -5  -7    7.50    3.50
   6   5  -7    8.80    3.20
   6   5  -7   12.00    3.80
  -6   5   7    5.10    7.10
   6  -5   7   12.40    3.40
  -6   5   7   11.50    6.20
  -6  -5  -7   13.20    3.40
  -6   5  -7   15.00    3.70
  -6   5  -7   10.20    3.30
   6   5   7   13.50    3.70
  -6  -5   7   14.90    4.20
   6  -5  -7    8.10    3.00
   6   5   7    6.90    2.90
  -6  -5   7   11.10    2.50
   6  -5  -7    6.60    2.40
   7   5  -7   90.29    8.80
   7  -5   7   75.29    7.90
  -7  -5  -7   85.49    7.80
   7  -5   7   73.29    7.40
  -7  -5  -7   87.89    6.90
   7   5  -7  104.69    8.90
  -7   5   7  130.59   19.90
  -7   5   7   98.99   15.10
   7   5   7   81.49    6.80
   7   5   7   95.59    8.30
  -7  -5   7   88.09    8.10
   7  -5  -7   78.39    6.00
  -7   5  -7   95.69    6.60
  -7  -5   7   91.59    6.20
   7  -5  -7   85.29    6.70
  -7   5  -7   73.59    7.80
  -8   5   7   13.10    6.40
  -8   5   7    1.80    7.80
  -8  -5  -7    5.30    3.40
   8   5  -7    1.40    3.60
  -8  -5  -7    5.20    3.20
   8  -5   7    4.10    3.00
   8   5  -7    3.70    3.80
   8  -5   7    2.20    3.80
  -8   5  -7    5.40    2.90
   8   5   7    0.80    3.60
  -8  -5   7    5.50    3.30
   8  -5  -7    1.30    2.10
  -8   5  -7    4.80    3.20
   0  -6   7   63.09    4.40
   0   6  -7   58.19    4.20
   0   6  -7   61.19    4.60
   0  -6   7   61.19    4.40
   0  -6  -7   55.49    3.50
   0   6  -7   64.19    4.50
   0  -6  -7   55.59    4.00
   0  -6  -7   53.89    4.40
   0   6   7   61.29    4.30
   0   6   7   60.89    6.90
   0   6   7   59.49    3.00
   0   6   7   53.79    7.90
   0  -6   7   60.49    4.10
   0   6  -7   61.09    6.00
  -1  -6  -7   14.60    2.30
  -1  -6  -7   18.60    2.50
   1  -6   7   14.10    2.50
  -1  -6  -7   18.00    2.70
   1   6  -7   19.50    2.80
   1   6  -7   10.80    2.40
  -1   6   7   11.50    5.60
  -1   6   7   22.20    5.90
   1   6  -7   13.60    2.20
   1  -6   7   16.90    2.70
  -1   6   7   14.50    2.70
  -1  -6  -7   15.40    2.70
   1  -6  -7   14.10    3.00
  -1   6  -7   12.80    2.80
  -1  -6   7   12.60    2.70
  -1  -6   7   15.30    2.80
  -1   6  -7   17.80    3.90
   1  -6  -7   16.60    1.80
   1   6   7   16.90    3.90
   1  -6  -7   16.70    2.60
   1   6   7   11.90    2.90
   1   6   7   17.20    4.70
  -1   6  -7   13.60    2.50
  -1   6  -7   13.50    2.30
  -2  -6  -7  289.77    8.80
  -2  -6  -7  308.37    9.70
   2   6  -7  287.57   10.50
  -2  -6  -7  290.77   10.00
   2  -6   7  287.27    8.20
   2  -6   7  293.27   10.20
  -2   6   7  283.97   15.20
   2   6  -7  309.67   10.10
   2   6  -7  300.07   10.10
  -2   6   7  295.87   17.50
  -2  -6  -7  290.17    9.10
   2  -6   7  290.37   10.80
  -2   6   7  298.67    9.30
   2  -6  -7  301.97   10.60
  -2  -6   7  292.47    9.80
   2   6   7  295.67   10.70
   2   6   7  291.37    9.10
  -2   6  -7  298.17   10.20
   2   6   7  291.07   11.90
  -2   6  -7  299.07   12.00
  -2   6  -7  281.77    9.90
  -2  -6   7  297.87    9.50
   2  -6  -7  299.07    9.40
   3   6  -7  627.04   17.00
   3   6  -7  637.24   18.30
  -3   6   7  677.63   24.90
   3  -6   7  668.23   17.60
  -3  -6  -7  674.53   17.10
   3  -6   7  654.23   18.10
  -3   6   7  693.13   30.30
  -3  -6  -7  639.64   14.90
  -3  -6  -7  662.13   17.10
  -3  -6  -7  647.54   15.00
   3   6  -7  659.93   16.80
   3  -6  -7  662.13   16.00
  -3   6  -7  662.63   17.10
   3  -6  -7  677.33   17.90
  -3  -6   7  679.23   17.20
  -3   6  -7  646.34   19.40
   3   6   7  653.83   19.90
  -3   6  -7  666.43   18.00
  -3  -6   7  650.43   16.50
   3   6   7  651.03   16.40
   3   6   7  676.83   18.10
   4   6  -7   99.29    6.80
  -4   6   7   95.69   14.30
  -4  -6  -7   99.09    6.00
   4   6  -7  121.19    7.90
  -4  -6  -7  109.19    7.00
   4   6  -7  100.29    5.90
   4  -6   7   95.99    6.80
   4  -6   7  103.39    6.80
  -4   6   7   95.49   10.60
   4   6   7   92.69    5.80
  -4   6  -7  102.19    7.20
   4  -6  -7   96.99    6.60
  -4   6  -7   97.39    7.10
  -4   6  -7   99.79    6.70
   4   6   7   99.49    7.20
  -4  -6   7  103.89    6.20
  -4  -6   7  104.79    7.00
   5  -6   7   32.00    4.60
   5  -6   7   33.40    4.90
   5   6  -7   31.70    4.80
  -5   6   7   26.80   11.00
   5   6  -7   30.70    4.70
  -5  -6  -7   28.60    4.40
  -5   6   7   38.60    9.60
  -5  -6  -7   22.60    4.40
   5   6   7   36.40    5.30
   5   6   7   34.90    4.40
  -5  -6   7   30.20    4.70
  -5   6  -7   35.50    4.40
  -5  -6   7   29.90    4.20
   5  -6  -7   28.70    4.60
  -5   6  -7   30.90    5.20
  -5   6  -7   23.50    5.70
   6   6  -7   30.20    5.40
  -6  -6  -7   42.30    5.80
   6   6  -7   35.20    5.70
  -6   6   7   39.80    9.10
  -6  -6  -7   24.10    3.90
  -6   6   7   25.50    9.80
   6  -6   7   33.00    5.70
   6   6  -7   29.60    5.10
   6  -6   7   24.40    4.80
   6   6   7   35.20    5.30
  -6  -6   7   38.50    4.60
   6   6   7   35.60    5.20
  -6  -6   7   34.70    5.00
  -6   6  -7   26.60    5.30
  -6   6  -7   30.40    4.90
   6  -6  -7   35.60    5.20
   7   6  -7   71.29    8.20
   7   6  -7   73.79    8.10
   7  -6   7   62.59    7.50
  -7   6   7   90.79   15.50
  -7  -6  -7   71.59    7.10
  -7  -6  -7   60.49    5.80
  -7   6   7   60.69   16.40
   7  -6   7   75.49    7.80
  -7   6  -7   64.79    7.20
   7  -6  -7   66.99    6.80
  -7   6  -7   63.19    6.80
  -7  -6   7   72.99    6.40
  -7  -6   7   71.59    7.30
   7   6   7   72.19    7.50
   7   6   7   73.99    7.20
   8  -6   7   52.69    7.60
  -8   6   7   39.80   15.50
   8   6  -7   49.30    6.70
   8  -6   7   50.09    7.20
  -8  -6  -7   42.20    6.00
   8   6  -7   45.30    6.90
  -8   6   7   67.89   15.20
  -8  -6   7   51.09    6.90
   8   6   7   39.30    5.80
  -8   6  -7   44.40    7.00
  -8   6  -7   44.10    6.20
   8  -6  -7   40.60    5.20
   0  -7   7  141.29    7.10
   0   7  -7  147.39    9.70
   0   7  -7  143.29    7.10
   0   7  -7  146.79    6.50
   0   7   7  132.59    9.90
   0  -7  -7  141.29    5.70
   0   7  -7  134.39    6.80
   0  -7  -7  134.19    7.00
   0  -7  -7  149.39    7.00
   0   7   7  130.79    4.90
   0  -7   7  135.89    6.10
   0   7   7  136.49   12.60
   1   7  -7  198.18    8.60
   1  -7   7  201.38    8.00
   1   7  -7  214.28    8.60
  -1   7   7  208.18    6.90
  -1  -7  -7  211.28    8.60
   1   7  -7  193.58    7.00
   1  -7   7  201.68    8.00
  -1  -7  -7  203.68    7.40
  -1   7   7  195.58   14.20
   1  -7   7  212.38    7.20
  -1   7   7  198.28   12.00
  -1  -7  -7  219.88    8.40
   1  -7  -7  201.38    8.80
   1   7   7  224.38   15.80
  -1   7  -7  218.38   11.30
  -1   7  -7  208.18    8.20
  -1   7  -7  202.08    8.10
  -1  -7   7  218.28    8.60
   1   7   7  197.08   11.00
  -1  -7   7  219.08    8.00
   1  -7  -7  203.68    8.00
  -1   7  -7  206.98    7.70
   2  -7   7  170.08    7.70
  -2  -7  -7  169.38    7.90
  -2   7   7  165.68   13.00
   2  -7   7  181.18    8.90
   2   7  -7  169.98    8.00
  -2  -7  -7  174.08    7.20
   2   7  -7  169.18    7.40
  -2   7   7  173.68   15.70
   2   7  -7  177.48    8.50
  -2  -7  -7  168.48    7.60
  -2   7  -7  179.38    8.30
   2   7   7  176.48    9.90
   2   7   7  170.68    7.00
   2  -7  -7  171.38    7.60
  -2   7  -7  172.38    7.70
   2  -7  -7  177.68    8.50
  -2   7  -7  172.98    9.60
  -2  -7   7  177.08    7.50
  -2  -7   7  174.58    7.40
   3   7  -7  139.19    8.50
  -3  -7  -7  132.69    7.30
   3  -7   7  136.09    7.20
  -3  -7  -7  140.09    7.40
   3   7  -7  133.19    7.80
  -3   7   7  134.59   16.50
   3  -7   7  127.99    8.10
   3   7  -7  150.38    7.50
  -3   7   7  142.39   13.80
   3   7   7  146.99    8.30
  -3   7  -7  153.78    7.90
   3  -7  -7  132.89    7.50
   3   7   7  131.09    8.80
  -3   7  -7  125.69    8.80
   3  -7  -7  136.69    6.60
  -3   7  -7  141.59    7.60
  -3  -7   7  142.39    7.50
  -3  -7   7  138.89    6.90
   3   7   7  132.99    6.90
   4   7  -7   10.90    3.50
  -4  -7  -7   16.90    3.70
   4  -7   7   14.50    3.90
  -4   7   7    0.40    8.60
   4   7  -7    8.90    3.70
   4  -7   7   15.40    3.90
  -4   7   7   11.60    8.10
   4   7  -7   12.80    2.80
  -4  -7  -7   10.30    3.30
  -4   7  -7    7.80    3.50
   4  -7  -7   14.00    3.30
  -4   7  -7   10.30    3.40
   4   7   7   10.50    3.80
  -4  -7   7   10.50    2.90
  -4   7  -7   12.10    4.00
  -4  -7   7   10.60    2.60
   4   7   7   14.40    3.40
  -5  -7  -7  151.98    8.90
   5   7  -7  155.48    9.40
  -5  -7  -7  148.29    8.20
   5   7  -7  138.69    9.00
   5  -7   7  145.69    9.20
  -5   7   7  183.28   22.10
   5  -7   7  140.39    8.40
  -5   7   7  155.38   17.10
  -5  -7   7  145.59    8.50
   5   7   7  151.68    8.70
   5   7   7  158.18    9.10
  -5   7  -7  144.89    8.00
  -5   7  -7  135.99    8.70
  -5  -7   7  138.89    7.30
   5  -7  -7  141.99    8.10
  -6  -7  -7    1.10    2.00
   6   7  -7   -0.20    2.30
  -6  -7  -7    1.40    2.40
   6  -7   7    2.70    3.60
   6   7  -7   -0.40    3.30
  -6   7   7    0.60    7.90
   6   7  -7    3.70    3.70
   6  -7   7   -1.10    2.10
  -6   7   7   -4.10    9.80
  -6  -7   7   -1.90    3.30
   6   7   7    0.50    2.90
  -6  -7   7    3.80    3.00
   6  -7  -7    0.20    2.90
  -6   7  -7    3.50    3.70
   6   7   7   -0.90    2.10
  -6   7  -7   -4.80    2.80
  -7   7   7   -3.10    8.90
   7   7  -7   11.40    4.60
  -7  -7  -7    5.00    2.50
   7  -7   7   14.80    4.00
   7  -7   7    8.80    4.70
   7   7  -7    1.70    4.10
  -7   7   7   14.50   11.10
  -7  -7  -7   14.00    4.60
   7  -7  -7    9.40    3.80
  -7   7  -7    8.90    3.70
   7   7   7    6.30    4.40
   7   7   7    7.30    4.00
  -7  -7   7    3.80    2.50
  -7   7  -7    9.70    3.40
  -7  -7   7    5.90    4.20
   0   8   7  196.98   15.70
   0   8  -7  173.58    7.40
   0   8  -7  176.58   11.50
   0  -8  -7  177.58    8.00
   0  -8  -7  156.78    6.50
   0   8  -7  167.88    8.10
   0   8  -7  184.58    7.90
   0  -8   7  182.38    7.10
   0  -8   7  180.98    7.90
   0   8   7  168.38   11.60
   0  -8  -7  178.58    8.50
   1   8  -7  176.18   12.40
  -1  -8  -7  174.28    7.40
  -1   8   7  187.58   15.50
  -1   8   7  178.48    6.80
   1   8  -7  179.48    8.30
  -1  -8  -7  187.58    8.20
  -1   8   7  183.98   13.00
   1  -8   7  169.38    7.70
   1  -8   7  179.58    8.10
   1   8  -7  170.58    7.70
  -1  -8  -7  175.38    8.50
   1   8  -7  165.58    8.20
   1   8  -7  175.08    8.20
  -1   8  -7  190.98    7.80
   1   8   7  183.28   11.60
  -1  -8   7  170.48    7.80
  -1   8  -7  183.48    8.50
  -1   8  -7  178.58   10.80
   1  -8  -7  194.28    9.10
   1  -8  -7  176.58    7.90
  -1  -8   7  183.68    7.50
  -1   8  -7  167.68    7.60
  -2  -8  -7   35.40    4.00
  -2   8   7   29.20    8.10
   2  -8   7   31.80    4.90
   2   8  -7   36.00    5.20
   2   8  -7   40.60    4.40
   2   8  -7   39.50    4.80
  -2   8   7   43.10    7.80
  -2  -8  -7   32.00    3.80
  -2   8   7   34.20    3.80
  -2  -8  -7   32.90    4.00
   2  -8   7   36.30    4.20
   2  -8  -7   34.20    4.20
   2  -8  -7   41.20    5.20
   2   8   7   39.60    6.60
  -2  -8   7   36.40    4.10
  -2   8  -7   34.40    6.00
   2   8   7   29.30    3.40
  -2  -8   7   40.20    4.70
  -2   8  -7   29.20    4.30
  -2   8  -7   37.00    4.40
  -3   8   7  199.38   14.60
  -3  -8  -7  187.18    9.00
  -3  -8  -7  225.48    9.70
   3   8  -7  200.18   10.10
   3  -8   7  194.48   10.30
  -3   8   7  219.28   18.70
   3  -8   7  183.98    9.20
   3   8  -7  208.28    8.80
   3   8  -7  206.08    9.40
   3   8   7  223.08   12.90
   3  -8  -7  221.38   10.30
   3   8   7  188.38    8.40
  -3  -8   7  223.48    9.60
  -3   8  -7  207.78    9.70
  -3   8  -7  200.98   11.40
   3   8   7  228.18   11.40
  -3   8  -7  204.88   10.00
  -3  -8   7  202.58    8.70
   3  -8  -7  204.98    8.70
   4  -8   7    4.30    2.40
  -4   8   7    1.30    7.30
  -4  -8  -7    2.80    3.00
   4   8  -7    3.50    2.50
   4  -8   7    5.70    2.90
  -4  -8  -7    1.50    2.80
   4   8  -7   12.50    3.50
   4   8  -7    5.80    2.80
  -4   8   7    2.10    5.70
   4  -8  -7   10.10    3.70
  -4   8  -7    7.40    3.40
   4   8   7    3.20    2.70
  -4   8  -7    9.00    3.90
  -4  -8   7    5.90    3.20
  -4   8  -7    5.10    3.50
   4   8   7   12.50    4.00
  -4  -8   7    7.30    2.70
   5  -8   7    0.00    3.40
  -5  -8  -7    0.40    2.90
   5   8  -7    2.20    3.60
  -5   8   7   -1.80    8.00
   5  -8   7    2.20    2.20
  -5   8   7   -1.50    8.30
   5   8  -7    0.90    3.40
  -5  -8  -7    4.60    3.00
  -5   8  -7    0.10    3.50
   5  -8  -7    0.00    2.80
   5   8   7   -2.00    2.20
  -5  -8   7    4.20    2.50
  -5  -8   7   -5.80    2.60
  -5   8  -7   -1.80    3.20
   5   8   7    1.80    3.10
  -6  -8  -7   14.80    4.70
   6  -8   7   17.10    5.20
  -6   8   7    5.40    9.90
  -6  -8  -7   13.80    3.30
   6  -8   7    9.60    3.40
  -6   8   7   13.90   10.00
   6   8  -7   15.90    5.00
   6   8  -7   18.20    4.50
   6   8  -7   18.00    5.10
  -6   8  -7   19.30    4.80
  -6  -8   7   14.00    4.10
   6   8   7   15.20    3.80
   6   8   7   14.50    4.60
  -6   8  -7   18.90    5.40
   6  -8  -7   10.10    3.90
  -6  -8   7    9.90    3.60
   7   8  -7   54.69    7.30
   7  -8   7   49.10    7.60
   7   8  -7   45.90    7.30
  -7   8   7   50.19   14.70
  -7  -8  -7   57.39    6.10
   7  -8   7   47.10    6.80
   7   8  -7   58.19    8.40
   7   8   7   58.99    7.30
   7  -8  -7   70.49    7.60
  -7  -8   7   49.20    5.60
   7   8   7   48.50    6.80
  -7   8  -7   60.89    6.70
  -7  -8   7   54.39    7.10
   0  -9  -7    3.20    1.90
   0  -9   7    1.10    1.50
   0   9  -7    4.60    2.90
   0   9  -7    0.50    3.60
   0  -9   7    0.80    2.00
   0   9   7    3.60    3.20
   0   9  -7    2.30    1.70
   0   9  -7    2.80    2.40
   0  -9  -7    2.80    2.20
   0   9  -7   -0.20    1.80
   0  -9  -7    3.70    2.10
   0   9   7    6.50    5.00
   1  -9   7   49.30    5.00
  -1   9   7   47.10    9.10
  -1  -9  -7   45.00    5.00
  -1  -9  -7   47.00    4.50
   1   9  -7   48.80    5.30
   1  -9   7   52.59    6.30
   1   9  -7   67.39    9.80
  -1   9   7   66.19    9.80
   1   9  -7   47.80    5.20
   1   9  -7   51.59    5.10
   1  -9   7   54.29    5.30
  -1  -9  -7   54.99    5.70
   1  -9  -7   49.80    5.20
   1   9   7   58.39    7.10
  -1   9  -7   68.19    9.10
  -1  -9   7   50.49    4.60
  -1  -9   7   55.59    5.70
  -1   9  -7   53.09    5.30
  -1   9  -7   50.89    5.60
   1  -9  -7   57.79    6.00
   2   9  -7   22.40    4.10
  -2   9   7   21.80    3.10
   2  -9   7   21.50    3.40
  -2  -9  -7   22.60    3.60
  -2  -9  -7   17.10    4.00
  -2   9   7   22.50    6.50
   2   9  -7   19.60    3.30
  -2   9   7   26.10    7.80
   2   9  -7   24.30    4.30
   2  -9   7   18.00    3.90
  -2  -9  -7   18.20    3.50
   2  -9  -7   24.20    3.70
   2   9   7   23.70    5.80
   2   9   7   23.50    5.00
  -2   9  -7   30.30    6.10
  -2   9  -7   22.00    3.60
   2  -9  -7   21.30    3.80
  -2  -9   7   17.30    3.30
  -2   9  -7   14.90    4.00
  -2  -9   7   17.40    3.50
   3   9  -7   15.20    4.10
  -3   9   7   28.10    8.10
   3  -9   7   21.00    5.00
  -3   9   7   22.40    4.00
   3  -9   7   19.90    4.00
  -3   9   7   19.10    6.80
   3   9  -7   24.40    4.50
   3   9  -7   20.00    3.40
  -3  -9  -7   27.30    4.60
  -3  -9  -7   28.90    4.50
   3  -9  -7   22.90    4.10
  -3   9  -7   20.70    4.50
  -3   9  -7   23.60    5.50
  -3  -9   7   14.00    3.90
   3  -9  -7   29.20    5.00
   3   9   7   17.40    3.40
  -3   9  -7   30.50    4.90
   3   9   7   26.50    5.80
  -3  -9   7   15.30    3.50
   3   9   7   25.90    4.80
  -4   9   7    1.00    5.50
   4  -9   7    2.40    3.90
  -4  -9  -7    0.60    3.00
   4  -9   7   -0.70    2.90
  -4   9   7    1.10    6.50
  -4   9   7    1.60    3.10
  -4  -9  -7   -1.00    1.80
   4   9  -7   -1.20    2.10
   4   9  -7    2.40    3.20
   4   9  -7    3.20    2.80
   4   9   7    3.70    2.80
   4  -9  -7    0.30    3.00
  -4  -9   7    2.10    3.10
  -4   9  -7    6.40    2.90
  -4  -9   7   -2.90    2.10
   4   9   7   -0.40    2.50
  -4   9  -7   -2.10    2.10
  -4   9  -7    1.70    2.60
   5   9  -7   12.00    3.80
   5   9  -7   10.00    3.90
  -5   9   7    9.60    3.80
   5  -9   7   14.10    4.20
  -5   9   7   15.50    9.70
  -5   9   7    6.20    7.80
  -5  -9  -7    8.90    3.80
   5  -9   7   18.20    4.50
  -5  -9  -7   10.50    3.50
  -5  -9   7   15.80    4.30
  -5   9  -7   12.10    4.60
   5  -9  -7   12.10    4.20
   5   9   7   20.70    4.60
  -5   9  -7    5.40    4.00
  -5  -9   7   13.30    3.60
   5   9   7   14.90    3.70
   6   9  -7  121.69   11.20
  -6   9   7   93.89   15.10
   6  -9   7   95.39    9.60
   6  -9   7   78.19    7.80
  -6  -9  -7   98.89    7.30
   6   9  -7   92.59    9.50
   6   9  -7  129.19   11.20
  -6   9   7   92.99   15.80
  -6   9   7  107.79    8.90
  -6  -9  -7  112.49    8.30
  -6   9  -7   96.89    8.80
   6   9   7  101.39    8.90
  -6  -9   7   94.09    8.00
  -6  -9   7  102.49    8.30
   6  -9  -7   80.59    7.80
   6   9   7   83.39    8.60
  -6   9  -7   93.29    8.80
   0 -10   7   -0.60    3.10
   0  10  -7    1.20    2.40
   0  10  -7   -0.70    2.50
   0 -10  -7    2.80    2.30
   0 -10  -7    3.10    3.00
   0  10  -7    1.40    2.90
   0  10   7    0.40    4.30
   0  10  -7    2.70    2.90
   1  10  -7   38.70    5.10
   1 -10   7   30.20    4.70
   1 -10   7   19.20    4.60
  -1 -10  -7   27.30    3.80
  -1  10   7   32.50    7.80
  -1 -10  -7   26.40    4.30
  -1 -10  -7   26.90    4.00
   1  10  -7   17.30    4.00
   1  10  -7   24.80    4.30
  -1  10  -7   32.90    4.30
  -1 -10   7   30.60    4.40
   1 -10  -7   31.80    4.80
   1 -10  -7   23.70    4.20
   1  10   7   30.20    6.80
  -1  10  -7   41.30    7.50
   1  10   7   19.50    4.90
  -1  10  -7   33.70    4.90
   2  10  -7    8.40    3.60
   2 -10   7    4.00    3.70
  -2  10   7   29.70    6.50
   2  10  -7    9.50    3.30
   2 -10   7    8.60    3.60
   2  10  -7    6.80    3.60
  -2 -10  -7   13.60    3.40
  -2  10   7   17.20    7.20
  -2 -10  -7    0.90    3.00
  -2 -10  -7    9.30    2.90
   2  10   7   17.80    5.10
  -2  10  -7   12.70    4.00
  -2  10  -7   12.30    3.50
   2 -10  -7   14.40    3.90
   2  10   7    8.30    4.30
   2 -10  -7   12.70    3.90
  -2  10  -7   17.30    4.40
  -2 -10   7    3.40    2.70
   3  10  -7    9.00    4.00
  -3  10   7    2.40    2.10
  -3 -10  -7    5.00    3.40
  -3  10   7   23.30    5.80
   3 -10   7   -2.40    3.80
  -3  10   7    6.90    6.70
   3  10  -7   -0.70    2.70
   3 -10   7    2.50    2.90
   3  10  -7    1.20    2.50
  -3 -10  -7   -2.40    2.70
  -3 -10   7    7.30    3.20
   3  10   7    0.50    3.80
  -3 -10   7    2.20    3.30
  -3  10  -7   -3.60    3.20
  -3  10  -7    6.30    3.30
   3 -10  -7    0.30    3.00
  -4  10   7   15.20    9.20
   4 -10   7   21.00    5.50
  -4 -10  -7   18.70    4.60
  -4  10   7   30.60    7.10
  -4  10   7   29.90    5.00
  -4 -10  -7   17.00    4.30
   4  10  -7   17.10    4.00
   4 -10   7   16.60    3.70
   4  10  -7    9.50    3.50
   4  10  -7   19.20    4.50
  -4  10  -7   22.90    5.00
  -4 -10   7   18.00    4.00
  -4 -10   7   18.00    4.20
   4 -10  -7   25.40    4.70
  -4  10  -7   20.40    4.30
   4  10   7   21.90    5.60
  -5 -10  -7   35.30    5.60
   5  10  -7   39.30    6.50
  -5  10   7   30.60    9.40
  -5  10   7   39.20    5.40
   5 -10   7   22.70    6.30
   5 -10   7   32.30    5.70
  -5  10   7   40.20    9.40
  -5 -10  -7   27.50    4.50
   5  10  -7   28.10    5.90
  -5 -10   7   40.80    5.50
   5  10   7   33.40    6.20
   5  10   7   23.90    4.90
   5 -10  -7   33.60    5.70
  -5  10  -7   28.90    5.10
  -5  10  -7   37.00    6.20
  -5 -10   7   26.40    5.30
   0 -11   7   50.49    6.60
   0  11   7   84.69    9.90
   0  11   7   70.39    8.10
   0  11  -7   61.49    5.80
   0 -11  -7   60.69    6.50
   0 -11   7   71.89    6.90
   0 -11  -7   54.59    6.00
   1 -11   7   28.10    4.40
   1  11  -7   26.30    4.50
  -1 -11  -7   24.40    5.00
   1 -11   7   21.10    4.50
   1  11  -7   28.20    4.90
   1  11  -7   23.70    5.00
  -1 -11  -7   23.50    4.30
  -1  11   7   34.00    8.00
   1  11   7   28.80    5.90
  -1  11  -7   21.40    4.70
  -1 -11   7   20.70    4.20
   1 -11  -7   37.70    5.80
   1 -11  -7   28.20    5.10
  -2 -11  -7   13.20    3.00
  -2  11   7   29.60    7.90
   2  11  -7   17.90    4.80
  -2 -11  -7   19.80    4.60
   2 -11   7   16.20    4.20
   2  11  -7   17.20    4.70
   2  11  -7   16.80    3.50
   2 -11  -7   13.40    3.90
   2  11   7   16.30    4.70
   2 -11  -7   20.20    4.20
  -2 -11   7   28.90    4.60
  -2  11  -7   20.40    4.00
   3  11  -7   19.20    5.20
  -3  11   7   19.60    8.50
  -3 -11  -7   25.00    4.90
   3 -11   7   22.40    5.90
   3  11  -7   14.90    4.40
  -3 -11  -7   15.40    4.10
   3  11  -7   13.20    3.80
  -3  11  -7   19.70    4.20
  -3 -11   7   16.40    4.80
   3  11   7   36.40    6.80
  -3  11  -7   18.10    4.60
   3 -11  -7   18.20    4.00
   0   0   8 3665.13   71.99
   0   0   8 3680.83   64.19
   0   0  -8 3739.13   63.19
   0   0  -8 3682.73   64.49
   0   0  -8 3651.33   63.09
   0   0  -8 3696.93   63.39
   0   0   8 3677.03   64.19
  -1   0  -8 2155.68   39.90
  -1   0  -8 2221.58   39.70
   1   0   8 2224.58   40.30
   1   0  -8 2218.28   39.60
   1   0   8 2211.08   40.30
   1   0  -8 2175.88   40.30
  -1   0  -8 2183.08   38.60
   1   0  -8 2177.18   38.20
  -1   0   8 2184.58   38.40
  -1   0   8 2159.28   48.20
  -1   0   8 2184.48   39.90
  -1   0  -8 2215.58   40.60
   1   0   8 2204.98   45.40
  -2   0   8    1.70    2.00
  -2   0   8    2.60    0.70
  -2   0  -8    2.60    1.30
   2   0   8    5.10    1.50
  -2   0  -8    1.20    1.00
   2   0   8    3.00    2.00
   2   0  -8    5.10    1.90
  -2   0   8    1.80    2.60
  -2   0  -8    5.10    1.70
   2   0  -8    3.80    0.80
  -2   0  -8    3.60    1.50
   3   0  -8  141.19    6.10
   3   0  -8  137.19    5.80
  -3   0  -8  132.49    6.00
  -3   0  -8  134.09    6.20
  -3   0  -8  128.39    5.90
  -3   0   8  130.29   11.50
  -3   0  -8  135.09    4.50
   3   0   8  133.19    5.30
  -3   0   8  129.69    5.60
   3   0   8  127.49    5.50
   3   0   8  136.99    5.90
   3   0  -8  132.89    3.00
  -4   0   8   43.60    8.40
  -4   0  -8   51.79    4.20
  -4   0  -8   41.60    4.20
   4   0  -8   40.60    3.40
  -4   0  -8   44.10    2.80
  -4   0   8   43.70    4.10
   4   0  -8   47.80    4.40
   4   0   8   50.09    3.70
   4   0   8   47.80    3.90
  -4   0  -8   44.50    3.70
   4   0   8   50.49    4.50
   5   0   8   70.69    4.40
   5   0   8   64.19    4.50
   5   0  -8   73.09    5.20
  -5   0  -8   63.79    4.60
   5   0   8   63.99    5.20
  -5   0  -8   67.39    3.60
  -5   0   8   60.79    5.00
   5   0  -8   66.19    4.40
  -5   0   8   73.09   11.60
  -5   0  -8   65.69    4.70
   6   0  -8    5.10    2.10
  -6   0   8    3.50    2.50
   6   0   8    4.50    2.20
  -6   0  -8    5.50    2.70
   6   0  -8    4.00    2.10
  -6   0   8    4.00    7.50
   6   0   8    7.40    2.10
   6   0   8    0.20    2.30
  -6   0  -8    7.80    2.90
   6   0  -8    1.40    2.50
   7   0  -8  128.69    7.90
   7   0   8  121.29    7.60
   7   0  -8  109.39    6.40
   7   0  -8  138.39    6.90
  -7   0   8  114.99    6.80
  -7   0  -8  122.49    7.10
  -7   0   8  148.09   18.30
  -7   0  -8  129.39    7.60
   7   0   8  131.69    7.40
  -8   0   8    2.10    2.70
  -8   0  -8    2.80    2.90
  -8   0   8   17.10    8.00
  -8   0  -8   -1.60    1.50
   8   0   8   -4.10    2.50
   8   0  -8    1.60    3.10
   8   0   8    0.30    2.30
   9   0   8   -1.10    3.30
  -9   0  -8    9.30    3.50
  -9   0   8    3.30    3.30
   9   0  -8    1.90    2.50
   0   1   8 1031.10   21.60
   0   1   8 1086.59   21.60
   0   1  -8 1057.29   21.90
   0  -1   8 1059.49   21.20
   0   1  -8 1072.69   21.00
   0  -1  -8 1062.69   21.90
   0   1   8 1072.19   21.70
   0  -1  -8 1100.29   20.90
   0  -1  -8 1047.80   20.70
   0   1  -8 1079.89   21.10
   0   1  -8 1058.59   20.50
   0  -1   8 1081.79   27.00
   0  -1   8 1084.89   21.80
   0   1   8 1094.49   29.60
   1   1  -8  853.91   17.80
  -1   1   8  864.61   18.20
  -1  -1  -8  852.31   16.30
  -1   1   8  833.72   17.80
   1   1  -8  868.21   18.30
  -1  -1  -8  861.31   18.50
  -1   1   8  838.42   26.10
   1  -1   8  872.81   21.30
   1   1  -8  837.72   16.20
  -1  -1  -8  834.62   17.90
  -1  -1  -8  856.11   17.80
   1  -1   8  820.22   18.10
   1  -1   8  898.61   18.30
  -1  -1   8  862.51   18.20
  -1   1  -8  824.82   17.90
   1   1   8  842.62   15.30
   1  -1  -8  850.81   16.80
  -1   1  -8  860.51   17.20
   1  -1  -8  847.52   16.60
  -1  -1   8  849.72   17.00
   1  -1  -8  839.12   18.40
   1  -1  -8  867.21   16.30
  -1  -1   8  861.91   24.40
   1   1   8  854.01   23.90
   1   1   8  824.22   18.30
  -1   1  -8  850.41   18.50
  -2   1   8  146.99   11.60
   2   1  -8  142.19    3.70
  -2  -1  -8  155.38    6.00
   2   1  -8  152.38    5.90
   2  -1   8  140.69    5.90
   2   1  -8  138.39    5.70
   2  -1   8  139.69    5.80
  -2  -1  -8  134.59    4.10
  -2   1   8  148.99    6.10
  -2   1   8  155.08    5.60
  -2  -1  -8  138.89    6.00
  -2  -1  -8  145.89    6.00
   2   1   8  148.39    8.70
  -2  -1   8  152.48   10.60
  -2  -1   8  147.09    5.80
   2  -1  -8  144.59    4.30
   2   1   8  135.39    4.50
  -2   1  -8  144.19    5.90
  -2   1  -8  146.79    6.30
   2   1   8  148.69    6.10
   2  -1  -8  147.29    5.40
  -2  -1   8  141.59    4.50
  -2   1  -8  136.99    4.80
   2  -1  -8  143.69    6.00
   3  -1   8   67.09    4.20
  -3  -1  -8   71.09    4.50
   3  -1   8   72.39    4.20
   3  -1   8   69.19    4.50
  -3   1   8   73.49    4.60
  -3  -1  -8   65.79    2.70
   3   1  -8   64.69    3.80
   3   1  -8   66.79    4.50
  -3  -1  -8   74.89    4.80
  -3   1   8   69.89    3.70
  -3  -1  -8   73.29    4.60
  -3   1   8   64.49    8.30
   3   1   8   68.99    3.90
  -3  -1   8   66.29    4.20
  -3   1  -8   70.39    4.50
   3  -1  -8   65.99    4.50
   3   1   8   69.39    3.40
  -3  -1   8   69.69    3.20
   3   1   8   72.69    4.60
  -3   1  -8   68.99    3.60
  -3   1  -8   70.19    4.40
   3  -1  -8   71.89    4.10
  -3  -1   8   64.99    8.50
   3  -1  -8   68.29    2.50
  -3  -1   8   67.99    2.70
  -4  -1  -8  372.96    8.40
   4  -1   8  396.06   11.30
   4   1  -8  383.86   10.70
   4  -1   8  406.46   11.70
  -4   1   8  394.56    9.80
   4  -1   8  379.06   10.80
   4   1  -8  374.46   12.00
  -4  -1  -8  407.06   11.50
  -4  -1  -8  380.86   12.10
  -4  -1  -8  394.66   11.50
  -4   1   8  408.56   21.20
   4   1  -8  394.46   11.00
  -4   1   8  390.26   11.00
  -4  -1   8  396.06   20.00
  -4   1  -8  386.36    9.90
   4   1   8  372.96   11.00
   4  -1  -8  386.66    9.90
  -4  -1   8  380.96    8.90
  -4   1  -8  410.86   12.10
  -4  -1   8  403.66   11.70
   4  -1  -8  377.06   11.40
   4   1   8  371.76   10.00
  -4  -1   8  367.16    7.90
   4   1   8  375.86   11.10
  -4   1  -8  365.26   11.60
  -5  -1  -8  113.79    6.40
  -5   1   8  118.89    6.20
  -5  -1  -8  111.89    5.90
  -5   1   8  127.39   15.30
   5  -1   8  118.99    5.60
   5   1  -8  119.49    6.10
   5   1  -8  117.09    6.70
   5  -1   8  119.19    6.80
   5  -1   8  116.39    6.40
   5  -1  -8  117.29    6.70
  -5  -1   8  124.89    6.40
  -5   1  -8  116.39    5.30
   5   1   8  116.89    6.40
   5   1   8  124.59    5.70
   5  -1  -8  116.79    5.30
  -5  -1   8  131.19   14.80
   5   1   8  122.79    6.00
   5   1   8  119.29    5.10
  -5   1  -8  117.79    6.70
   6  -1   8   66.79    6.20
  -6   1   8   80.79   14.80
   6   1  -8   59.39    5.90
   6  -1   8   57.09    5.30
  -6  -1  -8   56.79    4.70
  -6   1   8   63.49    5.10
  -6  -1  -8   59.99    5.00
   6  -1   8   55.99    4.00
   6   1  -8   62.89    5.00
  -6   1  -8   62.39    4.20
   6   1   8   63.59    4.60
   6  -1  -8   59.09    5.80
  -6  -1   8   84.49   14.40
  -6  -1   8   60.29    5.00
   6   1   8   65.79    5.00
   6  -1  -8   51.89    4.00
   6  -1  -8   68.99    5.20
   6   1   8   59.59    4.50
  -6   1  -8   61.69    5.00
   7   1  -8   -0.30    1.90
  -7   1   8    8.10    9.90
  -7   1   8    1.10    1.70
   7  -1   8    3.80    2.40
   7   1  -8    3.90    2.60
  -7  -1  -8    3.90    2.20
  -7  -1  -8    2.90    2.50
   7  -1   8    6.80    2.80
  -7  -1   8   -2.10    2.80
  -7  -1   8    9.70    8.70
   7   1   8    0.60    1.90
  -7   1  -8    8.00    2.60
   7   1   8    7.00    2.50
   7   1   8    8.10    3.00
   7  -1  -8    0.20    1.50
  -7   1  -8    3.80    2.30
   7  -1  -8   -0.50    2.70
  -8  -1  -8    4.30    3.10
   8   1  -8    7.70    3.80
  -8   1   8    9.60    8.00
   8   1  -8    3.30    2.60
   8  -1   8    2.10    2.80
   8  -1   8    6.20    3.60
  -8   1   8    0.30    1.80
  -8   1  -8    4.70    3.10
   8  -1  -8    4.20    2.60
  -8   1  -8    3.30    2.20
   8   1   8    0.80    2.10
  -8  -1   8    3.20    2.50
  -8  -1   8   28.90    9.70
   9  -1   8   10.00    3.60
  -9  -1  -8   20.30    4.80
  -9  -1  -8    9.70    3.10
   9  -1   8   19.70    5.30
   9   1  -8    9.30    3.50
  -9  -1   8   19.30    4.70
  -9   1  -8    8.80    4.00
   9   1   8    9.60    3.20
   9  -1  -8    7.50    3.20
   0  -2  -8  219.18    7.30
   0   2   8  211.48    7.80
   0  -2  -8  208.78    6.40
   0   2   8  207.68    6.90
   0  -2   8  220.08    7.10
   0   2   8  225.08   12.50
   0   2  -8  220.28    7.20
   0  -2   8  221.08    9.90
   0  -2  -8  204.38    4.90
   0  -2   8  218.38    7.00
   0   2  -8  218.28    6.90
   0  -2  -8  221.88    6.60
   0   2   8  223.78    7.30
  -1  -2  -8  337.97    9.60
  -1  -2  -8  329.27    9.10
   1   2  -8  336.37    9.30
  -1   2   8  334.47    9.10
  -1  -2  -8  327.07    9.20
  -1   2   8  317.67    9.00
   1   2  -8  332.17    9.30
   1  -2   8  329.77   10.40
  -1   2   8  347.97   16.60
   1  -2   8  343.07    9.40
  -1   2   8  336.27   11.50
   1  -2   8  332.27    9.50
   1  -2  -8  332.17    8.40
  -1   2  -8  330.97    8.90
  -1  -2   8  339.07    8.80
   1  -2  -8  334.57    9.70
   1   2   8  326.67    8.40
  -1  -2   8  323.67   13.30
  -1   2  -8  323.87    9.40
   1   2   8  341.17   14.70
  -1  -2   8  339.27    9.60
   1   2   8  314.37    9.30
  -1   2  -8  337.47    9.90
   1  -2  -8  328.27    7.80
   1  -2  -8  328.37    7.70
   2   2  -8   28.70    2.80
  -2   2   8   29.00    4.70
  -2   2   8   31.20    3.00
  -2   2   8   25.50    6.80
   2   2  -8   27.90    3.10
  -2  -2  -8   27.50    3.00
  -2  -2  -8   27.50    3.00
  -2   2   8   21.90    2.40
   2  -2   8   27.10    2.90
   2   2  -8   27.10    1.40
  -2  -2  -8   24.20    1.20
  -2  -2   8   24.20    3.20
   2  -2  -8   27.90    3.10
  -2  -2   8   26.00    2.20
  -2   2  -8   31.90    3.40
  -2   2  -8   26.10    2.70
   2   2   8   30.70    3.40
  -2  -2   8   29.00    5.40
   2   2   8   26.00    1.70
  -2   2  -8   26.80    2.90
   2  -2  -8   25.20    1.20
   2   2   8   25.40    4.80
  -2  -2   8   30.70    2.60
   2  -2  -8   31.50    2.80
   2  -2  -8   28.70    2.20
  -3  -2  -8  593.94   11.20
   3   2  -8  627.94   14.30
   3  -2   8  612.34   14.40
  -3   2   8  615.34   19.80
  -3   2   8  612.44   14.20
  -3   2   8  596.24   23.90
   3  -2   8  633.34   15.60
  -3  -2  -8  636.54   15.90
   3  -2   8  648.04   15.40
  -3  -2  -8  633.64   15.00
   3  -2   8  595.84   15.50
  -3  -2  -8  629.24   15.30
  -3   2   8  599.54   13.60
  -3   2  -8  599.74   15.30
   3   2   8  606.74   12.50
  -3  -2   8  630.34   13.40
  -3  -2   8  620.04   23.40
  -3  -2   8  596.04   14.90
   3  -2  -8  618.44   15.40
   3   2   8  607.94   14.00
   3   2   8  620.24   15.50
  -3  -2   8  621.24   13.10
  -3   2  -8  642.74   16.00
   3  -2  -8  614.54   12.50
  -3   2  -8  569.44   11.90
  -3   2  -8  625.54   14.10
   3  -2  -8  624.04   14.60
   4   2  -8   21.00    3.40
  -4  -2  -8   15.90    2.70
  -4  -2  -8   14.40    2.70
   4  -2   8   11.70    2.40
  -4  -2  -8   12.10    2.70
  -4   2   8   14.00    2.30
   4  -2   8   14.30    2.50
   4   2  -8   10.90    2.10
  -4   2   8   11.20    1.80
  -4   2   8   10.90    6.20
   4  -2   8   12.80    2.90
   4   2  -8   10.80    2.60
  -4   2  -8   10.60    2.20
   4   2   8   12.90    1.70
   4   2   8   14.20    2.50
  -4  -2   8   10.90    2.40
   4  -2  -8   12.30    1.80
  -4  -2   8   14.80    5.90
  -4  -2   8   13.10    2.00
  -4  -2   8   11.40    1.50
   4   2   8   16.50    2.90
  -4   2  -8   15.40    2.70
   4  -2  -8   13.90    2.60
   4  -2  -8    7.10    2.50
  -4   2  -8   10.30    2.20
   5  -2   8  572.04   15.90
  -5  -2  -8  562.14   15.50
   5   2  -8  563.54   16.70
  -5   2   8  593.14   28.60
   5  -2   8  574.04   16.30
   5   2  -8  566.64   15.40
   5  -2   8  553.64   13.90
  -5  -2  -8  580.34   14.90
   5   2   8  567.54   15.00
  -5  -2   8  565.74   15.90
  -5   2  -8  547.05   13.90
   5   2   8  546.85   13.30
   5  -2  -8  584.04   15.70
   5   2   8  591.74   15.80
  -5  -2   8  573.94   26.80
  -5   2  -8  569.34   16.20
  -5  -2   8  573.04   13.00
   5  -2  -8  582.74   15.90
  -6   2   8   65.19   13.50
   6   2  -8   38.90    5.20
  -6  -2  -8   42.50    4.90
  -6   2   8   48.10    4.10
   6  -2   8   39.70    3.90
   6   2  -8   40.40    4.40
   6  -2   8   45.80    5.10
   6  -2   8   38.80    4.80
  -6  -2  -8   49.50    4.50
  -6   2  -8   41.20    4.10
   6  -2  -8   45.20    5.10
   6   2   8   38.60    4.50
  -6  -2   8   46.30    5.00
   6   2   8   43.50    4.70
   6  -2  -8   36.30    4.40
  -6  -2   8   56.39   12.50
  -6   2  -8   42.00    4.90
  -7   2   8    4.10    6.70
  -7  -2  -8    6.40    2.50
  -7   2   8    9.60    3.00
   7   2  -8    8.30    2.80
   7  -2   8    7.20    2.70
  -7  -2  -8    5.20    2.90
   7   2  -8    7.40    3.10
   7  -2   8   -1.00    3.00
   7  -2  -8   10.20    2.90
  -7   2  -8   10.20    3.70
  -7  -2   8   10.40    3.60
  -7  -2   8   17.20   11.10
   7  -2  -8    8.50    3.30
   7   2   8    9.90    3.10
   7   2   8   12.90    2.70
  -7   2  -8    4.10    2.00
   8  -2   8   11.90    3.80
   8  -2   8   18.30    4.70
  -8   2   8   20.40    6.80
  -8  -2  -8    5.50    3.70
   8   2  -8   19.70    4.90
  -8  -2  -8   17.30    4.10
  -8   2   8   25.80   11.50
   8   2  -8   15.50    3.80
   8  -2  -8   22.50    4.60
  -8   2  -8    8.00    2.90
  -8  -2   8   46.30   12.40
  -8   2  -8    6.70    3.40
   8   2   8    9.80    3.30
  -8  -2   8   13.10    3.40
   9   2  -8   10.90    4.50
  -9   2   8   38.90    7.60
  -9  -2  -8    7.00    3.70
  -9   2   8   49.50   14.40
   9  -2   8    5.50    2.80
   9   2  -8    8.20    3.80
   9  -2   8    8.00    4.50
  -9  -2  -8   13.80    4.60
  -9  -2   8   12.50    4.50
   9  -2  -8   13.60    3.90
  -9   2  -8    7.80    3.80
  -9   2  -8   11.50    3.60
   0  -3  -8    1.80    1.30
   0  -3  -8   -1.80    1.40
   0   3   8    2.50    1.70
   0   3   8    2.00    3.30
   0   3  -8    1.10    1.70
   0  -3   8    3.70    2.30
   0   3  -8    3.70    1.40
   0  -3   8    1.40    1.80
   0   3   8    0.80    2.40
   0  -3   8    2.80    1.50
  -1   3   8  630.74   14.40
  -1   3   8  649.04   23.90
  -1   3   8  652.73   14.90
   1   3  -8  643.74   14.60
   1  -3   8  680.23   15.00
  -1   3   8  631.54   18.00
  -1  -3  -8  626.74   14.90
   1  -3   8  624.34   15.20
  -1  -3  -8  651.83   15.00
   1   3  -8  657.73   15.00
   1  -3  -8  646.04   14.10
  -1  -3   8  623.74   14.10
   1  -3  -8  641.84   15.40
  -1  -3   8  621.94   19.30
   1   3   8  644.84   21.80
   1   3   8  650.03   15.50
  -1   3  -8  641.44   15.20
  -1  -3   8  614.44   14.40
   1  -3  -8  645.84   13.30
  -1  -3   8  634.14   14.80
  -1   3  -8  648.54   14.70
   1  -3  -8  639.04   12.40
   1   3   8  639.54   15.30
   2   3  -8   23.90    2.70
  -2   3   8   23.20    7.50
   2   3  -8   23.50    2.80
   2  -3   8   20.30    2.80
  -2   3   8   26.60    2.80
  -2  -3  -8   22.90    2.80
  -2  -3  -8   22.10    2.80
   2  -3   8   23.10    3.00
  -2   3   8   25.30    3.10
  -2   3   8   27.10    4.60
  -2  -3   8   22.90    2.40
   2   3   8   27.70    3.30
  -2  -3   8   23.70    2.70
   2  -3  -8   19.60    2.20
  -2  -3   8   24.50    3.00
  -2  -3   8   19.80    4.60
   2  -3  -8   23.00    3.20
   2  -3  -8   25.30    2.30
   2  -3  -8   19.50    1.30
   2   3   8   23.70    2.50
  -2   3  -8   23.10    2.60
   2  -3  -8   19.40    2.70
   2  -3  -8   22.20    1.20
  -2   3  -8   24.20    3.00
   2   3   8   23.70    2.20
  -2   3  -8   20.00    2.10
   2   3   8   21.60    4.40
  -3  -3  -8  371.86   10.30
   3   3  -8  371.26    9.70
   3   3  -8  369.86   10.90
  -3  -3  -8  356.56   10.70
   3  -3   8  342.17   11.00
  -3   3   8  350.06   19.10
   3  -3   8  353.96   11.00
   3  -3   8  351.46   10.00
  -3   3   8  353.96    9.60
  -3   3   8  340.97   14.50
   3  -3   8  347.97   12.90
  -3   3   8  360.46    9.40
  -3   3  -8  357.26   11.30
  -3  -3   8  354.16   17.80
   3  -3  -8  358.46    8.80
   3  -3  -8  367.86    9.90
  -3  -3   8  367.36    9.50
  -3   3  -8  336.97   10.70
   3   3   8  347.57    9.20
  -3  -3   8  367.06   10.90
  -3   3  -8  359.46   10.20
  -3   3  -8  335.97    9.30
   3   3   8  364.26   11.10
   3  -3  -8  359.16   11.10
  -4   3   8    6.20    6.30
  -4  -3  -8   10.50    2.30
   4   3  -8   11.00    2.00
  -4   3   8   11.70    1.90
  -4  -3  -8    9.30    1.50
   4   3  -8   13.90    2.90
   4  -3   8   11.10    2.90
   4  -3   8    8.50    2.10
  -4  -3  -8    7.80    2.00
   4  -3   8    6.90    2.20
  -4   3   8   10.90    2.40
  -4   3   8   14.50    5.10
  -4   3  -8    8.10    2.00
  -4   3  -8    8.70    2.90
   4   3   8   10.70    2.90
   4  -3  -8    9.70    2.00
   4   3   8   11.40    2.10
  -4  -3   8   11.50    2.30
  -4  -3   8    8.10    2.30
   4  -3  -8    6.70    1.30
  -4  -3   8    7.40    4.80
   4  -3  -8    6.90    2.10
  -5   3   8  580.74   27.70
  -5   3   8  559.14   14.00
   5  -3   8  537.95   13.80
  -5  -3  -8  557.34   14.30
   5   3  -8  561.34   16.80
  -5  -3  -8  554.54   15.70
  -5   3   8  576.44   22.70
   5  -3   8  530.85   16.30
   5  -3   8  555.04   16.30
   5   3  -8  538.95   15.60
   5  -3  -8  552.44   15.60
  -5  -3   8  566.24   26.90
  -5   3  -8  531.25   14.20
   5  -3  -8  570.54   15.30
   5   3   8  547.85   14.20
  -5  -3   8  536.35   13.20
  -5   3  -8  567.24   16.50
   5   3   8  606.34   16.20
   5   3   8  541.75   14.80
  -5  -3   8  540.05   15.70
  -6  -3  -8   72.19    6.30
   6   3  -8   75.29    7.10
  -6  -3  -8   77.59    5.20
   6  -3   8   66.39    6.40
   6   3  -8   65.89    6.10
  -6   3   8  100.69   12.80
  -6   3   8   71.39    5.00
  -6   3   8  120.29   17.00
   6  -3   8   67.09    6.70
  -6   3  -8   82.29    7.20
   6  -3  -8   68.89    5.20
  -6  -3   8   88.79   14.80
   6  -3  -8   67.79    5.30
   6   3   8   83.19    5.50
  -6  -3   8   67.39    4.10
   6   3   8   81.69    5.40
   6   3   8   85.09    6.20
  -6   3  -8   72.29    5.50
  -6  -3   8   77.69    6.00
   7  -3   8   41.90    5.50
  -7  -3  -8   39.00    5.30
  -7  -3  -8   45.50    5.50
   7   3  -8   43.70    5.70
   7  -3   8   36.60    5.50
  -7   3   8   48.20    9.70
   7   3  -8   41.90    5.50
  -7   3   8   71.29   16.70
  -7   3  -8   37.60    5.20
   7  -3  -8   29.50    4.00
  -7  -3   8   49.80   12.30
   7   3   8   38.70    4.30
   7  -3  -8   48.50    5.80
  -7   3  -8   35.30    4.20
  -7  -3   8   46.90    5.40
  -8   3   8   33.00   14.00
   8   3  -8   16.10    4.30
   8  -3   8   16.00    3.80
  -8  -3  -8   21.50    4.40
  -8  -3  -8   18.00    4.70
   8  -3   8   10.20    4.40
   8   3  -8   16.80    4.20
  -8   3   8   45.10   11.70
  -8  -3   8   41.70   10.70
  -8   3  -8   18.00    4.60
  -8  -3   8   14.10    4.50
   8  -3  -8   14.30    3.50
  -9  -3  -8   46.30    7.80
   9  -3   8   40.30    6.60
   9  -3   8   44.80    7.20
   9   3  -8   35.10    6.00
   9   3  -8   40.50    6.00
  -9  -3  -8   50.49    6.40
  -9   3   8   67.59   17.10
  -9   3  -8   49.70    6.70
   9  -3  -8   49.10    6.70
  -9  -3   8   47.20    6.20
  -9   3  -8   49.70    6.40
   0  -4  -8   28.60    2.50
   0  -4  -8   21.80    2.70
   0  -4  -8   27.00    2.80
   0   4   8   22.60    3.10
   0  -4   8   24.60    2.80
   0   4   8   28.10    4.80
   0  -4   8   22.70    3.20
   0  -4  -8   26.70    3.20
   0   4   8   27.80    6.20
   0  -4   8   26.20    2.80
   0   4  -8   25.00    3.10
   0  -4   8   22.10    3.10
   0   4  -8   28.20    3.20
  -1  -4  -8  703.63   16.20
   1   4  -8  691.93   15.70
   1  -4   8  706.93   15.80
  -1  -4  -8  705.93   16.20
  -1  -4  -8  691.43   15.50
  -1  -4  -8  699.23   16.10
  -1   4   8  686.53   20.20
  -1   4   8  698.03   16.00
   1   4  -8  711.83   16.20
  -1   4   8  690.53   26.20
   1  -4   8  657.83   16.60
   1   4   8  698.63   24.30
   1  -4  -8  646.54   13.60
  -1   4  -8  700.43   16.60
  -1  -4   8  670.23   15.50
  -1   4  -8  684.23   17.20
  -1   4  -8  701.73   16.00
  -1  -4   8  690.63   15.90
  -1  -4   8  675.73   16.10
   1  -4  -8  699.13   16.70
   1  -4  -8  685.03   15.40
   1   4   8  697.23   17.70
   1  -4  -8  689.33   16.80
   1   4   8  675.23   16.70
  -1  -4   8  675.93   20.30
  -2  -4  -8   50.89    3.60
   2   4  -8   62.19    3.70
  -2   4   8   57.59    3.50
  -2  -4  -8   57.39    3.70
   2  -4   8   54.29    4.40
  -2   4   8   59.69    3.80
  -2   4   8   60.19    7.40
  -2  -4  -8   53.89    3.90
  -2   4   8   52.69    9.90
   2   4  -8   60.89    4.10
   2  -4   8   65.79    4.30
   2  -4  -8   57.79    3.00
  -2  -4   8   61.79    3.80
   2  -4  -8   56.39    1.80
  -2  -4   8   56.09    3.80
   2   4   8   56.99    2.90
   2   4   8   54.09    4.10
  -2   4  -8   60.99    4.80
  -2   4  -8   55.59    4.00
   2  -4  -8   49.99    4.20
   2  -4  -8   62.79    3.80
   2   4   8   60.99    4.70
  -2  -4   8   64.99    7.30
  -2   4  -8   59.39    4.30
   2  -4  -8   67.79    4.80
  -2  -4   8   55.19    4.60
   2   4   8   65.79    8.30
  -3   4   8  113.99    4.90
  -3   4   8  116.09   14.90
   3  -4   8  117.89    6.60
   3   4  -8  116.29    6.20
   3   4  -8  118.29    4.90
  -3   4   8  116.09    9.90
  -3  -4  -8  115.09    5.50
  -3  -4  -8  113.39    5.80
   3  -4   8  116.49    6.80
   3   4  -8  123.89    6.10
  -3  -4  -8  120.59    6.20
  -3  -4  -8  117.59    4.80
  -3   4   8  113.99    4.90
  -3  -4   8  131.59   11.20
   3   4   8  120.39    6.30
   3  -4  -8  123.79    5.20
   3  -4  -8  121.89    6.60
  -3  -4   8  119.89    6.60
  -3   4  -8  116.39    6.70
  -3   4  -8  110.39    5.70
  -3  -4   8  127.59    5.70
   3  -4  -8  117.49    5.10
   3   4   8  114.79    4.40
  -3   4  -8  121.79    6.00
  -4   4   8   34.40    9.80
  -4  -4  -8   23.10    3.60
   4   4  -8   25.30    3.40
   4  -4   8   25.30    3.00
  -4   4   8   26.90    6.80
   4  -4   8   28.20    4.10
   4   4  -8   28.50    2.70
  -4   4   8   24.50    2.50
   4  -4   8   25.30    3.50
  -4   4   8   19.00    2.80
  -4  -4  -8   27.40    2.90
  -4  -4  -8   32.00    3.90
   4   4   8   23.90    2.50
  -4  -4   8   27.80    3.00
  -4  -4   8   32.90    7.50
   4   4   8   28.00    4.00
  -4  -4   8   35.20    4.40
   4  -4  -8   31.10    4.10
   4  -4  -8   29.80    3.30
  -4   4  -8   28.20    3.40
  -4   4  -8   28.80    3.80
   5  -4   8  272.27   11.10
   5  -4   8  288.57   11.60
  -5   4   8  311.57   18.10
   5   4  -8  297.27   12.10
  -5   4   8  304.97   21.10
  -5  -4  -8  288.17   11.10
  -5  -4  -8  301.17   10.70
   5  -4   8  281.57    8.90
   5   4  -8  289.17   10.90
  -5  -4  -8  287.17    9.30
  -5  -4   8  275.77    9.20
   5   4   8  284.07   10.70
  -5   4  -8  300.17   11.90
  -5  -4   8  300.07   21.00
   5   4   8  293.27   10.80
   5  -4  -8  278.37    9.90
  -5   4  -8  281.87    9.90
   5   4   8  272.07    8.80
   5  -4  -8  295.47   11.10
  -5  -4   8  301.97   11.40
  -6  -4  -8   10.20    2.70
   6  -4   8    7.80    3.30
  -6  -4  -8   12.20    3.20
  -6   4   8    9.60    5.70
   6   4  -8   12.80    3.20
   6   4  -8   12.60    3.70
   6  -4   8    7.30    3.40
  -6   4   8   13.80   10.70
   6   4   8   13.20    3.20
  -6   4  -8   11.20    2.80
  -6  -4   8    7.30    2.40
  -6   4  -8    6.80    3.50
   6   4   8   12.10    3.40
  -6  -4   8   13.00    3.20
  -6  -4   8    8.50    6.40
   6  -4  -8   17.20    3.80
   6  -4  -8   12.90    3.20
  -7   4   8   39.30    9.90
   7  -4   8   52.79    6.60
   7  -4   8   35.00    5.20
   7   4  -8   46.70    6.80
  -7   4   8   59.09   15.60
   7   4  -8   39.00    5.70
  -7  -4  -8   42.60    6.00
  -7  -4  -8   53.49    5.90
   7  -4  -8   41.80    5.30
  -7   4  -8   40.50    5.20
  -7  -4   8   37.20    5.60
   7  -4  -8   47.80    5.10
  -7   4  -8   41.70    5.70
  -8  -4  -8   12.00    3.60
  -8   4   8   29.00   10.40
   8  -4   8   10.50    3.60
   8  -4   8    8.10    3.40
  -8   4   8   19.90   10.30
   8   4  -8    8.60    4.20
  -8  -4  -8    8.80    3.70
   8   4  -8   16.50    5.20
   8  -4  -8    8.30    3.70
  -8  -4   8   16.70    4.20
  -8   4  -8   14.00    3.90
  -8   4  -8   13.60    4.80
   8  -4  -8    8.50    2.90
   0  -5  -8   63.09    4.40
   0  -5  -8   60.79    3.50
   0  -5   8   58.69    4.60
   0  -5  -8   63.99    4.60
   0   5  -8   57.19    4.30
   0   5   8   61.09    8.60
   0  -5   8   61.19    4.20
   0  -5  -8   67.99    4.70
   0  -5   8   67.99    4.60
   0   5  -8   57.09    4.20
   0   5   8   64.69    5.90
   0   5   8   61.09    4.60
   0  -5   8   61.09    4.30
   1   5  -8  301.87    9.60
  -1   5   8  318.57   17.40
  -1   5   8  296.07    9.50
   1   5  -8  305.47    8.90
  -1  -5  -8  302.47    9.50
  -1  -5  -8  302.17    9.40
  -1   5   8  319.77   14.00
  -1  -5  -8  295.17    8.80
   1  -5   8  316.77    9.30
  -1  -5  -8  291.97    9.40
   1  -5  -8  290.77    7.40
  -1   5  -8  296.97    9.70
  -1  -5   8  291.87   12.70
  -1   5  -8  296.47   11.10
  -1  -5   8  307.17    9.60
  -1  -5   8  293.27    9.50
   1  -5  -8  320.07   10.10
  -1  -5   8  301.57    9.20
   1   5   8  300.17   11.40
   1  -5  -8  306.47    9.30
   1   5   8  289.77   15.60
   1  -5  -8  307.07   10.30
  -1   5  -8  310.47    9.90
   1   5   8  301.87   10.20
  -2   5   8   84.79    8.00
  -2   5   8   86.49   11.60
   2  -5   8   80.59    4.60
  -2  -5  -8   87.09    5.20
  -2  -5  -8   87.49    4.80
  -2  -5  -8   90.09    5.60
   2   5  -8   91.39    5.90
  -2   5   8   90.29    4.80
   2   5  -8   90.89    5.50
   2   5  -8   85.09    4.10
  -2  -5  -8   84.89    4.70
   2  -5   8   82.89    5.20
  -2   5  -8   88.39    5.80
   2   5   8   89.49    5.80
   2   5   8   86.49    6.00
   2  -5  -8   93.69    5.00
  -2   5  -8   87.59    5.00
  -2  -5   8   88.69    8.30
  -2   5  -8   87.79    5.40
   2  -5  -8   87.89    5.40
  -2  -5   8   79.69    4.70
  -2  -5   8   92.19    5.10
   3  -5   8  162.98    8.00
  -3  -5  -8  158.68    7.50
  -3   5   8  149.88   10.80
  -3  -5  -8  165.78    6.50
  -3   5   8  158.48    5.80
   3   5  -8  153.88    8.00
  -3   5   8  158.88    6.00
   3  -5   8  164.68    8.30
   3   5  -8  160.08    5.60
   3   5  -8  156.78    7.10
  -3  -5  -8  165.38    6.00
  -3   5   8  161.88   18.60
  -3  -5  -8  161.08    7.20
   3   5  -8  164.38    7.70
  -3   5  -8  157.88    7.70
  -3  -5   8  156.68    7.20
  -3  -5   8  160.38    6.90
  -3  -5   8  156.18   12.70
  -3   5  -8  160.78    8.10
   3  -5  -8  153.38    7.40
   3   5   8  167.38    8.10
   3   5   8  156.08    7.80
   3  -5  -8  169.48    6.70
  -3   5  -8  156.18    7.30
   4   5  -8   78.79    5.30
  -4   5   8   89.69   14.20
  -4  -5  -8   77.29    5.80
   4  -5   8   70.79    6.20
   4  -5   8   78.79    6.00
  -4   5   8   81.69    9.60
  -4  -5  -8   71.79    4.40
  -4  -5  -8   85.49    6.20
   4   5  -8   72.89    5.50
  -4  -5   8  103.29   12.40
   4   5   8   72.79    5.90
  -4   5  -8   79.19    5.20
  -4   5  -8   82.89    6.50
  -4  -5   8   68.09    4.60
  -4  -5   8   79.49    6.20
   4  -5  -8   66.89    6.00
  -4   5  -8   81.49    6.80
   4  -5  -8   75.49    4.70
   4   5   8   65.69    5.30
  -5  -5  -8  232.58    9.90
   5  -5   8  205.28   10.10
   5  -5   8  200.78    7.50
   5   5  -8  209.28   10.00
  -5   5   8  202.28   19.40
   5  -5   8  216.88   10.50
  -5  -5  -8  235.38   10.10
  -5   5   8  228.38   17.10
  -5   5  -8  219.68    9.40
   5   5   8  212.98   10.00
   5  -5  -8  217.38    8.60
  -5  -5   8  232.88   18.10
   5   5   8  215.18    9.80
  -5  -5   8  235.68    8.80
  -5   5  -8  220.68   10.20
   5  -5  -8  221.38    9.50
  -5  -5   8  232.68   10.40
   6   5  -8   62.19    6.60
   6  -5   8   58.79    6.30
   6  -5   8   65.89    6.60
  -6   5   8   77.99   12.00
   6   5  -8   66.49    6.80
  -6   5   8   75.39   15.50
  -6  -5  -8   57.39    6.00
  -6  -5  -8   72.59    6.50
   6   5   8   74.69    6.40
  -6   5  -8   72.69    6.50
  -6  -5   8   63.09    5.30
   6  -5  -8   69.79    5.80
  -6   5  -8   70.39    7.10
  -6  -5   8   71.99    7.00
   6  -5  -8   66.89    5.60
   7   5  -8    4.60    3.70
  -7  -5  -8    5.50    2.70
  -7   5   8    0.80    7.90
   7  -5   8   -3.90    3.00
   7  -5   8    2.20    2.70
  -7  -5  -8    1.40    3.00
   7   5  -8    0.20    2.60
  -7   5   8    9.80    8.00
  -7   5  -8    3.30    2.50
   7  -5  -8    9.20    3.40
  -7  -5   8    0.70    3.70
  -7  -5   8    3.10    2.40
   7  -5  -8    1.60    2.90
  -7   5  -8    0.20    2.50
  -8  -5  -8   48.20    6.80
   8   5  -8   45.10    7.00
  -8   5   8   32.10   14.50
   8  -5   8   36.80    6.00
   8  -5   8   42.00    6.20
  -8  -5  -8   54.59    6.40
  -8   5   8   54.49   11.80
   8   5  -8   35.10    6.00
  -8   5  -8   39.00    5.00
   8  -5  -8   40.90    5.70
   8  -5  -8   44.10    5.30
  -8  -5   8   43.60    6.10
  -8   5  -8   35.30    5.70
   0   6   8   16.40    4.50
   0  -6  -8   19.40    3.20
   0  -6   8   17.10    2.70
   0   6  -8   17.40    2.90
   0   6  -8   16.60    4.00
   0  -6  -8   18.40    3.10
   0   6   8   15.30    5.40
   0   6   8   13.60    2.90
   0  -6   8   19.90    3.00
   0   6  -8   19.40    2.90
   0   6  -8   18.30    2.80
   0  -6  -8   21.80    2.50
   1   6  -8   55.89    4.40
  -1  -6  -8   58.49    4.30
   1   6  -8   57.69    4.00
  -1   6   8   57.39    4.50
  -1  -6  -8   53.39    4.00
  -1   6   8   59.89    9.60
   1   6  -8   57.99    4.40
   1  -6   8   61.09    4.50
  -1  -6  -8   58.99    4.10
  -1   6   8   59.89    8.10
  -1  -6  -8   59.09    4.40
   1  -6  -8   50.59    4.30
  -1   6  -8   58.99    4.70
   1   6   8   60.49    8.70
   1   6   8   55.49    4.40
  -1   6  -8   58.19    5.60
   1   6   8   52.69    5.80
   1  -6  -8   66.49    4.40
  -1   6  -8   54.09    4.30
  -1  -6   8   56.89    4.70
   1  -6  -8   54.09    2.90
  -1  -6   8   68.79    5.80
  -1  -6   8   56.99    4.70
  -2   6   8   48.60    8.80
  -2  -6  -8   57.29    4.20
   2   6  -8   53.39    3.50
  -2   6   8   63.39    9.10
  -2   6   8   49.70    4.00
  -2  -6  -8   62.79    4.40
   2   6  -8   52.29    5.20
  -2  -6  -8   66.79    5.20
  -2  -6  -8   54.99    3.80
   2   6  -8   57.99    5.00
   2  -6   8   57.39    4.10
   2  -6   8   59.39    5.20
   2   6   8   60.59    5.40
   2  -6  -8   57.39    4.10
  -2   6  -8   55.39    5.40
  -2   6  -8   54.69    5.30
  -2  -6   8   51.69    4.20
  -2  -6   8   68.39    7.20
   2  -6  -8   62.19    5.20
  -2   6  -8   62.79    5.10
  -2  -6   8   54.19    4.30
   2   6   8   48.40    4.80
   3  -6   8   11.00    3.30
   3   6  -8    9.80    2.80
  -3   6   8    7.80    2.00
  -3   6   8    7.20    6.60
  -3  -6  -8    4.60    2.20
  -3  -6  -8   12.10    2.20
   3   6  -8   10.30    3.00
   3   6  -8    6.20    2.70
  -3  -6  -8    7.70    2.30
  -3  -6  -8    9.60    2.20
   3  -6   8    7.90    2.80
  -3   6   8    5.20    6.20
  -3  -6   8   13.30    3.20
  -3  -6   8   11.80    3.10
   3  -6  -8    6.00    1.90
  -3   6  -8   10.10    3.50
  -3   6  -8    7.80    3.10
   3  -6  -8    7.70    2.50
  -3   6  -8    9.30    3.20
   3   6   8    8.00    3.00
   3   6   8    8.40    3.10
  -4  -6  -8   90.79    6.40
  -4  -6  -8   95.59    6.80
  -4   6   8   91.69   15.00
   4   6  -8   92.39    5.90
   4   6  -8   94.59    7.40
   4  -6   8   91.59    7.30
   4  -6   8   86.69    6.80
   4   6  -8   93.99    6.80
  -4   6   8  109.89   11.20
  -4   6  -8   92.79    7.40
  -4  -6   8   95.89    7.00
  -4   6  -8   82.39    6.30
  -4   6  -8   95.79    7.30
   4   6   8  102.89    7.50
   4  -6  -8  102.29    6.60
   4   6   8   93.69    6.40
  -4  -6   8   96.29    5.70
   5  -6   8   15.50    3.60
  -5  -6  -8   22.70    4.00
  -5   6   8   19.70   11.70
   5  -6   8   21.80    4.20
   5   6  -8   27.90    4.90
  -5  -6  -8   30.20    4.20
  -5   6   8   24.80    7.40
   5   6   8   25.30    4.30
  -5  -6   8   24.20    3.90
  -5  -6   8   27.20    4.80
   5   6   8   29.70    4.80
  -5   6  -8   28.10    4.10
  -5   6  -8   28.50    5.00
   5  -6  -8   19.30    4.10
   6   6  -8   55.69    6.70
  -6   6   8   57.89   15.60
  -6   6   8   66.09   11.60
   6  -6   8   58.49    6.90
  -6  -6  -8   79.09    7.60
   6   6  -8   49.30    6.20
   6  -6   8   52.29    6.40
  -6  -6  -8   58.39    6.10
   6   6   8   49.90    6.10
   6   6   8   58.99    6.40
  -6  -6   8   64.69    6.70
   6  -6  -8   59.89    6.50
  -6  -6   8   54.29    5.00
  -6   6  -8   50.39    6.50
  -6   6  -8   60.59    6.30
  -7   6   8   19.50   10.50
  -7  -6  -8   23.40    5.20
   7  -6   8   16.10    4.80
   7   6  -8   22.50    5.50
   7  -6   8   18.60    5.20
  -7  -6  -8   19.60    4.30
  -7   6   8   18.30   13.30
   7   6  -8   18.30    4.30
   7   6   8   16.30    4.40
   7  -6  -8   17.50    4.30
  -7   6  -8   18.10    4.50
  -7   6  -8   22.70    5.40
  -7  -6   8   20.70    5.40
  -7  -6   8   19.00    3.80
   8  -6   8   33.20    6.30
   8  -6   8   34.40    6.70
  -8  -6  -8   25.30    5.00
   8   6  -8   41.10    7.40
   8   6  -8   40.10    6.00
  -8   6   8   27.20   15.60
  -8   6  -8   24.40    5.10
   8  -6  -8   21.10    4.40
   0  -7   8   87.39    5.40
   0   7  -8   94.09    5.80
   0  -7  -8   84.59    5.90
   0  -7   8   93.29    6.10
   0   7   8   91.39   11.80
   0   7  -8   86.69    5.00
   0   7   8   78.19    5.30
   0  -7  -8   95.39    5.60
   0  -7  -8   83.09    4.50
   0   7  -8   85.89    7.90
   0   7  -8   95.39    5.60
   0   7   8   79.79    8.20
   1   7  -8  351.96   11.40
  -1  -7  -8  359.56   11.40
  -1  -7  -8  345.47   10.60
  -1   7   8  353.76   11.50
   1  -7   8  356.26   10.30
  -1  -7  -8  360.36   11.60
  -1   7   8  353.36   20.70
  -1   7   8  368.26   16.30
   1  -7   8  361.86   11.60
   1   7  -8  370.16   12.40
   1   7  -8  329.47    9.90
   1   7   8  359.36   12.30
  -1  -7   8  374.06   11.80
  -1   7  -8  324.27   13.80
   1   7   8  374.56   20.10
  -1   7  -8  346.77   11.70
   1  -7  -8  362.46   12.30
   1  -7  -8  354.86   11.30
   1   7   8  362.76   15.00
  -1   7  -8  348.67   10.60
  -1  -7   8  368.26   11.20
  -1   7  -8  341.87   11.50
   2   7  -8   45.90    5.00
  -2  -7  -8   40.30    4.90
  -2  -7  -8   50.09    4.50
   2   7  -8   38.90    4.20
   2  -7   8   40.50    4.40
  -2   7   8   40.60    9.30
   2  -7   8   46.80    3.30
  -2   7   8   54.49    9.20
   2  -7   8   40.60    4.70
  -2  -7  -8   48.90    4.80
   2   7  -8   44.10    5.30
  -2  -7   8   46.50    4.30
   2  -7  -8   48.30    5.30
  -2  -7   8   48.30    4.50
   2   7   8   51.19    6.10
  -2   7  -8   47.20    4.90
  -2   7  -8   49.99    5.90
  -2   7  -8   50.89    4.80
   2  -7  -8   46.70    4.30
   3   7  -8  158.68    7.70
   3  -7   8  158.08    8.70
  -3   7   8  159.78   15.90
  -3   7   8  176.38   15.00
   3   7  -8  159.58    8.60
  -3  -7  -8  160.88    7.90
   3  -7   8  165.18    8.20
   3   7  -8  167.38    8.90
  -3  -7  -8  159.48    8.00
  -3   7  -8  165.98    9.70
  -3   7  -8  147.29    8.10
  -3  -7   8  174.38    8.40
   3   7   8  172.18   10.10
   3  -7  -8  168.78    8.40
   3  -7  -8  173.08    7.50
  -3  -7   8  167.18    7.70
  -3   7  -8  170.88    9.00
  -4  -7  -8   -2.40    2.40
  -4   7   8   -4.60    8.30
  -4   7   8    2.20    6.80
   4   7  -8    2.30    3.20
  -4  -7  -8   -2.70    1.50
   4  -7   8   -4.80    2.50
   4   7  -8    2.10    2.90
   4   7  -8    2.20    2.60
   4  -7   8   -5.10    3.00
   4  -7  -8    1.40    2.20
   4   7   8   -1.30    2.70
  -4   7  -8    1.40    3.00
  -4   7  -8   -4.00    2.70
  -4  -7   8    3.20    2.70
   4   7   8    1.90    2.50
  -4  -7   8    1.10    2.00
  -5  -7  -8   29.50    4.30
  -5   7   8   35.40   13.00
   5  -7   8   33.70    4.90
   5   7  -8   35.10    5.70
  -5   7   8   34.90    9.20
   5   7  -8   44.80    5.90
   5  -7   8   28.50    5.50
  -5  -7  -8   39.50    5.10
   5  -7  -8   32.90    4.70
  -5   7  -8   31.70    4.50
  -5  -7   8   39.50    4.50
   5   7   8   30.60    4.50
  -5  -7   8   36.20    5.00
   5   7   8   46.20    5.60
  -5   7  -8   39.20    5.40
  -6  -7  -8   24.00    4.40
   6  -7   8   21.60    4.50
   6  -7   8   31.10    6.00
   6   7  -8   24.20    5.40
   6   7  -8   28.30    5.20
  -6   7   8   28.40    8.70
  -6  -7  -8   22.20    4.40
  -6   7   8   30.60   13.10
  -6   7  -8   26.70    4.60
  -6  -7   8   32.80    4.80
  -6  -7   8   26.40    4.80
   6   7   8   22.60    4.30
   6   7   8   28.00    5.20
   6  -7  -8   28.90    5.20
  -6   7  -8   38.80    6.20
   7   7  -8    7.20    4.40
  -7   7   8   -0.10    9.30
   7  -7   8    4.00    3.50
   7   7  -8    3.40    4.30
  -7  -7  -8   -3.50    2.30
   7  -7   8   -0.70    2.50
  -7  -7  -8    3.70    3.30
  -7   7   8    3.60   11.50
  -7  -7   8    2.20    3.00
  -7  -7   8    1.00    3.10
  -7   7  -8    4.90    3.60
   7   7   8    0.60    3.60
  -7   7  -8   -1.80    4.00
   7  -7  -8    7.80    3.70
   7   7   8    0.40    4.00
   0  -8  -8   25.10    3.70
   0  -8  -8   15.60    3.00
   0   8   8   17.40    6.40
   0  -8   8   15.30    2.60
   0   8  -8   21.90    3.40
   0  -8   8   21.80    3.90
   0   8  -8   22.60    3.70
   0   8   8   17.20    5.30
   0  -8  -8   18.90    2.40
   0   8  -8   20.80    5.60
   0   8  -8   23.30    3.90
  -1   8   8  230.08   17.70
  -1  -8  -8  242.68    8.70
   1   8  -8  227.88    9.30
  -1  -8  -8  220.38    9.10
  -1  -8  -8  229.58    9.80
   1   8  -8  212.38    9.40
   1  -8   8  249.08    9.90
   1  -8   8  221.68    9.30
  -1   8   8  240.98   14.50
   1   8  -8  233.48   10.20
   1  -8  -8  233.08    9.30
  -1   8  -8  219.78    9.30
  -1  -8   8  222.38    9.60
   1  -8  -8  234.58   10.30
   1   8   8  221.08   12.20
  -1   8  -8  220.18    8.70
  -1   8  -8  220.08   12.00
  -1  -8   8  228.88    8.80
  -1   8  -8  232.68    9.50
   2   8  -8   65.39    6.10
  -2  -8  -8   63.39    4.60
  -2   8   8   70.99   11.40
  -2  -8  -8   61.19    5.80
   2  -8   8   70.69    6.60
   2   8  -8   70.79    6.10
  -2   8   8   62.69    4.40
   2  -8   8   62.89    5.20
  -2   8   8   56.89    8.90
  -2  -8  -8   68.79    4.90
   2   8  -8   61.79    6.10
  -2   8  -8   62.59    5.30
  -2  -8   8   56.49    5.70
   2  -8  -8   62.49    5.60
  -2  -8   8   73.09    5.10
  -2   8  -8   61.59    5.90
  -2   8  -8   62.59    6.50
   2  -8  -8   64.49    6.20
   2   8   8   60.19    6.60
  -3  -8  -8   58.19    5.60
   3  -8   8   62.49    6.10
  -3   8   8   57.79   11.20
   3   8  -8   72.59    6.40
  -3   8   8   75.29   10.80
   3   8  -8   53.79    5.70
  -3  -8  -8   57.19    5.50
   3   8  -8   51.39    6.40
   3  -8   8   61.89    6.80
   3   8   8   66.09    6.80
   3  -8  -8   58.19    6.30
  -3  -8   8   52.79    5.50
  -3  -8   8   64.39    6.00
  -3   8  -8   70.79    7.00
   3  -8  -8   58.79    5.60
  -3   8  -8   75.69    7.10
  -3   8  -8   63.99    6.00
   3   8   8   55.19    6.80
   4  -8   8    9.70    4.00
   4   8  -8   10.20    3.30
  -4  -8  -8    6.90    3.40
  -4   8   8    5.80    6.10
  -4  -8  -8    6.20    2.80
  -4   8   8    6.80    8.40
   4   8  -8   11.00    3.90
   4  -8   8    9.20    2.90
   4   8  -8    5.30    2.90
   4   8   8    8.20    3.20
   4   8   8   12.00    4.10
  -4   8  -8   12.10    3.90
  -4   8  -8    4.70    3.60
  -4  -8   8    7.50    3.50
   4  -8  -8    9.10    3.60
  -4  -8   8   10.50    2.90
   5  -8   8    4.90    2.80
   5   8  -8    8.70    3.50
  -5   8   8    6.40    9.10
   5  -8   8   10.10    4.50
  -5  -8  -8   10.90    3.00
  -5  -8  -8   10.00    4.00
   5   8  -8   13.80    4.60
  -5   8   8    0.50    9.30
  -5  -8   8    7.30    2.90
  -5  -8   8   12.50    4.20
   5   8   8   13.90    3.70
  -5   8  -8   14.70    3.70
   5  -8  -8    6.60    3.80
  -5   8  -8   12.40    4.30
   5   8   8    9.50    3.20
   6  -8   8   11.90    4.10
   6   8  -8   12.60    4.80
   6   8  -8    7.80    4.60
  -6   8   8    9.40    9.70
  -6  -8  -8    8.90    3.30
   6   8  -8   14.60    5.00
   6  -8   8    2.70    2.80
  -6  -8  -8   13.50    4.10
  -6   8   8   20.20   11.70
  -6   8  -8    9.30    3.50
   6   8   8   11.20    4.50
  -6  -8   8    8.10    3.00
  -6   8  -8   13.40    4.80
   6   8   8   11.20    3.50
   6  -8  -8   13.30    4.50
  -6  -8   8   13.00    3.90
   0  -9   8   23.00    4.30
   0   9  -8   20.50    3.40
   0   9  -8   16.00    3.80
   0   9   8   18.90    5.10
   0  -9  -8   22.20    4.10
   0   9  -8   16.10    3.60
   0  -9  -8   13.10    3.30
   0   9   8   22.40    7.70
   0   9  -8   23.60    6.50
   0  -9   8   17.80    3.10
   1  -9   8   25.00    4.40
  -1  -9  -8   21.20    3.40
   1   9  -8   20.80    3.80
   1   9  -8   24.20    4.50
  -1   9   8   24.00    7.40
  -1  -9  -8   24.40    3.70
   1   9  -8   21.10    3.50
  -1  -9  -8   22.40    3.80
   1  -9   8   25.50    4.10
  -1   9   8   26.90    7.10
  -1  -9   8   21.40    3.50
   1   9   8   27.00    5.50
  -1   9  -8   33.80    6.30
  -1  -9   8   22.70    3.90
   1  -9  -8   22.00    4.00
   1  -9  -8   18.80    3.60
  -1   9  -8   19.10    4.00
  -1   9  -8   28.80    4.20
  -2  -9  -8   22.00    3.90
  -2  -9  -8   19.30    3.70
  -2   9   8   24.20    7.90
  -2  -9  -8   23.20    3.40
  -2   9   8   23.50    7.80
   2  -9   8   24.60    3.80
   2   9  -8   25.40    4.90
   2   9  -8   21.10    4.00
   2  -9   8   20.90    4.90
   2   9  -8   25.60    4.80
  -2  -9   8   16.40    3.50
   2  -9  -8   23.80    3.80
  -2   9  -8   38.60    6.20
   2   9   8   23.10    5.20
  -2   9  -8   19.70    3.90
  -2   9  -8   27.50    4.20
  -2  -9   8   26.60    4.00
   2   9   8   31.80    6.60
   2  -9  -8   18.80    3.80
  -3   9   8   13.50    2.80
   3  -9   8    7.10    3.30
   3  -9   8   11.70    4.50
   3   9  -8    8.80    3.80
  -3  -9  -8   10.00    2.70
  -3   9   8   17.10    6.80
   3   9  -8    8.40    3.40
  -3  -9  -8   16.90    4.00
  -3   9   8   14.00    7.00
   3   9  -8    9.20    3.30
  -3  -9   8   12.00    3.50
   3   9   8   12.80    4.60
   3  -9  -8   21.30    4.10
  -3   9  -8   14.00    3.50
  -3   9  -8   20.30    4.20
  -3   9  -8   11.40    3.30
  -3  -9   8   15.90    3.30
   3  -9  -8   14.10    3.60
   4   9  -8    9.80    4.30
   4  -9   8   10.90    3.70
  -4  -9  -8   13.10    3.30
  -4   9   8    9.50    7.00
  -4   9   8   -1.70    7.50
  -4  -9  -8    9.20    3.50
   4   9  -8    6.40    3.30
  -4   9   8    9.80    3.60
   4  -9   8    7.20    3.70
   4   9  -8   14.60    4.80
  -4   9  -8   13.60    3.60
  -4  -9   8    6.50    3.50
  -4  -9   8   13.40    4.00
  -4   9  -8   14.60    4.20
   4  -9  -8    8.70    3.80
   4   9   8   10.80    3.80
   4   9   8    9.60    3.50
  -5   9   8    3.80    8.10
  -5  -9  -8    8.30    3.90
   5  -9   8    4.40    3.60
   5   9  -8    4.40    3.20
   5  -9   8    6.40    4.30
  -5  -9  -8    2.20    3.60
  -5   9   8    9.60    9.20
  -5   9   8    2.30    2.50
   5   9  -8    3.90    3.20
  -5  -9   8   -0.70    3.40
  -5   9  -8    6.30    3.10
  -5  -9   8    5.90    3.80
   5  -9  -8    1.40    3.60
   5   9   8   -0.20    3.30
   5   9   8    2.40    2.90
  -5   9  -8    1.60    3.80
  -6  -9  -8    0.60    3.40
   0 -10  -8   -1.40    2.90
   0  10   8    1.60    4.00
   0 -10  -8   -0.60    2.50
   0  10  -8   -0.50    2.80
   0  10  -8   -1.50    1.80
   0 -10   8    0.30    2.10
  -1 -10  -8    3.70    3.40
   1  10  -8    5.30    3.30
   1  10  -8   10.40    3.70
   1 -10   8   10.20    4.30
   1  10  -8    9.00    3.10
  -1 -10  -8    5.80    2.40
  -1  10   8   10.00    5.70
   1 -10   8    8.50    3.70
  -1  10  -8   16.60    4.10
   1 -10  -8    3.20    2.60
   1  10   8   15.20    4.90
   1  10   8   14.40    4.70
  -1 -10   8   11.20    4.20
   1 -10  -8    5.00    2.70
  -1  10  -8    3.50    2.70
  -1  10  -8   15.70    4.00
   2 -10   8   22.50    4.30
  -2 -10  -8   26.20    4.80
   2 -10   8   29.20    5.70
   2  10  -8   26.50    5.20
  -2 -10  -8   24.10    4.00
   2  10  -8   26.00    4.10
   2  10  -8   24.60    4.60
  -2  10   8   19.40    7.90
   2 -10  -8   34.80    5.50
  -2  10  -8   18.50    3.70
  -2 -10   8   30.60    5.20
   2  10   8   30.60    5.90
  -2  10  -8   29.70    4.60
   2 -10  -8   27.90    4.80
   3  10  -8   89.49    8.30
  -3 -10  -8   92.29    7.30
   3  10  -8   90.49    7.40
  -3  10   8  108.49   14.00
   3 -10   8   91.19    8.60
   3 -10   8   90.69    7.50
  -3  10   8  130.09   12.90
  -3 -10  -8  100.69    7.30
   3  10  -8   93.29    7.90
  -3  10  -8   82.09    8.10
  -3  10  -8   92.59    7.40
   3  10   8   75.69    8.40
  -3 -10   8   78.19    6.90
   3 -10  -8  102.09    8.50
  -3 -10   8   98.49    7.30
  -4  10   8   25.70    6.50
   4  10  -8   10.70    3.70
  -4 -10  -8    9.60    3.30
   4 -10   8    7.20    3.10
  -4  10   8   14.40    9.20
   4 -10   8    3.00    3.40
  -4  10   8    4.40    2.50
   4  10  -8    5.40    3.20
  -4 -10  -8   11.60    3.90
   4  10  -8   12.40    4.60
  -4  10  -8    0.50    3.40
  -4 -10   8    7.70    3.80
   4  10   8    7.00    4.60
  -4 -10   8   10.00    4.20
  -4  10  -8   11.00    4.60
   4 -10  -8    6.00    3.10
   0 -11   8   25.00    5.30
   0 -11  -8   30.90    5.50
   0 -11   8   15.60    5.10
   0  11  -8   22.90    4.10
   0 -11  -8   22.70    4.30
   0  11   8   25.60    5.80
   1  11  -8    2.40    3.30
   1 -11   8   -1.00    4.00
  -1 -11  -8    4.00    3.10
  -1  11   8   13.00    5.70
   1  11  -8    5.90    3.50
   1  11  -8    4.00    3.60
  -1 -11  -8    8.50    3.90
   1 -11  -8    5.40    3.90
   1 -11  -8    5.30    3.70
   1  11   8    7.90    4.80
  -1  11  -8    7.50    3.90
  -1 -11   8    6.10    3.80
  -2  11   8   26.90    8.10
   2  11  -8   11.70    4.40
   2 -11   8   17.00    5.20
  -2 -11  -8   19.50    4.20
   2  11  -8   22.70    5.20
   2  11  -8   27.00    4.90
  -2  11  -8   25.40    4.50
   2 -11  -8   21.20    4.30
  -2 -11   8   25.00    5.30
   2 -11  -8   23.70    4.90
   2  11   8   17.10    5.50
  -3 -11  -8   33.70    6.60
   3  11  -8   51.59    6.90
   3 -11   8   31.50    5.80
  -3  11   8   55.19   11.50
   3  11  -8   47.70    5.80
   3  11  -8   37.90    6.20
  -3 -11  -8   37.60    5.40
   3 -11  -8   35.30    5.50
  -3  11  -8   35.30    5.80
   3  11   8   37.20    7.60
   0   0   9    1.30    4.20
   0   0  -9    3.50    1.40
   0   0  -9    3.20    1.10
   0   0  -9    4.90    1.50
   0   0   9    3.70    2.40
   0   0   9    5.00    1.90
   0   0  -9    6.50    1.80
   1   0   9 1808.12   33.90
  -1   0   9 1747.93   33.60
  -1   0   9 1750.92   42.80
  -1   0  -9 1714.73   33.30
  -1   0  -9 1746.03   34.00
  -1   0  -9 1795.02   33.10
   1   0  -9 1749.72   33.80
   1   0  -9 1752.52   32.90
   1   0   9 1760.82   33.80
   1   0  -9 1765.92   31.60
   1   0   9 1770.42   39.30
  -1   0  -9 1744.63   31.90
  -2   0  -9  369.96    8.90
  -2   0   9  372.86   10.70
  -2   0  -9  358.06   10.60
  -2   0  -9  380.16   11.00
  -2   0   9  372.96   17.10
   2   0  -9  363.06    8.00
   2   0   9  360.26   10.40
  -2   0  -9  386.66   10.50
   2   0   9  375.06   13.70
   2   0  -9  364.36   10.50
   3   0  -9  200.58    7.50
   3   0   9  197.88    6.70
  -3   0  -9  189.78    7.50
  -3   0  -9  176.48    7.50
  -3   0  -9  178.08    7.30
  -3   0  -9  190.68    5.80
   3   0   9  196.38    7.50
   3   0  -9  189.28    7.20
   3   0   9  181.98    7.10
  -3   0   9  200.68    7.30
  -3   0   9  197.98   14.60
   3   0  -9  178.28    4.20
   4   0  -9  113.19    6.40
   4   0   9  130.09    6.50
   4   0   9  119.59    5.60
  -4   0  -9  120.59    4.50
  -4   0  -9  115.19    6.10
  -4   0   9  114.19    6.30
   4   0  -9  118.79    5.50
  -4   0   9  121.09   14.20
   4   0   9  115.69    6.20
   4   0  -9  115.89    6.00
  -4   0  -9  123.39    6.40
   5   0   9  155.08    7.20
   5   0   9  145.29    6.70
   5   0  -9  140.49    6.40
  -5   0  -9  144.49    5.30
   5   0   9  143.79    7.20
  -5   0  -9  138.29    7.30
  -5   0  -9  137.79    6.90
   5   0  -9  156.48    8.00
  -5   0   9  172.98   17.40
  -5   0   9  161.08    7.20
   6   0  -9  136.29    8.30
  -6   0  -9  151.28    7.80
   6   0   9  141.39    8.10
  -6   0   9  157.08    8.00
   6   0   9  135.49    7.10
   6   0   9  154.58    7.40
  -6   0  -9  153.38    8.00
   6   0  -9  138.29    6.80
  -6   0   9  142.19   16.00
  -7   0   9   33.50   11.60
  -7   0   9   16.70    4.00
   7   0   9   22.20    4.00
   7   0  -9   25.90    3.80
   7   0  -9   20.10    3.90
   7   0  -9   22.90    3.80
  -7   0  -9   21.30    4.20
  -7   0  -9   24.00    4.10
   7   0   9   17.90    3.50
  -8   0   9   18.70   10.70
   8   0  -9   -0.60    3.00
  -8   0  -9   -0.40    2.80
  -8   0   9    2.50    3.10
  -8   0  -9   -1.20    2.00
   8   0   9    2.80    3.10
   9   0  -9    1.80    3.20
  -9   0  -9    4.60    3.50
  -9   0   9   -1.20    3.00
   9   0   9   -0.90    3.50
   0   1   9   80.29    4.90
   0  -1  -9   78.99    4.00
   0   1  -9   87.19    4.20
   0  -1  -9   76.89    4.70
   0  -1   9   74.29    5.10
   0  -1  -9   78.59    3.70
   0  -1   9   90.59    9.50
   0   1   9   76.09    4.20
   0   1  -9   79.29    3.90
   0   1  -9   86.19    4.60
   0   1  -9   78.89    3.70
   0   1   9   78.99    4.30
   0   1   9   88.69   10.00
   0  -1   9   79.19    4.00
  -1   1   9  328.37   11.20
  -1   1   9  335.37    9.90
   1   1  -9  338.87    9.50
   1  -1   9  322.07    9.50
   1  -1   9  334.37    9.60
   1   1  -9  331.57    8.00
  -1  -1  -9  336.77    9.40
   1  -1   9  351.86   10.20
  -1  -1  -9  356.96    9.70
  -1   1   9  333.17    9.50
  -1  -1  -9  346.87    8.30
  -1  -1  -9  341.67   10.10
   1  -1   9  340.57   12.50
   1   1  -9  342.17    9.90
  -1   1   9  336.37   17.30
   1   1   9  356.36   10.20
  -1  -1   9  342.77   15.20
   1   1   9  335.27   14.60
  -1  -1   9  334.17    8.70
  -1   1  -9  339.97   10.00
   1  -1  -9  334.17    8.50
   1  -1  -9  352.96   10.10
  -1   1  -9  331.67    8.80
  -1  -1   9  342.47   10.10
  -1   1  -9  332.47    9.60
   1  -1  -9  319.87    8.30
   1   1   9  329.77    6.60
   1  -1  -9  340.97    8.10
   2   1  -9   51.99    4.00
  -2  -1  -9   60.39    4.20
  -2  -1  -9   53.89    4.00
  -2  -1  -9   57.49    2.70
   2  -1   9   67.99    4.30
  -2   1   9   53.09    8.10
   2  -1   9   51.79    4.50
  -2   1   9   59.49    3.80
  -2  -1  -9   52.29    3.90
   2   1  -9   56.69    2.30
  -2   1   9   50.99    3.80
  -2  -1   9   56.69    2.80
   2  -1  -9   56.39    2.70
  -2   1  -9   66.19    4.60
   2   1   9   55.99    5.70
  -2  -1   9   62.29    4.70
   2  -1  -9   55.89    3.50
  -2   1  -9   54.99    3.80
  -2   1  -9   53.59    3.30
  -2  -1   9   56.59    7.20
   2   1   9   53.59    3.00
   2   1   9   56.79    3.90
   2  -1  -9   56.59    3.90
  -3   1   9   75.49    5.00
   3   1  -9   58.49    4.50
  -3  -1  -9   59.49    4.50
   3  -1   9   60.49    4.00
  -3  -1  -9   60.59    4.20
  -3   1   9   61.39    3.90
   3   1  -9   69.19    4.40
  -3  -1  -9   62.19    4.20
  -3   1   9   55.19    9.10
  -3  -1  -9   61.99    2.70
   3  -1   9   66.89    4.40
   3  -1   9   66.79    4.80
  -3  -1   9   67.69    3.30
   3  -1  -9   61.29    4.30
  -3  -1   9   61.89    2.70
  -3  -1   9   55.59    4.20
  -3   1  -9   59.19    3.60
   3   1   9   64.89    4.40
  -3   1  -9   65.59    4.80
   3   1   9   62.59    3.40
  -3   1  -9   67.09    4.50
   3  -1  -9   61.79    2.50
   3   1   9   57.79    3.80
  -3  -1   9   67.09    8.60
   3  -1  -9   73.89    4.90
  -4  -1  -9    2.20    0.90
   4   1  -9    1.70    2.10
  -4  -1  -9    0.80    1.60
   4   1  -9    2.00    1.80
   4  -1   9    1.80    1.60
  -4  -1  -9   -0.20    1.40
   4   1  -9    3.00    1.80
   4  -1   9   -0.50    1.60
  -4   1   9    0.60    1.40
  -4   1   9    5.00    5.60
  -4   1   9    0.70    1.60
   4  -1   9    0.00    1.20
  -4  -1   9    0.50    1.00
  -4  -1   9   -0.10    1.60
   4   1   9   -0.10    1.40
  -4  -1   9    4.30    4.80
  -4   1  -9    2.20    2.30
   4   1   9    2.80    2.10
   4  -1  -9    3.30    1.60
   4  -1  -9    1.50    1.90
  -4   1  -9    1.10    1.10
   4   1   9    3.60    1.90
   5  -1   9  145.59    6.90
  -5  -1  -9  151.68    7.10
  -5   1   9  173.18   15.80
  -5  -1  -9  148.19    7.20
   5   1  -9  163.98    7.30
  -5   1   9  165.88    7.10
   5  -1   9  164.58    8.20
   5  -1   9  159.68    7.20
   5   1  -9  151.08    8.10
   5   1   9  146.79    7.00
  -5   1  -9  149.59    7.90
   5   1   9  151.38    6.40
  -5  -1   9  184.98   17.20
   5  -1  -9  162.28    7.70
   5  -1  -9  137.59    6.00
  -5   1  -9  149.59    6.00
   5   1   9  151.28    7.40
  -5  -1   9  155.18    7.30
   6  -1   9    2.90    2.40
  -6   1   9   15.60    9.60
  -6   1   9   -0.70    2.50
   6  -1   9    4.20    1.80
   6   1  -9    4.40    2.50
   6   1  -9    5.90    2.60
  -6  -1  -9    8.40    3.00
  -6  -1  -9    4.60    2.50
   6  -1   9    2.40    2.60
  -6  -1   9    5.80    6.50
   6  -1  -9    4.10    2.90
  -6   1  -9    3.40    1.90
   6   1   9    3.70    2.50
  -6  -1   9    7.20    2.50
  -6   1  -9    3.60    2.70
   6   1   9    4.60    1.90
  -6   1  -9    6.50    2.50
   6  -1  -9    5.60    2.30
   6   1   9    2.50    2.70
   6  -1  -9    4.00    2.50
   7  -1   9   32.30    4.60
   7  -1   9   27.40    4.40
   7   1  -9   25.90    3.60
  -7  -1  -9   35.00    5.00
  -7   1   9   31.50   11.50
  -7  -1  -9   20.80    3.50
  -7   1   9   24.40    3.70
   7   1  -9   29.60    4.20
   7   1  -9   19.20    4.50
  -7   1  -9   30.00    4.50
  -7  -1   9   38.70    4.80
   7   1   9   24.90    3.80
   7   1   9   44.30    5.50
   7  -1  -9   34.60    5.30
  -7   1  -9   35.20    4.60
  -7  -1   9   46.50   13.40
   7  -1  -9   28.50    3.80
  -8  -1  -9   13.80    3.90
  -8   1   9    8.20    2.80
  -8   1   9   36.80   12.80
   8   1  -9   21.00    4.10
   8  -1   9   18.40    4.80
   8   1  -9   16.80    4.00
   8  -1   9    8.10    2.70
   8  -1  -9   16.50    4.40
  -8  -1   9   52.59   14.80
  -8   1  -9   23.40    4.50
  -8  -1   9   10.70    3.20
   8   1   9   10.00    3.10
  -8   1  -9   12.20    3.90
   9  -1   9   16.60    4.90
  -9  -1  -9   13.20    4.20
   9   1  -9   17.40    4.90
  -9  -1  -9   18.20    4.40
  -9  -1   9   19.20    4.90
   9  -1  -9   11.40    4.50
  -9   1  -9   16.00    4.40
   9   1   9   17.80    4.00
   0  -2  -9  385.46    8.10
   0   2   9  390.96   18.00
   0  -2   9  396.36   14.60
   0  -2  -9  388.66    9.80
   0  -2   9  388.16   10.50
   0  -2   9  386.66   11.00
   0   2   9  371.26   10.60
   0   2  -9  398.76   10.30
   0   2   9  404.56   11.00
   0   2   9  379.06   11.40
   0  -2  -9  384.76   10.90
   0  -2  -9  378.16   10.00
   0   2  -9  403.66   11.10
   1   2  -9   77.29    4.40
   1  -2   9   81.79    4.60
   1   2  -9   82.39    4.70
   1  -2   9   79.19    4.50
  -1  -2  -9   72.09    4.00
  -1   2   9   70.39    4.80
  -1   2   9   75.29    5.60
  -1  -2  -9   75.39    4.40
  -1   2   9   76.89    4.20
  -1  -2  -9   75.09    4.40
  -1   2   9   81.79    9.90
   1  -2   9   71.09    5.20
   1  -2  -9   74.39    3.70
  -1   2  -9   75.19    4.90
   1  -2  -9   75.39    4.50
   1  -2  -9   74.99    3.20
  -1  -2   9   74.89    7.40
  -1  -2   9   84.09    5.30
   1   2   9   67.69    3.30
   1   2   9   67.89    4.50
   1  -2  -9   75.19    3.20
  -1  -2   9   71.29    3.70
   1   2   9   74.89    8.20
  -1   2  -9   72.29    4.10
  -1   2  -9   78.89    4.20
  -2   2   9  117.49    5.00
   2  -2   9  106.19    5.40
  -2  -2  -9  111.79    5.30
   2   2  -9  111.79    5.30
  -2   2   9  115.99   13.00
  -2  -2  -9  112.39    5.60
  -2   2   9  122.39    5.90
  -2  -2  -9  111.89    5.60
   2   2  -9  110.69    3.30
  -2   2   9  109.79    7.60
   2  -2   9  111.49    5.40
   2   2  -9  114.99    5.40
   2  -2  -9  112.09    3.20
  -2  -2   9  114.09    4.70
  -2   2  -9  109.39    5.70
   2  -2  -9  121.39    6.00
  -2  -2   9  106.09    4.50
   2   2   9  106.39    3.60
  -2  -2   9  113.49    9.90
  -2  -2   9  119.59    6.10
   2   2   9  108.09    8.80
  -2   2  -9  108.89    4.70
   2  -2  -9  117.19    4.30
  -2   2  -9  122.89    5.80
   2  -2  -9  115.99    4.70
   2   2   9  108.39    5.50
  -3  -2  -9    2.50    1.50
  -3  -2  -9    2.40    1.00
  -3  -2  -9    0.70    1.80
  -3   2   9   -0.30    5.50
  -3   2   9   -4.40    2.00
   3  -2   9    1.00    1.90
  -3  -2  -9    2.70    2.10
  -3   2   9    0.60    1.40
   3   2  -9    4.40    1.90
   3  -2   9    2.60    1.80
  -3   2   9    1.40    2.40
   3  -2   9    2.40    2.10
   3   2   9    1.00    0.90
  -3  -2   9    0.90    2.10
  -3   2  -9    1.70    1.80
   3  -2  -9    0.90    1.00
  -3  -2   9    1.90    3.70
  -3  -2   9   -1.20    1.30
   3   2   9    2.00    2.00
  -3   2  -9    1.10    1.50
  -3   2  -9    3.20    1.70
  -3  -2   9    1.40    1.00
   3   2   9    2.20    1.50
   3  -2  -9    1.00    1.90
   3  -2  -9    1.20    1.10
   4  -2   9   80.99    5.40
  -4  -2  -9   88.19    5.50
  -4   2   9   93.89   12.30
  -4   2   9   94.49    5.20
   4   2  -9   96.29    5.60
   4   2  -9   97.69    4.90
  -4  -2  -9   92.69    5.90
  -4   2   9   82.89    4.20
   4  -2   9   84.49    5.90
   4  -2   9   95.49    5.30
   4   2  -9   90.39    6.10
   4   2   9   99.39    6.00
  -4  -2   9   90.59    4.00
  -4  -2   9   92.49   12.20
   4   2   9   85.89    4.00
   4   2   9   88.79    5.00
  -4   2  -9   90.39    4.90
   4  -2  -9   84.59    5.30
   4  -2  -9   84.99    4.10
  -4  -2   9   95.59    6.00
  -4   2  -9   89.59    6.10
  -5   2   9  175.38    7.60
   5  -2   9  163.18    7.70
   5  -2   9  174.58    7.20
   5  -2   9  159.48    8.10
  -5  -2  -9  174.38    7.70
   5   2  -9  161.98    7.80
   5   2  -9  169.28    8.50
  -5  -2  -9  171.58    8.20
  -5   2   9  175.38   18.20
   5  -2  -9  177.38    8.30
  -5   2  -9  156.48    6.60
  -5  -2   9  186.78   17.80
   5  -2  -9  164.38    6.00
   5   2   9  156.58    6.50
  -5  -2   9  158.98    5.60
  -5   2  -9  165.58    8.50
   5   2   9  173.98    7.60
   5   2   9  186.08    8.50
  -5  -2   9  158.98    7.70
   5  -2  -9  176.88    8.20
   6  -2   9  154.18    8.60
  -6   2   9  159.78    7.70
   6  -2   9  162.28    7.20
  -6  -2  -9  170.18    7.90
  -6  -2  -9  165.48    8.60
  -6   2   9  186.48   20.30
   6  -2   9  176.68    9.00
   6   2  -9  161.88    9.40
   6   2  -9  177.28    8.70
   6   2   9  171.38    8.20
  -6   2  -9  174.08    8.70
   6  -2  -9  173.38    8.50
  -6  -2   9  183.08   17.60
  -6  -2   9  172.28    8.60
   6  -2  -9  153.88    8.50
  -6   2  -9  171.48    7.30
   6   2   9  170.98    8.00
   7  -2   9   56.49    6.70
  -7  -2  -9   45.70    5.70
   7   2  -9   51.69    6.60
  -7   2   9   54.69    5.30
  -7   2   9   65.49   15.80
   7  -2   9   42.10    5.60
   7   2  -9   50.89    5.40
  -7   2   9   64.89   11.00
  -7   2  -9   57.49    6.40
   7  -2  -9   41.80    5.20
  -7  -2   9   98.89   18.80
   7  -2  -9   44.80    5.30
  -7  -2   9   44.20    5.40
   7   2   9   55.29    5.70
   7   2   9   48.20    5.20
   8   2  -9    9.70    3.70
   8  -2   9    7.10    4.10
   8   2  -9    8.30    3.90
  -8   2   9   37.00    8.20
  -8  -2  -9    8.40    3.40
  -8   2   9   27.00   13.70
  -8  -2  -9   14.90    4.20
   8  -2   9   13.40    3.40
  -8   2  -9    8.20    3.60
  -8  -2   9   16.40    3.80
   8  -2  -9   10.90    3.40
  -8   2  -9   12.80    4.20
   8   2   9   12.50    3.80
   0   3   9  778.82   19.80
   0  -3  -9  834.82   18.80
   0  -3   9  797.42   17.90
   0  -3  -9  787.62   17.10
   0  -3   9  783.92   21.10
   0  -3  -9  800.62   17.50
   0   3   9  796.42   18.40
   0   3   9  848.22   27.90
   0  -3   9  795.32   18.10
   0   3  -9  848.32   18.20
   0   3  -9  809.32   18.30
  -1  -3  -9   91.29    5.00
   1  -3   9   90.79    4.90
  -1   3   9   85.89    5.00
   1   3  -9  104.39    4.90
  -1  -3  -9   88.99    4.80
   1   3  -9   92.49    5.10
  -1   3   9  105.49   12.90
  -1  -3  -9   89.79    4.60
  -1   3   9  102.89    4.90
   1  -3   9   98.09    5.60
  -1   3   9   89.09    6.30
   1  -3   9   91.79    4.90
  -1   3  -9   86.59    4.70
   1  -3  -9   91.49    4.20
  -1  -3   9   87.69    4.40
   1  -3  -9   87.29    3.70
   1  -3  -9   88.89    5.30
  -1  -3   9   95.59    4.70
   1   3   9   93.69    4.80
   1   3   9   81.59    5.10
   1  -3  -9   90.49    3.20
  -1  -3   9   81.89    7.20
  -1   3  -9   92.99    5.10
   1   3   9   94.29    8.50
  -1  -3   9   94.69    5.10
  -2   3   9  328.77   13.70
  -2  -3  -9  315.97   10.00
  -2  -3  -9  340.77   10.10
   2   3  -9  331.67   10.20
  -2   3   9  328.27   19.80
  -2  -3  -9  326.97   10.30
  -2   3   9  329.57    9.50
   2  -3   9  342.77   10.00
   2  -3   9  314.67   10.40
  -2   3   9  320.17    9.40
   2   3  -9  350.56    9.80
  -2  -3   9  334.87   10.40
   2  -3  -9  322.77   10.40
   2   3   9  359.36   16.60
   2   3   9  316.17   10.50
  -2  -3   9  330.67    9.00
   2  -3  -9  310.97    7.00
   2  -3  -9  339.27    8.80
  -2  -3   9  312.97    9.00
  -2   3  -9  330.87   10.60
   2  -3  -9  304.57    6.70
  -2  -3   9  333.87   15.60
  -2   3  -9  319.77    9.60
  -3   3   9  304.17   20.80
  -3  -3  -9  287.77    9.40
  -3   3   9  290.67    8.60
   3  -3   9  298.47   10.10
   3   3  -9  292.27    8.80
   3  -3   9  300.57    9.40
  -3  -3  -9  295.17   10.00
  -3   3   9  300.27    9.30
  -3   3   9  300.27   14.10
   3  -3   9  291.77   10.10
   3   3  -9  297.37   10.00
  -3  -3  -9  277.17   10.00
   3  -3  -9  288.57   10.00
  -3  -3   9  311.77   17.40
  -3   3  -9  280.57    9.10
   3   3   9  288.77    8.40
  -3  -3   9  293.87    8.60
  -3   3  -9  291.97   10.30
  -3  -3   9  296.37    8.50
   3  -3  -9  284.27    7.90
   3   3   9  296.67   10.20
  -3   3  -9  292.97   10.20
  -3  -3   9  307.67   10.30
  -4  -3  -9   42.90    4.00
  -4   3   9   33.00    6.20
   4  -3   9   40.70    4.60
   4   3  -9   47.50    4.60
  -4   3   9   39.70    3.90
   4  -3   9   44.70    4.10
  -4   3   9   40.30    3.10
   4  -3   9   45.30    4.80
   4   3  -9   41.00    3.60
  -4  -3  -9   29.80    3.10
  -4   3   9   39.40    9.70
  -4  -3  -9   38.70    4.40
   4  -3  -9   37.50    2.70
   4   3   9   46.20    5.00
  -4   3  -9   45.00    4.10
   4  -3  -9   40.30    4.40
   4  -3  -9   40.90    4.00
   4   3   9   41.10    3.40
  -4  -3   9   39.40    3.10
  -4   3  -9   38.50    4.70
  -4  -3   9   40.30    4.60
  -4  -3   9   37.10    8.40
  -5   3   9  126.19   17.00
  -5  -3  -9  107.19    6.10
   5  -3   9  101.89    6.70
   5   3  -9  102.59    6.90
  -5   3   9  104.99   11.90
  -5   3   9   99.19    5.40
   5   3  -9  106.99    7.00
  -5  -3  -9  102.49    6.30
   5  -3   9   99.39    6.50
   5  -3   9  105.49    5.70
   5   3   9  109.99    7.00
  -5  -3   9   93.49    5.00
   5   3   9   98.99    5.60
  -5  -3   9  100.89    6.50
  -5   3  -9  107.39    6.10
   5  -3  -9  103.49    6.90
   5   3   9  104.29    6.10
  -5  -3   9  117.99   15.30
  -5   3  -9   99.49    6.50
   5  -3  -9  109.49    6.40
   6  -3   9   33.90    5.20
  -6   3   9   36.40    4.20
  -6  -3  -9   36.20    4.50
   6   3  -9   34.00    5.40
   6   3  -9   36.70    5.00
  -6   3   9   53.39    9.50
  -6   3   9   51.69   14.30
  -6  -3  -9   36.10    4.30
   6  -3   9   38.30    4.90
   6   3   9   36.80    4.80
  -6  -3   9   39.80    5.30
   6   3   9   34.70    3.80
  -6   3  -9   39.70    5.50
   6  -3  -9   35.60    4.80
   6  -3  -9   37.50    4.50
  -6   3  -9   36.20    4.20
  -6  -3   9   49.60   13.30
   7   3  -9   17.40    4.30
  -7   3   9   29.90   13.50
   7   3  -9   12.30    3.50
   7  -3   9   19.40    4.00
  -7   3   9   39.10    9.90
  -7  -3  -9   13.10    4.30
   7  -3   9   15.00    3.80
  -7  -3  -9   20.30    4.40
   7  -3  -9   12.30    3.10
   7  -3  -9   13.70    3.50
  -7   3  -9   20.30    4.10
  -7  -3   9   44.60   12.50
  -7   3  -9   10.50    3.20
  -7  -3   9   12.70    3.60
   7   3   9   20.90    4.20
   8   3  -9   13.60    4.20
   8  -3   9    9.60    4.60
  -8   3   9   24.40    7.60
  -8  -3  -9   10.50    3.70
  -8  -3  -9   17.20    4.10
   8  -3   9    8.50    3.90
  -8   3   9   22.10   13.20
   8   3  -9   14.40    4.40
   8  -3  -9   13.90    4.20
  -8  -3   9   12.80    3.80
  -8   3  -9   12.50    4.40
   0   4  -9  164.88    6.60
   0  -4   9  165.98    6.80
   0   4   9  160.58    6.90
   0  -4   9  158.78    8.00
   0  -4  -9  168.78    6.90
   0   4  -9  170.78    7.00
   0  -4  -9  170.28    6.90
   0   4   9  161.48    8.70
   0   4   9  170.28   13.20
   0  -4  -9  160.68    5.70
   0  -4  -9  151.78    6.40
   0  -4   9  159.28    6.60
   1  -4   9   62.59    4.40
   1  -4   9   82.39    5.30
  -1   4   9   67.29    9.30
  -1  -4  -9   74.99    4.70
  -1   4   9   72.79    4.60
  -1  -4  -9   68.19    4.40
   1   4  -9   79.99    4.90
  -1  -4  -9   80.09    5.00
  -1   4   9   75.69    7.60
   1   4  -9   72.89    4.60
  -1  -4   9   80.49    6.90
   1  -4  -9   74.29    5.20
   1  -4  -9   73.09    5.00
   1  -4  -9   69.89    4.10
   1   4   9   75.29    5.20
   1   4   9   77.89    5.20
   1   4   9   88.69    9.40
  -1  -4   9   74.19    4.30
  -1  -4   9   80.79    4.80
  -1  -4   9   78.09    4.70
  -1   4  -9   74.59    5.10
  -1   4  -9   71.89    4.40
   1  -4  -9   69.19    3.20
  -2   4   9  133.59    9.70
  -2  -4  -9  136.19    5.90
  -2  -4  -9  137.79    6.60
  -2   4   9  137.59    6.00
   2   4  -9  139.59    5.90
  -2   4   9  134.29    5.90
   2  -4   9  143.39    6.30
   2   4  -9  138.39    6.70
  -2   4   9  140.69   13.80
  -2  -4  -9  133.69    6.00
  -2  -4   9  134.49   10.30
  -2   4  -9  148.29    6.50
   2  -4  -9  125.39    4.00
   2  -4  -9  140.89    5.70
  -2   4  -9  132.89    6.00
  -2  -4   9  138.19    6.00
   2   4   9  141.49    6.40
  -2  -4   9  128.89    6.60
   2  -4  -9  139.19    7.00
   2   4   9  138.69    7.00
  -2   4  -9  133.29    7.00
   2  -4  -9  129.49    4.50
   2  -4  -9  142.99    6.90
   2   4   9  135.29    4.70
   2   4   9  151.38   11.90
  -2  -4   9  136.59    6.00
   3  -4   9  216.38    8.90
  -3   4   9  220.28   17.20
  -3   4   9  231.08    7.80
  -3   4   9  232.58   13.60
  -3  -4  -9  228.48    8.70
  -3  -4  -9  224.98    7.40
   3  -4   9  222.08    8.90
   3   4  -9  233.18    7.60
   3   4  -9  223.78    8.70
  -3   4   9  231.78    7.50
  -3  -4  -9  232.08    8.30
  -3  -4   9  213.28    7.50
  -3   4  -9  227.58    9.50
   3  -4  -9  224.58    7.30
  -3  -4   9  226.68    8.70
  -3  -4   9  221.98   14.30
   3   4   9  230.18    9.10
  -3   4  -9  234.78    8.60
   3  -4  -9  237.08    7.50
   3  -4  -9  228.88    9.40
  -3  -4   9  220.68    7.50
  -4  -4  -9    6.90    2.30
  -4   4   9    6.70    1.90
  -4   4   9    8.20    8.70
   4   4  -9    6.70    2.30
  -4   4   9    5.00    5.40
  -4  -4  -9    6.40    2.30
   4  -4   9    4.10    1.70
  -4   4   9    2.50    2.20
   4  -4   9    1.90    1.90
   4  -4   9    5.40    2.90
   4   4  -9    5.20    1.60
   4  -4  -9    4.70    2.00
  -4   4  -9    7.10    2.60
  -4  -4   9    7.00    1.90
   4  -4  -9    5.10    2.90
   4  -4  -9    5.30    1.70
  -4  -4   9    8.60    2.60
  -4   4  -9    2.10    2.80
   4   4   9    6.50    1.60
  -4  -4   9    4.80    3.90
   4   4   9    1.50    2.60
   5   4  -9    3.80    2.40
  -5  -4  -9    6.70    2.60
   5  -4   9    3.80    2.30
  -5  -4  -9    3.90    1.70
  -5   4   9   -0.90    2.20
  -5   4   9   10.10    7.10
   5  -4   9    5.60    2.10
  -5  -4  -9    0.60    2.60
   5  -4   9    1.90    2.20
  -5   4   9    7.70    6.40
   5   4  -9    4.50    3.20
  -5  -4   9    9.80    6.60
  -5  -4   9    4.10    2.20
   5   4   9    2.80    2.10
  -5   4  -9    5.30    2.80
   5   4   9    4.10    2.00
  -5  -4   9    7.00    3.20
  -5   4  -9    4.60    3.10
   5  -4  -9    3.10    2.20
   5  -4  -9    6.10    2.90
   6  -4   9   71.09    7.10
   6   4  -9   82.29    6.80
  -6  -4  -9   88.79    6.30
  -6   4   9   99.49   12.80
  -6  -4  -9   84.09    7.60
   6  -4   9   73.19    6.90
   6   4  -9   78.39    7.10
  -6   4   9  109.49   18.10
   6  -4  -9   89.69    6.50
   6   4   9   89.59    6.40
   6  -4  -9   84.79    7.30
  -6   4  -9   95.69    8.30
  -6  -4   9   89.29    6.80
   6   4   9   91.59    7.10
  -6  -4   9   74.59    5.10
  -6   4  -9   86.79    6.30
  -6  -4   9  103.09   13.70
  -7  -4  -9   50.79    6.20
   7  -4   9   53.69    6.40
  -7  -4  -9   61.19    6.30
  -7   4   9   94.49   13.70
   7   4  -9   54.39    7.20
   7  -4   9   52.99    6.20
  -7   4   9   89.29   18.90
   7   4  -9   62.39    6.90
  -7   4  -9   55.29    6.50
  -7   4  -9   49.70    5.40
   7  -4  -9   68.69    5.70
  -7  -4   9   70.79    7.40
   7  -4  -9   54.99    6.10
   8   4  -9   63.69    6.90
  -8   4   9   87.79   17.80
   8  -4   9   58.59    7.40
  -8  -4  -9   64.19    6.90
   8  -4   9   59.89    7.30
   8   4  -9   56.99    8.00
  -8  -4  -9   55.79    7.30
  -8   4   9  106.29   16.90
  -8   4  -9   68.89    7.90
   8  -4  -9   54.39    6.10
  -8  -4   9   63.19    7.10
   8  -4  -9   68.09    7.30
   0  -5  -9   20.20    3.20
   0   5   9   18.30    4.50
   0   5   9   21.50    3.20
   0  -5  -9   21.40    2.50
   0   5   9   22.20    6.30
   0  -5   9   23.90    3.10
   0   5  -9   21.20    2.90
   0   5  -9   25.90    3.20
   0  -5   9   24.70    3.30
   0  -5  -9   20.50    2.80
   0  -5  -9   23.40    3.50
   1   5  -9  104.69    5.30
  -1   5   9  102.49    8.90
  -1  -5  -9  108.29    5.80
  -1   5   9   98.99    5.40
  -1  -5  -9   96.49    5.60
  -1  -5  -9  100.89    5.00
  -1   5   9  113.09   12.90
   1  -5   9  112.69    5.90
   1   5  -9   99.19    5.40
  -1  -5  -9  102.79    5.70
   1  -5  -9   97.19    6.10
  -1  -5   9  108.09    7.60
   1   5   9   95.99    6.50
   1  -5  -9   97.49    3.80
  -1  -5   9   96.89    5.90
  -1  -5   9  103.69    5.60
   1   5   9  104.69   10.90
  -1   5  -9   94.19    5.50
   1  -5  -9  103.99    5.50
   1  -5  -9  103.59    6.00
  -1   5  -9  109.09    6.60
   1   5   9  101.19    6.10
  -1   5  -9   98.79    5.70
  -2  -5  -9   65.39    4.90
   2   5  -9   68.29    3.90
   2   5  -9   71.79    5.30
   2  -5   9   65.99    5.40
  -2   5   9   61.59   10.90
  -2  -5  -9   70.59    4.30
   2  -5   9   68.69    4.30
  -2   5   9   71.49    4.70
  -2  -5  -9   64.69    4.70
  -2  -5  -9   54.89    4.40
  -2   5   9   72.19    8.90
  -2   5  -9   70.99    5.50
   2  -5  -9   70.49    4.60
   2   5   9   68.39    5.30
   2   5   9   63.59    5.30
  -2  -5   9   73.79    4.90
  -2  -5   9   69.99    4.90
   2  -5  -9   72.09    5.10
  -2   5  -9   65.39    5.00
  -2   5  -9   61.29    4.80
  -2  -5   9   71.79    7.90
   2   5   9   73.99    9.90
  -2  -5   9   61.79    4.30
  -3  -5  -9  390.16   11.40
  -3   5   9  412.76   26.10
   3  -5   9  383.76   13.30
  -3   5   9  415.26   18.70
   3   5  -9  401.76   12.80
  -3  -5  -9  416.26   12.90
  -3   5   9  410.86   11.20
   3   5  -9  415.46   10.80
  -3  -5  -9  421.26   13.00
   3  -5   9  407.26   13.40
  -3  -5  -9  410.16   11.10
   3   5  -9  418.06   13.10
  -3  -5   9  413.46   12.90
   3   5   9  420.26   13.60
  -3   5  -9  397.86   12.40
  -3   5  -9  394.16   13.30
  -3  -5   9  397.76   11.50
   3  -5  -9  414.26   11.20
  -3  -5   9  419.86   20.60
   3  -5  -9  422.66   13.30
  -4  -5  -9  242.38   10.30
   4  -5   9  233.18    8.60
  -4   5   9  231.78   23.00
   4   5  -9  247.38   10.00
   4  -5   9  248.98   10.60
  -4   5   9  245.78   15.10
   4   5  -9  251.57   10.10
  -4  -5  -9  233.28    9.60
  -4  -5  -9  238.68    8.50
   4  -5   9  260.57   11.20
  -4  -5   9  238.68    8.90
  -4  -5   9  246.48   10.40
   4  -5  -9  242.98    8.30
  -4   5  -9  266.27    9.90
  -4   5  -9  244.18   10.80
   4   5   9  237.88   10.10
  -4  -5   9  264.27   18.40
   4  -5  -9  248.48    8.40
   4  -5  -9  251.17   10.60
   5  -5   9    6.00    3.50
   5  -5   9    8.30    3.40
   5   5  -9    8.20    3.60
   5  -5   9   14.90    2.70
  -5   5   9   12.60    6.10
  -5  -5  -9   18.90    3.90
  -5   5   9   23.80   11.60
  -5  -5  -9    8.60    2.90
  -5  -5   9   10.70    2.50
  -5   5  -9    4.40    3.00
  -5  -5   9   16.10    4.10
  -5  -5   9   16.90    7.30
   5  -5  -9   10.70    2.90
   5  -5  -9    6.90    2.20
   5   5   9   13.10    3.40
   5   5   9    6.50    3.40
  -5   5  -9    5.60    2.70
  -6  -5  -9  114.49    7.70
   6  -5   9  110.09    8.60
  -6  -5  -9  111.29    7.80
   6   5  -9   96.99    8.60
   6  -5   9   94.19    7.50
   6   5  -9  101.19    8.20
  -6   5   9  133.79   21.00
  -6   5   9  124.09   15.80
  -6   5  -9   95.79    7.50
   6  -5  -9   92.19    6.70
   6  -5  -9   87.89    6.00
  -6  -5   9  149.59   17.00
   6   5   9   97.89    7.30
  -6  -5   9   96.89    6.20
  -6   5  -9   94.29    7.00
  -6  -5   9  101.19    8.40
   7  -5   9    7.50    4.00
  -7   5   9   16.90    7.90
   7  -5   9    8.80    3.40
   7   5  -9   12.80    4.00
  -7   5   9    7.60   13.00
   7   5  -9    8.70    4.20
  -7  -5  -9   12.00    3.90
  -7  -5  -9   19.10    4.80
   7  -5  -9   11.00    3.70
  -7   5  -9    9.20    2.90
  -7   5  -9   10.80    3.70
   7  -5  -9   10.20    3.50
  -7  -5   9   10.40    4.80
   8  -5   9   59.29    7.90
   8   5  -9   63.19    8.10
  -8   5   9   74.49   20.10
  -8  -5  -9   74.69    7.00
   8   5  -9   72.89    7.70
  -8  -5  -9   69.99    9.00
   8  -5   9   51.59    7.30
   8  -5  -9   63.09    6.70
  -8   5  -9   62.29    6.20
   8  -5  -9   68.39    7.30
  -8  -5   9   72.49    9.40
   0   6   9  161.68    7.80
   0  -6  -9  173.98    7.70
   0   6  -9  173.78    7.80
   0   6  -9  182.08    7.70
   0  -6   9  164.28    7.00
   0  -6  -9  171.08    7.70
   0   6   9  177.28   14.60
   0  -6  -9  171.38    7.40
   0  -6  -9  180.18    6.40
   0   6   9  173.58   10.30
   0  -6   9  176.98    7.70
  -1   6   9  234.58   17.30
   1   6  -9  228.58    8.10
  -1  -6  -9  231.28    9.00
   1  -6   9  237.18    8.50
  -1   6   9  234.48   13.10
  -1   6   9  223.18    8.70
  -1  -6  -9  226.48    8.10
  -1  -6  -9  218.88    8.40
   1   6  -9  215.18    8.80
  -1  -6  -9  223.18    8.60
  -1   6  -9  205.98    8.30
  -1   6  -9  216.98    9.00
   1   6   9  211.88    8.90
  -1  -6   9  218.88    8.60
   1   6   9  240.48   16.40
   1   6   9  219.48   10.60
  -1  -6   9  236.88    8.90
   1  -6  -9  222.38    9.00
  -1   6  -9  223.38   10.40
   1  -6  -9  232.18    8.70
  -2  -6  -9  227.78    8.50
  -2   6   9  249.38   19.70
  -2  -6  -9  220.28    8.40
  -2   6   9  214.58    8.10
   2   6  -9  233.68    9.30
   2   6  -9  217.38    7.60
   2  -6   9  222.28    9.10
  -2  -6  -9  231.08    8.50
   2  -6   9  234.68    7.80
  -2   6   9  236.18   14.40
  -2  -6  -9  242.08    9.50
  -2   6  -9  230.18    9.70
   2   6   9  218.28    9.30
  -2   6  -9  222.88   10.10
   2   6   9  229.98   10.60
   2  -6  -9  247.18   10.00
   2  -6  -9  238.38    8.70
  -2  -6   9  234.18   13.20
  -2   6  -9  211.68    8.60
  -2  -6   9  216.38    8.30
  -2  -6   9  232.58    8.90
   3   6  -9   24.20    3.70
  -3  -6  -9   27.80    3.70
  -3   6   9   14.10    9.40
   3  -6   9   27.20    4.60
  -3   6   9   30.00    8.30
  -3  -6  -9   28.20    4.10
  -3   6   9   26.30    3.10
   3   6  -9   23.50    3.90
  -3  -6  -9   25.00    3.30
  -3  -6  -9   24.20    2.80
   3  -6   9   22.00    3.70
  -3  -6   9   29.80    4.50
   3  -6  -9   25.30    3.90
   3   6   9   17.40    3.30
  -3   6  -9   24.50    3.90
  -3  -6   9   32.90    6.30
  -3  -6   9   25.10    3.40
   3  -6  -9   24.60    3.20
  -3   6  -9   21.30    3.90
   3   6   9   36.20    4.50
  -4   6   9  173.88   22.20
   4   6  -9  161.98    8.40
   4  -6   9  169.78    9.70
  -4  -6  -9  170.78    8.40
  -4   6   9  169.28   15.20
  -4  -6  -9  154.38    8.50
   4  -6   9  163.78    9.20
   4   6  -9  178.98    9.40
   4  -6  -9  156.38    8.30
  -4  -6   9  151.88    7.20
  -4   6  -9  154.48    8.60
  -4   6  -9  148.59    8.20
  -4  -6   9  160.08    8.90
  -4  -6   9  205.28   15.80
   4   6   9  169.08    9.40
   4  -6  -9  172.08    7.40
   4   6   9  174.88    9.50
  -5   6   9   66.79   16.00
   5   6  -9   68.29    7.00
   5  -6   9   56.49    6.80
  -5  -6  -9   65.89    6.40
   5  -6   9   62.69    6.50
  -5  -6  -9   60.29    6.60
  -5   6   9   79.09   11.60
  -5  -6   9   60.39    5.20
  -5  -6   9   80.19    7.30
   5   6   9   74.69    7.10
  -5   6  -9   66.59    6.30
  -5   6  -9   60.49    7.10
   5  -6  -9   66.19    6.80
   6   6  -9   22.20    5.30
   6   6  -9   17.70    4.00
  -6   6   9   14.00    7.40
  -6  -6  -9   16.80    3.90
  -6   6   9   26.60   13.70
   6  -6   9   14.30    4.40
   6  -6   9   17.20    4.90
  -6  -6  -9   21.50    4.40
   6  -6  -9   21.40    4.40
  -6   6  -9   18.00    4.20
  -6  -6   9   15.50    3.60
  -6  -6   9   21.20    4.30
   6   6   9   15.20    4.10
  -6   6  -9   16.60    4.70
  -7   6   9   44.90   11.30
   7   6  -9   36.20    5.90
   7  -6   9   27.90    5.90
   7   6  -9   27.20    5.40
  -7  -6  -9   41.90    5.80
  -7  -6  -9   43.70    5.80
  -7   6   9   35.80   15.80
   7  -6   9   34.70    6.10
  -7   6  -9   38.10    6.50
  -7  -6   9   55.49    7.30
   7  -6  -9   31.40    5.30
  -7   6  -9   45.40    5.80
   0   7  -9   34.20    4.10
   0   7   9   33.50    4.20
   0   7  -9   30.10    4.10
   0  -7  -9   26.20    3.90
   0   7   9   35.10    6.40
   0  -7   9   31.40    3.80
   0  -7  -9   34.80    3.30
   0  -7   9   30.40    3.50
   0   7   9   28.40    7.50
   0  -7  -9   31.70    4.40
  -1   7   9  204.88   17.30
  -1   7   9  194.78    8.40
  -1  -7  -9  195.58    7.80
   1   7  -9  213.58    9.40
  -1  -7  -9  214.48    9.10
   1  -7   9  205.38    8.00
  -1   7   9  205.18   12.30
   1   7  -9  198.98    7.50
  -1  -7  -9  210.98    8.80
   1   7  -9  193.88    8.40
  -1   7  -9  206.78    9.00
   1   7   9  234.28   17.60
  -1   7  -9  189.58    8.70
  -1   7  -9  200.58   10.90
   1   7   9  204.98   11.30
  -1  -7   9  195.58    8.40
   1  -7  -9  192.88    9.20
   1  -7  -9  206.98    8.70
   1   7   9  190.98    8.90
  -1  -7   9  200.68    8.80
   2  -7   9   10.70    2.50
  -2   7   9    7.80    2.20
  -2   7   9    6.90    6.30
  -2  -7  -9    7.20    2.30
   2   7  -9    8.10    2.50
   2  -7   9   13.40    3.90
   2   7  -9   11.30    3.10
  -2   7   9   14.00    7.50
  -2  -7  -9   10.70    2.80
   2  -7   9    5.90    2.90
  -2  -7  -9    7.60    3.10
  -2  -7  -9   13.20    2.90
   2   7  -9   12.60    3.40
  -2  -7   9    9.90    2.50
   2  -7  -9   11.00    3.50
  -2  -7   9    9.80    3.30
  -2   7  -9    4.70    2.90
   2  -7  -9   12.60    2.60
   2   7   9   11.60    3.70
   2   7   9   11.90    3.10
  -2   7  -9   11.20    3.30
  -2   7  -9   12.30    3.40
   3  -7   9   69.19    5.70
  -3  -7  -9   84.99    6.60
  -3   7   9   77.69   12.40
   3   7  -9   75.69    6.40
   3   7  -9   72.19    6.50
  -3  -7  -9   66.89    5.80
  -3   7   9   68.89   11.20
   3  -7   9   67.69    6.90
   3   7  -9   76.69    6.20
  -3  -7   9   78.89    6.40
   3  -7  -9   62.19    6.10
  -3   7  -9   72.19    6.80
   3  -7  -9   65.79    5.40
  -3  -7   9   77.89    5.50
   3   7   9   92.09    7.10
  -3   7  -9   81.69    5.90
   4   7  -9  110.09    8.00
   4  -7   9   98.99    7.70
  -4  -7  -9   99.39    6.70
  -4   7   9  111.39   15.40
  -4  -7  -9  112.29    7.50
   4   7  -9  106.29    7.40
   4   7  -9  105.09    8.30
  -4   7   9  116.99   14.60
   4  -7   9   92.99    7.70
  -4   7  -9  100.49    8.00
   4   7   9  110.89    8.30
   4  -7  -9  100.19    7.00
  -4  -7   9  103.59    7.00
  -4  -7   9   95.49    6.80
  -4   7  -9  100.99    7.50
   5  -7   9   36.00    6.10
   5   7  -9   46.30    6.30
  -5   7   9   45.20   10.00
  -5  -7  -9   45.20    5.40
   5  -7   9   43.10    5.60
  -5  -7  -9   39.70    5.30
  -5   7   9   51.19   14.80
   5  -7  -9   47.70    5.70
  -5  -7   9   42.30    5.40
  -5   7  -9   43.00    5.10
  -5  -7   9   43.10    5.20
  -5   7  -9   42.10    5.90
   5   7   9   41.50    5.60
  -6  -7  -9   11.90    4.00
   6  -7   9   10.00    3.60
   6   7  -9    8.10    4.40
  -6   7   9   18.70    8.20
   6  -7   9   11.10    4.60
  -6  -7  -9   24.30    5.10
   6   7  -9   11.40    3.90
  -6   7   9    8.30    9.40
  -6  -7   9   15.90    4.10
  -6  -7   9   14.40    3.80
  -6   7  -9   10.70    4.00
  -6   7  -9   13.00    3.40
   6   7   9   16.80    4.00
   6  -7  -9   12.20    4.10
   7  -7   9   14.10    3.90
   7   7  -9   15.90    5.20
  -7   7   9    8.90   12.60
  -7   7   9    6.50   11.00
  -7  -7  -9   12.00    4.20
   7  -7   9   16.90    5.60
   7   7  -9   16.20    5.40
  -7  -7   9   12.60    3.80
  -7  -7   9   18.90    5.40
   7   7   9   15.10    4.60
   7  -7  -9   11.20    4.20
  -7   7  -9   14.00    4.50
   0   8  -9   95.79    6.70
   0  -8  -9   97.89    7.00
   0  -8   9   90.19    5.90
   0  -8  -9   95.29    6.70
   0  -8   9   96.59    6.20
   0   8  -9   83.29    5.20
   0   8   9  103.69   12.10
   0   8  -9   86.39    6.10
   0   8   9   92.89    9.30
   1   8  -9   69.19    6.20
   1   8  -9   70.69    6.20
  -1  -8  -9   78.09    5.80
  -1   8   9   74.29   11.10
   1   8  -9   59.59    5.50
  -1   8   9   77.39   10.00
   1  -8   9   73.39    6.10
  -1  -8  -9   73.49    5.10
  -1  -8  -9   76.99    5.50
   1  -8  -9   66.69    5.90
  -1   8  -9   68.99    5.80
  -1   8  -9   81.89    7.90
   1   8   9   82.09    7.50
  -1   8  -9   73.89    6.40
   1   8   9   85.49   12.50
   1  -8  -9   74.59    6.90
  -1  -8   9   71.59    5.80
  -1  -8   9   80.99    6.40
  -2   8   9   11.50    6.90
   2   8  -9    4.60    3.20
  -2  -8  -9    3.10    2.40
   2  -8   9    2.40    3.50
  -2   8   9    1.10    4.20
  -2  -8  -9    5.30    2.70
  -2  -8  -9    7.90    2.70
   2  -8   9    8.40    3.10
   2   8  -9    6.30    2.50
   2   8  -9    8.10    3.10
  -2  -8   9    9.00    2.60
  -2  -8   9    6.70    2.50
   2  -8  -9    7.30    2.40
  -2   8  -9   12.80    3.50
   2  -8  -9    2.50    3.00
  -2   8  -9    5.90    2.90
   2   8   9    9.80    3.70
  -2   8  -9    6.60    2.60
   3  -8   9   20.80    4.80
   3   8  -9   24.80    4.30
   3   8  -9   23.40    4.30
   3   8  -9   28.40    5.10
  -3  -8  -9   17.90    4.10
  -3   8   9   33.10    9.20
  -3  -8  -9   26.10    3.80
  -3   8   9   26.40    9.80
   3  -8   9   25.60    4.60
  -3   8  -9   28.40    4.30
   3  -8  -9   29.70    5.10
  -3  -8   9   20.70    4.10
   3   8   9   33.90    5.80
  -3   8  -9   17.20    4.40
   3  -8  -9   28.50    4.20
  -3  -8   9   24.40    3.90
   3   8   9   27.70    4.70
  -4   8   9   28.60   10.80
  -4  -8  -9   28.20    4.80
   4   8  -9   32.10    5.20
   4  -8   9   22.90    4.30
   4  -8   9   27.00    5.50
  -4   8   9   31.20    9.90
  -4  -8  -9   26.40    4.50
   4   8  -9   31.60    4.40
   4   8  -9   28.40    4.70
  -4  -8   9   20.00    3.70
  -4   8  -9   33.80    4.60
   4   8   9   20.90    4.50
  -4  -8   9   24.30    4.90
   4  -8  -9   21.70    4.70
  -4   8  -9   28.50    5.30
   5  -8   9    6.70    3.10
   5   8  -9    4.60    4.00
  -5   8   9   -2.60    6.70
  -5  -8  -9    7.10    3.60
  -5  -8  -9   -0.50    2.40
  -5   8   9   -0.10    8.20
   5  -8   9    4.20    3.00
  -5   8  -9    3.30    2.70
  -5  -8   9    5.20    3.30
  -5  -8   9    8.10    4.00
   5   8   9    2.70    2.70
   5  -8  -9   -1.70    3.20
  -5   8  -9   -4.40    3.40
  -6   8   9   40.90   13.70
  -6  -8  -9   52.59    6.90
   6  -8   9   45.40    7.30
  -6  -8  -9   24.60    5.10
  -6   8   9   40.90   12.50
   6   8  -9   45.30    7.40
   6   8  -9   50.29    7.30
   6  -8   9   36.30    5.70
   6  -8  -9   47.20    6.40
  -6  -8   9   36.40    4.90
  -6   8  -9   39.10    5.50
   6   8   9   43.80    6.70
  -6  -8   9   50.79    6.80
  -6   8  -9   43.50    6.30
   0   9   9  181.08   15.90
   0  -9   9  160.28    8.40
   0   9   9  169.48   12.30
   0  -9  -9  160.78    9.10
   0  -9   9  167.38    8.40
   0   9  -9  170.58    8.70
   0  -9  -9  178.98    8.80
  -1  -9  -9   40.10    4.00
  -1  -9  -9   47.60    5.00
   1   9  -9   45.60    5.30
   1  -9   9   46.70    5.10
   1   9  -9   44.30    5.00
   1   9  -9   35.50    5.00
  -1   9   9   54.39   10.40
  -1   9   9   55.59    9.20
  -1  -9  -9   43.00    5.40
  -1  -9   9   41.90    4.30
  -1  -9   9   53.29    5.90
   1   9   9   49.60    7.60
  -1   9  -9   39.00    4.80
  -1   9  -9   37.60    4.80
   1  -9  -9   45.80    5.40
   1  -9  -9   47.70    5.50
  -2  -9  -9   28.80    4.20
   2   9  -9   28.00    4.90
   2   9  -9   35.00    5.00
   2  -9   9   24.40    4.00
  -2   9   9   37.10    8.70
  -2  -9  -9   31.20    4.20
   2  -9   9   24.10    4.60
   2   9  -9   28.90    5.00
  -2   9   9   31.60    8.90
  -2  -9  -9   29.00    4.90
  -2   9  -9   23.10    4.60
   2  -9  -9   29.40    4.60
   2  -9  -9   35.50    4.80
  -2   9  -9   53.79    5.80
   2   9   9   36.70    6.00
  -2   9  -9   32.70    5.10
  -2  -9   9   32.60    5.00
  -2  -9   9   33.00    4.60
   3  -9   9   15.40    5.00
   3   9  -9   22.50    4.40
  -3  -9  -9   22.90    4.10
  -3  -9  -9   24.30    3.90
  -3   9   9   22.90    7.20
   3   9  -9   15.60    3.40
   3   9  -9   16.70    3.80
   3  -9   9   14.50    3.90
  -3   9   9   27.50    8.80
   3   9   9   22.30    5.60
   3  -9  -9   21.60    3.70
   3  -9  -9   25.70    4.50
  -3   9  -9   26.80    4.90
  -3  -9   9   20.20    4.40
  -3  -9   9   22.80    3.90
  -3   9  -9   19.80    4.10
  -4   9   9   10.40    6.50
   4  -9   9    6.10    3.40
  -4  -9  -9    2.00    3.30
   4   9  -9    5.00    4.20
   4   9  -9    9.10    4.20
   4   9  -9    5.80    2.60
   4  -9   9   -0.80    4.10
  -4   9   9    4.00    2.40
  -4   9   9    2.80    8.20
  -4  -9  -9    4.80    2.90
   4   9   9    2.70    3.90
  -4  -9   9    5.60    3.40
  -4   9  -9    2.10    2.70
   4  -9  -9    3.00    2.80
  -4   9  -9    6.30    2.90
  -4  -9   9    5.40    3.60
   5   9  -9   60.49    7.20
   5   9  -9   47.20    7.30
   5  -9   9   53.19    7.60
  -5   9   9   50.89    6.30
  -5   9   9   52.89   12.50
  -5  -9  -9   50.89    6.50
  -5   9   9   56.39   12.70
  -5  -9  -9   53.89    6.20
   5  -9   9   50.09    7.00
  -5  -9   9   64.49    6.90
   5   9   9   41.70    7.00
   5  -9  -9   49.20    6.70
  -5   9  -9   42.70    6.00
  -5  -9   9   50.99    6.00
  -5   9  -9   54.89    7.60
   0  10  -9   44.40    5.80
   0 -10  -9   47.20    6.00
   0 -10   9   36.50    5.50
   0  10   9   48.60    7.80
   0 -10  -9   54.99    6.10
   0  10  -9   37.30    4.70
  -1 -10  -9   10.40    3.40
   1 -10   9   -1.30    3.70
   1 -10   9    5.00    3.00
  -1 -10  -9    2.90    2.90
  -1  10   9    9.30    5.20
   1  10  -9    1.30    2.90
   1  10  -9    6.10    3.60
   1  10  -9    2.70    3.20
  -1  10  -9    6.90    2.50
   1  10   9   22.20    4.70
  -1 -10   9    7.80    3.10
   1 -10  -9   10.80    3.80
  -1  10  -9    4.70    2.80
   1 -10  -9    6.60    2.90
   2  10  -9   17.90    3.60
  -2 -10  -9   17.10    3.80
   2 -10   9   13.20    3.80
   2 -10   9   13.90    4.90
  -2  10   9   13.50    7.20
   2  10  -9   11.60    4.10
   2  10  -9   19.60    4.50
  -2  10   9   25.40    6.10
  -2 -10  -9   12.10    2.90
  -2 -10   9   14.60    3.60
   2  10   9   19.90    4.80
  -2  10  -9   15.40    3.60
   2 -10  -9   18.90    4.70
  -2  10  -9   15.50    4.50
   2 -10  -9   15.90    3.70
   3  10  -9   -1.10    2.40
   3  10  -9    5.00    3.00
   3 -10   9   -7.70    3.70
  -3  10   9   -2.00    6.50
  -3 -10  -9    1.60    2.10
  -3 -10  -9   -5.40    3.00
   3  10  -9   -0.10    3.50
   3 -10   9   -1.70    2.80
  -3 -10   9    3.80    3.30
  -3  10  -9    4.60    3.70
  -3  10  -9    0.20    3.00
   3  10   9    0.80    3.20
   3 -10  -9    1.20    3.40
  -3 -10   9   -5.50    3.30
   3 -10  -9   -1.50    2.90
   4 -10   9   30.30    5.00
  -4 -10  -9   30.20    4.50
   4  10  -9   32.20    6.30
   4  10  -9   18.90    4.50
   4 -10   9   26.50    6.40
  -4  10   9   52.19   11.90
  -4  10   9   37.10    8.20
   4  10  -9   22.10    4.30
  -4 -10  -9   30.40    5.40
  -4  10  -9   23.70    5.50
  -4  10  -9   28.20    4.90
   4  10   9   31.90    6.60
  -4 -10   9   28.70    5.10
  -4 -10   9   20.70    4.30
   4 -10  -9   33.70    5.60
   0 -11  -9   25.80    5.10
   0  11  -9   20.00    4.50
   0  11  -9   23.50    4.80
   0 -11  -9   33.70    5.10
   0 -11   9   14.40    5.30
   0 -11   9   23.90    4.40
   1 -11   9   39.10    5.90
  -1 -11  -9   53.19    6.30
  -1 -11  -9   53.49    6.30
   1  11  -9   53.99    6.50
   1  11  -9   62.39    6.20
   1 -11  -9   58.99    7.00
   1  11   9   45.30    7.50
  -1  11  -9   47.50    6.20
  -1 -11   9   59.79    6.80
   1 -11  -9   50.49    6.60
   2 -11   9   15.80    4.50
   2  11  -9    6.70    3.60
   2  11  -9   10.20    4.30
  -2  11   9   18.90    5.90
   2  11  -9   17.90    4.80
   2  11   9    8.40    4.90
   2 -11  -9   15.50    4.20
   2 -11  -9   20.50    4.90
   0   0  10   51.69    3.80
   0   0  10   32.10    3.90
   0   0 -10   54.99    3.50
   0   0  10   42.60    3.20
   0   0 -10   51.59    3.10
   0   0 -10   53.59    4.00
   0   0  10   33.70    6.70
   0   0 -10   44.20    3.20
  -1   0 -10    8.30    1.80
  -1   0  10   10.20    5.60
  -1   0 -10   10.80    1.90
  -1   0 -10    4.80    2.40
   1   0  10    7.60    2.20
   1   0 -10    6.30    1.50
   1   0  10    7.50    2.40
  -1   0  10    9.00    2.40
  -1   0 -10    8.10    1.70
   1   0 -10    8.10    2.50
   1   0  10    8.00    3.60
  -1   0  10   12.50    2.50
   2   0 -10   35.70    2.20
  -2   0  10   38.10    7.40
  -2   0 -10   39.40    3.40
   2   0  10   42.20    5.80
  -2   0 -10   48.30    4.00
  -2   0 -10   38.30    2.60
  -2   0  10   40.60    3.90
   2   0  10   37.40    3.90
  -2   0 -10   41.90    4.00
   2   0 -10   40.30    3.80
  -3   0  10  223.58    8.20
  -3   0 -10  204.38    8.20
   3   0 -10  210.78    7.90
   3   0  10  226.78    8.50
  -3   0 -10  201.88    8.40
  -3   0 -10  195.88    8.10
  -3   0  10  213.28   15.90
   3   0  10  220.88    8.30
   3   0  10  204.28    7.20
   3   0 -10  204.38    8.00
  -3   0 -10  219.68    6.50
   4   0 -10  547.35   15.40
   4   0  10  509.55   14.70
  -4   0  10  593.54   27.50
  -4   0 -10  520.95   15.00
  -4   0 -10  547.15   15.20
  -4   0 -10  528.55   12.10
   4   0  10  545.15   14.90
   4   0 -10  549.65   13.90
   4   0  10  531.85   13.80
  -4   0  10  538.65   14.90
   4   0 -10  537.85   14.60
   5   0 -10  121.09    6.30
  -5   0  10  133.29    6.90
   5   0  10  118.59    6.20
   5   0 -10  135.99    7.80
  -5   0  10  133.69   17.50
  -5   0 -10  133.49    7.40
   5   0  10  124.19    7.00
   5   0  10  132.29    7.50
  -5   0 -10  135.29    7.50
   6   0 -10  167.18    8.90
   6   0 -10  177.48    7.90
  -6   0  10  174.78    8.40
  -6   0 -10  187.88    9.30
  -6   0 -10  174.28    8.50
  -6   0  10  204.28   21.30
   6   0  10  175.08    8.10
   6   0  10  178.68    8.30
   6   0  10  173.48    9.10
   7   0  10    5.90    2.60
   7   0 -10    1.40    3.10
   7   0 -10    5.70    2.70
  -7   0 -10    4.00    3.20
  -7   0  10   -1.10   10.80
  -7   0  10    3.80    3.40
  -7   0 -10    5.40    2.70
  -8   0  10   35.80   13.00
  -8   0 -10    2.90    3.30
  -8   0 -10   11.60    3.90
  -8   0  10    5.30    2.70
   8   0 -10    6.40    3.20
   8   0  10   11.40    4.10
   0  -1 -10    7.70    1.70
   0   1  10    7.10    2.20
   0   1  10    8.40    2.20
   0   1  10   12.60    5.50
   0   1 -10   15.20    2.30
   0   1 -10    9.00    2.00
   0  -1  10    6.60    1.70
   0  -1  10    7.60    4.60
   0  -1 -10    7.80    1.90
   0   1 -10    7.80    2.40
   0   1  10    7.90    2.30
   0   1 -10   11.20    1.70
   0  -1 -10    7.30    2.00
   0  -1  10   12.90    3.10
   1   1 -10  385.16    9.30
   1  -1  10  412.36   11.50
  -1  -1 -10  401.46   11.70
   1   1 -10  401.76   11.00
  -1  -1 -10  387.76   10.90
   1  -1  10  413.46   14.70
   1  -1  10  413.16   11.50
  -1   1  10  399.86   11.30
  -1  -1 -10  389.76    9.60
  -1  -1 -10  399.56   11.00
  -1   1  10  393.06   19.60
  -1   1  10  402.96   11.60
   1   1 -10  404.26   11.40
   1  -1  10  399.06   11.20
  -1   1  10  363.06   12.30
   1   1  10  403.36   16.80
  -1  -1  10  414.86   17.90
   1  -1 -10  411.76   11.70
   1  -1 -10  400.06    9.80
  -1  -1  10  388.86   11.20
   1  -1 -10  398.36    9.90
   1   1  10  406.36   11.70
  -1  -1  10  398.46   10.10
  -1   1 -10  416.06   10.90
   1  -1 -10  384.66    9.40
  -1   1 -10  412.36   12.00
  -1   1 -10  403.16   11.20
  -1   1 -10  406.06   10.40
  -2  -1 -10  211.88    7.90
   2  -1  10  217.88    9.60
  -2  -1 -10  212.58    6.00
  -2   1  10  199.78   15.90
  -2  -1 -10  221.38    8.20
  -2  -1 -10  196.68    7.60
   2   1 -10  197.28    5.30
  -2   1  10  226.78    7.70
   2  -1  10  204.58    7.70
  -2   1  10  204.58    8.00
   2   1 -10  218.98    7.90
   2  -1 -10  207.28    7.10
   2  -1 -10  216.08    6.00
  -2   1 -10  197.78    8.20
   2   1  10  212.98   11.60
  -2  -1  10  212.58    7.90
   2  -1 -10  229.48    8.50
  -2   1 -10  214.48    7.80
   2   1  10  214.28    8.00
  -2  -1  10  202.48    6.10
  -2   1 -10  203.68    7.80
  -2   1 -10  208.18    6.70
  -2  -1  10  209.18   14.10
   3  -1  10  100.69    5.50
   3   1 -10   98.99    5.70
  -3   1  10   97.29    5.90
  -3   1  10   96.79    5.00
  -3  -1 -10   86.79    3.50
  -3  -1 -10   98.09    6.00
  -3  -1 -10  100.69    5.90
   3   1 -10   90.89    5.00
   3  -1  10   89.79    5.20
   3  -1  10   92.29    5.40
  -3  -1 -10   93.39    5.70
  -3   1  10   97.79   11.40
   3  -1 -10   93.99    5.30
  -3  -1  10   84.79    4.70
   3   1  10   92.79    4.90
   3  -1 -10   95.29    5.50
  -3  -1  10  109.09   12.60
  -3  -1  10   95.89    5.50
  -3   1 -10   95.49    4.50
   3   1  10   81.99    4.20
  -3   1 -10   89.49    5.40
  -3   1 -10   91.59    5.70
   3   1  10   92.79    5.40
   4  -1  10   34.40    3.80
   4   1 -10   27.80    4.10
  -4   1  10   34.20    3.80
  -4   1  10   34.30    8.00
  -4  -1 -10   31.40    4.10
   4   1 -10   47.90    4.50
  -4   1  10   34.20    3.40
  -4  -1 -10   26.40    3.90
   4  -1  10   34.90    3.60
   4  -1  10   32.70    3.90
   4   1 -10   34.80    3.80
   4  -1 -10   28.90    3.80
  -4   1 -10   32.80    4.40
   4  -1 -10   34.70    4.00
   4   1  10   33.20    3.90
  -4  -1  10   37.70    9.10
  -4   1 -10   30.60    2.90
   4  -1 -10   35.20    3.30
   4   1  10   28.40    3.00
  -4  -1  10   36.50    4.00
   4   1  10   35.70    3.90
   5  -1  10   29.30    3.60
   5   1 -10   29.00    4.50
  -5   1  10   25.60    3.00
  -5  -1 -10   35.00    4.30
   5   1 -10   33.60    4.00
   5  -1  10   29.50    4.50
  -5   1  10   30.90   10.50
   5  -1  10   24.60    3.70
  -5  -1 -10   27.90    4.20
  -5   1  10   23.90    3.40
  -5   1 -10   27.30    4.10
   5   1  10   32.90    4.20
  -5   1 -10   26.80    4.20
   5  -1 -10   28.80    4.20
   5   1  10   27.10    4.00
  -5   1 -10   18.20    2.60
   5  -1 -10   19.70    2.80
  -5  -1  10   31.10    8.90
  -5  -1  10   22.80    4.10
   5   1  10   23.50    2.90
  -6   1  10  175.98   20.80
  -6   1  10  162.78    8.30
   6  -1  10  162.38    8.30
  -6  -1 -10  153.58    8.60
   6   1 -10  152.38    7.90
   6  -1  10  156.18    7.70
  -6  -1 -10  181.58    8.60
   6  -1  10  158.58    9.10
   6   1 -10  153.78    9.00
   6  -1 -10  166.28    8.00
   6   1  10  149.19    7.60
  -6  -1  10  200.48   20.30
   6  -1 -10  166.28    8.60
  -6   1 -10  161.68    8.30
  -6   1 -10  165.18    8.70
   6   1  10  146.59    8.30
  -6  -1  10  166.38    8.70
   7  -1  10   85.89    6.30
   7   1 -10   80.19    5.90
   7  -1  10   88.79    8.10
  -7  -1 -10   77.19    6.20
  -7  -1 -10   81.19    6.50
  -7   1  10   71.19    5.80
   7   1 -10   97.99    7.90
  -7   1  10   93.19   18.30
   7  -1 -10   92.39    6.80
   7  -1 -10   84.29    7.70
   7   1  10   82.29    7.10
  -7  -1  10  133.09   21.90
  -7   1 -10   82.29    6.50
  -7   1 -10   78.99    6.30
   7   1  10   86.59    6.40
  -7  -1  10   81.39    6.40
  -8   1  10   69.89   17.00
   8  -1  10   19.20    4.70
   8   1 -10   23.00    4.60
  -8   1  10   27.40    4.20
  -8  -1 -10   21.90    4.70
  -8  -1  10   27.00    4.40
  -8   1 -10   27.10    5.00
   8   1  10   19.70    4.10
   8  -1 -10   21.70    4.90
  -8  -1  10   63.09   13.90
  -8   1 -10   23.50    4.80
   0  -2 -10    7.40    1.70
   0   2  10    8.20    2.40
   0  -2 -10    6.80    1.00
   0   2 -10    8.00    2.10
   0  -2  10   11.90    4.20
   0   2  10    9.00    4.30
   0  -2 -10    9.10    2.10
   0   2  10    8.50    2.90
   0  -2  10   10.10    2.00
   0  -2 -10   11.20    2.00
   0   2 -10    9.70    2.20
   0   2  10    5.90    2.60
   0  -2  10   10.60    3.00
   1  -2  10  176.18    8.70
   1   2 -10  177.38    7.20
   1  -2  10  180.58    7.50
  -1   2  10  176.48    7.20
  -1   2  10  180.78   13.70
  -1   2  10  171.48    6.80
  -1  -2 -10  172.78    6.80
  -1  -2 -10  170.08    6.70
  -1   2  10  175.38    8.40
   1   2 -10  183.38    7.00
   1  -2  10  176.38    7.00
  -1  -2 -10  181.28    7.50
   1  -2 -10  175.68    5.50
   1   2  10  158.68   11.40
  -1   2 -10  176.58    7.00
   1  -2 -10  177.88    5.90
  -1   2 -10  176.18    6.60
   1   2  10  170.88    7.20
  -1   2 -10  171.78    7.20
   1  -2 -10  173.98    5.40
  -1  -2  10  175.58    7.20
   1   2  10  167.58    5.30
  -1  -2  10  174.78    6.40
  -1  -2  10  175.78   11.20
   1  -2 -10  161.58    7.10
  -2   2  10    9.00    2.80
   2   2 -10    6.60    2.30
  -2   2  10    4.10    6.50
   2  -2  10    8.90    2.20
  -2   2  10    9.80    3.50
  -2  -2 -10    7.10    2.40
   2  -2  10    6.70    2.30
  -2  -2 -10    8.90    2.20
   2   2 -10    4.80    1.10
   2   2 -10    6.50    2.20
  -2  -2 -10    6.10    2.30
  -2   2  10    6.40    1.70
  -2   2 -10   10.50    2.20
   2  -2 -10    5.20    1.90
   2   2  10    8.60    3.80
  -2  -2  10    6.10    4.20
  -2   2 -10   11.60    2.40
   2   2  10    6.00    2.50
   2  -2 -10    5.70    1.50
  -2  -2  10    4.60    2.70
  -2  -2  10    7.90    1.60
   2  -2 -10    9.70    1.80
  -2   2 -10    6.10    2.00
   2   2  10    8.00    1.30
  -3  -2 -10   15.30    2.60
  -3   2  10   13.50    3.10
   3  -2  10   11.40    2.60
  -3  -2 -10   15.30    2.80
  -3  -2 -10   16.10    2.80
   3   2 -10   18.70    2.90
   3  -2  10   14.80    2.60
  -3   2  10   18.60    2.60
   3  -2  10   12.70    2.80
  -3   2  10   16.90    4.20
  -3   2  10   26.10    8.50
   3   2  10   12.40    1.60
   3  -2 -10   16.90    2.70
   3   2  10   13.30    2.60
  -3  -2  10   15.50    2.20
   3  -2 -10   12.20    2.60
  -3  -2  10   16.70    1.90
  -3  -2  10   13.50    3.20
  -3   2 -10   16.50    2.30
   3  -2 -10   15.80    1.80
  -3  -2  10   19.40    6.20
  -3   2 -10   14.80    2.70
   3   2  10   16.50    2.70
   4   2 -10   68.59    5.60
  -4   2  10   63.99    3.80
  -4  -2 -10   65.89    4.90
   4  -2  10   66.09    4.50
   4  -2  10   66.99    5.10
  -4  -2 -10   63.09    4.70
   4   2 -10   67.39    4.70
  -4   2  10   55.39   11.20
   4  -2  10   59.69    5.00
  -4   2  10   64.29    5.40
   4   2 -10   68.09    5.10
  -4   2  10   64.19    7.20
   4   2  10   60.59    4.40
  -4  -2  10   71.29   10.70
  -4   2 -10   63.79    4.30
   4   2  10   54.79    4.70
  -4  -2  10   59.49    3.60
  -4   2 -10   61.79    5.70
  -4  -2  10   69.69    5.80
   4  -2 -10   64.79    4.90
   4  -2 -10   65.59    3.70
   5  -2  10   65.69    5.90
  -5  -2 -10   50.39    5.10
  -5  -2 -10   59.29    5.40
  -5   2  10   59.59    9.10
   5   2 -10   54.69    5.30
   5   2 -10   53.19    5.50
  -5   2  10   59.19   11.70
   5  -2  10   57.39    5.70
  -5   2  10   61.59    5.30
   5  -2  10   59.49    4.80
   5  -2 -10   58.19    5.40
  -5   2 -10   55.99    4.00
   5   2  10   54.89    4.40
  -5  -2  10   61.69    5.20
   5  -2 -10   71.49    5.60
  -5   2 -10   67.99    6.40
   5   2  10   69.49    5.40
   5   2  10   60.89    4.50
  -5  -2  10   82.29   14.40
  -6  -2 -10   44.20    4.70
   6  -2  10   34.30    4.50
  -6   2  10   39.10    4.70
   6  -2  10   38.60    4.00
  -6   2  10   49.30   12.10
   6  -2  10   44.80    5.30
   6   2 -10   37.40    4.90
  -6   2  10   49.50    9.30
   6   2 -10   39.40    5.70
  -6  -2 -10   47.40    5.60
   6  -2 -10   43.80    4.90
  -6   2 -10   50.29    5.70
   6  -2 -10   55.19    5.80
  -6  -2  10   38.20    4.70
  -6   2 -10   32.80    3.80
  -6  -2  10   61.89   14.60
   6   2  10   42.60    5.00
   6   2  10   39.80    4.60
   7  -2  10  118.69    7.80
  -7   2  10  129.39    7.70
   7  -2  10  124.59    9.20
   7   2 -10  140.19    9.50
   7   2 -10  133.79    7.90
  -7   2  10  213.48   26.30
  -7  -2 -10  143.39    8.20
  -7  -2 -10  151.78   12.20
  -7   2  10  169.78   14.20
  -7   2 -10  139.59    8.90
   7   2  10  132.29    8.10
  -7  -2  10  145.69   17.60
  -7  -2  10  136.99    8.90
   7  -2 -10  129.99    8.00
  -7   2 -10  134.19    8.40
   7  -2 -10  138.69    8.20
   7   2  10  141.59    8.20
  -8  -2 -10   11.00    3.30
   8  -2  10    4.70    2.90
  -8   2  10   -0.80   10.90
  -8  -2 -10   20.40    4.80
   8  -2  10    2.30    3.10
   8   2 -10    1.30    3.50
   8   2 -10    4.90    2.50
  -8   2 -10    7.70    4.00
  -8  -2  10    7.30    3.10
   8   2  10   -1.50    3.00
  -8   2 -10   10.50    3.30
   8  -2 -10    3.40    2.70
   0  -3 -10  108.99    4.80
   0  -3 -10  106.79    6.00
   0  -3  10  109.19    6.30
   0  -3 -10  114.69    5.20
   0   3 -10  108.49    5.60
   0  -3  10  102.19    8.40
   0   3  10  109.69    5.90
   0   3  10  109.39    6.70
   0  -3  10  120.09    5.60
   0   3  10  111.69   12.00
   0   3 -10  112.19    5.60
   1  -3  10   69.49    5.30
  -1   3  10   67.99    4.90
   1   3 -10   74.09    4.90
  -1   3  10   58.49    4.40
  -1  -3 -10   68.59    4.30
  -1   3  10   65.69    6.20
  -1  -3 -10   70.19    4.70
  -1   3  10   65.89   10.30
   1  -3  10   69.89    4.70
   1   3 -10   73.69    4.80
   1  -3  10   63.59    4.60
  -1  -3 -10   69.09    4.50
  -1   3 -10   63.29    4.60
   1  -3 -10   67.99    4.60
   1  -3 -10   65.99    3.30
  -1  -3  10   65.39    4.80
   1   3  10   68.79    4.00
  -1  -3  10   71.09    7.40
   1   3  10   61.09    7.60
  -1  -3  10   66.99    4.20
   1  -3 -10   63.69    2.80
  -1   3 -10   66.69    4.50
   1   3  10   75.79    5.10
   1  -3 -10   66.19    4.10
  -2  -3 -10   53.89    4.10
  -2   3  10   50.49    4.00
   2  -3  10   58.69    4.80
  -2  -3 -10   59.19    4.20
  -2   3  10   54.79    6.00
  -2  -3 -10   61.69    4.80
  -2   3  10   60.09    3.90
   2   3 -10   56.59    4.90
   2   3 -10   62.99    4.10
  -2   3  10   52.09   10.30
  -2  -3  10   52.49    3.60
  -2  -3  10   55.49    4.00
   2   3  10   63.09    8.30
  -2  -3  10   56.49    5.00
  -2   3 -10   60.39    3.90
   2   3  10   60.89    4.60
   2  -3 -10   58.49    4.90
   2  -3 -10   57.69    3.60
   2  -3 -10   53.09    3.10
  -2   3 -10   60.89    5.40
  -2  -3  10   64.89    8.30
  -3   3  10  414.26   25.20
  -3  -3 -10  405.76   12.20
   3  -3  10  405.36   12.60
   3  -3  10  411.86   12.10
   3  -3  10  408.56   13.00
  -3   3  10  406.36   17.00
  -3   3  10  392.36   10.90
  -3  -3 -10  405.16   12.50
   3   3 -10  408.96   12.30
  -3   3  10  404.06   11.70
   3   3 -10  398.46   11.20
  -3   3 -10  403.66   11.40
  -3  -3  10  401.06   10.60
   3  -3 -10  397.36   12.50
   3  -3 -10  394.96   12.70
   3  -3 -10  418.66   10.20
   3  -3 -10  391.46   10.80
  -3   3 -10  401.56   12.90
  -3  -3  10  389.36   10.50
  -3  -3  10  398.06   12.60
  -3  -3  10  413.46   20.50
   3   3  10  395.86   10.70
   3   3  10  393.66   12.80
  -4   3  10   16.40    2.50
   4  -3  10   21.50    3.30
  -4   3  10   17.50    7.60
   4   3 -10   20.90    2.90
  -4   3  10   18.60    3.00
  -4  -3 -10   21.40    3.90
  -4  -3 -10   15.50    3.10
  -4   3  10   21.40    6.20
   4  -3  10   15.60    3.50
   4   3 -10   17.40    3.40
   4  -3  10   20.70    3.40
  -4   3 -10   18.80    2.80
   4  -3 -10   25.30    3.40
   4   3  10   21.60    3.90
  -4  -3  10   28.90    8.10
  -4  -3  10   21.00    3.90
  -4   3 -10   16.90    3.80
   4   3  10   16.50    2.70
   4  -3 -10   21.50    3.70
  -4  -3  10   17.80    2.40
   5   3 -10  124.19    7.50
  -5  -3 -10  124.19    6.80
  -5   3  10  109.69    6.50
   5  -3  10  104.29    7.00
  -5   3  10  136.39   18.30
   5  -3  10  111.89    7.40
  -5  -3 -10  108.89    7.10
   5   3 -10  107.99    7.20
  -5   3  10  129.99   11.60
   5  -3  10  112.49    6.30
   5  -3 -10  116.89    7.50
  -5  -3  10  111.39    5.40
   5   3  10  112.69    6.10
   5  -3 -10  102.39    6.40
  -5  -3  10  135.39   16.80
  -5   3 -10  111.59    6.20
  -5   3 -10  116.39    7.30
   5   3  10  124.09    7.80
  -5  -3  10  107.19    6.70
   6  -3  10   16.10    3.70
  -6   3  10   29.00   13.20
  -6  -3 -10   17.50    3.60
   6  -3  10   21.70    4.30
   6   3 -10   30.30    5.30
   6   3 -10   23.40    4.40
  -6  -3 -10   29.90    4.60
  -6   3  10   14.50    3.50
  -6   3  10   24.80    8.50
   6  -3 -10   25.90    4.20
   6   3  10   30.90    4.70
  -6   3 -10   15.90    4.20
  -6   3 -10   21.90    3.30
   6  -3 -10   17.30    3.40
   6   3  10   22.70    3.60
  -6  -3  10   27.50    5.00
  -6  -3  10   35.80   12.30
   7  -3  10    5.20    3.30
  -7   3  10   14.20    7.50
  -7   3  10    0.90   11.50
   7  -3  10   -1.90    3.20
   7   3 -10    2.40    3.30
  -7  -3 -10    3.50    2.70
  -7  -3 -10    3.60    3.10
   7   3 -10    3.60    3.40
  -7   3 -10    5.20    3.90
  -7  -3  10    5.80    3.10
   7   3  10    0.90    2.60
   7  -3 -10   -2.90    1.60
   7  -3 -10   -0.60    1.90
  -8  -3 -10    8.70    3.80
   8  -3  10    6.70    3.90
  -8   3  10   32.40    9.00
  -8  -3 -10    5.70    4.00
   8  -3  10    4.80    4.40
  -8   3  10   19.60   14.20
   8   3 -10    8.10    3.90
   8   3 -10   10.60    4.60
   8  -3 -10    4.70    3.70
  -8   3 -10    6.50    4.10
  -8  -3  10    9.50    3.70
   0  -4  10   -0.10    1.20
   0   4  10   -0.10    1.30
   0  -4 -10    0.60    1.10
   0  -4  10   -2.30    2.60
   0   4  10    2.20    4.60
   0  -4  10    0.80    2.50
   0  -4 -10    0.70    1.80
   0  -4 -10    4.40    2.10
   0   4 -10    0.40    1.80
   0   4  10    2.50    2.80
   0  -4 -10    2.00    2.00
   0   4 -10    1.80    1.50
  -1   4  10  206.88   10.90
  -1  -4 -10  209.58    7.80
   1  -4  10  213.48    8.30
  -1   4  10  200.68   16.50
  -1   4  10  198.48    7.70
  -1  -4 -10  202.98    8.20
  -1  -4 -10  201.88    7.90
   1   4 -10  204.58    7.90
   1   4 -10  204.98    8.10
  -1  -4  10  197.98   11.20
  -1   4 -10  206.38    8.50
   1  -4 -10  190.98    6.20
   1   4  10  206.98    8.30
   1   4  10  204.28    8.20
   1  -4 -10  211.68    8.40
  -1  -4  10  200.58    8.00
  -1  -4  10  189.68    7.60
  -1   4 -10  201.28    7.50
   1  -4 -10  199.98    8.20
   1   4  10  207.88   14.00
   1  -4 -10  200.58    7.40
   1  -4 -10  189.28    5.80
  -1  -4  10  202.28    7.60
  -2   4  10   84.99    5.10
  -2   4  10   82.09    7.60
  -2   4  10   81.09    5.00
   2   4 -10   83.19    5.00
   2  -4  10   86.69    5.10
   2   4 -10   81.69    5.50
  -2  -4 -10   79.89    5.60
  -2  -4 -10   83.69    5.00
  -2   4  10   88.39   13.00
  -2  -4 -10   96.09    5.40
   2   4  10   86.19    4.00
  -2  -4  10   82.69    8.70
   2  -4 -10   78.59    5.70
   2   4  10   83.79    5.90
  -2   4 -10   88.49    6.00
   2  -4 -10   93.29    4.80
  -2   4 -10   77.19    4.80
  -2  -4  10   81.89    4.80
  -2  -4  10   87.29    4.70
  -2  -4  10   84.79    6.00
   2   4  10   90.69    9.60
   2  -4 -10   85.49    5.40
   3  -4  10  162.88    8.20
  -3  -4 -10  157.38    7.40
  -3   4  10  156.78   11.00
   3   4 -10  162.98    7.90
  -3   4  10  146.79    6.40
  -3  -4 -10  149.79    7.10
   3   4 -10  161.88    6.60
  -3  -4 -10  155.28    6.20
   3  -4  10  161.28    8.20
  -3   4  10  164.88   17.10
  -3   4  10  158.48    6.80
  -3  -4  10  148.79    6.40
   3  -4 -10  143.09    5.80
  -3  -4  10  159.98    7.50
   3   4  10  165.88    8.40
   3  -4 -10  173.58    6.30
   3  -4 -10  154.18    7.80
  -3   4 -10  156.88    7.80
  -3  -4  10  150.08    6.60
  -3   4 -10  150.88    6.70
  -3  -4  10  171.18   13.90
  -4   4  10  154.98   13.40
  -4  -4 -10  149.29    7.50
   4  -4  10  135.09    6.80
  -4  -4 -10  161.38    7.10
   4   4 -10  142.99    7.90
   4  -4  10  151.18    8.40
   4   4 -10  148.49    6.20
  -4   4  10  143.19    6.70
   4  -4  10  147.09    8.30
  -4   4  10  158.88   20.90
   4   4  10  147.19    8.30
  -4  -4  10  157.28   15.30
  -4   4 -10  142.19    7.20
  -4   4 -10  165.38    8.70
  -4  -4  10  140.79    7.50
   4  -4 -10  157.88    6.00
   4  -4 -10  149.09    8.20
   4  -4 -10  152.38    6.60
  -4  -4  10  148.09    6.50
  -5  -4 -10   89.09    7.10
   5   4 -10   70.99    6.50
   5   4 -10   87.09    7.80
   5  -4  10   68.29    6.90
  -5   4  10   73.49    5.50
  -5  -4 -10   86.39    5.60
  -5   4  10   83.99   11.50
   5  -4  10   73.69    5.10
  -5   4  10   79.59   14.30
  -5  -4 -10   82.39    6.70
   5  -4  10   82.49    6.90
   5  -4 -10   75.09    5.50
   5   4  10   74.89    6.00
   5  -4 -10   86.69    7.40
  -5  -4  10  108.09   15.50
  -5  -4  10   86.69    7.00
   5   4  10   69.49    5.30
  -5   4 -10   79.29    5.30
  -5   4 -10   82.89    7.50
  -5  -4  10   79.79    5.10
   6   4 -10   -0.10    2.00
  -6  -4 -10   -2.10    1.80
  -6   4  10   -2.80   11.10
  -6  -4 -10   -0.70    2.80
   6  -4  10    2.80    2.50
   6  -4  10    1.70    3.10
  -6   4  10    5.00    7.30
   6   4 -10    4.70    2.90
  -6  -4  10   -1.90    2.30
   6  -4 -10   -0.30    2.80
  -6   4 -10   -1.90    2.50
  -6  -4  10   21.30    8.00
   6   4  10   -1.20    2.80
  -6   4 -10    3.10    3.30
   6  -4 -10   -1.00    1.60
  -7   4  10    0.40   12.50
   7  -4  10    5.50    3.70
   7  -4  10    4.30    3.50
   7   4 -10    1.30    3.40
  -7  -4 -10    3.80    3.50
  -7   4  10   13.60    8.90
   7   4 -10    1.50    2.40
  -7  -4 -10    6.50    3.70
  -7   4 -10    3.50    2.30
   7  -4 -10   -0.60    1.80
   7  -4 -10    3.00    2.30
  -7  -4  10   -2.40    3.70
  -7   4 -10    2.60    3.70
   8   4 -10   21.20    5.00
   8   4 -10   17.30    5.50
  -8   4  10   39.70   10.50
   8  -4  10   23.20    4.60
  -8  -4 -10   21.40    5.00
  -8   4  10   19.40   11.70
  -8  -4 -10   23.50    4.80
   8  -4  10   25.70    6.30
   8  -4 -10   26.30    4.30
  -8   4 -10   23.40    4.70
   8  -4 -10   15.40    4.70
  -8  -4  10   26.40    5.80
   0   5 -10    5.20    2.40
   0   5  10    3.40    5.00
   0   5  10    6.80    2.50
   0   5 -10    1.40    2.20
   0  -5 -10   -0.20    2.10
   0  -5 -10    3.40    1.70
   0   5  10    2.00    3.20
   0  -5 -10    3.50    1.50
   0  -5  10    4.20    2.70
   0  -5 -10    2.50    2.20
  -1  -5 -10   43.10    3.80
  -1   5  10   48.60    4.60
   1   5 -10   44.80    4.20
  -1  -5 -10   43.60    4.50
  -1  -5 -10   49.00    4.10
   1  -5  10   42.50    4.50
  -1   5  10   35.60    8.70
   1   5 -10   48.70    4.70
  -1  -5 -10   39.90    4.40
  -1   5  10   54.19    6.80
  -1  -5  10   42.30    4.20
  -1  -5  10   42.30    5.50
  -1   5 -10   45.10    4.50
   1  -5 -10   47.60    5.00
  -1  -5  10   53.39    5.00
   1  -5 -10   44.40    4.30
   1   5  10   37.00    7.60
   1   5  10   41.30    4.60
   1  -5 -10   44.30    3.10
  -1   5 -10   49.50    5.00
   1  -5 -10   44.40    4.80
   1   5  10   41.20    4.70
  -2  -5 -10  313.17   10.70
  -2  -5 -10  306.77   10.20
  -2  -5 -10  310.57   10.00
   2   5 -10  319.87    9.70
   2  -5  10  335.07   10.40
  -2   5  10  307.77   15.70
  -2   5  10  315.07   10.40
  -2   5  10  308.47   22.30
  -2  -5 -10  294.77   10.10
   2   5 -10  307.67   10.70
   2  -5 -10  314.87   11.30
  -2  -5  10  319.07   10.30
   2  -5 -10  337.27   10.10
   2   5  10  335.07   18.30
   2   5  10  315.27   11.40
  -2   5 -10  331.47   11.70
  -2  -5  10  310.07   15.60
  -2   5 -10  313.97   10.50
  -2  -5  10  320.37   10.70
   2   5  10  312.47   11.10
  -3   5  10    9.20    9.20
   3  -5  10    6.80    2.40
   3   5 -10   10.40    2.20
  -3  -5 -10    7.40    3.10
  -3  -5 -10    5.70    1.70
  -3  -5 -10    6.20    2.10
   3  -5  10    7.80    2.70
  -3   5  10    6.20    2.20
  -3  -5 -10    6.50    2.30
  -3   5  10   12.40    6.00
   3   5 -10   10.00    2.70
   3   5 -10    9.80    3.30
   3  -5 -10    5.90    2.10
  -3  -5  10   10.30    3.30
   3   5  10    7.60    3.10
  -3   5 -10   12.40    3.00
  -3   5 -10    4.00    2.60
  -3  -5  10    6.90    2.60
   3  -5 -10   10.20    2.90
  -3  -5  10   15.30    4.80
  -4  -5 -10   70.89    5.60
   4  -5  10   67.19    5.80
  -4   5  10   92.39   11.50
  -4  -5 -10   65.69    5.00
   4  -5  10   61.59    5.10
   4   5 -10   71.09    6.50
  -4  -5 -10   72.69    5.60
   4  -5  10   74.09    6.20
  -4   5  10   58.09   14.40
  -4  -5  10   74.19    6.60
  -4   5 -10   87.69    7.00
  -4  -5  10   69.99    4.80
  -4  -5  10   82.79   12.30
  -4   5 -10   73.99    5.90
   4  -5 -10   62.89    4.90
   4  -5 -10   60.79    4.00
   4  -5 -10   84.09    7.20
   4   5  10   67.19    6.50
  -5  -5 -10    5.90    3.30
   5   5 -10    9.90    3.20
  -5   5  10   16.30    8.30
  -5  -5 -10    6.90    3.40
  -5   5  10    7.70   11.70
   5  -5  10    8.70    3.80
   5  -5  10   11.30    2.80
   5   5 -10    6.30    3.60
   5  -5  10    6.50    3.60
  -5   5 -10    9.30    2.70
  -5  -5  10    8.30    3.60
   5  -5 -10    9.50    2.70
   5   5  10    9.30    3.50
  -5  -5  10   26.60    7.90
   5  -5 -10   10.70    3.10
   5   5  10   11.30    3.30
  -5   5 -10    7.80    3.10
  -5  -5  10    8.80    2.80
   6   5 -10    3.20    3.60
  -6   5  10   -8.70   12.20
  -6  -5 -10    8.00    3.60
   6  -5  10    4.20    2.80
   6  -5  10    4.70    2.90
  -6  -5 -10    4.20    3.50
   6   5 -10    3.50    3.90
  -6   5  10    3.30    7.70
  -6   5 -10    8.60    4.30
   6  -5 -10    3.00    2.10
  -6  -5  10   10.00    4.50
   6   5  10    7.50    3.20
  -6   5 -10    5.30    2.40
   6  -5 -10    5.70    2.60
  -6  -5  10    0.70    2.40
  -7   5  10   44.30   11.90
  -7   5  10   11.60   14.70
   7   5 -10   19.50    4.70
   7  -5  10   23.70    5.40
   7  -5  10   25.00    5.50
  -7  -5 -10   20.00    4.50
   7   5 -10   25.30    5.40
  -7  -5 -10   23.00    4.70
   7  -5 -10   18.70    4.30
  -7  -5  10   34.00    5.90
  -7   5 -10   22.40    4.70
   7  -5 -10   28.10    5.00
  -7   5 -10   19.90    4.20
   0   6  10  371.26   12.60
   0   6  10  411.96   22.30
   0  -6 -10  406.36   12.40
   0   6  10  375.86   14.70
   0  -6 -10  392.06   12.60
   0  -6 -10  392.66   12.60
   0   6 -10  372.16   12.10
   0  -6  10  410.46   12.20
   0   6 -10  387.46   11.90
   0  -6 -10  376.06   10.30
  -1  -6 -10    3.60    1.90
   1  -6  10    6.40    2.80
  -1   6  10    2.10    2.20
  -1   6  10    8.30    6.20
  -1   6  10    3.50    3.50
  -1  -6 -10    3.90    2.10
   1   6 -10    2.80    2.20
  -1  -6 -10    2.70    2.40
   1   6 -10    5.10    2.80
  -1  -6 -10    9.80    3.00
   1   6  10    3.00    2.60
  -1  -6  10    5.70    2.70
   1  -6 -10    2.70    2.40
   1   6  10    1.70    2.00
  -1   6 -10    5.90    2.70
   1  -6 -10    5.00    2.10
   1   6  10    6.70    4.20
  -1  -6  10    4.70    3.00
  -1   6 -10    7.70    2.30
  -2  -6 -10  175.58    7.40
  -2  -6 -10  172.78    7.40
  -2  -6 -10  174.48    7.90
   2  -6  10  169.88    8.60
   2   6 -10  174.68    6.90
  -2  -6 -10  182.48    7.70
  -2   6  10  173.28   11.90
   2  -6  10  171.78    7.30
  -2   6  10  203.98   19.30
   2   6 -10  164.18    8.40
  -2   6  10  160.38    7.40
   2  -6 -10  190.78    9.10
   2   6  10  160.18    8.70
  -2   6 -10  158.58    7.60
  -2   6 -10  161.38    8.10
  -2  -6  10  173.58    7.90
  -2  -6  10  164.88    7.40
   2   6  10  170.88    8.40
   2  -6 -10  186.98    7.80
  -2  -6  10  138.09   12.30
  -3  -6 -10   39.10    4.70
  -3  -6 -10   37.00    4.00
   3  -6  10   24.90    4.80
   3  -6  10   33.30    5.00
   3   6 -10   33.20    4.20
  -3   6  10   33.80    9.40
  -3  -6 -10   39.80    4.90
  -3   6  10   32.70    7.40
   3   6 -10   33.20    4.70
  -3  -6 -10   38.80    4.30
  -3   6  10   35.40    3.60
  -3  -6  10   39.20    5.20
   3   6  10   34.10    4.90
   3  -6 -10   46.20    4.50
  -3   6 -10   37.30    4.90
   3  -6 -10   34.00    4.60
  -3   6 -10   35.00    4.60
  -3  -6  10   30.40    3.70
  -4  -6 -10   81.89    7.00
   4  -6  10   76.39    7.40
  -4   6  10   88.39   12.20
   4   6 -10   76.89    7.30
   4  -6  10   67.19    6.60
  -4  -6 -10   87.09    6.80
  -4   6  10   76.29   15.90
   4   6 -10   77.89    6.00
   4  -6 -10   84.49    5.50
  -4  -6  10  114.49   11.00
  -4   6 -10   89.69    6.90
  -4  -6  10   79.29    6.00
  -4  -6  10   75.19    7.00
  -4   6 -10   82.99    6.60
   4  -6 -10   76.79    7.10
   4   6  10   87.99    6.90
   4   6  10   73.29    7.00
  -5   6  10   81.49   13.20
  -5   6  10   62.19   14.30
   5   6 -10   72.59    7.50
  -5  -6 -10   59.99    6.50
   5  -6  10   62.19    6.70
   5  -6  10   60.89    7.10
  -5  -6 -10   47.80    5.90
  -5   6 -10   72.39    7.40
  -5  -6  10   58.29    5.50
   5  -6 -10   72.89    7.10
   5   6  10   72.89    7.40
  -5   6 -10   74.49    6.70
   5   6  10   64.69    6.80
  -5  -6  10   67.79    7.00
  -6  -6 -10   14.90    4.20
   6  -6  10   14.70    4.60
  -6  -6 -10   21.40    5.10
   6   6 -10   18.80    4.10
   6  -6  10    7.90    4.00
  -6   6  10   25.50   10.30
   6   6 -10   13.90    3.90
  -6   6  10    8.40   10.60
  -6   6 -10   20.10    4.40
  -6  -6  10   16.10    3.50
   6  -6 -10   15.40    4.30
  -6   6 -10   17.80    4.40
   6   6  10   20.10    4.60
  -6  -6  10   17.00    5.00
   7  -6  10    4.00    4.10
  -7   6  10    3.20    6.70
  -7   6  10   10.00   14.30
   7   6 -10   -0.10    3.00
  -7  -6 -10    5.90    3.70
   7   6 -10    2.60    3.80
   7  -6  10    2.40    2.90
  -7  -6 -10    6.50    4.20
  -7   6 -10    6.80    3.60
   7  -6 -10    2.60    3.60
  -7   6 -10    7.10    4.30
  -7  -6  10    1.40    4.40
   0   7  10  230.08   12.10
   0  -7 -10  226.58    9.90
   0   7  10  236.78   17.20
   0  -7  10  241.08    9.30
   0  -7  10  220.78    9.50
   0  -7 -10  233.28    9.70
   0   7 -10  237.28    9.30
   0   7  10  221.38    9.50
   0   7 -10  246.88    9.80
   1   7 -10   22.20    3.60
  -1  -7 -10   22.10    3.50
   1   7 -10   16.60    3.10
  -1   7  10   26.10    6.60
  -1   7  10   22.20    3.40
  -1  -7 -10   19.90    3.50
   1  -7  10   22.00    3.60
  -1   7  10   24.90    7.20
  -1  -7 -10   20.90    2.90
  -1  -7 -10   23.70    4.00
  -1   7 -10   21.60    3.50
  -1  -7  10   19.60    4.00
   1   7  10   26.40    4.40
   1  -7 -10   21.80    3.30
   1  -7 -10   26.80    4.60
   1   7  10   24.90    4.80
   1   7  10   31.20    8.60
  -1  -7  10   19.50    3.30
  -1   7 -10   23.40    3.60
   2  -7  10   69.89    5.80
  -2   7  10   88.89   12.70
   2  -7  10   88.09    7.60
  -2   7  10   84.09    5.80
   2   7 -10   94.49    6.80
  -2  -7 -10   79.09    5.10
   2   7 -10   70.99    6.40
  -2  -7 -10   78.59    5.20
  -2   7  10   95.39   11.30
  -2  -7 -10   82.19    5.90
  -2  -7 -10   69.49    4.80
  -2   7 -10   85.09    6.70
  -2   7 -10   83.29    5.90
   2  -7 -10   83.39    6.90
   2  -7 -10   84.89    6.00
   2   7  10   74.99    6.70
   2   7  10   85.29    6.40
  -2  -7  10   77.89    5.60
  -2  -7  10   90.09    6.00
  -3  -7 -10  139.89    7.50
   3   7 -10  145.49    8.30
  -3   7  10  138.49   12.60
  -3  -7 -10  150.68    8.50
  -3   7  10  157.48   18.70
   3   7 -10  151.58    8.90
   3  -7  10  142.09    8.70
   3  -7  10  125.09    8.40
   3   7  10  132.99    8.10
  -3   7 -10  128.59    7.40
   3  -7 -10  136.69    8.20
  -3  -7  10  137.79    7.20
  -3  -7  10  136.79    8.30
   3  -7 -10  152.18    7.50
  -3   7 -10  149.39    8.80
  -4  -7 -10   24.20    4.40
   4  -7  10   25.30    4.40
  -4   7  10   18.30    8.60
  -4  -7 -10   24.60    4.40
  -4   7  10   19.90   11.50
   4  -7  10   18.50    5.10
   4   7 -10   21.90    3.80
   4   7 -10   16.50    4.50
   4   7  10   23.50    4.50
  -4  -7  10   27.40    4.30
   4  -7 -10   17.40    3.90
  -4  -7  10   29.50    4.60
  -4   7 -10   17.90    4.50
   4  -7 -10   28.10    3.90
  -4   7 -10   17.60    3.70
   5  -7  10    5.10    3.60
  -5  -7 -10    8.50    3.60
   5   7 -10    1.20    2.50
  -5   7  10   14.90   12.70
  -5   7  10   11.00    8.60
  -5  -7 -10    2.70    3.30
   5  -7  10    7.10    4.30
   5   7  10    8.10    3.90
  -5  -7  10    5.30    3.80
   5  -7 -10    0.70    2.40
  -5   7 -10    1.10    3.40
  -5  -7  10    1.20    2.90
  -5   7 -10    7.50    3.20
  -6   7  10   -4.60   12.00
  -6  -7 -10   -0.30    2.50
   6   7 -10    2.20    3.10
   6  -7  10    8.30    4.20
  -6   7  10    7.70    9.40
   6  -7  10    4.80    3.50
  -6  -7 -10    5.80    2.80
   6   7 -10    7.70    3.30
  -6   7 -10    4.00    3.40
  -6  -7  10    5.30    3.20
  -6  -7  10    3.80    3.10
  -6   7 -10    1.90    2.40
   6  -7 -10   -0.50    3.20
   6   7  10    5.80    3.70
   0  -8 -10   36.30    4.50
   0   8 -10   35.10    4.00
   0  -8  10   34.00    4.80
   0  -8  10   28.50    4.10
   0   8 -10   31.80    4.40
   0  -8 -10   34.50    4.90
   0   8  10   28.60    7.60
   0   8  10   29.10    6.20
   1  -8  10    8.30    2.70
  -1  -8 -10    9.20    3.40
  -1  -8 -10    2.10    2.80
  -1  -8 -10    5.80    2.40
  -1   8  10    0.30    4.80
   1   8 -10    2.30    2.00
  -1   8  10    1.00    4.00
   1   8  10    4.00    3.50
  -1   8 -10    2.40    2.70
   1   8  10   11.50    6.30
  -1  -8  10    6.10    2.40
  -1   8 -10   11.90    3.50
   1  -8 -10    4.40    3.20
   1  -8 -10    5.20    2.30
  -1   8 -10    4.80    2.50
  -1  -8  10    3.60    2.40
   2  -8  10   33.60    5.70
  -2   8  10   34.80    8.70
  -2   8  10   52.89   11.20
  -2  -8 -10   42.90    4.90
  -2  -8 -10   43.90    5.50
   2  -8  10   44.30    5.70
   2   8 -10   51.39    5.70
   2   8 -10   40.70    5.50
  -2  -8 -10   38.60    4.60
  -2   8 -10   45.00    5.70
   2  -8 -10   47.40    5.30
  -2  -8  10   45.60    5.00
   2  -8 -10   44.50    5.90
  -2  -8  10   40.80    5.00
  -2   8 -10   48.10    5.90
  -3  -8 -10   11.60    3.50
  -3   8  10   12.70    8.10
   3  -8  10   16.30    3.60
  -3   8  10   13.70    7.40
   3   8 -10   11.60    4.10
   3  -8  10   14.10    4.00
  -3  -8 -10   13.40    3.40
   3   8 -10   14.70    3.40
   3  -8 -10   13.40    3.50
  -3  -8  10   10.10    3.10
   3  -8 -10   12.10    2.90
  -3  -8  10   12.40    3.20
  -3   8 -10   13.20    4.00
  -3   8 -10   16.40    4.20
   4  -8  10   -3.10    3.40
  -4  -8 -10    2.90    3.30
  -4  -8 -10    0.60    2.10
  -4   8  10    2.40    7.90
   4   8 -10    1.30    3.40
  -4   8  10    3.40    6.60
   4   8 -10    3.90    3.10
   4  -8  10    1.20    3.10
  -4  -8  10    1.60    3.10
  -4  -8  10    2.10    3.30
  -4   8 -10    2.10    3.50
  -4   8 -10    4.40    3.60
   4   8  10    0.70    2.40
   4  -8 -10    2.70    3.40
   5   8 -10   10.60    3.70
  -5   8  10   14.60    7.80
  -5   8  10   14.90   11.20
  -5  -8 -10   18.10    4.50
  -5  -8 -10   19.80    4.70
   5  -8  10    8.70    4.80
   5  -8  10    6.00    3.90
   5   8  10   11.90    4.40
  -5  -8  10   11.60    3.90
   5  -8 -10   14.70    4.50
  -5   8 -10   15.70    4.20
  -5  -8  10   13.70    3.90
  -5   8 -10   17.50    4.40
  -6  -8 -10   34.80    5.30
  -6  -8 -10   31.70    7.10
   6  -8  10   29.20    6.00
   6  -8  10   38.70    6.40
  -6   8  10   47.50   14.40
   6   8 -10   36.50    6.80
  -6   8  10   42.20   12.20
   6   8 -10   45.20    6.50
  -6   8 -10   39.10    7.20
   6  -8 -10   35.00    5.30
  -6  -8  10   41.80    7.70
   6   8  10   37.70    5.90
  -6  -8  10   31.10    4.50
   0  -9 -10    4.80    3.40
   0   9 -10    4.20    2.60
   0  -9  10    0.50    3.20
   0   9  10    6.00    4.10
   0   9  10   17.00    6.80
   0  -9 -10    3.40    3.20
  -1   9  10   47.70    8.00
   1   9 -10   42.00    5.10
  -1   9  10   51.39    9.80
   1   9 -10   39.10    4.90
  -1  -9 -10   33.90    4.80
  -1  -9 -10   38.40    4.70
   1  -9  10   39.40    5.30
  -1  -9  10   28.70    4.50
   1  -9 -10   38.90    4.90
   1   9  10   42.40    6.50
  -1   9 -10   33.20    4.30
   1  -9 -10   39.40    5.50
  -1   9 -10   40.40    5.50
  -1  -9  10   37.50    4.80
  -2  -9 -10   46.50    6.00
  -2   9  10   46.30   10.20
   2  -9  10   37.10    5.30
   2   9 -10   42.50    5.50
  -2  -9 -10   42.70    4.50
   2  -9  10   44.60    6.50
   2   9 -10   42.70    5.80
  -2   9  10   38.50    8.80
  -2  -9  10   46.70    5.30
  -2  -9  10   53.89    5.80
   2  -9 -10   46.00    5.20
  -2   9 -10   50.69    6.00
  -2   9 -10   45.70    5.60
   2  -9 -10   41.30    5.60
  -3  -9 -10   15.90    3.80
   3   9 -10   11.40    4.20
  -3  -9 -10   11.50    4.10
   3  -9  10    5.60    3.40
  -3   9  10    9.80    5.80
   3   9 -10    9.40    3.00
   3  -9  10   11.10    3.90
  -3   9  10   19.10    8.70
   3  -9 -10    8.70    3.50
  -3  -9  10    8.00    3.00
  -3  -9  10   11.80    4.30
   3   9  10   14.00    4.10
  -3   9 -10    7.50    3.20
   3  -9 -10    9.70    4.10
  -3   9 -10    5.80    2.90
  -4   9  10   21.20    7.80
  -4  -9 -10   25.50    5.10
  -4  -9 -10   18.10    4.30
   4   9 -10   22.90    5.30
   4   9 -10   24.80    4.90
  -4   9  10   21.00    9.30
   4  -9  10   22.80    5.00
   4  -9  10   23.50    5.20
  -4  -9  10   21.20    4.10
  -4  -9  10   21.60    4.20
   4   9  10   18.50    5.30
   4  -9 -10   27.60    5.10
  -4   9 -10   27.80    5.40
  -4   9 -10   19.30    4.30
   5  -9  10   20.50    4.90
  -5  -9 -10   19.10    4.90
   5   9 -10   24.30    5.80
  -5  -9 -10   17.20    4.90
  -5   9  10   15.40   10.20
  -5   9  10   14.80    7.80
   5  -9  10   20.30    6.10
   5   9  10   14.40    5.20
   5  -9 -10   17.40    4.30
  -5  -9  10   17.70    4.20
  -5  -9  10   21.90    4.80
  -5   9 -10   10.20    5.50
   0  10 -10   12.90    4.20
   0 -10 -10    8.30    4.00
   0 -10 -10    9.60    3.90
   0 -10  10   11.20    4.20
   0  10 -10   14.20    4.00
   0  10  10   25.00    5.50
   1  10 -10    9.90    3.80
   1  10 -10   12.30    3.90
  -1  10  10    8.50    4.00
  -1 -10 -10    2.70    3.00
   1 -10  10    5.40    3.50
  -1 -10 -10   12.50    4.30
   1 -10  10    7.20    3.50
   1 -10 -10    1.40    2.50
   1 -10 -10    5.10    2.90
  -1 -10  10    5.70    4.00
  -1  10 -10    7.40    3.00
  -2  10  10   22.60    5.40
  -2 -10 -10    4.90    3.80
   2 -10  10   14.70    3.90
   2  10 -10   13.80    4.50
  -2  10  10   11.80    5.60
   2  10 -10    3.70    3.50
   2 -10  10    5.40    3.60
   2  10  10   11.30    4.20
   2 -10 -10    4.10    3.70
   2 -10 -10    8.40    3.90
  -2  10 -10    8.60    3.00
  -2 -10  10    7.80    3.90
  -2  10 -10    9.20    3.20
   3 -10  10   36.00    5.80
  -3  10  10   41.20   10.20
  -3 -10 -10   29.50    5.50
   3 -10  10   29.50    5.70
   3  10 -10   43.40    6.00
   3  10 -10   42.00    5.40
  -3 -10 -10   28.70    4.70
   3 -10 -10   36.00    5.40
  -3  10 -10   30.20    5.60
  -3 -10  10   31.60    5.00
   3 -10 -10   40.10    5.70
  -3  10 -10   36.10    5.30
  -3 -10  10   30.10    4.50
   3  10  10   52.19    8.00
   0  11 -10   51.89    5.80
   0 -11 -10   63.59    7.30
   0   0  11   33.00    2.90
   0   0  11   13.60    5.40
   1   0  11   25.30    5.10
  -1   0 -11   27.20    2.90
  -1   0 -11   29.90    3.30
  -1   0 -11   29.50    3.80
   1   0 -11   23.80    3.30
   1   0  11   29.20    3.40
  -1   0 -11   34.60    3.60
  -1   0  11   28.30    3.50
  -1   0  11   28.60    7.30
  -1   0  11   24.50    3.80
   1   0  11   28.80    4.00
   1   0 -11   31.50    2.80
   2   0 -11   65.79    4.70
  -2   0 -11   66.29    4.70
  -2   0 -11   68.29    3.50
   2   0  11   63.29    4.90
  -2   0 -11   64.29    5.10
  -2   0  11   63.99    9.80
   2   0 -11   65.29    4.30
   2   0  11   69.49    6.70
  -2   0  11   58.29    4.60
   2   0 -11   61.99    3.00
  -2   0  11   66.69    4.30
  -2   0 -11   62.69    4.60
  -3   0  11    4.60    6.10
  -3   0 -11    6.00    2.90
  -3   0 -11    5.50    2.60
   3   0  11    9.60    2.40
  -3   0  11    6.80    2.20
   3   0  11    3.90    1.80
  -3   0 -11    6.90    1.70
   3   0  11    5.20    2.50
   3   0 -11    3.70    2.10
   3   0 -11    7.90    2.50
  -3   0  11    6.00    2.40
  -4   0  11  236.78    9.90
   4   0  11  238.88    9.30
  -4   0  11  279.17   20.90
   4   0 -11  254.57   10.00
   4   0 -11  262.87    9.90
   4   0  11  257.97    8.80
  -4   0 -11  254.97   10.00
   4   0  11  243.08    9.90
  -4   0 -11  219.08    7.80
  -4   0 -11  242.38   10.00
   5   0 -11  268.87   11.00
   5   0  11  272.27   10.60
  -5   0  11  287.37   21.00
  -5   0 -11  273.97   11.00
  -5   0  11  257.37    8.90
   5   0  11  262.37   10.90
  -5   0 -11  270.57   11.00
   5   0 -11  260.17    9.60
  -5   0  11  265.77   10.20
   6   0  11    7.90    3.40
   6   0  11    9.00    2.60
   6   0 -11    6.20    2.60
  -6   0 -11   12.50    3.90
   6   0 -11    7.80    2.90
  -6   0  11    9.80    3.80
  -6   0 -11   12.30    3.20
  -6   0  11   11.00   10.70
   7   0 -11   47.50    5.50
   7   0 -11   34.40    5.50
  -7   0 -11   33.00    4.80
  -7   0 -11   34.30    5.20
  -7   0  11   50.09    5.40
   7   0  11   59.49    6.80
   7   0  11   46.80    7.60
  -7   0  11   76.79   15.50
  -8   0  11   17.90    4.00
  -8   0 -11   18.60    4.00
   8   0  11   13.80    3.90
  -8   0 -11   10.90    4.10
   8   0 -11    7.80    3.40
  -8   0  11   29.60   11.10
   0   1  11  638.44   16.40
   0   1 -11  656.93   16.70
   0  -1 -11  658.03   15.10
   0   1 -11  650.43   15.40
   0  -1 -11  638.84   15.00
   0  -1 -11  648.24   16.70
   0  -1  11  648.24   22.60
   0   1  11  646.44   16.20
   0  -1  11  641.24   15.50
   0   1  11  660.83   23.90
   0   1 -11  669.83   14.90
   0  -1  11  650.63   16.60
   0  -1  11  675.53   16.60
   1  -1  11  620.04   15.70
  -1  -1 -11  596.44   15.00
   1  -1  11  624.74   15.90
   1   1 -11  618.74   15.30
  -1  -1 -11  620.24   15.10
  -1   1  11  603.44   15.70
  -1   1  11  629.74   15.70
   1  -1  11  614.04   19.50
   1   1 -11  618.14   16.00
  -1  -1 -11  604.94   13.60
   1   1 -11  597.54   13.30
  -1   1  11  586.44   16.70
  -1  -1 -11  627.04   16.20
  -1   1  11  627.64   25.80
  -1   1 -11  610.94   16.10
  -1  -1  11  622.84   16.00
  -1  -1  11  592.74   14.10
   1  -1 -11  606.94   13.80
  -1   1 -11  591.84   14.10
   1  -1 -11  597.34   13.40
   1   1  11  617.24   16.00
  -1   1 -11  618.74   15.40
  -1  -1  11  611.84   23.40
   1  -1 -11  610.14   13.90
   1   1  11  602.84   21.60
   1  -1 -11  620.24   16.20
  -1   1 -11  634.84   15.00
  -2  -1 -11   46.80    4.00
   2  -1  11   44.90    4.50
  -2  -1 -11   39.50    2.70
   2  -1  11   44.00    5.20
  -2   1  11   40.40    3.80
  -2   1  11   43.40    9.40
  -2   1  11   36.90    4.00
   2   1 -11   40.50    2.30
   2   1 -11   49.10    4.50
  -2  -1 -11   38.30    4.40
  -2   1  11   47.00    5.30
  -2  -1 -11   40.50    4.20
   2   1  11   39.60    4.10
  -2   1 -11   40.50    3.50
  -2  -1  11   35.40    4.00
  -2  -1  11   38.00    7.60
  -2   1 -11   33.20    3.50
  -2  -1  11   38.60    2.70
   2  -1 -11   42.90    3.50
  -2   1 -11   41.70    3.90
   2  -1 -11   44.50    4.60
   2   1  11   40.80    6.00
   2  -1 -11   40.80    2.70
  -2   1 -11   42.00    4.30
  -3   1  11   10.10    2.30
  -3  -1 -11   11.20    2.50
   3   1 -11    9.20    2.30
  -3  -1 -11   11.80    1.70
   3   1 -11   18.20    2.90
   3  -1  11   11.00    2.50
  -3  -1 -11   15.60    3.00
   3  -1  11   13.20    3.00
  -3   1  11   11.70    2.70
  -3   1  11   12.80    7.40
   3  -1  11   15.60    3.20
   3  -1 -11   11.70    2.60
  -3   1 -11   13.00    3.10
  -3   1 -11   13.40    2.00
   3   1  11   11.90    2.00
   3   1  11    9.20    2.60
   3  -1 -11   12.60    3.10
  -3  -1  11   14.70    6.70
  -3   1 -11   15.30    3.00
   3   1  11   18.00    3.30
  -3  -1  11   10.80    2.80
  -4   1  11    5.30    7.40
   4   1 -11    6.70    2.10
   4   1 -11    9.70    2.90
  -4   1  11    6.20    3.10
   4  -1  11    7.50    2.70
  -4   1  11    6.50    2.20
  -4  -1 -11    4.10    2.60
   4   1 -11    5.60    2.40
   4  -1  11    3.70    2.10
   4  -1  11    9.30    2.30
  -4  -1 -11    3.90    2.70
  -4  -1  11    8.40    2.70
  -4   1 -11    7.00    1.60
   4  -1 -11    6.40    2.50
   4  -1 -11    4.10    1.80
  -4   1 -11    4.30    2.80
  -4   1 -11    5.70    2.70
   4   1  11    7.50    2.10
   4   1  11    5.60    1.70
   4   1  11    6.20    2.80
  -4  -1  11   13.20    7.40
   4  -1 -11    2.50    1.80
  -5  -1 -11   54.09    5.30
  -5  -1 -11   62.19    5.80
   5  -1  11   59.19    5.10
  -5   1  11   62.19    5.20
  -5   1  11   75.39   13.20
   5   1 -11   56.19    6.00
   5  -1  11   59.49    5.50
  -5   1  11   51.09    5.40
   5   1 -11   61.09    5.50
   5  -1  11   57.29    5.70
   5   1  11   64.49    5.80
  -5  -1  11   85.19   14.40
   5   1  11   61.39    5.80
  -5   1 -11   56.69    6.00
  -5  -1  11   62.69    6.00
  -5   1 -11   64.59    5.30
   5  -1 -11   64.59    6.00
   6  -1  11   34.70    4.70
   6  -1  11   35.90    4.70
  -6  -1 -11   31.60    4.60
  -6   1  11   34.60    4.90
  -6  -1 -11   32.00    4.80
   6  -1  11   34.70    4.30
  -6   1  11   36.40   13.50
   6   1 -11   35.00    5.20
   6   1 -11   28.20    4.20
  -6   1 -11   39.70    5.20
   6   1  11   39.00    5.00
  -6  -1  11   34.00    5.20
   6   1  11   32.80    5.00
  -6   1 -11   29.10    4.90
  -6  -1  11   67.89   15.70
   6  -1 -11   31.40    4.70
   6  -1 -11   32.60    4.50
   7   1 -11   18.10    4.70
  -7  -1 -11    8.90    3.60
   7  -1  11    5.60    3.50
  -7   1  11   23.60   12.70
  -7   1  11    9.80    3.10
  -7  -1 -11   14.40    4.20
   7  -1  11   17.40    4.60
   7   1 -11    6.80    3.10
   7  -1 -11   12.20    3.60
   7   1  11    8.50    3.40
  -7   1 -11    7.40    3.70
   7  -1 -11   11.60    3.40
  -7  -1  11   39.00   14.10
  -7  -1  11   16.70    4.30
   7   1  11   13.90    3.20
  -7   1 -11    8.60    3.80
   8  -1  11    6.40    3.00
   8   1 -11    7.10    3.20
  -8  -1 -11    0.90    3.40
  -8   1  11    2.10    3.40
  -8   1  11   14.30   12.20
   8   1  11    4.20    3.30
  -8  -1  11    4.90    3.90
   8  -1 -11   -1.00    3.10
  -8   1 -11    4.90    2.90
  -8   1 -11    1.50    2.80
   0   2  11   11.30    2.70
   0   2  11   13.00    2.80
   0  -2  11   13.60    2.90
   0  -2 -11   12.00    1.90
   0   2 -11   14.70    2.50
   0  -2 -11   11.60    2.90
   0   2  11   11.90    5.80
   0  -2 -11   13.50    2.50
   0  -2  11   12.70    2.40
   0   2 -11   18.60    2.40
   0  -2  11   10.80    4.50
   0   2 -11   14.60    3.10
   1   2 -11   55.49    4.40
  -1  -2 -11   56.19    5.10
   1  -2  11   54.59    5.90
  -1   2  11   56.99    4.40
   1   2 -11   52.89    3.10
  -1   2  11   55.79    5.00
  -1  -2 -11   61.79    4.50
  -1  -2 -11   52.29    4.00
   1   2 -11   63.59    5.00
  -1   2  11   61.89    4.60
  -1   2  11   57.39    8.90
   1  -2  11   66.69    5.40
   1  -2  11   57.49    4.40
   1   2  11   60.59    7.50
  -1  -2  11   64.89    8.70
   1  -2 -11   58.09    3.20
   1  -2 -11   56.89    3.50
   1  -2 -11   57.99    3.10
  -1  -2  11   62.69    4.80
  -1   2 -11   58.19    4.60
   1   2  11   61.59    4.80
   1  -2 -11   60.79    4.60
  -1   2 -11   55.99    4.10
  -1  -2  11   54.89    3.80
   2   2 -11   55.79    4.50
  -2  -2 -11   51.89    4.10
  -2  -2 -11   53.19    5.00
  -2   2  11   51.29    6.00
  -2   2  11   60.39    9.80
   2   2 -11   48.00    4.60
   2  -2  11   47.90    4.70
   2   2 -11   43.90    2.70
  -2   2  11   47.70    4.60
  -2   2  11   57.89    4.30
  -2  -2 -11   48.80    4.00
  -2   2 -11   41.60    4.30
   2   2  11   52.69    5.10
  -2  -2  11   49.00    5.00
   2   2  11   42.50    6.60
  -2   2 -11   49.30    4.70
  -2   2 -11   48.60    3.90
  -2  -2  11   48.60    3.30
   2  -2 -11   50.69    3.30
  -2  -2  11   51.59    7.90
   2  -2 -11   58.99    5.40
   2   2  11   46.30    2.60
   2  -2 -11   51.49    3.40
  -3   2  11  154.68   16.10
  -3   2  11  162.28   10.20
  -3   2  11  170.98    7.90
   3  -2  11  173.48    7.40
  -3  -2 -11  161.68    7.80
  -3   2  11  176.88    6.90
   3   2 -11  176.68    7.60
   3  -2  11  154.98    7.50
  -3  -2 -11  190.68    8.00
   3  -2  11  167.38    7.70
   3   2  11  168.08    7.00
   3   2  11  150.28    7.50
   3  -2 -11  167.98    8.20
  -3  -2  11  173.88    8.20
   3  -2 -11  160.48    6.80
  -3  -2  11  179.18   15.20
  -3   2 -11  169.58    7.90
   3  -2 -11  165.78    5.40
  -3   2 -11  178.88    6.90
  -4  -2 -11   46.10    4.70
  -4   2  11   67.39    9.00
   4  -2  11   43.10    5.10
   4  -2  11   54.99    5.10
   4   2 -11   52.99    4.80
   4  -2  11   52.09    5.10
  -4   2  11   54.69   12.00
   4   2 -11   53.29    5.30
  -4   2  11   50.09    4.00
  -4   2  11   47.70    4.60
   4   2 -11   52.29    4.80
  -4  -2 -11   43.20    4.90
   4  -2 -11   55.19    5.00
  -4  -2  11   49.60    5.40
  -4  -2  11   48.20    3.50
  -4   2 -11   51.89    3.80
  -4   2 -11   47.80    5.50
   4   2  11   68.19    6.20
   4  -2 -11   48.80    3.50
   4   2  11   47.40    4.50
  -4  -2  11   67.69   12.30
  -5   2  11  151.48   19.90
   5   2 -11  118.59    8.00
  -5   2  11  127.59    7.40
   5  -2  11  140.39    7.30
   5   2 -11  121.79    7.30
  -5  -2 -11  118.29    6.80
   5  -2  11  117.29    7.90
  -5   2  11  119.59   10.80
  -5  -2 -11  118.79    7.80
   5  -2  11  123.89    7.00
  -5   2 -11  118.29    7.70
   5   2  11  113.19    6.60
   5  -2 -11  128.79    7.80
   5   2  11  136.99    8.10
  -5  -2  11  129.69    7.60
  -5  -2  11  138.39   15.50
   5  -2 -11  125.19    7.20
  -5   2 -11  110.69    5.50
  -6   2  11   24.00    6.50
   6  -2  11   23.50    3.80
  -6  -2 -11   20.00    3.80
  -6   2  11   36.80   13.70
   6   2 -11   25.10    5.10
  -6  -2 -11   19.30    3.90
   6  -2  11   26.30    4.60
   6  -2  11   20.90    4.60
  -6   2  11   22.40    3.70
   6   2 -11   21.00    3.60
  -6  -2  11   25.90   12.10
  -6   2 -11   17.40    3.70
   6  -2 -11   18.10    3.60
   6  -2 -11   25.90    3.90
  -6  -2  11   17.70    3.80
   6   2  11   18.30    4.20
   6   2  11   26.70    4.40
   7  -2  11    1.60    2.90
  -7   2  11    5.20    3.50
  -7   2  11   24.30   12.60
   7  -2  11   10.90    3.50
  -7  -2 -11    8.60    4.00
   7   2 -11   11.40    4.30
   7   2 -11   15.30    3.90
  -7   2  11   30.20    7.20
   7   2  11    9.10    3.50
  -7   2 -11    3.90    2.80
  -7   2 -11    8.50    4.20
  -7  -2  11    3.50    3.70
   7   2  11    5.10    3.10
   7  -2 -11    6.40    2.70
   7  -2 -11    8.70    2.80
  -7  -2  11   28.50   11.60
   8   2 -11   17.00    4.50
   8   2 -11   20.30    4.50
  -8   2  11   35.80   14.90
  -8  -2 -11   18.50    4.60
   8  -2  11   23.90    5.50
  -8   2 -11   26.60    5.30
  -8  -2  11   52.69   12.10
  -8   2 -11   29.70    4.80
  -8  -2  11   26.00    5.30
   8  -2 -11   21.80    4.90
   0  -3 -11    9.00    1.90
   0  -3  11   10.50    2.10
   0   3  11   10.80    5.90
   0  -3 -11   11.70    2.20
   0  -3  11    9.50    3.90
   0   3 -11   10.10    2.90
   0   3  11   14.00    3.00
   0  -3 -11   13.00    3.10
   0   3  11    9.70    3.10
   0   3 -11   10.70    2.20
   0  -3  11    6.60    3.20
  -1  -3 -11  260.27    9.60
  -1  -3 -11  245.38    8.70
  -1   3  11  239.18    8.60
   1  -3  11  256.27    9.10
  -1   3  11  242.98   10.90
   1   3 -11  251.17    9.10
  -1   3  11  254.17    9.20
  -1   3  11  242.58   16.70
   1   3 -11  243.78    9.00
  -1  -3 -11  243.28    8.60
   1  -3 -11  253.77    9.70
  -1  -3  11  244.78   13.50
   1   3  11  249.78    9.40
   1   3  11  246.68   14.60
  -1   3 -11  258.37    9.50
  -1   3 -11  254.97    8.80
   1  -3 -11  243.58    7.20
   1  -3 -11  260.87    8.30
  -1  -3  11  248.78    8.40
  -1  -3  11  257.87    9.70
  -2  -3 -11   33.90    3.60
   2   3 -11   45.00    4.40
  -2  -3 -11   42.60    4.40
  -2   3  11   36.20   10.20
  -2   3  11   39.60    5.90
  -2  -3 -11   37.40    4.30
  -2   3  11   37.50    3.70
  -2   3  11   39.50    3.90
   2   3 -11   34.40    3.80
  -2   3 -11   42.80    4.60
  -2  -3  11   33.80    2.90
  -2  -3  11   27.20    3.70
   2  -3 -11   34.10    2.70
  -2   3 -11   36.30    3.50
   2  -3 -11   34.20    2.80
   2  -3 -11   39.30    4.40
  -2  -3  11   37.60    6.70
   2   3  11   33.40    3.90
   2   3  11   32.90    6.50
  -3  -3 -11   21.20    3.70
   3   3 -11   15.60    3.30
   3   3 -11   17.70    2.70
   3  -3  11   20.70    3.80
  -3  -3 -11   14.80    2.90
  -3   3  11   16.00    4.70
   3  -3  11   19.60    3.30
  -3   3  11   14.40    2.50
  -3   3  11   11.50    9.40
   3  -3  11   17.10    2.90
  -3   3  11   18.00    3.50
  -3  -3  11   13.70    2.50
  -3  -3  11   12.40    3.50
  -3  -3  11   18.70    6.60
   3  -3 -11   17.30    3.70
  -3   3 -11   20.60    3.40
   3  -3 -11   18.60    3.70
   3  -3 -11   17.10    2.60
   3   3  11   17.10    3.30
   3  -3 -11   17.20    2.30
  -3   3 -11   15.60    2.50
   3   3  11   16.40    2.60
  -4   3  11    8.90    5.10
  -4  -3 -11    7.40    2.80
   4  -3  11    9.60    2.30
  -4   3  11    8.30    3.00
  -4   3  11    4.00    1.90
  -4   3  11    6.00    9.60
   4   3 -11    7.40    1.90
   4  -3  11    8.80    3.30
   4  -3  11    2.70    2.60
   4   3 -11    3.80    2.60
  -4  -3 -11    7.40    2.50
  -4  -3  11    6.60    6.50
  -4   3 -11    7.80    2.40
   4   3  11    3.10    2.20
   4  -3 -11    5.00    2.30
  -4   3 -11    5.60    3.20
  -4  -3  11    7.70    3.30
   4   3  11    8.30    2.20
  -4  -3  11    2.90    1.50
   4  -3 -11    6.60    1.80
  -5   3  11   18.60    7.10
  -5  -3 -11   15.00    3.30
  -5   3  11   19.20    3.80
   5  -3  11   12.10    3.00
  -5  -3 -11    9.60    3.40
   5   3 -11   16.20    4.10
  -5   3  11   16.70   11.80
   5  -3  11   17.40    4.20
   5   3 -11   12.00    3.20
   5  -3  11   15.30    2.80
   5   3  11   20.30    4.20
   5  -3 -11   19.00    3.70
  -5  -3  11   15.90    3.50
   5   3  11   18.10    3.20
   5   3  11   14.40    3.20
  -5   3 -11   19.10    3.90
  -5   3 -11   14.80    2.70
  -5  -3  11   16.90    9.40
   5  -3 -11   13.80    3.10
   6  -3  11  111.19    8.00
  -6   3  11  140.59   13.10
   6   3 -11  128.29    7.80
   6   3 -11  132.09    9.20
  -6  -3 -11  129.99    8.70
  -6   3  11  173.18   23.50
  -6   3  11  114.59    6.60
  -6  -3 -11  117.39    7.20
   6  -3  11  113.89    8.10
   6  -3 -11  136.29    8.40
  -6   3 -11  123.69    8.90
   6   3  11  134.49    8.50
  -6  -3  11  137.09    9.00
  -6  -3  11  155.88   19.10
  -6   3 -11  114.19    6.70
   6  -3 -11  112.49    7.40
   7   3 -11  104.79    9.40
  -7  -3 -11   87.29    7.00
   7  -3  11   92.39    8.60
  -7   3  11  145.19   21.70
   7   3 -11   90.29    7.20
   7  -3  11   90.19    7.30
  -7  -3 -11  101.29    9.10
  -7   3 -11   94.39    8.90
  -7  -3  11   98.79    7.70
   7  -3 -11   95.49    6.90
   7  -3 -11   89.29    6.80
  -7  -3  11  143.99   18.40
   8   3 -11    5.90    4.30
  -8   3  11   20.80    6.90
   8   3 -11   13.00    4.40
   8  -3  11    7.70    3.60
   8  -3  11    9.90    4.10
  -8  -3 -11   10.10    3.40
  -8   3 -11    1.20    3.00
  -8   3 -11    9.20    3.70
  -8  -3  11    6.50    3.40
   8  -3 -11    5.20    3.60
   0   4 -11  317.67   10.20
   0  -4 -11  284.77   10.60
   0  -4 -11  288.97   10.30
   0  -4 -11  320.07   10.10
   0  -4 -11  289.97    9.10
   0  -4  11  315.57   10.90
   0   4  11  295.07   11.20
   0   4  11  299.17   17.40
   0   4 -11  308.17   10.40
   0   4  11  298.67   10.60
  -1   4  11   12.00    2.80
   1  -4  11   13.10    3.40
  -1   4  11   10.10    5.60
  -1  -4 -11    7.60    2.20
  -1   4  11   14.60    4.80
  -1  -4 -11   11.90    2.40
   1   4 -11   11.20    2.50
  -1  -4 -11   13.30    2.60
   1   4 -11   12.90    2.60
  -1  -4 -11   16.30    3.30
  -1  -4  11    7.80    3.50
  -1   4 -11   11.60    3.20
   1  -4 -11   10.90    3.00
  -1  -4  11   14.90    3.00
   1  -4 -11   12.30    2.50
   1  -4 -11   14.50    3.30
   1   4  11    7.70    4.80
   1  -4 -11    9.80    1.60
  -1   4 -11   12.60    2.50
   1   4  11   11.30    3.00
   2   4 -11  180.88    7.40
   2   4 -11  180.58    8.20
  -2  -4 -11  185.78    8.00
  -2   4  11  186.28    7.70
  -2   4  11  176.18    7.60
   2  -4  11  188.78    8.10
  -2  -4 -11  186.48    7.70
  -2   4  11  178.88   20.30
  -2   4  11  179.88   11.50
  -2  -4 -11  191.28    8.30
   2  -4 -11  174.78    8.70
   2  -4 -11  186.48    7.00
   2  -4 -11  193.58    8.80
  -2  -4  11  177.48    8.60
   2   4  11  181.48    8.40
  -2  -4  11  179.68    7.10
   2   4  11  201.98   14.30
  -2  -4  11  171.68    7.10
   2   4  11  176.18    6.20
  -2  -4  11  179.08   12.60
  -2   4 -11  189.58    8.90
  -2   4 -11  199.08    7.80
  -3   4  11  132.89    6.40
  -3   4  11  139.49   17.50
   3   4 -11  133.89    6.20
  -3  -4 -11  143.59    7.30
  -3   4  11  130.19   11.30
   3  -4  11  142.19    8.10
   3  -4  11  124.19    6.50
   3   4 -11  130.69    7.00
  -3  -4 -11  138.49    6.40
  -3  -4 -11  153.38    7.90
   3  -4  11  131.79    7.40
  -3   4  11  137.79    6.80
  -3  -4  11  127.79    5.90
  -3   4 -11  133.29    6.50
   3  -4 -11  142.79    5.90
  -3   4 -11  136.09    7.40
  -3  -4  11  154.78   14.00
   3   4  11  138.59    7.70
   3  -4 -11  133.09    8.00
  -3  -4  11  128.59    7.20
   4   4 -11   -1.60    2.40
   4  -4  11   -1.80    2.00
   4  -4  11   -2.10    1.60
  -4  -4 -11    2.20    2.40
  -4   4  11   -7.10    9.30
  -4   4  11   -0.50    2.30
   4   4 -11    0.00    1.70
  -4  -4 -11    3.40    2.90
   4  -4  11    1.00    2.20
  -4   4  11    1.30    3.80
  -4  -4  11    5.00    2.50
   4   4  11    3.40    2.30
  -4   4 -11    2.30    1.80
   4  -4 -11    1.00    1.30
   4  -4 -11   -0.40    1.90
  -4  -4  11    1.60    2.10
  -4  -4  11    2.00    5.30
  -4   4 -11    1.00    2.90
  -5  -4 -11  180.98    9.60
   5  -4  11  169.38    9.60
  -5  -4 -11  179.28    9.40
  -5   4  11  170.78   20.90
   5   4 -11  178.08   10.10
   5   4 -11  160.68    9.20
  -5   4  11  163.78    8.70
  -5   4  11  194.78   16.10
   5  -4  11  169.28    9.80
  -5  -4 -11  157.48    7.90
   5  -4  11  158.38    7.40
  -5  -4  11  154.18    6.80
   5   4  11  178.08    8.90
  -5   4 -11  165.68    8.00
   5  -4 -11  158.08    7.70
   5   4  11  172.78    9.60
  -5  -4  11  186.78   18.60
   5  -4 -11  183.38    9.20
  -5   4 -11  173.18   10.00
  -5  -4  11  171.98    9.60
   6   4 -11   34.40    5.60
  -6  -4 -11   43.00    6.10
   6   4 -11   40.20    5.60
  -6  -4 -11   37.30    5.40
  -6   4  11   38.50   15.90
   6  -4  11   32.80    5.30
   6  -4  11   30.50    5.60
  -6   4  11   43.40    9.90
  -6   4 -11   40.20    6.30
  -6  -4  11   70.89   14.20
  -6  -4  11   41.10    5.30
   6  -4 -11   41.00    5.10
   6  -4 -11   33.40    4.40
  -6   4 -11   35.20    4.20
   6   4  11   42.70    5.70
   7   4 -11    4.50    2.90
   7   4 -11    1.00    3.60
  -7  -4 -11    4.80    3.10
  -7   4  11    0.20   13.20
  -7   4  11    2.90    5.40
  -7  -4 -11    2.00    2.50
   7  -4  11    3.00    2.60
   7  -4  11    5.10    4.00
   7  -4 -11    4.40    3.50
   7   4  11    5.40    3.60
  -7  -4  11   -0.80    3.60
  -7   4 -11    5.90    4.10
   7  -4 -11    5.90    2.70
   0  -5 -11   97.79    6.40
   0   5 -11   94.89    6.10
   0  -5 -11   88.89    5.80
   0   5  11   85.59   11.30
   0  -5 -11   85.89    4.60
   0   5  11   89.99    7.20
   0  -5 -11   92.49    5.80
   0  -5  11   81.69    5.60
   0   5  11   88.29    5.70
   0  -5 -11   81.79    4.70
   0   5 -11   91.89    5.60
  -1   5  11  155.58    7.60
  -1   5  11  152.48   14.70
  -1   5  11  156.88   10.50
  -1  -5 -11  166.68    7.00
   1   5 -11  164.68    7.80
  -1  -5 -11  151.78    7.30
  -1  -5 -11  163.08    7.50
  -1  -5 -11  168.88    7.80
   1   5 -11  170.08    7.60
   1  -5  11  151.78    7.70
   1   5  11  146.09    7.90
  -1  -5  11  158.18    7.50
   1  -5 -11  148.39    7.70
  -1   5 -11  153.48    7.20
   1  -5 -11  150.68    6.70
   1   5  11  162.18   14.10
   1   5  11  159.78    8.00
  -1   5 -11  145.29    7.70
   1  -5 -11  170.78    7.90
   2  -5  11    3.50    1.90
  -2  -5 -11    3.60    1.80
   2   5 -11    2.20    1.60
  -2  -5 -11    2.40    2.20
   2   5 -11    2.20    1.90
  -2  -5 -11    5.80    2.20
  -2  -5 -11    2.30    1.60
  -2   5  11    1.90    2.10
  -2   5  11    3.80    4.90
  -2   5  11    0.40    8.00
   2   5  11    2.30    3.60
  -2  -5  11   -0.60    3.70
  -2   5 -11    4.60    2.20
   2  -5 -11    2.80    2.10
  -2  -5  11    3.20    1.80
   2  -5 -11    5.00    3.10
  -2   5 -11   -2.40    2.40
  -2  -5  11    4.40    2.40
   2   5  11    7.90    2.50
  -3   5  11   31.90    9.90
  -3  -5 -11   34.50    3.90
  -3   5  11   30.80    7.60
   3  -5  11   31.30    4.90
  -3   5  11   29.70    3.70
  -3  -5 -11   37.60    3.90
   3   5 -11   41.50    4.00
   3  -5  11   41.40    5.40
  -3  -5 -11   49.40    5.40
   3   5 -11   31.60    4.80
  -3  -5 -11   32.90    4.60
  -3   5 -11   34.20    4.60
   3  -5 -11   37.20    5.10
  -3  -5  11   40.10    7.50
   3  -5 -11   30.70    3.50
  -3  -5  11   35.30    4.90
  -3   5 -11   32.90    4.40
   3   5  11   31.20    4.90
  -3  -5  11   40.70    4.00
   4  -5  11   52.39    6.10
   4  -5  11   29.60    4.60
   4  -5  11   43.00    4.80
  -4   5  11   48.30   13.10
  -4  -5 -11   37.00    4.40
  -4  -5 -11   42.50    5.40
  -4  -5 -11   38.10    5.30
   4   5 -11   44.40    5.70
  -4   5  11   42.50    8.30
  -4  -5  11   70.09   11.70
  -4   5 -11   47.50    6.10
  -4  -5  11   47.40    5.80
   4  -5 -11   43.80    5.30
  -4   5 -11   47.60    5.10
  -4  -5  11   43.10    4.60
   4   5  11   44.10    5.80
   5  -5  11   23.00    4.40
  -5  -5 -11   19.20    4.50
  -5   5  11   35.70    8.50
  -5  -5 -11   24.30    4.70
   5   5 -11   32.50    5.40
  -5   5  11   25.40   14.60
   5  -5  11   18.40    3.90
   5  -5  11   19.90    3.10
   5   5 -11   23.20    4.80
  -5  -5  11   41.40    9.00
   5   5  11   29.60    5.00
  -5  -5  11   14.50    2.80
   5   5  11   19.10    3.60
  -5   5 -11   20.50    4.30
  -5  -5  11   19.20    4.80
   5  -5 -11   31.60    5.10
  -5   5 -11   24.80    3.80
   6  -5  11    4.50    3.70
   6   5 -11   -2.30    3.40
  -6   5  11    7.10    6.30
   6  -5  11    4.90    3.80
  -6  -5 -11    7.20    3.50
  -6  -5 -11    6.20    3.80
  -6   5  11   -1.10   13.60
   6   5 -11    6.50    3.10
  -6   5 -11   -0.90    3.60
   6   5  11    8.60    3.10
  -6   5 -11    1.00    2.10
   6  -5 -11    2.10    3.10
  -6  -5  11    1.70    3.80
   7   5 -11   16.90    4.50
  -7   5  11   20.10   17.00
  -7  -5 -11   33.50    6.10
   7   5 -11   25.40    5.50
   7  -5  11   21.80    5.30
  -7  -5 -11   22.20    4.90
  -7   5  11   30.20    9.00
   7  -5  11   21.90    4.90
  -7  -5  11   22.90    4.80
  -7   5 -11   31.30    6.20
  -7   5 -11   30.30    4.90
   7  -5 -11   21.70    4.60
   0  -6 -11   27.80    3.50
   0  -6 -11   30.30    4.50
   0  -6 -11   28.70    4.20
   0   6  11   30.90    4.40
   0   6 -11   26.80    4.00
   0   6  11   28.40    5.50
   0   6 -11   23.20    4.00
   0  -6  11   25.10    3.70
   0  -6 -11   26.60    3.60
   0   6  11   19.80    7.10
  -1   6  11   16.80    5.60
  -1   6  11   13.80    6.20
  -1  -6 -11   20.90    3.50
  -1  -6 -11   19.70    3.80
  -1  -6 -11   15.10    3.40
   1   6 -11   22.80    3.60
  -1  -6 -11   23.50    3.00
   1   6 -11   22.80    3.20
  -1   6  11   21.70    3.80
   1  -6  11   20.00    3.80
  -1  -6  11   22.50    3.50
   1   6  11   24.30    4.30
   1  -6 -11   23.10    4.20
  -1   6 -11   19.40    3.70
  -1  -6  11   22.50    3.70
   1   6  11   16.90    6.00
   1  -6 -11   23.90    3.70
   1   6  11   24.30    4.30
  -1   6 -11   24.90    4.10
   2  -6  11   12.00    2.60
  -2  -6 -11   15.90    3.30
  -2   6  11   18.10    6.80
   2   6 -11   19.60    3.50
  -2  -6 -11    8.10    2.60
  -2   6  11   18.90    3.40
   2  -6  11   10.90    3.10
  -2   6  11   15.80    7.20
  -2  -6 -11   18.20    3.40
   2   6 -11   21.20    3.10
  -2  -6 -11   17.80    3.30
   2   6  11   23.90    4.30
  -2   6 -11   18.50    3.50
  -2  -6  11   18.70    3.40
   2  -6 -11   14.80    3.30
  -2  -6  11   15.20    3.00
   2  -6 -11   13.30    3.00
  -2   6 -11   15.60    3.10
  -3   6  11  223.88   23.40
   3   6 -11  218.28   10.50
  -3   6  11  219.18    8.70
   3  -6  11  234.78   10.60
  -3  -6 -11  217.28    8.80
   3  -6  11  218.18   11.00
   3   6 -11  212.68   10.10
  -3   6  11  227.48   16.40
  -3  -6 -11  239.78   10.60
  -3  -6 -11  242.28    9.70
   3   6  11  232.38   11.00
  -3   6 -11  203.68    9.70
  -3  -6  11  254.37   17.20
  -3  -6  11  234.38    9.10
  -3   6 -11  234.38   10.50
  -3  -6  11  222.58   10.40
   3  -6 -11  217.18   10.60
   3  -6 -11  228.98    8.60
  -4   6  11   19.30    8.60
   4  -6  11   26.00    3.60
   4   6 -11   24.50    4.60
   4   6 -11   24.40    4.30
  -4   6  11   15.30   13.00
  -4  -6 -11   29.10    4.30
   4  -6  11   32.30    5.40
  -4  -6 -11   26.60    4.70
   4  -6  11   20.90    4.40
  -4   6 -11   28.60    4.60
  -4  -6  11   23.00    3.90
   4  -6 -11   31.70    5.10
  -4   6 -11   28.60    4.60
  -4  -6  11   36.90    5.50
   4   6  11   26.20    4.50
   4  -6 -11   25.20    3.90
  -5   6  11  111.19   14.50
   5  -6  11   98.29    7.90
   5  -6  11  101.49    8.00
  -5  -6 -11   98.39    8.10
   5   6 -11  102.29    8.60
  -5  -6 -11  123.79    8.70
  -5   6  11  138.59   21.90
   5  -6 -11   96.89    7.40
  -5   6 -11  101.79    7.50
  -5  -6  11  102.09    8.60
  -5  -6  11   98.29    6.70
  -5   6 -11  102.19    9.10
   5   6  11  102.39    8.20
   5   6  11  110.79    7.90
  -6  -6 -11   12.70    3.90
  -6  -6 -11    9.70    4.10
  -6   6  11    8.60    6.90
   6   6 -11    5.30    4.20
   6  -6  11   12.90    3.80
   6  -6  11   16.00    4.70
  -6   6  11    4.10   14.60
   6   6 -11    8.50    3.60
  -6  -6  11   16.30    5.10
   6   6  11   14.70    3.60
   6  -6 -11   11.00    4.10
  -6   6 -11    7.10    3.50
  -6   6 -11   10.20    3.80
  -6  -6  11    8.90    4.20
   0  -7  11  142.69    7.30
   0   7  11  149.09   16.40
   0  -7 -11  156.78    8.60
   0   7 -11  140.49    7.50
   0   7  11  139.99   10.10
   0  -7 -11  148.99    8.00
   0   7  11  126.59    7.40
   0   7 -11  158.78    8.00
  -1  -7 -11   67.39    6.20
  -1   7  11   45.70    5.00
  -1  -7 -11   47.00    4.50
   1   7 -11   53.49    5.00
   1  -7  11   59.59    5.40
  -1  -7 -11   60.09    5.50
  -1   7  11   58.99   10.60
  -1   7  11   61.69    8.70
   1   7 -11   56.49    5.70
  -1  -7 -11   48.80    5.00
   1  -7 -11   57.59    6.20
   1   7  11   62.59   11.60
  -1   7 -11   53.09    5.30
   1   7  11   59.09    6.20
   1  -7 -11   53.89    5.30
  -1  -7  11   54.69    5.20
  -1  -7  11   57.69    5.30
  -1   7 -11   51.79    5.50
  -2   7  11  132.99   17.80
  -2  -7 -11  144.59    7.40
  -2   7  11  119.99   10.90
  -2  -7 -11  122.89    6.70
   2  -7  11  123.59    8.40
  -2   7  11  127.09    7.10
  -2  -7 -11  124.49    7.00
  -2  -7 -11  118.89    7.20
   2   7 -11  144.39    8.50
  -2   7 -11  131.89    7.40
  -2  -7  11  122.29    7.30
  -2   7 -11  128.99    8.20
   2  -7 -11  126.19    7.30
   2   7  11  119.29    7.70
  -2  -7  11  143.69    7.90
   2  -7 -11  128.39    7.90
   3   7 -11   12.80    4.10
  -3  -7 -11   16.20    3.80
  -3  -7 -11   17.40    4.30
   3   7 -11   17.90    3.60
  -3   7  11   21.80    8.80
  -3   7  11   13.40    7.80
   3  -7  11   12.60    3.40
   3  -7  11   11.10    3.70
  -3   7 -11   18.40    4.20
   3  -7 -11    7.20    3.60
   3  -7 -11   15.80    3.30
  -3  -7  11   14.30    4.20
   3   7  11   16.20    4.20
  -3   7 -11   20.80    4.80
  -3  -7  11   14.60    3.30
  -4   7  11   16.60    7.20
   4   7 -11   14.80    4.30
   4  -7  11    8.90    4.50
  -4  -7 -11   15.80    3.60
  -4   7  11   16.30    9.40
   4   7 -11   21.00    4.50
  -4  -7 -11   13.00    3.40
   4  -7  11   13.90    4.20
  -4  -7  11   14.60    3.70
   4   7  11   17.10    4.70
  -4  -7  11   16.80    3.80
  -4   7 -11   17.70    3.70
   4   7  11   17.60    4.60
  -4   7 -11   12.90    4.20
   4  -7 -11   14.90    4.30
   4  -7 -11   16.40    3.40
   5  -7  11   49.20    6.60
   5  -7  11   44.40    6.30
  -5   7  11   44.90   16.50
  -5  -7 -11   43.20    5.90
  -5  -7 -11   57.89    6.70
  -5   7  11   60.69   12.50
   5   7 -11   41.80    6.40
  -5  -7  11   43.80    5.40
  -5   7 -11   52.19    6.30
  -5  -7  11   52.99    6.80
   5  -7 -11   47.40    6.50
   5   7  11   37.30    6.00
  -5   7 -11   47.40    6.30
   6  -7  11   10.50    3.90
   6   7 -11    6.00    4.80
   6   7 -11    6.40    4.50
  -6  -7 -11   10.10    4.50
   6  -7  11    4.60    4.40
  -6  -7 -11    6.20    3.00
  -6   7  11    9.30    9.00
  -6   7  11    7.60   13.80
   6  -7 -11    7.20    3.30
   6   7  11    7.30    4.10
  -6   7 -11   10.40    4.10
  -6   7 -11    8.40    4.70
  -6  -7  11    3.80    2.50
  -6  -7  11    8.60    4.30
   0  -8  11    0.90    3.00
   0  -8 -11    0.80    2.00
   0   8  11    9.80    5.20
   0   8 -11    1.90    1.80
   0  -8 -11    1.70    2.20
   0   8  11    3.40    2.90
   0   8  11    0.90    3.40
   0   8 -11    0.00    2.10
  -1   8  11    4.90    2.90
  -1   8  11   10.50    4.40
  -1  -8 -11    7.70    2.60
  -1  -8 -11    5.30    3.30
   1   8 -11    7.30    2.80
  -1   8  11   14.00    5.90
   1  -8  11    6.60    2.80
   1  -8 -11    8.90    3.40
  -1   8 -11    2.10    3.00
  -1  -8  11   11.50    3.80
  -1   8 -11    6.60    3.30
   1  -8 -11    6.30    3.40
   1   8  11   12.70    3.90
   1   8  11   13.70    5.90
  -1  -8  11   10.80    3.60
   2   8 -11  122.79    7.80
   2  -8  11  129.19    9.70
  -2   8  11  115.19   12.70
   2  -8  11  106.99    8.10
  -2  -8 -11  141.79    8.90
  -2  -8 -11  123.99    7.40
  -2   8  11  142.59   18.00
  -2  -8 -11  123.29    6.80
   2   8 -11  124.79    8.40
  -2  -8  11  123.49    8.00
   2  -8 -11  126.89    7.20
  -2   8 -11  118.99    7.60
  -2  -8  11  138.39    8.50
   2  -8 -11  126.19    8.80
  -2   8 -11  118.79    8.20
  -3  -8 -11   44.90    5.10
   3   8 -11   48.40    5.90
   3  -8  11   51.29    6.90
  -3   8  11   37.60    8.50
  -3  -8 -11   48.70    5.70
   3   8 -11   35.00    5.70
  -3   8  11   33.80   11.20
   3  -8  11   37.80    5.90
  -3  -8  11   42.40    5.10
  -3  -8  11   44.20    5.10
   3  -8 -11   43.20    4.90
  -3   8 -11   41.50    5.90
   3  -8 -11   37.70    5.20
  -3   8 -11   43.60    5.40
  -4  -8 -11    4.10    3.40
   4  -8  11    4.70    3.20
   4  -8  11   -0.70    3.40
  -4   8  11   11.30   10.30
   4   8 -11    0.10    2.20
  -4  -8 -11    5.50    2.80
   4   8 -11    9.50    4.30
  -4   8  11    2.30    5.70
  -4  -8  11    9.20    3.20
  -4   8 -11    8.60    3.80
  -4  -8  11    4.90    3.60
  -4   8 -11   12.10    4.30
   4   8  11   13.30    4.60
   4  -8 -11    6.60    3.10
   5  -8  11   32.10    5.90
   5   8 -11   33.60    6.00
  -5   8  11   37.40   13.30
  -5   8  11   38.40   11.30
  -5  -8 -11   38.40    5.40
  -5  -8 -11   42.40    5.60
   5  -8  11   41.30    7.30
   5   8  11   29.10    5.20
  -5  -8  11   31.50    5.00
  -5   8 -11   37.30    5.80
  -5   8 -11   35.20    5.20
   5  -8 -11   34.50    5.30
  -5  -8  11   42.40    5.70
   0   9 -11   17.80    4.50
   0   9  11   21.10    4.60
   0  -9 -11   12.30    3.40
   0  -9 -11   19.50    4.00
  -1  -9 -11   12.40    3.30
  -1  -9 -11   12.30    3.40
   1  -9  11   14.00    3.40
   1   9 -11    8.00    3.60
  -1   9  11   19.80    6.50
   1   9 -11   15.40    3.50
  -1   9  11   19.90    6.40
   1  -9 -11   12.10    4.20
  -1  -9  11   10.10    3.80
  -1   9 -11    7.60    2.70
   1  -9 -11   12.10    3.80
  -1   9 -11   17.20    3.70
  -2  -9 -11   24.70    4.50
   2  -9  11   19.80    4.00
   2   9 -11   20.70    4.20
   2   9 -11   20.70    4.70
   2  -9  11   29.50    6.00
  -2   9  11   23.90    6.60
  -2   9  11   42.50    9.90
  -2   9 -11   26.70    5.20
   2  -9 -11   32.90    5.70
  -2   9 -11   19.20    4.60
  -2  -9  11   14.70    4.10
   2  -9 -11   21.90    4.40
  -2  -9  11   19.80    4.50
   3   9 -11   13.70    4.80
  -3   9  11   29.40   10.00
   3  -9  11   14.20    5.20
  -3  -9 -11   16.50    3.40
   3  -9  11   13.40    3.60
  -3   9  11   32.60    9.00
   3   9 -11   25.70    5.10
  -3  -9 -11   19.00    4.70
   3  -9 -11   19.60    5.00
  -3  -9  11    9.30    4.10
  -3  -9  11   23.70    4.20
   3   9  11    6.10    4.50
  -3   9 -11   26.30    5.10
  -3   9 -11   20.10    4.30
   3  -9 -11   21.30    3.90
  -4  -9 -11    4.60    3.60
  -4   9  11   14.40    9.70
   4   9 -11    0.70    2.70
  -4  -9 -11    7.50    3.90
  -4   9  11    5.30    8.00
   4  -9  11    0.00    2.90
   4   9 -11   -0.40    2.20
   4  -9  11    2.00    2.90
  -4   9 -11   -6.00    3.20
  -4  -9  11    1.20    2.80
  -4   9 -11    0.30    2.50
   4  -9 -11    8.10    4.20
  -4  -9  11    4.30    2.90
   4   9  11    4.70    3.30
   0 -10  11   13.10    4.10
   0  10 -11   12.50    4.10
   0 -10 -11   20.80    4.10
   0 -10 -11   19.00    4.70
   0  10 -11   11.50    3.70
   1 -10  11   45.10    6.40
   1  10 -11   68.89    7.50
   1  10 -11   52.99    6.50
  -1 -10 -11   54.49    6.30
   1 -10  11   45.80    5.50
  -1  10  11   81.89    9.00
  -1 -10 -11   48.60    5.60
   1 -10 -11   55.79    6.40
  -1  10 -11   52.69    6.80
  -1 -10  11   46.20    5.60
   1 -10 -11   52.09    6.60
  -2 -10 -11   26.50    5.70
  -2  10  11   38.50    8.40
   2  10 -11   28.80    5.10
   2 -10  11   26.00    5.40
   2 -10  11   17.90    3.90
   2  10 -11   37.50    5.90
  -2  10 -11   30.20    4.70
   2  10  11   32.60    6.60
  -2  10 -11   35.20    5.20
  -2 -10  11   30.10    4.80
   2 -10 -11   27.00    5.00
   2 -10 -11   32.50    5.30
   0   0 -12  959.70   21.20
   0   0  12  960.00   22.50
   0   0  12  963.80   30.70
   0   0 -12 1023.70   21.50
   0   0 -12 1049.59   21.40
   0   0  12 1001.80   22.90
   0   0 -12 1008.40   23.20
  -1   0 -12   84.39    5.10
  -1   0 -12   99.09    6.30
   1   0 -12   95.19    6.20
  -1   0  12   89.59    5.80
  -1   0 -12   86.49    4.60
  -1   0  12   90.29    6.50
   1   0 -12   90.79    4.30
   1   0  12   83.19    8.60
  -1   0 -12   87.99    5.30
  -1   0  12   82.19   10.90
   1   0  12   87.79    5.40
  -2   0  12   16.30    3.10
   2   0  12   15.00    2.80
  -2   0 -12   19.00    3.30
  -2   0  12   13.20    3.00
   2   0  12   14.80    3.80
  -2   0  12   15.40    7.80
   2   0 -12   19.90    2.10
   2   0 -12    9.00    3.00
  -2   0 -12   19.00    3.00
   2   0 -12   18.00    2.80
  -2   0 -12   16.20    2.10
  -2   0 -12   14.30    2.80
   3   0  12   46.00    4.00
   3   0 -12   42.20    4.50
   3   0  12   43.80    4.80
  -3   0  12   51.39    9.90
   3   0 -12   43.70    4.80
  -3   0 -12   43.70    4.50
  -3   0 -12   46.20    3.00
  -3   0 -12   42.70    5.10
   3   0  12   42.60    4.50
  -3   0  12   50.99    4.80
  -3   0  12   48.80    5.30
  -4   0  12   41.70    4.30
   4   0  12   42.90    4.70
  -4   0  12   47.20   10.10
   4   0  12   49.50    4.40
   4   0  12   46.30    5.10
   4   0 -12   42.30    4.70
  -4   0 -12   48.40    5.20
   4   0 -12   39.70    4.50
  -4   0  12   50.09    5.50
  -4   0 -12   53.39    5.40
  -5   0  12   62.69   14.10
   5   0  12   50.49    5.10
  -5   0 -12   40.00    5.00
  -5   0  12   39.40    4.00
  -5   0 -12   49.60    5.60
   5   0  12   37.80    4.70
  -5   0  12   47.00    5.60
   5   0 -12   46.60    4.80
   5   0 -12   46.20    5.40
   6   0  12   19.70    4.20
  -6   0  12   34.40   12.80
  -6   0 -12   21.30    4.40
  -6   0 -12   21.80    4.00
   6   0 -12   13.20    3.20
   6   0  12   21.00    3.80
  -6   0  12   15.90    4.20
   6   0 -12   26.10    4.90
   7   0 -12   14.90    3.30
   7   0  12   19.50    4.70
  -7   0  12   22.00    4.20
  -7   0 -12   21.10    4.70
  -7   0  12   36.40   15.80
   7   0 -12   24.00    4.90
  -7   0 -12   22.40    4.30
   8   0  12    3.90    3.60
  -8   0  12    0.20    2.70
   8   0 -12    1.90    2.80
  -8   0 -12    4.80    3.60
   0   1 -12 1253.97   25.90
   0   1  12 1230.58   36.50
   0   1 -12 1277.17   25.40
   0   1 -12 1244.78   27.50
   0  -1 -12 1215.58   25.20
   0  -1 -12 1206.28   25.30
   0   1  12 1232.78   27.10
   0  -1  12 1264.37   27.30
   0  -1 -12 1262.47   27.60
   0   1  12 1248.08   27.00
   0  -1  12 1276.17   27.30
  -1   1  12  116.49    6.80
   1   1 -12  114.69    4.80
  -1   1  12  109.39   12.00
  -1  -1 -12  109.89    5.50
   1  -1  12  109.99    6.90
   1   1 -12  109.69    6.60
   1   1 -12  115.19    6.10
   1  -1  12  116.59    8.80
  -1  -1 -12  112.79    6.40
  -1  -1 -12  124.99    6.20
  -1   1  12  124.09    6.20
   1  -1  12  111.49    6.20
  -1   1  12  115.29    6.90
  -1   1 -12  112.39    6.00
   1  -1 -12  114.69    6.80
   1  -1 -12  110.29    4.70
   1   1  12  115.09    6.30
   1  -1 -12  117.89    5.30
   1   1  12  128.69   10.80
  -1   1 -12  133.59    6.20
  -1  -1  12  126.39    7.30
  -1   1 -12  106.79    5.40
  -1  -1  12  112.19   12.20
  -1   1 -12  125.59    7.10
   1  -1 -12  119.49    5.10
  -2  -1 -12  139.59    7.50
  -2  -1 -12  152.38    7.00
  -2   1  12  160.58    8.10
   2   1 -12  166.18    7.80
   2  -1  12  149.19    7.50
   2  -1  12  162.28    9.30
  -2   1  12  154.78   17.20
  -2   1  12  151.28    8.70
  -2  -1 -12  164.48    7.50
  -2   1  12  142.09    6.70
  -2  -1 -12  150.18    5.50
   2  -1 -12  145.89    5.30
  -2   1 -12  147.89    6.10
   2  -1 -12  155.98    7.80
   2   1  12  145.69   10.70
  -2   1 -12  165.68    8.20
  -2   1 -12  148.79    7.10
   2  -1 -12  150.38    6.30
   2   1  12  163.78    7.90
  -2  -1  12  153.38   14.90
  -2  -1  12  149.59    7.90
   3   1 -12   43.10    4.70
   3  -1  12   44.70    4.70
  -3   1  12   46.30   11.00
  -3  -1 -12   49.90    4.80
  -3  -1 -12   45.00    5.00
  -3   1  12   50.09    4.60
   3  -1  12   57.59    5.50
   3  -1  12   47.60    4.40
   3   1 -12   47.50    4.60
  -3   1  12   52.89    5.40
   3  -1 -12   52.39    5.40
  -3   1 -12   44.00    3.80
  -3  -1  12   54.39   10.40
   3   1  12   43.90    5.00
   3   1  12   43.20    4.50
  -3   1 -12   56.29    5.80
  -3  -1  12   45.70    4.80
   3   1  12   43.50    3.60
  -3   1 -12   56.49    5.20
   3  -1 -12   45.60    4.40
  -4   1  12   83.29    6.80
   4  -1  12   76.39    5.90
  -4   1  12   73.89    5.10
  -4  -1 -12   74.69    6.50
   4  -1  12   79.39    5.40
  -4   1  12   82.99   13.00
   4   1 -12   73.79    5.80
   4   1 -12   61.79    5.70
  -4  -1 -12   73.59    6.10
   4  -1  12   75.29    5.70
  -4   1 -12   64.19    4.20
   4  -1 -12   68.79    5.80
   4   1  12   71.99    6.20
  -4   1 -12   65.59    5.50
   4   1  12   71.29    5.60
  -4   1 -12   80.09    6.20
  -4  -1  12   84.99   12.70
   4  -1 -12   77.99    5.70
  -4  -1  12   71.79    6.50
   5  -1  12   13.10    3.40
   5  -1  12    5.80    3.20
  -5   1  12   19.60   11.20
   5   1 -12    8.90    2.50
  -5  -1 -12    9.50    3.70
  -5  -1 -12    6.40    3.10
  -5   1  12    6.40    3.60
   5   1 -12   14.10    3.20
   5  -1  12   13.30    3.20
   5  -1 -12   12.50    2.70
   5   1  12    6.80    3.30
  -5   1 -12   12.30    3.10
  -5   1 -12   14.20    3.50
  -5  -1  12   10.30    3.20
  -5  -1  12   24.70   10.30
   5  -1 -12   11.80    3.40
   5   1  12    3.80    2.30
  -6  -1 -12   93.79    7.70
   6   1 -12   70.69    6.90
   6   1 -12  100.79    7.00
  -6  -1 -12   87.99    6.60
  -6   1  12   99.49    7.70
  -6   1  12  153.08   22.20
   6  -1  12   82.09    6.60
   6  -1  12   88.09    7.90
   6  -1  12   69.29    6.00
   6   1  12   82.99    6.80
   6  -1 -12   86.99    6.60
  -6  -1  12   90.39    7.00
  -6   1 -12   78.59    7.30
  -6  -1  12  115.39   17.90
   6   1  12   95.19    7.50
   6  -1 -12   83.79    6.30
  -6   1 -12   90.89    7.90
  -7  -1 -12   66.89    7.40
   7  -1  12   78.99    7.60
  -7   1  12   86.99   18.30
  -7  -1 -12   70.79    7.00
   7   1 -12   71.79    8.00
  -7   1  12   72.19    6.80
  -7  -1  12  121.59   20.00
  -7   1 -12   70.99    7.30
  -7   1 -12   82.49    7.90
   7   1  12   69.69    6.90
   7   1  12   81.39    7.30
   7  -1 -12   64.49    7.10
   7  -1 -12   76.39    7.10
  -7  -1  12   68.69    7.20
  -8   1 -12    3.50    3.60
   0   2  12   -0.10    5.10
   0  -2  12    1.40    3.90
   0   2 -12    2.60    2.10
   0  -2 -12    7.70    2.00
   0   2 -12    1.70    1.70
   0  -2 -12    4.10    1.40
   0  -2  12    5.80    2.40
   0   2 -12    5.60    2.80
   0   2  12    7.60    2.20
   0  -2 -12    4.90    2.20
   0  -2  12    5.60    2.00
   1  -2  12   42.60    4.50
   1   2 -12   33.70    4.00
  -1   2  12   37.10    4.10
   1   2 -12   38.10    3.00
  -1  -2 -12   42.60    4.20
  -1   2  12   36.70    4.20
  -1  -2 -12   38.10    4.10
   1  -2  12   44.60    4.40
  -1  -2 -12   39.00    3.80
  -1   2  12   40.10    8.10
   1  -2  12   37.40    5.00
  -1   2  12   35.70    4.90
   1   2 -12   41.60    4.70
  -1  -2  12   31.70    4.00
  -1   2 -12   40.40    3.90
   1  -2 -12   35.40    3.00
  -1  -2  12   36.30    3.10
  -1   2 -12   43.20    4.00
  -1  -2  12   36.30    7.30
  -1   2 -12   40.20    4.90
   1  -2 -12   33.70    4.10
   1   2  12   43.70    4.70
   1   2  12   48.70    7.50
   1  -2 -12   36.40    3.40
  -2  -2 -12   23.60    3.70
  -2  -2 -12   27.20    4.00
  -2  -2 -12   23.40    3.60
   2   2 -12   26.40    3.90
   2   2 -12   23.60    3.30
   2  -2  12   27.10    4.10
  -2   2  12   23.80    3.50
  -2   2  12   27.80    3.40
  -2   2  12   32.00    9.90
  -2   2  12   27.70    5.30
  -2   2 -12   25.00    4.10
  -2  -2  12   20.60    6.20
   2  -2 -12   19.50    3.70
   2  -2 -12   21.40    2.40
  -2   2 -12   26.10    3.00
  -2  -2  12   26.40    3.80
   2   2  12   27.00    5.90
   2   2  12   25.30    3.90
   2  -2 -12   26.40    2.80
  -3  -2 -12  315.17   11.30
  -3   2  12  333.07   10.80
  -3   2  12  312.47   10.90
   3   2 -12  320.67   11.10
  -3   2  12  334.77   25.20
   3  -2  12  308.97   11.10
  -3   2  12  314.17   14.60
  -3  -2 -12  335.47   11.80
   3  -2  12  337.97   11.60
   3  -2  12  330.57   12.00
  -3   2 -12  313.07   11.90
   3  -2 -12  326.67   12.00
  -3  -2  12  320.47   11.80
  -3   2 -12  329.67   10.00
   3   2  12  338.67   10.70
   3   2  12  343.97   12.20
  -3  -2  12  351.26   20.90
  -4  -2 -12   30.00    4.50
  -4   2  12   26.10    6.40
  -4  -2 -12   32.20    4.70
   4  -2  12   23.00    3.80
   4  -2  12   35.00    4.50
   4  -2  12   29.30    3.90
   4   2 -12   16.90    3.90
  -4   2  12   27.40    3.20
   4   2 -12   28.20    4.10
   4   2 -12   33.60    4.20
  -4   2  12   26.80    4.40
  -4   2  12   28.40    9.70
   4   2  12   33.60    3.90
   4  -2 -12   29.70    3.90
   4   2  12   25.60    3.90
  -4   2 -12   28.30    3.40
  -4  -2  12   47.40   11.50
  -4   2 -12   31.00    4.40
  -4  -2  12   26.80    4.70
  -5   2  12  124.09   19.70
  -5   2  12   81.79    9.40
  -5  -2 -12   77.49    6.50
   5   2 -12   72.39    5.60
   5  -2  12   70.99    6.10
   5  -2  12   86.49    6.40
  -5   2  12   72.19    5.70
  -5  -2 -12   91.39    7.30
   5   2 -12   78.29    7.30
   5  -2  12   76.59    6.40
  -5  -2  12   82.29    6.50
   5   2  12   77.79    5.90
   5  -2 -12   82.79    6.20
  -5   2 -12   85.99    6.90
  -5  -2  12  121.99   17.30
  -5   2 -12   78.69    6.50
   5   2  12   76.69    6.10
   5  -2 -12   81.79    6.20
   6   2 -12   87.09    8.10
  -6   2  12   99.69   10.90
  -6   2  12  137.39   21.90
  -6  -2 -12   89.29    7.10
   6  -2  12   70.29    7.10
  -6  -2 -12   97.19    8.40
   6  -2  12   77.09    6.70
   6  -2  12   80.69    6.50
   6   2 -12   73.69    6.90
  -6   2  12   98.99    7.40
  -6   2 -12   84.59    7.70
  -6   2 -12   95.39    8.10
   6   2  12   88.99    6.70
   6   2  12   88.09    6.80
  -6  -2  12   91.49    7.10
  -6  -2  12  126.39   20.00
   6  -2 -12   78.09    6.10
   6  -2 -12   87.99    7.40
  -7   2  12    4.70    8.40
  -7   2  12    0.70    2.50
  -7  -2 -12    2.80    2.80
   7   2 -12    3.60    3.50
   7  -2  12    1.00    2.90
   7  -2  12   -4.80    2.90
   7   2 -12   -1.90    2.80
  -7   2 -12    9.80    4.10
   7  -2 -12   -0.40    3.00
   7  -2 -12    3.30    2.50
  -7  -2  12    5.80    4.10
  -7   2 -12   -0.30    3.40
   7   2  12    6.10    3.30
   0  -3 -12   29.50    4.20
   0  -3  12   27.20    3.80
   0   3  12   28.60    7.50
   0   3 -12   22.50    3.40
   0   3  12   26.30    3.90
   0  -3 -12   30.00    3.60
   0  -3  12   15.50    4.50
   0   3 -12   38.20    4.20
   0  -3 -12   23.70    2.60
  -1   3  12  173.78    7.90
  -1   3  12  174.88    9.50
  -1  -3 -12  189.38    8.00
  -1  -3 -12  182.08    8.20
  -1   3  12  184.38    8.10
   1  -3  12  184.78    8.00
  -1   3  12  198.18   18.40
   1   3 -12  186.88    8.30
   1   3 -12  179.58    8.00
  -1  -3 -12  175.48    7.20
  -1   3 -12  183.48    8.70
  -1   3 -12  181.78    7.30
  -1  -3  12  171.98    7.30
   1  -3 -12  177.38    7.00
  -1  -3  12  176.88   12.60
   1  -3 -12  211.58    9.10
   1   3  12  171.18    8.00
  -1  -3  12  182.78    8.10
   1   3  12  200.78   14.40
  -2   3  12    7.30    2.10
  -2   3  12    8.60    3.00
  -2   3  12    8.20    8.80
  -2  -3 -12    3.30    2.00
   2   3 -12    7.90    2.70
  -2   3  12    1.10    2.60
   2   3 -12    9.60    2.50
  -2  -3 -12    5.00    2.60
   2  -3  12    8.00    2.30
  -2   3 -12    5.10    1.90
  -2  -3  12    4.20    4.60
   2   3  12    7.30    2.80
   2   3  12    2.00    4.10
   2  -3 -12    5.50    1.90
   2  -3 -12    3.80    2.20
  -2   3 -12    2.60    2.20
  -2  -3  12    7.50    2.70
   3  -3  12   85.79    5.70
  -3   3  12   80.79    5.50
  -3   3  12   75.99    4.90
   3  -3  12   81.89    6.10
  -3   3  12   77.49    8.10
  -3  -3 -12   93.99    6.50
   3   3 -12   85.09    5.70
  -3  -3 -12   79.09    6.10
   3  -3  12   85.19    6.50
  -3   3  12   81.79   14.80
   3   3  12   75.39    4.60
   3  -3 -12   80.59    5.90
   3   3  12   88.39    6.70
  -3   3 -12   81.59    5.40
  -3  -3  12   82.59    6.80
  -3   3 -12   79.29    6.00
  -3  -3  12   92.49   12.30
   4  -3  12   48.50    5.40
  -4   3  12   48.40    5.20
  -4  -3 -12   58.09    5.90
  -4   3  12   40.60    4.10
   4   3 -12   50.49    4.70
  -4   3  12   63.19    9.60
  -4   3  12   48.90   14.10
   4  -3  12   50.29    5.60
   4  -3  12   40.10    4.60
   4   3 -12   40.60    5.00
  -4  -3 -12   46.20    5.20
  -4  -3  12   73.49   13.20
  -4  -3  12   48.50    5.70
  -4   3 -12   42.90    4.10
   4   3  12   44.60    4.30
  -4  -3  12   45.10    3.90
  -4   3 -12   53.59    5.90
   4  -3 -12   45.20    4.40
   4  -3 -12   48.90    5.40
   4   3  12   55.19    5.80
   5  -3  12  111.59    7.70
  -5   3  12  149.69   21.90
   5  -3  12  121.59    7.30
  -5  -3 -12  112.79    7.20
   5  -3  12  109.69    7.70
   5   3 -12  113.89    7.80
  -5   3  12  123.79   13.20
  -5   3  12  109.79    7.40
   5   3 -12  113.09    8.20
  -5  -3 -12  122.49    7.60
  -5  -3  12  114.59    7.60
  -5   3 -12   98.09    7.90
   5   3  12  113.09    8.00
  -5   3 -12  105.19    6.30
   5  -3 -12  107.89    7.30
  -5  -3  12  148.09   20.00
   5  -3 -12  109.69    6.60
  -6  -3 -12    6.30    2.40
  -6   3  12   11.10    6.00
  -6   3  12   23.30    7.20
   6  -3  12    8.80    3.00
   6  -3  12   12.20    4.40
  -6   3  12   35.60   15.80
  -6  -3 -12   15.90    4.40
   6   3 -12   14.20    3.90
   6   3 -12    6.40    3.40
  -6  -3  12   32.00    9.50
   6   3  12   10.90    3.20
   6  -3 -12   18.80    3.90
   6  -3 -12   18.80    4.00
  -6   3 -12    7.00    3.90
  -6  -3  12   15.50    4.00
  -7   3  12    0.10    9.00
   7  -3  12    3.00    3.30
   7   3 -12    1.30    3.40
   7  -3  12    2.20    2.80
   7   3 -12    2.40    2.80
  -7  -3 -12   -2.70    3.20
  -7  -3 -12    3.80    4.10
  -7   3 -12    7.00    4.00
   7   3  12    4.50    2.60
  -7  -3  12    4.80    4.20
  -7   3 -12    3.90    4.10
   7  -3 -12    2.40    3.40
   7  -3 -12    4.40    2.60
   0   4 -12   26.60    3.90
   0  -4 -12   24.20    3.60
   0  -4 -12   27.20    4.00
   0   4  12   21.80    3.40
   0   4 -12   31.80    4.30
   0  -4  12   22.50    3.60
   0   4  12   28.50    7.60
   0  -4 -12   20.70    3.90
   0  -4 -12   25.90    3.50
  -1   4  12  123.99    6.90
   1  -4  12  133.29    7.50
  -1   4  12  127.79    9.20
   1   4 -12  134.59    7.00
  -1  -4 -12  122.69    6.90
   1   4 -12  121.79    6.60
  -1   4  12  125.79   16.80
  -1  -4 -12  131.49    7.00
  -1  -4 -12  133.09    7.00
  -1  -4 -12  130.59    6.30
  -1   4 -12  133.59    7.10
   1   4  12  142.09   13.50
  -1  -4  12  130.39    7.70
   1  -4 -12  125.79    7.50
  -1   4 -12  124.99    6.80
   1  -4 -12  141.29    6.50
   1  -4 -12  144.09    7.40
   1   4  12  123.89    7.40
   2   4 -12   60.19    4.60
  -2   4  12   50.89    5.00
  -2   4  12   54.69    7.70
  -2  -4 -12   60.89    5.40
   2   4 -12   55.09    5.30
  -2  -4 -12   55.49    5.50
  -2   4  12   59.79   12.60
  -2  -4 -12   62.39    5.00
   2   4  12   51.09    3.60
   2   4  12   56.09    5.60
  -2  -4  12   52.09    7.80
   2  -4 -12   56.79    3.90
   2  -4 -12   54.69    5.50
  -2   4 -12   59.59    5.20
  -2   4 -12   55.49    5.90
   2  -4 -12   52.19    5.20
   2   4  12   50.09    8.60
  -2  -4  12   50.49    5.10
  -3   4  12   63.59    4.90
   3   4 -12   65.29    5.10
   3  -4  12   66.49    6.40
  -3  -4 -12   68.29    5.70
   3  -4  12   64.09    5.10
   3   4 -12   63.39    6.00
  -3   4  12   73.19   14.80
  -3   4  12   68.89    5.00
   3  -4  12   65.39    6.50
  -3  -4 -12   78.99    6.50
  -3  -4 -12   64.19    4.90
  -3   4  12   78.19    9.80
  -3   4 -12   64.79    5.50
   3  -4 -12   50.49    5.50
   3   4  12   74.19    6.90
  -3  -4  12   69.39    5.90
  -3  -4  12   63.89   10.10
   3  -4 -12   71.59    4.50
  -3   4 -12   58.19    6.10
  -3  -4  12   65.79    4.90
  -4  -4 -12   46.60    5.60
   4  -4  12   41.00    4.80
   4  -4  12   51.89    5.90
   4   4 -12   39.50    5.20
  -4   4  12   50.99   10.10
  -4   4  12   43.00   14.80
  -4   4  12   40.10    4.20
   4  -4  12   40.90    5.60
  -4  -4 -12   44.40    5.00
  -4   4 -12   44.80    4.80
  -4  -4  12   60.09   11.90
  -4   4 -12   48.30    5.90
  -4  -4  12   43.40    5.20
   4   4  12   57.09    6.30
  -4  -4  12   44.70    4.30
   4  -4 -12   47.90    5.90
  -5  -4 -12   23.70    3.80
   5   4 -12   23.90    4.60
   5  -4  12   16.60    3.70
  -5   4  12   31.90    9.50
  -5  -4 -12   26.20    4.30
   5  -4  12   21.10    3.80
   5   4 -12   23.60    4.20
  -5   4  12   34.30   13.10
   5  -4  12   21.60    5.10
  -5  -4  12   23.30    5.10
  -5   4 -12   22.80    4.90
   5   4  12   26.60    4.90
  -5  -4  12   52.39   11.80
  -5   4 -12   24.70    4.00
   5  -4 -12   25.70    5.00
   5   4  12   23.60    4.20
   6  -4  12   63.89    6.80
   6  -4  12   78.09    8.00
   6   4 -12   74.19    8.00
  -6   4  12   99.89   13.70
  -6  -4 -12   84.99    8.20
  -6   4  12   89.89   18.70
   6   4 -12   77.29    7.60
  -6  -4 -12   80.99    7.40
  -6   4 -12   77.89    7.50
  -6   4 -12   74.09    6.20
   6   4  12   74.49    7.10
  -6  -4  12   80.69    8.00
   6  -4 -12   77.29    7.90
  -7  -4 -12    5.30    3.30
   7  -4  12    1.10    3.50
  -7   4  12    4.20   15.20
  -7  -4 -12   10.10    4.00
   7  -4  12    4.20    3.30
   7   4 -12    1.60    4.10
   7   4 -12    3.10    3.70
  -7   4  12   28.70    9.70
   7  -4 -12    3.80    2.60
  -7  -4  12    0.90    2.90
   7   4  12    4.70    2.90
  -7   4 -12    2.80    3.10
   0  -5 -12  192.28    7.10
   0  -5 -12  184.68    8.30
   0  -5  12  194.08    9.20
   0   5 -12  194.18    8.80
   0   5  12  183.58    8.80
   0   5  12  188.38   15.40
   0  -5 -12  193.48    9.10
   0  -5 -12  188.68    9.10
   0   5 -12  202.08    9.00
  -1   5  12   30.60    6.10
  -1  -5 -12   31.10    4.30
   1   5 -12   26.80    3.90
  -1  -5 -12   27.10    3.80
   1   5 -12   27.20    3.90
  -1  -5 -12   24.70    3.20
  -1  -5 -12   27.50    4.10
  -1   5  12   29.70    4.20
  -1   5  12   31.30    9.20
   1  -5  12   24.70    3.70
   1   5  12   33.50    7.90
   1  -5 -12   25.70    3.90
  -1  -5  12   29.00    4.10
   1  -5 -12   29.00    3.80
  -1   5 -12   28.00    3.90
   1  -5 -12   26.40    4.50
  -1   5 -12   30.20    4.30
   1   5  12   31.40    4.70
  -2  -5 -12   63.79    5.30
   2   5 -12   63.89    5.30
   2   5 -12   67.69    4.70
  -2   5  12   62.89    7.70
  -2  -5 -12   58.99    4.70
  -2  -5 -12   73.49    5.30
   2  -5  12   76.29    5.80
  -2   5  12   65.89    5.40
  -2   5  12   63.79   13.60
  -2  -5 -12   78.49    5.70
  -2   5 -12   69.09    6.50
   2   5  12   78.09   10.40
   2  -5 -12   80.79    6.90
  -2   5 -12   67.29    5.00
  -2  -5  12   57.29    5.60
   2   5  12   64.59    6.40
   2  -5 -12   74.19    5.90
   2  -5 -12   74.09    4.80
   3   5 -12  153.98    8.80
  -3  -5 -12  158.68    8.70
   3  -5  12  134.59    8.80
  -3  -5 -12  142.99    7.80
  -3  -5 -12  142.79    7.60
  -3  -5 -12  137.69    8.20
  -3   5  12  139.79   19.00
  -3   5  12  144.79    7.20
   3   5 -12  157.88    7.20
   3  -5  12  145.49    8.90
  -3   5  12  139.09   11.40
   3  -5 -12  136.49    6.60
   3  -5 -12  141.39    8.20
  -3  -5  12  146.29    6.90
   3   5  12  160.78    9.30
  -3  -5  12  176.78   14.70
  -3   5 -12  151.18    7.90
  -3  -5  12  138.79    8.80
  -3   5 -12  134.09    8.60
   4   5 -12   37.70    5.40
  -4  -5 -12   40.30    4.60
  -4   5  12   42.60   15.80
   4  -5  12   34.70    5.50
   4  -5  12   40.00    5.50
   4  -5  12   39.20    4.90
  -4  -5 -12   41.40    5.50
  -4  -5 -12   39.60    5.30
  -4   5  12   50.79   10.00
  -4   5 -12   48.70    5.30
  -4  -5  12   40.60    4.50
  -4   5 -12   51.59    6.60
   4   5  12   34.60    5.00
   4  -5 -12   35.30    5.50
  -4  -5  12   42.60    5.90
   5   5 -12   29.80    5.00
   5   5 -12   22.40    4.90
  -5  -5 -12   31.70    4.90
  -5   5  12   46.60   16.50
  -5  -5 -12   25.70    4.40
   5  -5  12   32.80    4.50
   5  -5  12   19.40    4.90
   5  -5  12   24.10    4.90
  -5   5  12   22.70    9.50
   5   5  12   34.70    5.20
  -5   5 -12   29.30    4.50
   5  -5 -12   26.40    4.60
  -5   5 -12   30.20    5.70
  -5  -5  12   21.80    3.80
   5   5  12   31.80    4.90
  -5  -5  12   31.80    4.90
  -6  -5 -12   34.20    5.70
   6   5 -12   46.50    6.80
   6  -5  12   42.50    6.10
  -6  -5 -12   36.50    5.40
  -6   5  12   38.50   17.70
   6  -5  12   45.90    6.70
   6   5 -12   38.00    6.00
  -6   5  12   47.00   11.70
  -6   5 -12   38.60    5.30
   6  -5 -12   36.50    5.20
   6   5  12   54.79    6.80
  -6   5 -12   43.50    6.80
  -6  -5  12   34.90    6.10
   0  -6 -12   21.40    3.40
   0  -6  12   23.90    4.40
   0  -6 -12   24.40    3.90
   0   6  12   22.50    3.70
   0   6 -12   18.80    3.30
   0   6 -12   28.20    4.30
   0  -6 -12   19.70    4.00
   0   6  12   19.40    7.50
  -1  -6 -12  161.98    8.40
   1  -6  12  146.69    8.00
   1   6 -12  157.48    7.80
  -1   6  12  143.99   10.00
  -1   6  12  143.79    7.60
  -1  -6 -12  156.18    8.20
  -1   6  12  149.88   17.60
  -1  -6 -12  152.48    7.10
  -1  -6 -12  156.78    7.80
   1   6 -12  141.79    7.60
  -1   6 -12  153.08    7.80
   1   6  12  162.98   16.20
   1   6  12  149.29    8.70
   1  -6 -12  160.28    8.50
  -1  -6  12  157.68    8.60
  -1   6 -12  152.68    8.50
   1  -6 -12  159.48    7.40
   1  -6 -12  146.59    8.40
   2  -6  12   38.70    4.50
   2   6 -12   38.80    4.80
  -2   6  12   31.10    4.40
  -2  -6 -12   38.00    4.80
  -2  -6 -12   39.20    4.70
  -2  -6 -12   35.80    4.50
  -2  -6 -12   39.70    4.90
  -2   6  12   31.70    6.80
  -2   6  12   34.60   11.10
   2  -6  12   27.40    4.30
   2   6 -12   32.40    4.00
   2   6  12   30.90    4.90
  -2   6 -12   36.50    4.90
  -2   6 -12   27.80    4.40
  -2  -6  12   30.00    4.90
   2  -6 -12   30.80    5.00
   2  -6 -12   37.60    4.10
  -2  -6  12   30.60    4.00
  -3   6  12    4.00   10.60
   3  -6  12   12.30    3.50
  -3  -6 -12    9.00    2.60
   3   6 -12    6.10    3.70
   3   6 -12   14.70    4.00
  -3   6  12    9.90    5.50
  -3  -6 -12   16.20    3.70
  -3  -6 -12   17.10    4.20
   3  -6  12    7.90    3.70
  -3  -6  12    9.70    3.10
   3  -6 -12   17.30    3.30
  -3  -6  12    8.30    3.20
   3  -6 -12    8.80    2.90
  -3   6 -12   13.40    3.50
  -3   6 -12    4.90    3.20
   3   6  12   17.50    3.80
   4  -6  12   88.39    7.60
   4   6 -12   97.19    8.10
   4  -6  12   70.19    7.10
  -4   6  12   82.79   12.20
  -4   6  12   92.39   19.30
  -4  -6 -12   85.69    7.40
  -4  -6 -12   95.69    7.80
   4  -6  12   80.39    5.90
   4   6  12   87.99    8.30
  -4   6 -12   84.69    7.10
   4  -6 -12   81.49    7.50
  -4  -6  12   83.89    5.80
  -4   6 -12   73.49    7.30
  -4  -6  12   80.19    7.60
  -5  -6 -12   14.40    3.60
  -5   6  12   22.90    9.20
  -5   6  12    7.40   14.60
   5  -6  12   10.30    4.50
   5  -6  12   16.00    4.80
   5   6 -12   15.40    4.50
  -5  -6 -12    6.90    4.30
   5  -6 -12   16.90    4.70
  -5   6 -12   13.60    3.90
   5   6  12   14.60    4.60
  -5  -6  12   11.10    3.00
  -5  -6  12   10.40    3.70
   5   6  12    6.40    3.70
  -5   6 -12   10.50    3.70
   6  -6  12    1.80    3.80
   6   6 -12    7.20    3.60
   6   6 -12    8.20    3.50
  -6   6  12   -0.30    7.90
   6  -6  12   10.90    4.60
  -6   6  12    1.90   14.80
  -6  -6 -12   10.60    4.40
  -6  -6 -12    2.80    3.50
  -6   6 -12    6.70    3.50
  -6  -6  12    4.50    4.40
   6  -6 -12    4.60    2.90
  -6   6 -12    6.50    3.30
   0   7  12    1.40    2.80
   0   7 -12    0.90    1.80
   0   7  12   -1.10    5.70
   0  -7  12   -1.50    3.10
   0  -7 -12    2.00    2.20
   0  -7 -12    2.60    2.80
   0   7 -12   -2.80    2.60
  -1   7  12   55.69   11.40
   1   7 -12   40.70    5.40
  -1  -7 -12   46.60    5.10
  -1   7  12   51.19    5.70
  -1  -7 -12   47.50    5.60
   1  -7  12   40.80    4.40
  -1  -7 -12   58.49    5.80
   1   7 -12   43.50    4.50
  -1   7  12   48.50    7.80
  -1   7 -12   43.90    5.20
  -1  -7  12   49.90    5.20
   1  -7 -12   47.00    5.50
  -1   7 -12   50.89    5.40
   1   7  12   57.79   11.70
   1  -7 -12   55.49    5.60
   1   7  12   44.50    5.30
  -2  -7 -12   35.20    5.20
  -2   7  12   30.50    4.00
   2  -7  12   33.90    5.60
  -2  -7 -12   30.10    4.10
  -2  -7 -12   23.30    4.00
  -2   7  12   33.60   10.30
   2   7 -12   24.00    4.70
  -2   7  12   37.00    8.20
  -2  -7 -12   25.50    3.70
  -2  -7  12   31.70    5.00
  -2   7 -12   35.30    5.10
   2   7  12   32.30    5.20
   2  -7 -12   25.30    3.70
   2  -7 -12   31.50    4.80
  -2   7 -12   33.80    5.20
  -2  -7  12   34.60    4.80
  -3  -7 -12   59.19    6.60
  -3  -7 -12   56.29    5.60
  -3   7  12   57.49   10.70
   3   7 -12   63.89    6.90
   3   7 -12   60.69    6.30
   3  -7  12   63.39    7.00
  -3   7  12   48.80   13.90
   3  -7  12   56.69    6.80
   3  -7 -12   57.39    6.40
  -3  -7  12   61.09    6.60
  -3   7 -12   60.09    6.80
  -3  -7  12   58.89    5.60
   3  -7 -12   60.59    4.90
   3   7  12   64.89    7.20
  -3   7 -12   61.59    6.40
   4  -7  12    4.30    2.80
   4  -7  12    5.10    3.00
  -4  -7 -12    8.60    3.00
   4   7 -12    7.00    2.90
  -4   7  12    5.00    7.70
  -4   7  12    1.00   10.90
   4   7 -12    7.30    4.10
  -4  -7 -12    4.30    2.70
   4  -7  12   -5.40    3.40
   4  -7 -12   -2.80    3.20
   4   7  12    0.80    3.20
  -4  -7  12    5.40    3.30
  -4   7 -12    2.50    3.60
   4   7  12    5.30    3.30
  -4   7 -12    1.50    3.20
  -4  -7  12    3.90    3.80
  -5  -7 -12   26.30    5.20
  -5  -7 -12   31.60    5.10
  -5   7  12   22.20   11.90
   5  -7  12   29.20    5.90
  -5   7  12   24.50    8.70
   5  -7  12   25.80    5.20
   5   7 -12   29.50    5.80
  -5  -7  12   30.90    6.10
   5   7  12   27.50    5.50
  -5   7 -12   32.40    5.30
  -5   7 -12   24.90    5.10
   5  -7 -12   28.50    5.00
  -5  -7  12   25.20    4.30
   0  -8 -12   37.40    5.30
   0   8 -12   23.50    4.10
   0  -8 -12   27.80    4.80
   0  -8  12   32.90    4.30
   0   8  12   39.10    5.50
   0   8  12   40.80    8.70
   0   8 -12   28.70    4.90
  -1  -8 -12   80.99    7.10
  -1   8  12   76.09    6.20
  -1   8  12   84.59   13.30
  -1  -8 -12   78.09    6.10
  -1   8  12   73.69    9.30
   1   8 -12   73.09    7.20
   1  -8  12   79.49    7.40
   1   8  12   78.29    7.80
   1   8  12   89.19   12.50
   1  -8 -12   77.19    7.00
  -1  -8  12   86.59    7.30
  -1   8 -12   70.99    6.70
  -1   8 -12   66.39    6.30
   1  -8 -12   77.89    6.60
   2  -8  12   65.69    7.70
   2  -8  12   79.49    6.70
   2   8 -12   72.69    7.20
  -2   8  12   87.29   14.30
  -2  -8 -12   86.59    8.40
  -2   8  12   71.69   10.50
   2   8 -12   65.39    7.00
  -2  -8 -12   88.49    7.90
   2   8  12   82.69    8.00
  -2  -8  12   72.69    6.50
   2  -8 -12   79.89    7.40
  -2   8 -12   83.69    7.50
  -2   8 -12   75.29    7.20
   2  -8 -12   74.29    6.40
  -2  -8  12   69.99    6.80
   3  -8  12   41.10    6.60
  -3  -8 -12   39.50    5.40
  -3   8  12   44.80   10.10
  -3  -8 -12   35.60    5.30
   3  -8  12   39.70    5.50
   3   8 -12   32.50    5.80
   3   8 -12   35.00    5.50
  -3   8  12   42.20   12.00
  -3  -8  12   30.30    4.80
   3  -8 -12   37.90    6.20
  -3   8 -12   38.50    5.50
   3  -8 -12   35.40    4.80
  -3  -8  12   40.50    5.40
  -3   8 -12   36.80    5.90
   4   8 -12   39.70    5.90
  -4   8  12   34.40   10.20
   4  -8  12   33.90    5.90
  -4  -8 -12   26.50    4.40
  -4   8  12   26.40   12.50
  -4  -8 -12   32.20    5.10
   4  -8  12   24.70    5.30
   4   8 -12   31.50    5.30
  -4  -8  12   37.20    5.40
   4   8  12   28.40    5.20
  -4   8 -12   29.00    5.90
  -4   8 -12   27.00    4.70
  -4  -8  12   35.10    5.10
   4  -8 -12   36.00    6.10
   0   9 -12   40.60    6.00
   0  -9 -12   29.20    5.40
   0  -9 -12   35.30    5.00
  -1  -9 -12   16.70    4.70
   1   9 -12   14.20    4.30
  -1   9  12   41.60    8.80
  -1   9  12   16.70    6.70
   1   9 -12   14.80    4.30
   1  -9  12   20.20    4.70
  -1  -9 -12    9.90    3.80
   1  -9 -12   11.40    3.40
   1  -9 -12   15.70    4.40
  -1   9 -12   12.20    3.70
  -1   9 -12   12.30    3.70
   2   9 -12   13.60    4.40
  -2   9  12   15.80    5.90
  -2  -9 -12    1.70    2.60
   2   9 -12   10.90    4.20
   2  -9  12    0.20    4.40
   2  -9  12    3.90    3.50
  -2   9  12    7.70    6.50
  -2  -9  12    7.30    4.00
   2  -9 -12    5.00    3.40
  -2   9 -12    4.30    2.60
   2  -9 -12    9.30    3.40
  -2  -9  12   10.90    3.40
  -2   9 -12   12.90    4.10
  -3  -9 -12    7.40    3.90
  -3   9  12   18.30    7.10
  -3  -9 -12    9.80    4.50
   3  -9  12   14.70    4.50
   3   9 -12   20.20    4.90
  -3   9  12   18.30    6.80
   3   9 -12   13.40    4.00
   3  -9  12    9.40    5.30
  -3  -9  12   15.70    3.70
  -3   9 -12    4.90    4.00
  -3  -9  12    9.80    4.40
  -3   9 -12   17.20    4.00
   3  -9 -12   11.60    3.80
   3  -9 -12   25.40    4.90
   3   9  12   14.30    4.50
   0  10 -12    0.30    3.50
   0 -10 -12   -1.50    3.40
   0 -10  12   -1.60    2.00
   0 -10 -12    2.20    2.50
  -1 -10 -12    3.30    5.50
   1  10 -12    2.10    3.80
   1 -10  12    3.40    3.50
   1 -10  12    2.40    3.70
   1 -10 -12    9.30    4.00
   1 -10 -12    1.80    3.70
   0   0  13   12.80    5.80
  -1   0 -13  125.49    5.90
  -1   0  13  122.09    7.00
   1   0  13  128.39    7.20
  -1   0  13  129.49   14.60
   1   0 -13  123.29    5.40
   1   0 -13  125.69    7.00
  -1   0  13  132.99    7.70
  -1   0 -13  123.69    7.40
   1   0  13  120.69   10.30
  -1   0 -13  126.69    6.60
  -1   0 -13  118.09    6.10
  -2   0 -13  268.37   10.60
  -2   0 -13  256.57    8.10
   2   0 -13  252.87    9.10
  -2   0  13  268.37   20.80
  -2   0  13  249.78   10.70
   2   0 -13  271.47   10.70
   2   0  13  275.97   13.70
   2   0  13  281.37   10.90
  -2   0 -13  253.47    9.60
  -2   0  13  269.67   10.20
   3   0 -13    4.30    2.40
  -3   0 -13    9.40    2.70
   3   0 -13   11.10    3.40
  -3   0  13    7.70    2.40
   3   0  13    9.30    3.20
   3   0  13    8.50    2.30
   3   0  13    6.90    3.00
  -3   0 -13   14.00    3.30
  -3   0  13    6.70    8.10
  -3   0  13    9.10    2.90
   4   0  13   59.19    6.00
  -4   0 -13   67.59    6.40
   4   0  13   64.89    5.50
  -4   0  13   56.89    5.70
  -4   0 -13   50.69    5.80
   4   0 -13   63.69    5.90
  -4   0  13   53.39    5.10
  -4   0  13   73.59   13.60
   4   0 -13   61.79    6.00
  -5   0  13   42.90    5.90
  -5   0 -13   45.70    5.80
   5   0 -13   38.50    4.90
   5   0  13   42.00    5.00
   5   0  13   43.40    5.70
   5   0 -13   37.90    4.40
  -5   0  13   39.20    4.50
  -5   0  13   51.69   13.90
  -5   0 -13   45.60    5.80
  -6   0  13   56.19   15.60
   6   0  13   35.60    5.60
   6   0 -13   33.80    5.50
  -6   0 -13   27.30    4.40
  -6   0  13   32.40    5.40
  -6   0 -13   26.00    4.50
   6   0  13   31.10    4.80
   7   0 -13   12.70    3.80
  -7   0  13   38.60   12.00
   7   0  13    4.30    3.50
  -7   0  13   17.50    4.00
   7   0 -13   12.00    3.80
  -7   0 -13   10.20    3.40
  -7   0 -13    7.00    3.20
   0   1 -13    5.50    3.00
   0  -1  13    7.20    3.50
   0   1 -13    2.50    1.50
   0  -1 -13    4.30    1.90
   0   1  13    2.10    1.90
   0  -1  13    1.00    1.90
   0  -1  13    6.20    5.00
   0  -1 -13    3.20    2.30
   0   1  13    5.20    2.50
   0  -1 -13    3.10    2.00
   0   1 -13    2.70    2.10
   0   1  13    5.60    5.60
   1  -1  13  142.69    9.80
   1   1 -13  136.19    5.50
  -1   1  13  134.99    7.20
  -1   1  13  138.99   16.60
   1  -1  13  134.99    7.20
  -1  -1 -13  127.59    6.40
  -1   1  13  138.69    7.90
   1   1 -13  138.29    7.20
  -1  -1 -13  137.29    7.30
  -1  -1 -13  130.79    6.70
   1  -1  13  134.39    7.50
   1   1 -13  125.09    6.60
  -1  -1  13  136.59    7.30
  -1  -1  13  137.69   14.20
   1   1  13  145.69   11.70
   1  -1 -13  126.49    5.70
  -1   1 -13  137.59    7.90
   1  -1 -13  126.09    7.10
  -1  -1  13  138.89    7.40
  -1   1 -13  140.89    6.40
  -1   1 -13  138.29    6.70
  -1   1 -13  131.09    6.80
   1   1  13  134.69    7.60
  -2  -1 -13   73.69    4.50
  -2  -1 -13   79.29    6.30
   2  -1  13   63.69    5.10
  -2  -1 -13   74.69    5.70
  -2   1  13   72.59    6.40
  -2   1  13   73.59    5.60
  -2   1  13   83.79   13.30
  -2   1  13   79.19    7.00
   2   1 -13   57.39    5.30
  -2  -1  13   70.19   11.40
   2   1  13   71.69    5.90
  -2  -1  13   71.39    5.70
  -2   1 -13   69.39    5.00
   2   1  13   66.39    4.30
   2  -1 -13   69.19    4.50
  -2   1 -13   63.89    5.90
   2  -1 -13   76.89    6.10
   2   1  13   67.79    8.10
  -2   1 -13   68.99    4.50
   3   1 -13   83.09    5.70
   3  -1  13   73.89    6.30
   3  -1  13   74.79    5.50
  -3   1  13   87.49    8.20
  -3   1  13   79.19    5.60
   3   1 -13   73.99    5.40
  -3  -1 -13   77.19    6.40
  -3   1  13   70.69    5.80
   3  -1  13   87.19    6.50
  -3   1  13   75.49   14.10
  -3  -1 -13   80.69    5.70
   3   1  13   70.29    5.70
   3  -1 -13   76.49    5.30
  -3   1 -13   76.69    6.00
   3   1  13   72.99    5.70
  -3   1 -13   71.39    4.50
   3  -1 -13   78.89    6.80
  -3  -1  13   85.69    7.10
  -3  -1  13   83.49   11.90
  -3   1 -13   75.99    5.50
   4  -1  13    0.40    2.60
   4  -1  13    2.40    2.40
  -4  -1 -13    5.60    2.60
  -4  -1 -13    7.40    3.20
  -4   1  13    6.20    2.50
  -4   1  13    7.50    3.00
  -4   1  13    5.90    9.90
   4   1 -13    9.20    3.10
   4  -1  13    6.20    2.60
   4   1 -13    8.70    3.10
  -4  -1  13    0.10    7.30
   4   1  13   12.40    3.60
   4   1  13    7.30    2.40
  -4   1 -13    4.20    2.30
  -4  -1  13    5.60    3.70
  -4   1 -13   -0.10    3.00
   4  -1 -13    9.60    2.90
   4  -1 -13    7.90    2.70
  -5  -1 -13  140.09    8.80
   5   1 -13  109.89    7.90
  -5   1  13  127.39    8.80
   5  -1  13  113.59    7.60
  -5  -1 -13  125.89    7.70
   5   1 -13  114.89    7.30
   5  -1  13  124.49    7.50
  -5   1  13  153.98   20.00
   5  -1 -13  123.59    7.40
  -5   1 -13  120.79    8.40
  -5  -1  13  149.49   20.00
  -5  -1  13  124.99    8.00
  -5   1 -13  137.29    8.00
   5   1  13  127.29    8.30
   5   1  13  127.09    7.90
  -6   1  13    1.10    7.50
   6  -1  13    0.10    2.80
  -6  -1 -13   -3.20    3.10
  -6  -1 -13    1.40    3.10
   6   1 -13   -1.70    1.90
   6  -1  13    1.50    2.20
   6   1 -13   -1.30    2.40
  -6   1  13   -2.00    2.30
   6  -1 -13   -2.20    2.40
   6  -1 -13    4.00    2.60
  -6  -1  13    1.80   10.30
   6   1  13    3.10    3.30
  -6   1 -13    1.30    2.50
   6   1  13   -1.00    2.80
  -6   1 -13   -3.80    3.20
  -6  -1  13    5.20    3.20
  -7   1  13    0.80    3.80
  -7  -1 -13   -1.00    3.50
  -7  -1 -13    4.20    2.70
   7  -1  13    7.90    4.10
  -7   1  13    2.20   12.20
   7   1 -13    8.40    4.10
  -7  -1  13   24.40   13.50
   7   1  13    1.80    3.30
  -7   1 -13    3.50    2.70
   7  -1 -13    4.30    2.80
   7  -1 -13    9.20    3.70
  -7   1 -13    3.60    3.60
  -7  -1  13   13.20    4.60
   7   1  13   -5.50    2.50
   0   2  13  167.48   14.90
   0  -2  13  162.68   12.40
   0  -2 -13  157.28    8.30
   0  -2 -13  172.98    7.20
   0  -2 -13  152.18    6.30
   0   2 -13  153.28    7.30
   0   2 -13  154.38    8.20
   0   2  13  164.08    8.10
   0  -2  13  157.78    8.00
   0   2 -13  164.38    6.70
  -1   2  13  200.08   16.50
   1   2 -13  195.78    6.60
  -1   2  13  185.48    8.30
   1  -2  13  199.98    8.70
   1   2 -13  209.08    9.20
  -1  -2 -13  181.38    7.70
  -1  -2 -13  192.98    8.10
  -1   2  13  177.48    8.20
   1  -2  13  188.48    8.50
   1   2 -13  192.28    8.20
  -1  -2 -13  200.28    9.20
  -1   2 -13  192.48    9.20
  -1  -2  13  188.08    9.30
   1  -2 -13  202.78    7.40
  -1   2 -13  198.78    7.90
  -1   2 -13  187.68    7.50
   1   2  13  195.28    8.90
  -1  -2  13  202.08   15.70
   1  -2 -13  194.58    9.20
   1   2  13  183.08   13.00
  -2   2  13   -0.90    2.60
  -2  -2 -13    4.70    2.60
  -2   2  13    0.00    8.10
  -2   2  13    2.10    2.10
  -2   2  13    4.20    2.40
  -2  -2 -13    1.10    2.40
   2   2 -13   -1.80    2.20
   2  -2  13    5.10    2.70
  -2  -2  13    2.20    3.40
  -2   2 -13    1.10    1.60
   2  -2 -13   -1.90    2.50
  -2   2 -13    1.40    1.50
   2  -2 -13    0.50    1.40
   2   2  13    3.50    3.90
  -2   2 -13    0.60    2.60
   2   2  13    0.90    2.50
  -2  -2  13   -3.50    5.20
   3   2 -13   94.29    6.50
  -3   2  13  103.19    9.30
  -3  -2 -13  109.19    6.60
  -3   2  13  107.69   16.10
  -3   2  13  100.79    6.30
   3  -2  13  104.69    6.90
  -3  -2 -13  107.69    7.10
  -3   2  13   85.79    7.00
   3  -2  13  108.09    7.40
   3  -2  13   95.69    6.00
  -3  -2  13  111.99    7.10
  -3  -2  13  112.49   15.00
  -3   2 -13  105.79    6.80
   3   2  13   99.89    6.00
  -3   2 -13  109.49    7.60
   3   2  13   92.49    7.00
  -3   2 -13  103.79    5.80
   3  -2 -13   90.49    6.50
  -4   2  13   29.50    4.30
   4  -2  13   19.20    4.20
  -4   2  13   31.10    6.80
   4  -2  13   18.80    3.70
   4  -2  13   25.20    3.80
  -4  -2 -13   22.90    4.30
   4   2 -13   22.00    3.90
  -4   2  13   22.20   13.00
  -4  -2 -13   24.30    4.40
   4   2 -13   15.30    3.80
  -4   2  13   23.10    3.60
   4  -2 -13   19.70    3.40
  -4  -2  13   38.70   10.60
  -4   2 -13   21.20    4.00
   4   2  13   17.50    3.30
   4   2  13   25.80    4.10
  -4   2 -13   17.00    2.70
  -4   2 -13   24.30    4.40
   4  -2 -13   23.10    4.30
  -4  -2  13   14.20    3.50
   5  -2  13   31.00    4.50
  -5   2  13   45.70    8.20
   5  -2  13   38.00    4.90
  -5  -2 -13   44.00    5.40
   5   2 -13   38.70    4.70
   5   2 -13   28.10    4.60
  -5   2  13   54.69   14.00
  -5  -2 -13   39.00    5.20
  -5   2  13   41.60    5.50
   5  -2  13   39.60    5.70
   5   2 -13   32.50    4.60
   5  -2 -13   38.30    4.90
   5   2  13   39.10    5.60
   5  -2 -13   38.40    5.00
   5   2  13   36.10    4.40
  -5  -2  13   54.79   12.50
  -5   2 -13   42.50    5.60
  -5  -2  13   39.10    5.20
  -5   2 -13   39.50    5.00
  -6   2  13  108.49    8.10
   6  -2  13   85.29    6.60
   6   2 -13   91.99    7.50
  -6   2  13  130.09   20.30
  -6  -2 -13  100.89    7.10
  -6  -2 -13  114.29    8.10
   6  -2  13  117.59    7.80
   6   2 -13   98.89    7.60
  -6   2  13  142.39   12.30
   6  -2  13  104.19    8.80
  -6  -2  13  154.08   21.70
  -6   2 -13  106.09    8.70
   6  -2 -13  102.49    7.60
  -6  -2  13   99.09    7.80
   6   2  13   88.79    7.90
   6   2  13  114.59    8.30
   6  -2 -13  100.79    8.10
  -6   2 -13  105.89    8.40
  -7   2  13   51.89   18.00
  -7  -2 -13   48.00    6.50
   7   2 -13   49.10    6.90
   7  -2  13   42.50    6.10
   7   2 -13   49.60    5.80
  -7   2 -13   42.80    6.50
  -7  -2  13   73.69   15.30
   7  -2 -13   45.20    5.40
  -7  -2  13   44.30    6.50
   7   2  13   33.30    5.50
   7  -2 -13   43.00    5.50
  -7   2 -13   52.69    6.80
   0   3  13  121.29   14.20
   0  -3 -13  118.69    6.30
   0  -3 -13  104.79    6.70
   0   3 -13  102.69    6.40
   0  -3  13  115.19    6.90
   0   3 -13  112.59    5.60
   0   3  13  118.59    7.10
   0   3 -13  100.69    6.50
  -1   3  13   28.80    4.20
  -1  -3 -13   21.30    2.90
   1  -3  13   24.80    3.80
   1   3 -13   22.90    3.60
  -1  -3 -13   23.10    3.70
  -1  -3 -13   21.40    4.00
   1   3 -13   26.90    3.70
  -1   3  13   14.20    8.10
   1  -3 -13   29.40    4.50
  -1  -3  13   23.80    4.60
   1   3  13   20.20    6.10
   1   3  13   22.90    3.60
  -1   3 -13   21.50    3.60
  -1   3 -13   29.10    4.10
  -1  -3  13   24.20    6.30
   1  -3 -13   20.20    3.10
   2  -3  13  159.88    7.90
   2   3 -13  163.68    7.60
  -2   3  13  142.19   10.10
  -2   3  13  161.88    8.10
  -2   3  13  149.39   20.60
   2   3 -13  140.49    7.40
  -2   3  13  150.78    7.70
  -2  -3 -13  152.18    7.80
  -2  -3 -13  162.68    8.10
  -2   3 -13  150.98    8.60
  -2  -3  13  143.99    8.60
   2   3  13  157.78    8.50
   2   3  13  176.98   14.70
   2  -3 -13  149.99    6.30
   2  -3 -13  139.49    7.80
  -2  -3  13  151.38   13.80
  -2   3 -13  140.59    6.80
  -3   3  13   36.40    6.50
  -3   3  13   29.50   12.30
   3   3 -13   28.10    4.10
   3  -3  13   27.30    4.30
   3  -3  13   29.10    4.60
  -3  -3 -13   33.80    4.30
  -3  -3 -13   32.80    4.30
  -3   3  13   30.20    4.10
   3  -3  13   35.00    4.40
  -3   3  13   31.70    4.10
  -3  -3  13   29.60    8.30
   3  -3 -13   35.40    4.60
  -3   3 -13   31.30    4.00
   3   3  13   29.40    3.60
  -3   3 -13   33.50    5.20
  -3  -3  13   40.00    5.00
   3   3  13   39.00    5.20
   4  -3  13    4.60    3.00
   4   3 -13    3.40    2.20
   4   3 -13    5.50    2.50
  -4  -3 -13    3.80    2.90
  -4   3  13    0.80    2.00
  -4  -3 -13    1.60    2.40
   4  -3  13   -2.60    2.00
  -4   3  13    4.50   11.40
  -4   3  13    4.50    5.30
   4  -3  13    4.00    2.70
   4   3 -13    8.90    3.30
  -4   3  13    2.00    2.30
   4   3  13    3.00    3.30
  -4   3 -13    0.70    3.00
   4   3  13    2.20    3.40
   4  -3 -13    0.90    3.10
  -4  -3  13    3.00    3.60
  -4   3 -13    3.10    2.20
  -4  -3  13    2.20    7.70
   5  -3  13   23.10    4.20
  -5   3  13   34.20   13.70
   5  -3  13   27.50    4.70
   5   3 -13   26.30    4.40
  -5   3  13   41.00    8.40
  -5  -3 -13   25.70    4.70
  -5  -3 -13   30.40    5.20
   5  -3  13   32.30    5.60
   5   3 -13   27.70    4.80
  -5   3  13   32.50    4.90
  -5   3 -13   26.50    3.90
  -5  -3  13   45.20   13.40
  -5  -3  13   38.90    5.20
   5   3  13   30.60    4.70
   5  -3 -13   28.70    5.30
  -5   3 -13   33.50    5.60
   6   3 -13   32.00    4.80
  -6   3  13   54.69   10.50
  -6   3  13   37.30   14.50
  -6  -3 -13   27.20    4.20
   6   3 -13   34.50    5.60
   6  -3  13   21.50    5.30
   6  -3  13   17.50    4.20
  -6  -3 -13   23.90    5.00
   6  -3 -13   22.50    5.10
   6   3  13   26.30    5.00
  -6   3 -13   14.00    4.50
  -6  -3  13   57.69   12.80
  -6   3 -13   29.50    5.00
  -6  -3  13   22.60    4.60
   7  -3  13   27.00    5.10
  -7  -3 -13   33.40    5.40
   7   3 -13   45.70    6.30
   7  -3  13   35.00    6.40
   7   3 -13   30.60    5.30
  -7  -3 -13   28.30    6.60
   7  -3 -13   35.30    5.70
  -7  -3  13   39.80    6.70
  -7   3 -13   30.70    6.70
   7   3  13   40.00    6.10
  -7   3 -13   22.80    5.00
   0   4  13  171.68    8.30
   0   4  13  174.48   14.80
   0  -4 -13  151.48    7.50
   0   4 -13  187.88    8.60
   0  -4  13  179.58    9.00
   0  -4 -13  163.18    8.70
   0   4 -13  161.58    7.70
   1   4 -13    7.80    3.10
  -1   4  13    9.10    3.10
  -1  -4 -13    9.80    3.10
  -1  -4 -13   11.20    2.90
   1   4 -13    7.80    2.60
   1  -4  13   15.40    3.20
  -1  -4 -13   11.70    2.90
  -1   4  13   12.70    8.00
   1  -4 -13    6.40    2.60
  -1   4 -13    7.00    2.60
   1   4  13   11.70    4.90
  -1   4 -13   10.10    2.90
   1  -4 -13   11.40    2.70
  -1  -4  13    9.40    3.20
   1   4  13   12.10    3.00
   1  -4 -13    2.90    2.20
  -2  -4 -13   53.39    5.00
  -2   4  13   45.80    4.80
   2   4 -13   48.90    4.80
  -2  -4 -13   42.20    4.90
  -2   4  13   51.39    7.60
  -2  -4 -13   46.20    5.20
   2   4 -13   44.80    5.30
  -2   4  13   62.49   13.30
   2  -4 -13   44.30    3.60
   2   4  13   48.10    5.70
  -2   4 -13   48.50    5.10
   2  -4 -13   44.80    5.10
  -2  -4  13   45.00    9.00
   2  -4 -13   42.50    5.00
  -2   4 -13   36.10    5.10
  -2  -4  13   43.80    5.10
   2   4  13   47.20    9.10
  -3   4  13   92.89    5.90
  -3   4  13  115.19   18.50
  -3   4  13  101.59    6.30
   3   4 -13  109.99    6.60
   3  -4  13   95.39    7.60
  -3  -4 -13  101.49    7.00
  -3  -4 -13   98.19    6.60
   3   4 -13  105.19    7.40
   3  -4  13  100.19    7.80
   3  -4  13   98.49    6.50
  -3   4  13  103.79   10.70
   3   4  13  119.59    7.70
  -3  -4  13  123.99    8.60
   3  -4 -13  109.39    7.30
  -3   4 -13  101.59    7.90
  -3   4 -13   99.89    6.40
  -3  -4  13  101.59   13.60
  -4   4  13   35.70   15.80
  -4  -4 -13   38.10    5.00
   4  -4  13   33.80    5.70
   4  -4  13   33.70    4.70
   4  -4  13   41.60    5.60
   4   4 -13   42.10    5.10
  -4   4  13   41.70    9.40
  -4   4  13   40.80    4.40
  -4  -4 -13   31.60    4.30
  -4   4 -13   31.40    4.30
  -4  -4  13   49.60    6.20
  -4   4 -13   30.50    5.30
   4  -4 -13   39.00    5.80
  -4  -4  13   53.79   11.80
   4   4  13   37.30    5.10
  -5  -4 -13   13.60    3.20
  -5   4  13   18.30   12.10
  -5   4  13   22.90    8.80
   5  -4  13   11.30    3.20
   5  -4  13   14.10    4.00
  -5  -4 -13   11.80    4.00
   5   4 -13   17.50    4.90
   5   4 -13   19.50    4.70
   5  -4  13   14.30    3.00
  -5  -4  13   41.30   10.70
  -5   4 -13   18.00    3.30
   5  -4 -13   14.50    3.80
  -5   4 -13   17.00    4.70
   5   4  13   12.90    4.40
  -5  -4  13   14.10    4.70
  -6  -4 -13   31.00    5.60
  -6   4  13   31.80   14.40
   6  -4  13   30.10    5.00
  -6   4  13   45.20   11.10
   6   4 -13   28.80    5.40
   6  -4  13   38.60    6.50
   6   4 -13   29.00    5.80
  -6  -4 -13   43.90    6.30
   6   4  13   35.30    5.70
  -6  -4  13   37.70    6.40
  -6   4 -13   28.00    5.00
   6  -4 -13   38.30    5.50
   0  -5 -13    6.10    3.20
   0   5  13   11.60    3.50
   0   5 -13   11.30    2.80
   0   5 -13    5.60    2.40
   0   5  13   13.10    6.70
   0  -5 -13    7.90    2.90
   0  -5 -13   10.90    2.90
   0  -5  13    9.60    2.90
   1   5 -13   28.00    4.10
   1   5 -13   36.80    4.60
   1  -5  13   24.80    3.80
  -1  -5 -13   26.00    4.40
  -1  -5 -13   26.00    4.20
  -1  -5 -13   21.30    3.30
  -1   5  13   26.20    3.90
  -1  -5 -13   23.10    3.80
  -1   5  13   25.50    7.70
  -1   5 -13   35.20    4.60
  -1   5 -13   26.00    4.00
  -1  -5  13   32.40    5.10
   1   5  13   27.00    7.10
   1   5  13   34.50    5.00
   1  -5 -13   28.00    3.90
   1  -5 -13   31.40    4.90
   1  -5 -13   25.30    4.50
  -2  -5 -13   18.60    3.90
  -2   5  13   26.20   10.40
   2   5 -13   20.90    3.60
  -2  -5 -13   17.20    3.10
  -2  -5 -13   17.90    3.20
   2   5 -13   19.20    3.20
  -2   5  13   18.10    5.20
  -2  -5 -13   16.30    4.00
  -2   5  13   17.70    3.20
  -2  -5  13   24.10    4.90
  -2   5 -13   10.30    4.00
  -2   5 -13   20.30    3.90
   2  -5 -13   17.40    3.60
   2   5  13   14.70    4.00
   2  -5 -13   17.40    4.10
   2  -5 -13   21.30    3.10
   2   5  13   24.30    6.90
   3  -5  13    5.90    3.10
   3  -5  13    6.40    3.70
  -3   5  13    9.80    6.40
   3  -5  13    6.20    3.80
   3   5 -13    8.30    3.40
  -3  -5 -13   18.70    3.70
  -3  -5 -13    6.50    3.10
  -3  -5 -13    5.00    2.40
  -3   5  13   10.60    2.90
  -3   5  13    9.90   12.80
  -3   5 -13    4.50    2.90
  -3   5 -13   10.70    4.10
   3  -5 -13   10.50    3.10
   3   5  13    1.10    2.40
  -3  -5  13    4.30    2.90
   4  -5  13  123.19    7.80
  -4   5  13  153.08   23.40
  -4  -5 -13  117.89    8.40
  -4  -5 -13  131.39    7.90
  -4  -5 -13  123.79    8.00
   4  -5  13  111.09    8.10
   4  -5  13  123.29    9.20
   4   5 -13  116.99    7.90
  -4   5  13  118.69   13.80
  -4  -5  13  113.59    6.30
  -4  -5  13  113.09    9.00
  -4   5 -13  113.79    7.50
   4  -5 -13  122.39    8.20
   4   5  13  138.39    9.40
  -4   5 -13  120.89    9.00
   5  -5  13   -1.30    3.20
  -5   5  13    3.40   14.60
  -5  -5 -13   -1.00    3.30
   5  -5  13    0.70    3.80
  -5  -5 -13    2.40    2.60
   5  -5  13   -0.40    2.70
   5   5 -13   -0.60    3.10
   5   5 -13    6.60    3.90
  -5   5  13    3.40    5.30
   5   5  13   -0.90    3.40
  -5   5 -13    1.20    3.70
  -5   5 -13    4.40    3.00
  -5  -5  13    2.40    3.20
   5   5  13    0.20    2.30
   5  -5 -13   -3.90    2.90
  -6  -5 -13   40.60    5.70
  -6   5  13   53.39   12.20
   6   5 -13   55.09    7.30
  -6   5  13   67.69   17.30
  -6  -5 -13   41.20    5.80
   6   5 -13   52.39    7.60
   6  -5  13   45.30    6.70
   6  -5  13   33.50    6.20
   6   5  13   50.79    6.50
  -6   5 -13   44.50    5.60
   6  -5 -13   60.39    7.40
  -6  -5  13   44.30    6.20
  -6   5 -13   40.80    6.00
   0   6  13   59.19    6.30
   0  -6 -13   55.29    5.70
   0  -6 -13   63.89    6.60
   0  -6 -13   59.79    5.30
   0  -6  13   46.70    5.60
   0   6 -13   58.69    5.60
   0   6  13   53.49    9.90
   0   6 -13   53.49    5.80
  -1  -6 -13   17.00    4.10
   1  -6  13   15.30    3.90
  -1  -6 -13   17.10    4.00
  -1   6  13   19.40    7.70
  -1  -6 -13   13.70    3.20
   1   6 -13   19.10    3.70
   1   6 -13   19.40    3.80
  -1   6  13   16.20    3.90
  -1  -6  13   21.50    3.90
   1  -6 -13   25.90    4.60
   1   6  13   17.50    4.30
  -1   6 -13   21.50    3.80
   1  -6 -13   19.60    3.20
   1  -6 -13   25.90    4.80
  -1   6 -13   15.50    3.90
   1   6  13   24.20    7.70
   2   6 -13   79.79    6.30
  -2   6  13   69.19    9.70
  -2  -6 -13   76.89    5.40
  -2  -6 -13   70.79    5.40
  -2   6  13   70.59    6.10
  -2  -6 -13   79.39    6.50
   2   6 -13   69.69    5.60
  -2  -6 -13   77.49    6.90
  -2   6  13   70.89   13.90
   2  -6  13   72.09    7.00
   2   6  13   63.19    6.90
  -2   6 -13   74.19    6.70
   2  -6 -13   68.59    5.10
   2  -6 -13   85.69    6.80
  -2   6 -13   76.49    7.20
  -2  -6  13   80.39    7.20
   3  -6  13   32.90    5.70
   3  -6  13   41.20    6.20
   3   6 -13   36.90    5.20
  -3   6  13   35.50    9.00
  -3  -6 -13   35.90    5.30
  -3  -6 -13   34.10    4.40
  -3   6  13   25.20   12.40
   3   6 -13   38.60    5.70
  -3  -6 -13   49.00    5.60
  -3  -6  13   35.50    5.10
   3  -6 -13   30.50    5.50
  -3  -6  13   34.80    4.70
  -3   6 -13   27.20    4.20
   3   6  13   38.50    5.90
  -3   6 -13   35.90    5.10
  -4  -6 -13   54.59    6.50
  -4  -6 -13   49.80    6.50
   4  -6  13   40.40    5.80
   4  -6  13   45.30    5.10
   4  -6  13   50.39    6.70
  -4   6  13   53.09   11.00
   4   6 -13   40.10    5.70
  -4   6  13   48.20   14.00
  -4  -6  13   48.10    5.80
  -4   6 -13   46.40    5.70
   4   6  13   57.29    6.80
  -4   6 -13   56.69    6.90
   4  -6 -13   45.20    6.60
  -4  -6  13   45.20    4.80
   5   6 -13    6.90    4.30
   5  -6  13    7.60    4.30
  -5  -6 -13   10.80    3.60
  -5   6  13   14.20   14.70
   5  -6  13    4.90    3.00
  -5  -6 -13   10.00    3.70
   5   6 -13   11.80    4.50
  -5   6  13   12.90    6.60
  -5  -6  13   -2.30    2.60
   5  -6 -13   12.60    3.70
  -5   6 -13   11.10    3.20
  -5   6 -13   16.10    4.20
   5   6  13    8.10    3.80
   5   6  13   12.70    3.80
   0  -7 -13   67.99    6.40
   0   7  13   65.09   12.30
   0  -7  13   58.59    6.30
   0   7 -13   62.79    6.10
   0  -7 -13   65.99    6.60
   0   7  13   59.89    6.30
   0   7 -13   68.79    6.40
  -1   7  13   64.99   11.90
   1  -7  13   55.79    5.20
  -1  -7 -13   60.19    6.20
   1   7 -13   62.39    6.50
  -1  -7 -13   57.19    5.70
  -1  -7 -13   60.19    6.30
   1   7 -13   62.39    5.80
  -1   7  13   62.79    6.10
   1   7  13   76.59   13.00
   1   7  13   50.39    6.30
  -1   7 -13   53.19    6.10
  -1   7 -13   56.59    6.10
  -1  -7  13   56.79    6.30
   1  -7 -13   67.09    6.20
   1  -7 -13   65.49    7.10
  -2  -7 -13   46.20    5.20
  -2   7  13   58.19    9.40
   2  -7  13   51.79    7.00
  -2  -7 -13   59.29    5.70
  -2   7  13   60.49    6.10
   2  -7  13   44.60    6.10
  -2  -7 -13   42.30    5.30
  -2   7  13   63.19   13.10
  -2  -7 -13   53.99    5.80
   2   7 -13   57.19    6.70
  -2  -7  13   54.99    6.50
  -2   7 -13   49.20    5.60
   2  -7 -13   55.39    6.20
  -2   7 -13   53.29    6.30
   2   7  13   41.60    5.70
   2  -7 -13   46.60    5.10
  -3   7  13   16.30    7.90
  -3   7  13   17.80    9.30
   3   7 -13   13.50    4.30
   3  -7  13   15.60    4.10
   3  -7  13   18.10    4.80
  -3  -7 -13   18.00    3.60
  -3  -7 -13   24.90    5.00
   3   7 -13   16.70    4.40
   3   7  13   28.40    5.00
   3  -7 -13   12.90    3.50
  -3  -7  13   20.10    4.20
  -3   7 -13   23.90    4.30
  -3  -7  13   19.90    3.60
  -3   7 -13   27.20    5.20
   3  -7 -13   14.20    4.60
  -4  -7 -13   56.09    6.40
  -4   7  13   50.79   11.30
  -4   7  13   42.70   12.60
   4  -7  13   51.39    6.90
   4  -7  13   40.50    4.80
   4   7 -13   39.60    6.30
  -4  -7 -13   46.60    6.50
   4  -7  13   51.39    7.30
  -4   7 -13   46.70    6.10
  -4   7 -13   46.10    6.70
  -4  -7  13   45.10    6.50
  -4  -7  13   37.40    5.20
   4   7  13   59.49    7.40
   4   7  13   56.29    7.50
   4  -7 -13   50.99    7.20
  -5   7  13   11.40    9.30
   5  -7  13   10.00    3.90
   5  -7  13    8.60    5.10
  -5  -7 -13   13.20    4.40
   5   7 -13    6.40    4.80
   5  -7 -13   25.60    5.60
  -5  -7  13   12.40    3.80
  -5  -7  13   14.20    4.10
   5   7  13    4.30    3.10
  -5   7 -13   10.90    5.40
  -5   7 -13   14.30    4.20
   0   8  13   70.79   11.90
   0   8  13   53.09    6.00
   0   8 -13   61.39    6.30
   0  -8  13   52.39    6.00
   0  -8 -13   51.89    6.40
   0  -8 -13   45.60    5.70
   0   8 -13   51.49    6.20
  -1  -8 -13   39.10    5.70
  -1  -8 -13   46.00    5.80
   1   8 -13   35.00    5.70
  -1   8  13   72.99   13.10
  -1   8  13   46.00    5.80
   1  -8  13   50.19    6.40
  -1  -8  13   44.00    5.80
   1  -8 -13   47.30    6.40
   1  -8 -13   46.10    5.70
   1   8  13   55.49    6.80
  -1   8 -13   45.00    5.80
  -1   8 -13   36.60    5.60
  -2   8  13   28.30    9.30
   2   8 -13   10.50    4.40
  -2  -8 -13   13.60    4.40
   2  -8  13    6.40    4.60
   2   8 -13   19.20    4.90
   2  -8  13    7.30    3.40
  -2   8 -13    8.80    3.20
  -2   8 -13   10.70    3.20
   2  -8 -13    8.10    4.00
  -2  -8  13    4.40    3.10
   2   8  13    7.80    3.40
   2  -8 -13    6.50    3.30
  -3   8  13   23.40    8.70
   3   8 -13   13.30    3.90
   3   8 -13   22.90    5.10
  -3  -8 -13   18.30    4.30
  -3   8  13   22.10    7.10
  -3  -8 -13   21.00    4.30
   3  -8  13   17.60    5.40
   3  -8  13   13.30    3.90
  -3   8 -13   15.70    4.40
   3  -8 -13   16.70    4.20
  -3  -8  13   17.20    5.00
  -3   8 -13   20.00    5.20
  -3  -8  13   19.90    4.40
   3  -8 -13   27.30    4.50
   4  -8  13   31.10    6.00
   4   8 -13   26.40    6.10
  -4   8  13   23.40    7.80
   4  -8  13   21.30    4.70
  -4  -8 -13   14.80    4.20
   4   8 -13   26.10    5.80
  -4  -8  13   23.40    4.80
  -4   8 -13   18.70    4.70
  -4   8 -13   36.40    6.50
   4  -8 -13   27.30    5.00
   4   8  13   18.20    5.60
  -4  -8  13   29.70    5.80
   0  -9 -13  106.59    8.60
   0  -9 -13   89.99    7.90
   0   9 -13  114.79    8.10
  -1  -9 -13   32.60    5.30
  -1  -9 -13   40.40    6.00
   1  -9  13   37.70    5.90
   1   9 -13   28.40    5.40
   1   9 -13   36.30    5.20
   1  -9 -13   38.90    5.70
  -1   9 -13   47.40    6.60
   1  -9 -13   40.60    6.20
   2  -9  13   21.30    5.00
   2   9 -13   23.40    5.20
   2   9 -13   24.10    4.70
  -2  -9 -13   33.30    5.20
   2  -9  13   16.90    5.70
  -2  -9  13   24.90    5.20
   2  -9 -13   29.90    5.80
  -2   9 -13   22.20    4.90
   2  -9 -13   23.50    4.80
   0   0 -14  261.67   11.00
   0   0  14  239.38   10.00
   0   0  14  233.28   16.00
   0   0 -14  252.57    8.90
   0   0  14  273.47   10.80
  -1   0 -14   96.69    5.40
   1   0  14  107.89   10.00
   1   0  14  104.49    7.00
  -1   0  14   98.49    6.60
  -1   0  14   95.69    6.80
  -1   0 -14   95.69    5.60
  -1   0 -14   91.69    6.40
   1   0 -14   97.39    5.10
  -1   0  14   94.09   12.30
   1   0 -14   99.99    7.20
  -2   0 -14    6.20    2.00
  -2   0  14    6.30    8.30
   2   0 -14    8.00    2.40
  -2   0 -14    7.00    3.30
   2   0  14   13.60    3.50
   2   0  14    6.80    3.10
   2   0 -14    8.20    2.80
  -2   0  14    7.10    2.90
  -2   0 -14   10.60    3.10
  -2   0  14    7.60    2.90
  -3   0 -14   24.70    4.30
   3   0 -14   16.50    3.40
  -3   0  14   27.20   11.20
   3   0 -14   26.10    3.60
   3   0  14   28.40    4.40
  -3   0 -14   25.20    4.70
   3   0  14   18.40    4.20
  -3   0  14   27.40    5.30
  -3   0  14   24.00    3.60
   4   0 -14   46.50    5.40
  -4   0  14   47.10   13.80
  -4   0 -14   56.99    6.10
  -4   0  14   47.10    6.20
   4   0 -14   56.19    6.00
   4   0  14   52.19    6.00
  -4   0 -14   53.19    6.00
   4   0  14   56.89    5.70
  -4   0  14   52.69    5.00
   5   0  14  129.19    8.50
   5   0  14  115.19    7.60
  -5   0  14  120.39    8.20
  -5   0  14  135.19   19.90
   5   0 -14  114.29    8.00
  -5   0 -14  133.99    8.90
  -5   0 -14  126.59    8.20
   6   0 -14  238.68   11.90
   6   0  14  244.48   11.70
  -6   0  14  225.28   11.10
  -6   0  14  286.07   27.50
  -6   0 -14  248.78   11.80
   6   0  14  237.48   11.90
  -6   0 -14  227.58   11.90
  -7   0 -14    0.80    3.70
   7   0  14    2.90    2.90
  -7   0  14   11.10    4.70
   7   0 -14    9.20    4.00
   7   0 -14    9.20    3.90
   0   1  14   40.60    5.10
   0  -1 -14   41.70    3.90
   0   1 -14   40.00    4.40
   0  -1 -14   41.60    5.30
   0   1 -14   47.40    5.50
   0  -1  14   33.50    5.00
   0  -1  14   44.20    4.90
   0   1  14   46.00    5.30
   0   1 -14   47.20    4.30
   0  -1  14   34.60    6.90
   0   1  14   37.10    8.00
   1  -1  14  370.56   16.30
  -1  -1 -14  374.46   13.30
   1   1 -14  409.46   12.20
  -1   1  14  360.56   13.10
   1  -1  14  377.66   13.30
  -1  -1 -14  375.76   12.00
  -1   1  14  385.06   13.10
   1   1 -14  375.46   13.00
  -1   1  14  406.66   24.00
   1   1  14  379.16   18.90
  -1  -1  14  381.16   21.20
  -1   1 -14  402.56   13.50
   1  -1 -14  365.36   10.70
  -1  -1  14  398.36   13.40
   1   1  14  360.36   12.90
  -1  -1  14  376.76   12.90
  -1   1 -14  394.26   11.90
   1  -1 -14  369.96   13.40
  -1   1 -14  366.66   11.30
  -2  -1 -14   16.10    3.50
  -2   1  14   22.20    3.90
   2   1 -14   20.80    4.10
  -2   1  14   19.40    7.90
   2  -1  14   11.70    3.00
  -2   1  14   14.40    3.30
  -2  -1 -14   14.30    3.80
  -2   1 -14   14.70    3.30
  -2  -1  14   23.70    4.80
   2  -1 -14   12.70    3.20
  -2  -1  14   18.50    3.80
  -2   1 -14   14.80    2.70
   2   1  14   23.90    5.20
   2   1  14   13.50    3.20
  -2   1 -14   15.80    4.10
  -2  -1  14    7.20    7.60
  -3   1  14   -3.20    3.30
  -3   1  14   10.10    3.40
   3   1 -14    0.40    2.50
   3  -1  14    0.80    1.70
   3  -1  14    0.40    2.80
   3  -1  14    0.90    2.80
  -3  -1 -14    0.80    1.90
   3   1 -14    1.60    2.30
  -3  -1 -14    0.80    2.00
  -3   1  14    5.70    9.70
  -3   1  14   -0.10    2.30
   3   1  14    0.40    1.90
   3   1  14   -2.80    2.10
  -3   1 -14    1.80    1.30
  -3  -1  14    4.90    2.20
   3  -1 -14    2.00    2.20
  -3  -1  14    6.70    8.30
  -3   1 -14    2.40    2.70
  -3  -1  14   -1.90    2.40
  -3   1 -14    8.10    3.30
   3  -1 -14    5.30    3.00
   4   1 -14    6.60    3.00
   4  -1  14    9.40    2.80
  -4  -1 -14    7.50    3.50
   4  -1  14    7.40    3.40
   4  -1  14   11.60    3.00
  -4   1  14    4.90    8.40
  -4   1  14    5.70    2.50
   4   1 -14   12.60    3.80
  -4   1  14    9.00    4.40
  -4  -1 -14    8.60    3.70
  -4  -1  14   11.60    2.80
  -4   1 -14    9.80    3.70
  -4   1 -14    7.40    3.00
   4  -1 -14    9.60    2.90
  -4  -1  14   15.30    3.80
   4   1  14    6.80    3.40
   4  -1 -14   12.90    3.20
   4   1  14   12.00    2.90
  -4  -1  14   20.30    9.90
   5   1 -14    3.10    2.90
   5  -1  14    6.30    2.80
  -5  -1 -14    9.50    4.00
  -5  -1 -14    6.70    3.70
   5  -1  14    5.40    3.40
   5   1 -14   -0.70    2.80
  -5   1  14    2.10    2.90
  -5   1  14   18.80    4.20
  -5   1  14    7.20   12.00
  -5   1 -14    5.60    3.70
  -5  -1  14    1.20    4.10
  -5   1 -14    0.60    2.40
   5  -1 -14    7.10    3.30
   5   1  14    3.60    3.00
   5   1  14   -2.50    2.90
  -5  -1  14    2.40    2.40
  -5  -1  14   26.20   10.80
  -6  -1 -14   19.30    4.70
   6   1 -14   11.90    3.60
   6  -1  14   22.00    4.90
   6  -1  14   16.20    4.10
  -6   1  14   24.80   14.10
   6   1 -14   21.00    4.90
  -6  -1 -14   25.60    5.60
  -6   1  14   18.90    4.10
  -6   1 -14   14.20    4.70
   6   1  14   14.20    4.10
  -6  -1  14    9.60    4.60
   6  -1 -14   16.20    4.30
  -6  -1  14   32.10   12.90
   6   1  14   24.50    5.00
   6  -1 -14    9.60    3.10
  -6   1 -14   12.10    3.70
  -7  -1 -14   -0.50    3.10
   7   1 -14   -1.10    2.30
  -7   1  14   -1.90    3.90
   7  -1  14    2.20    3.60
   7   1  14    1.90    3.40
   7  -1 -14    3.00    3.60
   7  -1 -14   -1.40    3.20
  -7   1 -14   -2.60    3.40
  -7  -1  14    0.70    3.00
  -7  -1  14    8.00    9.10
   0   2 -14   85.79    5.20
   0  -2 -14   93.29    5.80
   0   2 -14   81.19    6.10
   0  -2  14   78.79    6.10
   0   2  14   75.89    6.40
   0   2 -14   79.59    5.30
   0  -2  14   78.99    6.40
   0   2  14   74.99   10.20
   0  -2 -14   89.49    6.40
  -1   2  14   53.89    5.60
  -1   2  14   52.89    5.60
  -1   2  14   46.80    9.40
   1   2 -14   54.39    5.80
   1  -2  14   56.09    5.90
   1  -2  14   45.10    5.50
  -1  -2 -14   51.79    4.90
   1   2 -14   49.60    4.90
  -1  -2 -14   52.89    5.80
   1   2  14   46.80    5.00
   1  -2 -14   51.59    4.20
   1  -2 -14   54.09    6.00
  -1   2 -14   52.39    4.90
   1   2  14   51.29    8.40
  -1  -2  14   50.09    5.50
  -1   2 -14   45.80    4.50
  -1  -2  14   47.50    8.80
  -1   2 -14   51.19    5.30
  -2   2  14    6.80    2.70
  -2  -2 -14    5.00    2.60
   2  -2  14    4.30    3.00
   2   2 -14    2.90    2.10
  -2  -2 -14    3.40    2.70
  -2   2  14    3.80    2.20
  -2   2  14    3.70    9.20
  -2   2 -14    3.30    2.60
  -2  -2  14    1.10    6.60
  -2   2 -14    1.30    2.00
   2   2  14    9.70    4.50
  -2   2 -14    7.00    3.40
   2  -2 -14    4.60    2.50
  -2  -2  14    7.90    3.10
   2   2  14    2.20    2.00
   3  -2  14   10.10    3.80
  -3   2  14    3.00    7.80
  -3   2  14    8.10    4.50
   3  -2  14   11.10    3.20
  -3   2  14    5.30    3.60
  -3   2  14    5.20    2.20
  -3  -2 -14    8.40    3.50
   3  -2  14    7.40    2.60
  -3  -2 -14    9.80    2.80
   3   2 -14    6.50    3.00
  -3   2 -14    5.60    2.70
  -3  -2  14    2.40    7.10
   3  -2 -14    5.80    2.80
  -3   2 -14    8.10    2.40
   3   2  14    9.90    3.60
  -3  -2  14    6.90    3.10
  -3   2 -14    5.90    2.40
   3   2  14    8.00    2.90
  -4   2  14   11.40    3.10
   4  -2  14   10.80    4.00
  -4   2  14    5.10    3.90
   4  -2  14   13.60    3.00
  -4  -2 -14   12.90    3.40
   4   2 -14   17.90    3.80
   4  -2  14   12.80    3.20
  -4  -2 -14   16.80    3.60
  -4   2  14   16.00    4.90
  -4   2  14   27.60   13.90
   4   2 -14   11.60    3.60
  -4  -2  14   11.40    3.70
   4   2  14   11.80    3.50
   4   2  14   12.30    2.70
   4  -2 -14   20.30    4.30
  -4  -2  14   21.70    9.50
  -4   2 -14   14.20    3.80
  -4   2 -14   14.60    4.50
   5  -2  14   23.20    4.10
  -5  -2 -14   34.60    5.00
  -5   2  14   19.60   16.20
   5  -2  14   37.20    5.70
  -5   2  14   30.70    4.80
   5   2 -14   32.00    4.40
   5  -2  14   32.70    4.40
   5   2 -14   39.50    5.20
  -5  -2 -14   35.40    4.90
   5   2 -14   33.60    5.40
  -5   2  14   46.10    8.20
   5  -2 -14   29.30    4.60
  -5   2 -14   34.60    4.90
   5   2  14   38.10    5.70
   5   2  14   28.00    4.50
  -5  -2  14   29.60    5.90
  -5  -2  14   56.59   13.40
  -5   2 -14   30.30    5.50
  -6  -2 -14   25.20    4.80
   6  -2  14   25.20    4.60
   6   2 -14   23.10    5.10
  -6   2  14   20.90    4.30
  -6  -2 -14   29.60    5.00
   6   2 -14   23.70    4.80
  -6   2  14   21.30   16.20
   6  -2  14   22.30    4.50
   6   2  14   26.10    5.30
  -6   2 -14   27.40    5.60
   6  -2 -14   23.30    5.00
  -6  -2  14   23.90    5.70
  -6  -2  14   40.60   12.30
  -6   2 -14   23.00    4.50
   0  -3 -14   63.99    5.20
   0   3 -14   58.99    4.50
   0   3  14   49.70    9.60
   0  -3 -14   50.49    5.80
   0   3 -14   56.69    5.30
   0   3  14   51.99    5.50
   0   3 -14   76.59    6.40
   0  -3  14   60.49    5.70
  -1  -3 -14   15.00    3.50
  -1   3  14   17.30    3.30
  -1   3  14   18.30    9.10
  -1  -3 -14   17.60    3.70
   1   3 -14   14.00    3.10
   1  -3  14   17.30    3.50
   1   3 -14   17.70    3.30
   1  -3  14   22.30    3.90
   1   3  14   13.40    3.20
   1   3  14   17.90    6.20
  -1   3 -14   18.00    4.10
  -1   3 -14   20.10    3.60
   1  -3 -14   17.20    3.50
  -1   3 -14   16.90    2.80
  -1  -3  14   14.60    3.60
   1  -3 -14   20.60    2.90
   2   3 -14   51.79    5.50
   2  -3  14   53.69    5.90
  -2  -3 -14   57.19    5.80
   2   3 -14   62.19    5.80
  -2  -3 -14   63.89    6.40
  -2   3  14   57.79    5.80
  -2   3  14   42.70   12.90
  -2   3  14   51.19    5.40
  -2  -3  14   35.70    8.30
  -2   3 -14   59.59    5.30
   2  -3 -14   57.69    6.80
   2   3  14   71.39   10.60
  -2   3 -14   60.99    6.60
   2   3  14   67.19    6.60
   2  -3 -14   55.59    5.80
  -2   3 -14   56.49    4.60
  -2  -3  14   57.29    5.80
   3   3 -14   95.59    6.30
  -3   3  14  108.69   18.30
  -3   3  14   90.19    6.40
  -3  -3 -14   90.29    6.50
   3  -3  14  100.99    7.20
  -3   3  14   84.19    6.20
   3  -3  14   92.89    6.50
  -3   3  14   96.99   10.20
  -3  -3 -14   97.39    7.20
   3  -3  14   94.79    7.10
  -3  -3  14   88.89    7.20
   3   3  14  101.49    7.90
  -3   3 -14  106.19    7.10
   3  -3 -14   92.99    7.00
  -3   3 -14   99.09    8.00
  -3   3 -14  105.39    6.30
  -3  -3  14   90.09   12.60
   3   3  14   81.99    5.60
   4  -3  14   23.40    3.90
  -4   3  14   23.60    4.00
   4   3 -14   23.80    4.00
  -4   3  14   25.80   15.20
   4  -3  14   28.20    5.30
  -4  -3 -14   32.00    4.90
  -4  -3 -14   23.80    4.20
   4   3 -14   23.60    4.60
   4   3 -14   26.80    4.60
   4  -3  14   21.40    4.30
  -4   3  14   29.30    7.50
  -4  -3  14   23.50    7.70
  -4   3 -14   20.40    3.50
   4  -3 -14   23.80    5.00
  -4  -3  14   15.30    4.10
  -4   3 -14   25.80    4.60
   4   3  14   29.10    5.30
  -4   3 -14   22.30    4.30
  -5  -3 -14   49.80    6.50
  -5   3  14   67.59   10.60
   5  -3  14   41.30    5.30
   5   3 -14   36.80    5.40
  -5   3  14   40.40   17.40
  -5  -3 -14   49.00    5.90
   5  -3  14   51.89    7.00
   5  -3  14   47.30    5.70
   5   3 -14   44.20    6.40
  -5   3  14   51.79    6.10
  -5  -3  14   52.29    6.90
  -5   3 -14   51.19    5.90
  -5   3 -14   48.60    6.10
  -5  -3  14   62.19   15.40
   5  -3 -14   50.29    6.60
   5   3  14   49.10    6.40
  -6  -3 -14   10.60    3.20
   6  -3  14    4.20    3.40
  -6   3  14   12.10   12.90
   6   3 -14    7.90    3.90
   6  -3  14    9.30    3.70
   6   3 -14   10.30    4.60
  -6  -3 -14   14.30    4.50
  -6  -3  14   43.10   12.10
   6   3  14   11.70    4.30
   6  -3 -14    8.80    4.30
  -6  -3  14    9.20    3.80
  -6   3 -14   15.00    3.90
  -6   3 -14    4.60    4.00
   0  -4  14    5.00    3.70
   0  -4 -14    2.80    2.90
   0   4  14    1.70    2.10
   0   4 -14    2.30    2.70
   0   4  14    0.70    5.60
   0   4 -14    6.30    2.10
   0  -4 -14    2.40    2.30
   0  -4 -14    5.40    2.10
   0   4 -14    4.70    3.00
  -1  -4 -14    4.30    3.30
   1   4 -14   10.30    3.30
   1  -4  14   14.00    3.20
  -1   4  14    8.20    3.20
  -1  -4 -14   14.20    3.00
  -1   4  14   16.90    8.40
   1   4 -14    9.00    3.30
  -1  -4 -14    5.70    3.00
   1   4  14    9.50    3.00
   1  -4 -14    9.70    3.00
   1  -4 -14    5.30    3.10
   1  -4 -14   10.80    2.80
   1   4  14    9.20    5.60
  -1  -4  14    6.40    4.10
  -1   4 -14   10.50    2.70
  -1   4 -14   10.80    3.60
  -2  -4 -14   15.30    3.90
  -2  -4 -14    7.60    2.80
  -2  -4 -14    3.00    2.40
  -2   4  14    1.40    8.70
   2  -4  14    2.40    3.00
   2   4 -14    1.80    2.70
  -2   4  14    9.20    3.10
   2   4 -14    8.30    3.40
   2  -4 -14   10.60    3.10
   2  -4 -14    2.00    2.10
  -2   4 -14   10.80    3.20
   2   4  14    6.10    3.40
  -2  -4  14   10.60    4.30
  -2   4 -14    3.60    2.60
   2  -4 -14    8.30    3.00
   2   4  14   14.10    6.10
   3  -4  14   17.80    4.30
   3   4 -14   13.50    3.30
  -3   4  14   19.70    3.60
  -3   4  14   15.90    3.20
   3  -4  14   14.50    3.40
  -3   4  14   19.70    6.50
  -3  -4 -14   18.10    4.20
  -3  -4 -14   15.70    3.50
  -3   4  14   17.60   13.60
   3  -4  14   15.80    4.60
   3  -4 -14   17.10    3.80
   3   4  14   14.20    3.70
  -3  -4  14   13.90    3.90
  -3   4 -14   16.30    4.50
  -3   4 -14   21.40    4.00
   4  -4  14   22.70    4.40
  -4  -4 -14   25.00    4.50
  -4  -4 -14   23.00    4.70
   4   4 -14   24.60    4.80
  -4   4  14   24.40    8.20
  -4   4  14   23.30   15.60
   4  -4  14   21.70    4.20
   4  -4  14   26.30    4.10
  -4   4  14   21.90    3.80
  -4   4 -14   25.00    4.60
   4  -4 -14   19.10    5.00
  -4   4 -14   30.40    4.40
  -4  -4  14   31.70    9.40
   4   4  14   26.50    4.60
  -4  -4  14   21.00    5.30
   5  -4  14   22.20    4.50
   5   4 -14   15.40    4.20
   5   4 -14   22.00    4.60
   5  -4  14   20.30    5.10
  -5  -4 -14   18.30    4.30
  -5  -4 -14   19.80    4.30
   5  -4  14   20.10    4.20
  -5   4  14   31.00   14.20
  -5   4  14   26.20    7.60
  -5  -4  14   47.10   12.60
  -5  -4  14   25.70    4.90
   5  -4 -14   11.30    3.60
  -5   4 -14   18.70    3.40
  -5   4 -14   22.40    4.60
   5   4  14   21.10    4.40
   6   4 -14   10.10    3.70
  -6  -4 -14   13.70    3.90
  -6   4  14   22.30    8.50
   6  -4  14   11.10    4.10
  -6  -4 -14    7.10    4.50
  -6   4  14    4.60   12.70
   6   4 -14   10.20    3.80
   6  -4  14    7.40    3.00
  -6  -4  14   11.40    4.00
   6   4  14    7.20    4.20
   6  -4 -14    7.60    3.40
  -6   4 -14    9.70    4.40
   0  -5 -14   49.50    5.60
   0  -5 -14   59.09    6.30
   0  -5  14   58.89    5.80
   0   5 -14   46.70    5.60
   0   5 -14   63.59    6.30
   0  -5 -14   60.19    5.50
   0   5  14   57.39    6.30
   0   5  14   55.79    9.90
  -1   5  14   60.59    5.90
   1  -5  14   66.19    6.50
  -1  -5 -14   76.49    7.00
   1   5 -14   78.59    6.20
   1   5 -14   64.89    6.20
  -1  -5 -14   68.59    5.50
  -1  -5 -14   66.29    6.40
  -1   5  14   71.29   12.90
  -1   5 -14   67.09    6.70
   1  -5 -14   65.49    6.60
  -1  -5  14   64.19    6.30
   1   5  14   66.99    6.70
   1  -5 -14   69.09    5.10
   1   5  14   68.19   11.40
   1  -5 -14   70.79    7.00
  -1   5 -14   69.29    5.60
  -2  -5 -14   59.29    6.30
  -2  -5 -14   45.10    5.00
  -2   5  14   40.80   10.80
   2   5 -14   39.50    4.50
  -2   5  14   43.20    5.00
  -2  -5 -14   47.40    5.70
   2   5 -14   39.60    5.00
  -2  -5 -14   31.70    4.10
  -2   5 -14   45.40    5.50
   2  -5 -14   42.80    5.30
   2  -5 -14   39.10    4.10
  -2   5 -14   45.20    5.50
   2  -5 -14   52.89    6.50
  -2  -5  14   43.70    5.40
   2   5  14   38.60    6.00
   3  -5  14    1.40    2.90
   3  -5  14    2.70    2.80
   3   5 -14    5.60    2.60
  -3   5  14   -1.40    5.60
  -3  -5 -14    5.20    3.40
  -3  -5 -14    0.50    2.20
  -3   5  14    2.10    2.50
  -3  -5 -14    2.10    2.10
  -3   5  14   -0.60   11.40
   3  -5  14    8.10    3.70
  -3   5 -14    3.00    3.10
  -3  -5  14    6.20    3.30
   3   5  14    4.80    3.60
  -3   5 -14    7.90    4.10
   3  -5 -14    3.00    3.40
   4  -5  14   52.19    6.70
  -4   5  14   70.29   19.30
   4  -5  14   62.89    6.50
   4  -5  14   44.00    5.90
  -4   5  14   63.99   11.20
   4   5 -14   50.39    6.50
  -4  -5 -14   48.20    5.30
  -4  -5 -14   63.29    6.90
  -4  -5 -14   57.19    6.40
  -4   5 -14   50.39    5.50
  -4   5 -14   47.90    6.10
   4   5  14   55.69    7.10
  -4  -5  14   55.99    6.30
   4  -5 -14   67.69    7.00
   5   5 -14   41.80    6.10
  -5   5  14   51.59   10.00
   5   5 -14   36.40    6.00
   5  -5  14   42.50    4.90
   5  -5  14   34.30    5.70
   5  -5  14   41.70    6.20
  -5  -5 -14   44.00    5.70
  -5   5  14   50.09   18.60
  -5  -5 -14   42.30    6.30
   5   5  14   43.60    6.60
   5  -5 -14   44.20    6.70
  -5  -5  14   40.10    5.80
  -5   5 -14   39.20    5.40
  -5   5 -14   52.29    7.20
   0   6 -14   63.19    6.30
   0  -6  14   61.99    6.00
   0   6 -14   57.19    6.20
   0   6  14   63.69   11.80
   0  -6 -14   79.49    7.20
   0  -6 -14   64.59    5.40
   0  -6 -14   69.09    6.80
   0   6  14   72.39    7.10
   1  -6  14   30.10    4.90
   1   6 -14   27.40    5.00
  -1   6  14   40.40   10.80
  -1  -6 -14   43.90    5.70
  -1   6  14   35.20    5.20
  -1  -6 -14   32.30    5.00
   1   6 -14   37.80    4.90
  -1  -6 -14   32.50    4.90
  -1  -6  14   29.90    5.40
   1  -6 -14   35.30    4.70
   1  -6 -14   37.00    5.70
   1   6  14   38.60    9.30
  -1   6 -14   23.00    4.80
  -1   6 -14   38.10    4.90
   1   6  14   36.90    5.20
   1  -6 -14   37.40    5.20
  -2  -6 -14   55.49    5.30
  -2  -6 -14   42.90    5.40
   2   6 -14   58.49    6.10
  -2   6  14   60.49    6.20
  -2  -6 -14   61.59    6.10
  -2   6  14   52.79   12.80
   2  -6  14   60.39    6.70
  -2  -6 -14   58.09    6.30
   2  -6 -14   57.49    6.80
  -2   6 -14   70.49    7.30
  -2  -6  14   58.19    6.20
  -2   6 -14   63.29    6.20
   2   6  14   57.39    6.40
   2  -6 -14   50.99    4.90
  -3  -6 -14   25.90    4.60
   3   6 -14   27.70    5.30
  -3   6  14   25.30   13.10
   3   6 -14   33.70    5.10
   3  -6  14   22.60    4.00
  -3  -6 -14   28.20    4.70
   3  -6  14   19.40    5.00
  -3  -6 -14   18.10    3.90
   3  -6  14   21.00    5.10
  -3   6 -14   17.90    4.70
  -3   6 -14   27.30    4.30
   3  -6 -14   24.50    5.10
   3   6  14   19.60    5.00
  -3  -6  14   25.60    5.30
  -4   6  14   44.80   10.10
  -4  -6 -14   37.60    5.50
   4   6 -14   43.30    5.80
  -4   6  14   38.60   15.80
   4  -6  14   27.30    6.00
   4  -6  14   31.60    5.60
   4  -6  14   41.00    5.40
  -4  -6 -14   37.30    5.70
  -4   6 -14   45.80    7.00
  -4   6 -14   42.40    5.60
   4  -6 -14   42.30    6.60
  -4  -6  14   44.00    6.10
   4   6  14   35.20    6.20
   5  -6  14    4.80    4.30
  -5   6  14    6.50    8.30
   5  -6  14    7.70    3.50
   5   6 -14   13.40    4.10
   5   6 -14    5.90    3.30
  -5  -6 -14    8.50    3.30
  -5  -6  14    6.80    4.70
   5   6  14   11.60    4.70
   5  -6 -14   13.10    4.10
  -5   6 -14    8.80    3.10
  -5   6 -14    2.70    4.70
   0  -7 -14   16.60    4.30
   0  -7  14   20.40    4.10
   0   7 -14   26.50    4.60
   0   7 -14   19.50    4.40
   0   7  14   21.00    4.60
   0   7  14   26.70    7.80
   0  -7 -14   25.90    4.60
   1   7 -14   53.99    6.10
   1  -7  14   52.79    5.40
  -1   7  14   44.90    5.70
  -1   7  14   53.89   11.50
  -1  -7 -14   47.20    5.90
  -1  -7 -14   54.89    5.90
  -1  -7 -14   47.20    5.40
  -1   7 -14   56.89    6.50
  -1   7 -14   49.60    5.70
   1  -7 -14   56.99    6.00
   1   7  14   41.60    5.80
   1  -7 -14   55.69    6.60
  -1  -7  14   42.00    6.20
   2  -7  14  142.49   10.30
   2   7 -14  140.69    9.60
  -2  -7 -14  128.39    8.40
  -2  -7 -14  132.19    8.30
   2  -7  14  118.09    9.90
  -2   7  14  125.49    7.80
  -2   7  14  160.18   20.50
   2  -7 -14  118.89    9.20
   2   7  14  121.09    9.40
  -2   7 -14  124.89    8.80
  -2   7 -14  122.89    8.20
   2  -7 -14  123.09    7.80
  -2  -7  14  121.49    8.20
   3  -7  14   17.50    4.50
   3   7 -14   20.20    5.10
  -3  -7 -14   16.20    3.50
  -3  -7 -14   16.90    4.70
  -3   7  14   16.80   11.50
   3  -7  14   17.40    5.10
   3   7 -14   16.30    4.90
   3  -7 -14   22.00    4.70
   3   7  14   19.50    4.40
  -3   7 -14   20.90    4.20
  -3   7 -14   12.10    4.40
  -3  -7  14   16.00    4.20
   4   7 -14    1.30    2.80
  -4   7  14   -8.60   10.60
  -4   7  14   -0.80    5.20
   4  -7  14    0.40    2.30
   4  -7  14    0.20    3.60
   4  -7  14   -7.20    3.90
  -4  -7 -14    1.60    4.30
  -4  -7 -14   -1.00    3.20
  -4   7 -14   -1.30    3.20
  -4  -7  14    1.20    3.10
  -4   7 -14    2.30    2.90
   4  -7 -14    4.00    3.10
   4   7  14    0.90    3.10
  -4  -7  14    3.10    3.10
   0  -8  14   73.99    7.60
   0   8 -14   69.39    7.00
   0  -8 -14   67.49    6.70
   0   8  14   58.79    6.80
   0  -8 -14   75.29    7.80
  -1  -8 -14   10.30    4.00
  -1   8  14   24.20    7.20
   1   8 -14    8.50    4.10
  -1  -8 -14    7.60    3.60
   1  -8 -14    5.80    3.50
  -1   8 -14    4.70    3.70
  -1   8 -14    7.80    3.80
   1   8  14    5.50    3.10
  -2  -8 -14   17.30    4.70
   2   8 -14    9.90    4.50
   2  -8  14   11.90    5.40
   2   8 -14   14.40    4.70
   2  -8  14   12.60    4.70
  -2   8  14   29.00    9.10
   2   8  14   14.50    4.80
  -2   8 -14    6.00    3.20
   2  -8 -14   15.80    4.00
  -2  -8  14   10.60    4.60
  -2   8 -14   20.40    4.60
   2  -8 -14   10.80    4.60
   3  -8  14   16.30    5.70
   3  -8  14   17.50    5.20
   3   8 -14   11.80    4.80
  -3   8 -14   11.90    4.60
   3   8  14   16.20    5.20
  -3   8 -14   19.60    5.00
  -3  -8  14   19.00    4.50
   3  -8 -14   16.50    4.90
   0   0  15   11.80    3.20
   0   0  15    6.80    3.20
   0   0  15    2.00    4.80
   0   0 -15    7.50    3.50
   0   0 -15    4.00    1.70
  -1   0 -15    3.40    2.00
  -1   0  15   -0.50    6.50
   1   0  15    1.60    3.20
  -1   0  15    2.70    2.60
  -1   0 -15   -1.20    2.10
  -1   0  15   -2.20    2.50
   1   0 -15    6.90    3.50
  -1   0 -15    2.40    2.40
   1   0  15    0.10    2.00
   2   0  15  100.59    7.10
  -2   0  15  100.19    7.20
  -2   0 -15  109.99    7.10
  -2   0 -15  108.99    7.90
  -2   0  15   98.39    7.20
  -2   0  15   89.99   12.90
   2   0 -15  101.19    7.70
  -3   0  15    8.90    3.20
  -3   0 -15   16.60    3.70
  -3   0 -15    7.00    2.90
  -3   0  15    6.40    3.20
   3   0  15    8.90    2.90
   3   0 -15   11.00    3.00
  -3   0  15   11.10    8.00
   3   0  15    6.40    2.60
  -4   0  15  203.58    9.60
   4   0 -15  208.58   10.10
   4   0 -15  220.68   10.30
  -4   0  15  205.78   10.40
  -4   0 -15  213.98   10.20
  -4   0 -15  207.58   11.10
  -4   0  15  233.58   22.90
   4   0  15  191.58    9.70
   4   0  15  193.38   10.60
   5   0  15    2.70    3.30
   5   0  15    3.60    3.20
   5   0 -15    0.50    2.20
  -5   0 -15    5.50    2.80
  -5   0  15    4.10    3.20
  -5   0  15   10.90   12.40
  -5   0 -15    7.50    4.10
   6   0  15    3.70    2.80
   6   0 -15    3.00    3.40
  -6   0 -15   -0.70    2.50
  -6   0  15    1.00   12.10
   6   0  15    6.40    3.70
  -6   0 -15    3.70    3.00
  -6   0  15    3.80    4.70
   0  -1  15  194.08    9.30
   0  -1 -15  178.18    9.80
   0   1  15  187.88   14.50
   0  -1  15  189.68   13.90
   0   1 -15  182.38    7.40
   0   1 -15  191.28    8.10
   0  -1  15  202.78   10.30
   0  -1 -15  185.88    7.70
   0   1  15  195.48    9.90
   0   1 -15  183.48   10.00
  -1   1  15   78.59   12.50
   1   1 -15   89.39    7.30
   1  -1  15  103.89    7.70
  -1   1  15   84.89    6.90
  -1  -1 -15   84.19    6.50
  -1   1  15   98.39    7.90
  -1  -1 -15   91.29    6.20
  -1  -1  15   95.09    7.30
  -1   1 -15   92.69    6.90
  -1   1 -15  102.59    6.10
  -1  -1  15  102.39   13.70
   1  -1 -15  104.39    7.10
   1   1  15  104.69   10.80
   1   1  15  100.39    7.40
  -1   1 -15   89.59    6.10
  -1  -1  15   92.69    7.80
   2  -1  15   23.60    4.40
  -2   1  15   22.10    4.20
   2   1 -15   25.60    4.20
  -2   1  15   23.80    4.20
  -2  -1 -15   28.80    4.40
  -2   1  15   32.20   11.30
  -2  -1 -15   32.20    5.20
   2   1  15   30.00    4.90
  -2  -1  15   25.90    4.50
   2  -1 -15   29.40    4.90
  -2   1 -15   24.00    4.10
  -2   1 -15   29.00    3.70
  -2   1 -15   27.00    4.40
  -2  -1  15   26.60    9.40
  -2  -1  15   30.40    4.40
   3   1 -15   24.40    4.30
  -3   1  15   28.10    4.30
   3  -1  15   18.30    3.50
   3  -1  15   22.90    4.40
   3  -1  15   28.70    4.40
  -3   1  15   34.30   12.90
  -3   1  15   23.30    4.30
  -3  -1 -15   22.70    3.90
  -3  -1 -15   18.80    4.00
   3   1 -15   38.00    5.10
   3  -1 -15   30.70    5.10
  -3  -1  15   19.70    5.20
  -3  -1  15   23.90    4.20
   3   1  15   33.70    4.70
  -3  -1  15   26.70   11.10
  -3   1 -15   22.50    4.40
   3   1  15   24.20    4.90
  -3   1 -15   28.90    4.30
   4  -1  15   28.50    4.90
  -4  -1 -15   32.90    5.50
   4   1 -15   35.70    5.10
   4   1 -15   32.00    5.10
  -4   1  15   41.70    8.20
  -4   1  15   37.30   14.90
  -4   1  15   39.00    4.90
  -4  -1 -15   38.30    5.60
   4  -1  15   31.10    5.10
  -4   1  15   28.50    4.80
   4   1  15   28.60    4.60
   4   1  15   28.70    4.20
  -4   1 -15   33.00    5.30
   4  -1 -15   41.90    5.20
  -4   1 -15   22.60    5.10
  -4  -1  15   31.00    4.90
  -4  -1  15   51.59   14.10
  -4  -1  15   26.20    4.50
  -5  -1 -15   15.00    4.00
  -5  -1 -15   13.20    4.30
  -5   1  15    6.60   10.30
  -5   1  15   13.40    5.10
   5  -1  15    8.80    3.80
   5   1 -15   19.80    3.60
   5   1 -15   18.30    4.40
   5  -1  15   14.60    4.40
  -5   1 -15   14.30    4.60
   5   1  15   11.40    4.10
   5   1  15   18.00    3.70
  -5  -1  15   10.40    3.30
  -5   1 -15   20.80    4.80
  -5  -1  15   23.10   10.10
  -5  -1  15   11.30    4.90
   6  -1  15   10.90    4.30
  -6   1  15   16.60   12.10
  -6  -1 -15   21.60    5.20
   6  -1  15   13.00    4.20
  -6   1  15   16.00    5.10
   6   1 -15   17.10    4.10
  -6  -1 -15   18.70    4.00
  -6  -1  15   22.00    9.90
  -6   1 -15   19.30    4.40
  -6   1 -15   11.50    3.80
   6  -1 -15    7.90    3.10
   6   1  15   19.60    4.10
  -6  -1  15   14.00    5.20
   6   1  15   12.10    4.20
   0   2  15  140.19   13.40
   0   2  15  137.49    8.30
   0  -2  15  135.69    8.60
   0   2 -15  140.69    6.70
   0  -2  15  147.89    8.30
   0  -2 -15  130.69    6.60
   0   2 -15  128.89    7.90
   0   2 -15  130.59    7.40
   0  -2 -15  126.19    8.40
  -1   2  15   39.50    5.30
   1  -2  15   46.80    5.80
  -1   2  15   37.10    5.10
  -1  -2 -15   39.40    5.00
   1  -2  15   37.10    5.20
   1   2 -15   38.30    5.20
   1   2 -15   39.80    4.60
  -1   2  15   33.20   10.00
  -1  -2 -15   32.60    4.00
  -1   2 -15   46.90    4.80
  -1  -2  15   31.60    4.90
   1   2  15   31.30    5.00
   1  -2 -15   41.00    4.00
  -1  -2  15   40.60    5.10
   1   2  15   37.60    7.30
   1  -2 -15   39.90    5.10
  -1   2 -15   30.30    5.10
  -1   2 -15   38.10    4.20
  -2   2  15   31.30   11.90
  -2   2  15   33.40    4.80
  -2  -2 -15   26.60    4.00
   2   2 -15   38.30    5.10
  -2   2  15   31.30    4.70
   2  -2  15   32.90    5.10
  -2  -2 -15   29.00    4.40
  -2   2 -15   33.60    4.20
  -2   2 -15   32.70    4.90
  -2  -2  15   26.00    5.30
  -2  -2  15   23.70    4.60
   2   2  15   27.30    4.50
  -2   2 -15   29.90    4.00
   2  -2 -15   34.10    4.90
  -2  -2  15   19.60    8.50
   3   2 -15   95.09    7.20
   3  -2  15   84.79    6.90
  -3  -2 -15  108.89    7.60
   3   2 -15   95.69    6.60
  -3   2  15  100.09    7.20
  -3   2  15   95.69    6.90
   3  -2  15  107.29    7.20
  -3   2  15  134.39   19.60
  -3  -2 -15  105.99    8.00
   3  -2  15   96.99    7.50
  -3   2 -15  113.79    7.60
  -3   2 -15   91.39    8.20
   3   2  15   87.39    6.40
   3  -2 -15  102.09    7.50
  -3  -2  15   98.29   14.70
   3   2  15   99.99    7.40
  -3   2 -15  105.39    6.20
  -3  -2  15  100.79    8.70
  -4  -2 -15   11.00    3.40
   4   2 -15   12.20    3.40
  -4   2  15    4.30   12.50
  -4   2  15   11.40    2.80
   4  -2  15    7.50    3.50
   4   2 -15   12.00    3.30
   4  -2  15    7.10    3.20
  -4  -2 -15   14.90    3.60
   4  -2  15   10.50    4.30
  -4   2  15   12.70    3.70
  -4   2 -15    7.10    3.50
  -4   2 -15    7.30    3.40
  -4  -2  15   12.60    5.00
  -4  -2  15    3.90    8.90
   4   2  15   13.20    3.60
   4  -2 -15   12.40    4.00
   4   2  15   10.10    2.80
   5  -2  15   10.40    4.10
  -5  -2 -15   14.60    3.70
   5   2 -15   10.10    3.70
  -5   2  15   12.60    4.70
   5   2 -15    5.40    3.80
  -5  -2 -15    9.80    4.30
  -5   2  15   -9.30   13.40
   5  -2  15    4.10    3.50
   5   2 -15    6.50    2.90
   5   2  15   10.30    4.20
  -5   2 -15    3.30    2.90
  -5  -2  15   19.90    5.30
   5  -2 -15    4.90    2.90
  -5  -2  15   15.20   10.50
  -5   2 -15   14.60    4.60
   6  -2  15   31.80    5.60
  -6  -2 -15   38.20    6.00
   6   2 -15   28.90    5.10
  -6  -2 -15   29.00    5.70
   6   2 -15   26.90    5.40
  -6   2  15   35.70   18.80
  -6   2  15   39.80    6.20
   6  -2  15   25.50    4.30
   6  -2 -15   35.50    6.00
  -6   2 -15   37.90    5.50
   6   2  15   33.60    5.90
  -6   2 -15   33.50    5.80
  -6  -2  15   46.40   14.20
  -6  -2  15   30.30    6.30
   0   3  15   17.10    6.20
   0  -3  15    9.20    3.60
   0  -3 -15   17.80    3.40
   0   3 -15   12.70    3.90
   0   3  15    6.30    3.50
   0   3 -15   14.40    3.50
   0  -3  15    8.90    4.20
   0  -3 -15   10.80    3.80
   1  -3  15    9.40    3.60
  -1  -3 -15    7.10    3.60
  -1  -3 -15    8.80    2.50
   1  -3  15   11.90    4.20
   1   3 -15    4.20    2.30
  -1   3  15    8.60    8.10
   1   3 -15    9.50    2.90
  -1   3  15    8.90    3.40
  -1   3 -15    6.20    2.30
   1   3  15    8.90    3.50
   1  -3 -15    5.80    3.40
  -1  -3  15    6.80    4.10
   1  -3 -15    3.10    2.30
   1   3  15    8.90    4.30
  -1   3 -15    5.70    2.50
  -1   3 -15    7.20    2.90
  -2  -3 -15   46.50    5.10
   2  -3  15   44.70    5.70
  -2   3  15   38.20    5.30
  -2   3  15   41.90   13.30
   2   3 -15   50.59    5.80
  -2   3  15   40.20    4.90
  -2  -3 -15   45.70    5.90
   2   3  15   44.10    5.50
  -2   3 -15   43.10    4.80
  -2   3 -15   43.40    4.80
   2  -3 -15   42.80    5.50
  -2  -3  15   43.00    6.20
  -2   3 -15   48.50    5.80
  -3  -3 -15   26.40    4.80
   3  -3  15   16.40    4.00
  -3   3  15   22.00    4.00
  -3   3  15   18.40    3.50
  -3   3  15   15.20   10.30
   3  -3  15   18.80    3.70
  -3  -3 -15   17.60    3.70
   3  -3  15   20.10    3.90
   3   3 -15   18.40    4.00
   3   3  15   14.10    4.40
   3  -3 -15   21.50    4.20
  -3   3 -15   16.20    4.10
  -3   3 -15   18.00    3.50
  -3  -3  15   20.20    5.20
  -3   3 -15   21.50    3.80
  -3  -3  15    9.10    7.80
   4   3 -15   12.50    3.50
  -4   3  15   24.60   12.30
   4  -3  15   28.30    4.80
  -4  -3 -15   22.10    4.70
   4   3 -15   17.00    4.40
  -4  -3 -15   13.90    4.20
  -4   3  15   20.80    4.50
   4   3 -15   15.20    3.20
   4  -3  15   25.40    4.70
   4  -3  15   15.50    4.00
  -4  -3  15   21.40    7.80
   4  -3 -15   18.70    4.90
  -4  -3  15    7.50    4.80
   4   3  15   22.50    5.20
  -4   3 -15   17.60    4.70
  -4   3 -15   15.80    3.60
  -5   3  15    7.30   15.10
   5  -3  15    2.40    3.90
  -5  -3 -15    5.10    3.60
   5   3 -15    3.10    3.40
  -5  -3 -15    3.80    3.20
   5  -3  15    0.10    2.90
   5   3 -15    4.90    3.20
   5  -3  15    4.50    3.40
  -5   3  15   -0.10    2.50
   5   3  15    1.30    3.60
  -5   3 -15    5.80    3.10
  -5   3 -15    2.20    3.50
  -5  -3  15   10.00    9.40
   5  -3 -15   -0.30    3.50
  -5  -3  15    5.70    4.80
   6  -3  15   72.79    8.20
   6  -3 -15   99.89    9.20
   0   4 -15   23.80    4.60
   0   4 -15   27.70    4.20
   0  -4  15   25.10    5.10
   0   4  15   39.60    9.30
   0  -4 -15   35.50    5.00
   0  -4 -15   32.80    4.40
   0  -4 -15   29.80    4.80
   0   4  15   36.70    5.20
  -1  -4 -15    0.40    2.70
   1   4 -15    3.60    2.30
   1   4 -15    3.80    3.10
  -1   4  15    7.60    3.30
  -1   4  15   -1.10    4.90
  -1  -4 -15    4.10    3.00
  -1  -4 -15   -0.80    1.80
   1  -4  15    2.90    3.20
   1  -4  15    3.10    2.70
  -1   4 -15    3.70    2.70
  -1   4 -15    3.20    2.40
   1  -4 -15    0.60    2.10
   1  -4 -15    5.80    3.40
  -1   4 -15   -0.30    2.30
   1   4  15    8.30    4.20
   1   4  15    1.20    2.90
  -1  -4  15    8.20    4.30
   1  -4 -15    4.30    2.00
   2   4 -15   63.99    6.60
  -2   4  15   51.79   11.40
   2   4 -15   58.09    6.10
  -2   4  15   69.29    6.60
  -2  -4 -15   48.40    5.50
  -2  -4 -15   59.09    6.10
   2  -4  15   70.29    7.00
  -2  -4 -15   67.29    6.50
   2  -4 -15   56.89    6.20
  -2  -4  15   54.39    6.20
  -2   4 -15   67.99    6.30
  -2   4 -15   59.79    5.80
  -2   4 -15   58.99    6.90
   2   4  15   63.29    7.10
   2  -4 -15   58.59    6.30
   3  -4  15   31.40    4.60
   3   4 -15   31.00    4.20
  -3   4  15   26.20    4.20
  -3  -4 -15   20.50    4.10
   3  -4  15   24.60    4.30
  -3   4  15   31.70   14.70
  -3  -4 -15   27.60    4.90
   3  -4  15   24.60    5.30
  -3  -4  15   30.90    5.10
   3  -4 -15   27.10    4.90
   3  -4 -15   27.70    4.80
  -3   4 -15   28.30    4.80
  -3   4 -15   22.30    4.10
   3   4  15   27.50    4.90
  -4  -4 -15   57.09    6.30
  -4   4  15   51.89    5.40
   4  -4  15   48.30    5.80
   4   4 -15   42.70    6.00
  -4  -4 -15   58.09    6.60
   4  -4  15   57.69    6.80
  -4   4  15   61.89   19.10
   4  -4  15   53.09    5.70
   4   4 -15   62.59    7.30
   4  -4 -15   57.29    7.10
   4   4  15   62.99    7.10
  -4   4 -15   59.39    5.90
  -4  -4  15   51.89    6.50
  -4   4 -15   62.19    7.30
   5   4 -15   33.90    5.70
   5  -4  15   35.40    5.30
  -5   4  15   58.49   10.20
   5  -4  15   32.00    5.00
  -5  -4 -15   42.20    6.40
  -5   4  15   49.70   19.00
  -5  -4 -15   35.90    5.40
   5   4 -15   32.60    6.00
   5  -4  15   44.00    7.00
  -5  -4  15   45.00   13.00
   5  -4 -15   41.90    6.00
  -5  -4  15   41.50    6.00
   5   4  15   37.10    5.80
  -5   4 -15   37.60    5.80
  -5   4 -15   38.40    5.70
   0  -5 -15   64.09    5.60
   0   5 -15   52.69    5.70
   0  -5 -15   51.59    5.90
   0  -5  15   63.29    6.80
   0   5  15   56.59    6.60
   0   5 -15   58.89    6.40
   0  -5 -15   69.89    7.10
   0   5  15   66.39   11.60
  -1  -5 -15   25.40    4.70
  -1  -5 -15   24.40    4.50
   1   5 -15   29.90    4.40
   1   5 -15   21.20    4.50
  -1   5  15   23.70    4.10
  -1   5  15   43.40   10.90
   1  -5  15   27.70    4.90
  -1  -5 -15   21.20    4.40
   1  -5 -15   30.00    5.20
   1  -5 -15   24.10    3.90
  -1   5 -15   27.10    4.70
   1  -5 -15   22.40    4.40
  -1  -5  15   31.30    4.90
   1   5  15   41.00    8.70
  -1   5 -15   24.60    4.30
   1   5  15   20.40    4.20
  -2  -5 -15   -0.40    2.90
   2   5 -15    0.60    2.00
   2  -5  15    0.00    2.10
  -2  -5 -15    0.30    2.10
   2   5 -15    0.50    2.30
  -2   5  15    3.20    2.10
  -2  -5 -15    0.50    1.80
  -2  -5 -15    0.20    1.70
  -2   5  15   -6.80    8.70
   2   5  15   -0.40    3.20
  -2  -5  15    2.80    4.20
  -2   5 -15    0.00    2.80
   2  -5 -15    1.60    2.50
  -2   5 -15    4.70    3.10
   2  -5 -15   -2.60    3.00
  -3  -5 -15   15.20    4.20
  -3  -5 -15   16.50    3.70
   3  -5  15   16.90    4.60
  -3  -5 -15   19.80    4.90
   3  -5  15   12.80    4.50
  -3   5  15   19.90   13.10
   3  -5  15   21.20    4.60
   3  -5 -15   19.00    4.80
  -3  -5  15   13.50    5.30
   3   5  15   20.20    4.80
  -3   5 -15   18.30    4.10
  -3   5 -15   13.80    4.10
  -4   5  15   31.90   16.80
   4  -5  15   32.30    6.00
  -4  -5 -15   32.30    5.40
   4   5 -15   38.40    6.00
  -4  -5 -15   32.50    5.90
   4  -5  15   25.70    4.90
  -4  -5 -15   35.00    5.50
   4  -5  15   17.10    4.40
   4  -5 -15   25.40    4.90
  -4   5 -15   32.90    5.50
  -4   5 -15   32.30    4.90
  -4  -5  15   39.40    6.70
   4   5  15   35.90    6.20
   5  -5  15   13.10    4.60
   5  -5  15   13.10    4.40
   5   5 -15   11.40    3.90
  -5  -5 -15    8.40    3.40
   5   5 -15    9.20    4.40
  -5   5  15    6.50    6.00
   5  -5 -15   12.20    4.70
  -5   5 -15   10.90    3.60
   5   5  15   12.60    4.10
   0   6 -15   44.20    5.50
   0  -6  15   43.90    5.50
   0  -6 -15   37.30    5.30
   0   6  15   44.80    6.00
   0  -6 -15   42.60    5.60
   0   6  15   37.40    8.60
   0   6 -15   42.30    5.20
   0  -6 -15   52.59    5.60
   1  -6  15    3.20    3.60
   1   6 -15    4.90    3.20
  -1   6  15   -0.50    2.90
  -1  -6 -15   -1.40    3.00
   1   6 -15    4.30    3.50
  -1  -6 -15    1.90    3.00
  -1  -6 -15    2.90    3.40
  -1   6  15    3.30    4.80
   1   6  15   17.60    5.10
   1   6  15    3.80    2.80
  -1   6 -15    2.20    3.50
  -1   6 -15    2.60    3.30
   1  -6 -15    6.00    2.90
   1  -6 -15    1.00    2.80
  -1  -6  15   -2.40    2.70
   1  -6 -15    3.90    2.80
  -2  -6 -15   35.30    5.00
  -2   6  15   39.40   13.10
  -2   6  15   34.80    5.20
  -2  -6 -15   28.50    4.60
  -2  -6 -15   31.40    5.20
   2  -6  15   29.10    5.20
   2   6 -15   38.60    5.70
  -2   6 -15   28.80    4.90
  -2  -6  15   32.00    5.90
  -2   6 -15   28.00    4.80
   2   6  15   29.30    5.10
   2  -6 -15   33.90    6.00
  -3  -6 -15   95.39    7.60
   3  -6  15   70.29    8.10
  -3  -6 -15   94.39    8.30
   3   6 -15   88.09    8.10
   3  -6  15   59.49    7.50
   3  -6  15   94.49    7.90
  -3   6  15   90.69   18.40
   3   6 -15   83.49    8.30
  -3  -6 -15   74.19    7.10
   3   6  15   82.29    8.20
   3  -6 -15   93.29    9.10
  -3   6 -15   95.99    9.10
  -3   6 -15  102.59    7.80
  -3  -6  15   74.99    8.10
   4  -6  15    7.20    4.60
  -4  -6 -15    7.40    4.50
   4   6 -15    9.30    4.70
  -4   6  15    1.40   13.30
  -4  -6 -15   10.00    3.90
   4  -6  15    1.70    4.10
   4  -6  15    7.50    3.70
  -4  -6  15    8.60    5.00
  -4   6 -15    3.10    3.30
   4   6  15   10.30    4.90
  -4   6 -15    3.10    4.30
   4  -6 -15    1.60    4.10
   0   7  15   67.69    7.50
   0  -7 -15   55.39    6.10
   0  -7  15   54.49    6.50
   0   7 -15   58.19    6.40
   0  -7 -15   53.89    6.20
   0   7 -15   68.79    7.40
   1  -7  15   30.40    4.50
  -1  -7 -15   25.40    4.90
  -1   7  15   28.60    5.20
  -1   7  15   53.89   11.20
   1   7 -15   32.50    5.00
  -1  -7 -15   42.10    5.80
  -1  -7 -15   29.90    5.20
   1   7  15   33.00    5.20
  -1  -7  15   31.60    5.00
   1  -7 -15   32.40    5.20
   1  -7 -15   37.80    5.10
  -1   7 -15   32.50    5.00
  -1   7 -15   29.70    5.30
  -2  -7 -15   41.40    5.30
   2  -7  15   44.90    7.00
   2  -7  15   44.90    6.40
  -2  -7 -15   49.40    6.50
  -2   7  15   72.19   14.40
   2   7 -15   39.00    5.80
  -2  -7  15   50.79    6.90
  -2   7 -15   41.80    6.20
  -2   7 -15   36.10    5.60
   2  -7 -15   45.50    6.80
   2   7  15   50.59    7.00
   3   7 -15    2.90    3.80
   3  -7  15   -0.30    4.30
   3  -7  15   -2.10    4.20
   3  -7  15    0.80    3.20
  -3  -7 -15    1.10    2.70
  -3   7 -15    0.70    2.90
  -3  -7  15    0.30    4.40
  -3   7 -15    2.60    3.40
   3  -7 -15    2.40    2.90
   3   7  15    0.20    3.70
   0  -8 -15    0.70    3.40
   0  -8 -15   -0.70    2.30
   0   8  15    2.50    3.70
   1  -8  15   13.60    4.10
  -1  -8 -15    6.90    3.80
  -1   8  15    8.80    3.90
  -1  -8 -15   16.20    3.80
   1  -8 -15   15.60    4.10
  -1   8 -15   14.90    3.80
  -1  -8  15    7.60    4.60
   1  -8 -15   16.30    4.10
   1   8  15    9.50    4.40
   0   0 -16   28.10    5.50
   0   0  16   19.50    4.70
   0   0  16   35.80    5.30
   0   0  16   28.00    7.30
   0   0 -16   24.50    3.70
  -1   0  16    1.00    3.20
   1   0 -16   -2.80    2.00
   1   0  16   -3.00    1.90
  -1   0  16    5.80    3.20
  -1   0 -16   -1.50    2.10
  -1   0 -16   -5.20    1.90
  -1   0  16    4.30    6.80
  -2   0 -16   -2.30    2.50
   2   0 -16    0.30    2.20
  -2   0  16   -0.60    2.80
  -2   0  16   -1.70    8.80
  -2   0  16    4.20    4.00
   2   0  16   -3.00    3.00
  -2   0 -16    0.30    2.30
   3   0 -16   11.70    4.00
   3   0  16   11.60    3.80
  -3   0 -16    2.80    2.80
  -3   0  16    8.30    3.50
  -3   0 -16    8.30    3.60
   3   0  16   -1.10    3.00
  -3   0  16   -3.10    9.50
  -3   0  16    6.10    4.40
  -4   0 -16   46.60    6.00
  -4   0  16   35.00    5.10
  -4   0  16   36.70    6.50
   4   0  16   37.50    5.30
  -4   0 -16   39.20    5.40
   4   0  16   40.10    5.70
   4   0 -16   35.60    5.10
  -4   0  16   30.60   14.20
  -5   0  16   11.10   11.60
  -5   0 -16   24.40    4.70
   5   0  16   23.70    5.00
  -5   0  16   18.70    5.70
  -5   0 -16   26.50    4.90
   5   0  16   24.80    5.20
   0  -1  16  501.45   16.90
   0   1 -16  516.85   17.30
   0   1  16  501.95   24.60
   0  -1  16  510.45   16.70
   0  -1 -16  490.65   14.40
   0  -1 -16  506.25   16.90
   0   1  16  497.55   16.60
  -1   1  16   60.99    6.20
  -1  -1 -16   76.29    6.10
   1  -1  16   77.49    7.50
  -1   1  16   77.49    7.50
  -1   1  16   63.19   11.60
  -1  -1 -16   63.39    6.50
   1   1 -16   79.19    7.70
  -1   1 -16   66.49    4.90
  -1   1 -16   69.79    5.90
   1   1  16   96.39   10.30
  -1   1 -16   71.59    6.90
  -1  -1  16   67.29    7.20
  -1  -1  16   57.19   10.40
  -1  -1  16   64.19    6.50
   1   1  16   69.29    7.20
   1  -1 -16   69.39    6.70
  -2  -1 -16   85.59    6.80
   2   1 -16   63.89    6.90
  -2   1  16   76.89    7.00
  -2   1  16   62.79   13.40
  -2   1  16   73.79    6.90
  -2  -1 -16   84.49    7.00
   2  -1  16   60.49    6.70
   2  -1 -16   71.79    7.30
  -2   1 -16   70.89    7.10
  -2  -1  16   72.69    7.00
   2   1  16   60.39    6.40
  -2  -1  16   64.69    6.30
  -2   1 -16   80.09    6.70
  -2  -1  16   54.99   11.70
  -3   1  16   12.70    3.80
  -3   1  16   21.50    9.90
   3  -1  16   10.30    3.30
  -3  -1 -16   16.00    4.00
   3  -1  16    9.70    4.10
  -3   1  16    8.40    3.40
   3   1 -16   11.40    3.90
  -3  -1 -16   13.90    3.40
  -3   1 -16   11.00    4.10
   3   1  16   11.10    3.60
  -3   1 -16    7.70    3.60
  -3  -1  16   12.50    3.90
   3   1  16    9.90    3.40
  -3  -1  16   14.30   10.30
   3  -1 -16   14.70    3.70
  -3  -1  16   15.80    4.20
  -4   1  16   17.90    5.30
  -4  -1 -16   18.70    4.20
  -4  -1 -16   13.90    4.40
   4   1 -16   24.90    4.20
   4   1 -16   15.00    4.00
   4  -1  16   16.70    3.80
   4  -1  16   17.80    3.80
  -4   1  16   19.70    4.10
  -4   1  16   21.90   11.00
  -4  -1  16   13.90    5.20
  -4  -1  16    6.60   12.50
  -4  -1  16   13.90    3.80
   4  -1 -16   16.90    4.30
  -4   1 -16   19.40    4.40
   4   1  16   16.90    3.90
   4   1  16   11.00    3.20
  -4   1 -16   21.10    4.60
   5   1 -16   13.10    3.30
  -5  -1 -16    3.50    2.90
  -5  -1 -16   13.40    3.90
  -5   1  16    6.30    3.60
   5  -1  16    8.00    4.00
   5  -1  16    7.70    3.90
  -5   1  16    5.20   14.10
   5   1 -16    5.60    2.70
   5   1  16    9.50    3.20
  -5   1 -16    6.30    4.40
  -5   1 -16    3.50    3.80
  -5  -1  16    8.90    3.90
  -5  -1  16   -1.60   11.30
   5   1  16    9.70    4.20
   0  -2 -16    4.00    2.60
   0   2 -16    0.70    2.50
   0   2 -16    4.70    3.70
   0   2  16    5.50    2.60
   0  -2  16    6.70    2.90
   0  -2 -16    2.50    2.70
   0  -2  16   -3.10    3.80
   0   2  16    0.90    3.70
  -1   2  16   -2.70    6.50
   1   2 -16    5.90    2.70
  -1  -2 -16    0.90    2.50
   1  -2  16    0.30    3.10
  -1   2  16    2.10    2.30
  -1  -2 -16    5.30    2.30
  -1  -2  16    3.30    4.00
  -1   2 -16    6.00    3.50
   1  -2 -16    3.80    3.70
   1   2  16   12.50    4.60
  -1   2 -16    2.50    2.60
   1   2  16    1.00    2.40
  -1   2 -16    3.90    2.60
  -1  -2  16    2.20    3.30
   2  -2  16   67.49    7.00
  -2   2  16   54.69    6.00
  -2  -2 -16   60.19    5.80
  -2   2  16   69.09    6.80
   2   2 -16   73.49    7.20
  -2  -2 -16   45.60    5.70
  -2   2  16   41.50   12.50
  -2  -2  16   45.80    5.90
   2   2  16   68.19    7.50
   2  -2 -16   61.19    7.00
  -2   2 -16   65.89    6.10
  -2   2 -16   53.59    6.70
  -2   2 -16   59.19    5.50
  -2  -2  16   61.69    6.70
   3   2 -16   43.50    5.30
   3  -2  16   40.40    4.80
  -3   2  16   34.40    5.00
   3  -2  16   50.59    6.40
   3   2 -16   44.00    5.30
   3  -2  16   39.30    5.50
  -3  -2 -16   34.50    5.80
  -3   2  16   35.30    5.00
  -3   2  16   59.89   15.80
  -3  -2 -16   43.50    5.60
   3   2  16   56.29    6.90
  -3   2 -16   36.50    4.80
  -3  -2  16   34.40   11.50
  -3  -2  16   51.29    6.50
   3  -2 -16   51.49    6.50
  -3  -2  16   33.60    5.20
  -3   2 -16   36.50    5.40
   3   2  16   38.90    4.90
   4   2 -16   29.80    4.80
   4  -2  16   27.90    5.50
   4   2 -16   35.10    4.90
  -4   2  16   29.20    5.60
   4  -2  16   33.80    5.00
  -4  -2 -16   29.60    4.80
  -4  -2 -16   23.90    4.60
  -4   2  16   39.40   15.80
  -4  -2  16   32.70   13.10
  -4   2 -16   43.60    6.40
  -4   2 -16   38.90    5.60
   4   2  16   32.20    5.70
  -4  -2  16   32.10    5.50
   4  -2 -16   29.30    5.50
  -4  -2  16   31.60    5.00
  -5  -2 -16   35.50    6.00
  -5  -2 -16   30.50    5.60
   5   2 -16   24.70    5.10
   5   2 -16   22.80    4.70
  -5   2  16   48.70   14.90
   5  -2  16   27.00    4.80
  -5   2  16   39.30    5.60
   5  -2  16   35.40    6.10
  -5  -2  16   30.60    4.90
  -5  -2  16   36.20   13.60
  -5   2 -16   27.90    5.70
  -5   2 -16   27.60    5.40
   5   2  16   28.90    5.60
  -5  -2  16   28.10    5.40
   5  -2 -16   16.30    4.70
   0  -3 -16   23.80    3.80
   0   3 -16   26.60    4.10
   0   3 -16   22.30    4.20
   0   3  16   24.10    6.90
   0  -3  16   20.60    5.00
   0  -3 -16   32.60    5.30
   0   3  16   21.30    4.60
   0  -3  16   27.50    4.40
  -1   3  16    6.70    8.10
   1  -3  16    7.50    3.70
  -1  -3 -16   11.30    3.30
   1  -3  16    7.90    4.00
   1   3 -16    7.80    3.40
  -1   3  16   10.00    3.00
  -1  -3 -16   12.20    3.40
   1   3 -16    9.70    3.10
  -1  -3  16    7.50    3.60
   1   3  16    8.70    3.60
  -1   3 -16    9.00    4.00
   1  -3 -16   11.80    4.10
  -1   3 -16    8.60    2.80
  -1  -3  16   12.50    4.70
  -1   3 -16   12.10    3.50
  -2  -3 -16   33.10    5.10
  -2   3  16   37.20   12.30
   2  -3  16   36.30    5.80
  -2   3  16   45.90    5.80
  -2  -3 -16   45.00    6.30
   2   3 -16   47.20    5.90
   2   3  16   38.70    5.40
  -2   3 -16   39.10    5.80
  -2  -3  16   40.30    5.70
   2  -3 -16   47.10    6.50
  -2   3 -16   45.20    5.20
  -2   3 -16   35.90    4.70
  -3  -3 -16    3.40    3.30
   3  -3  16    3.20    3.00
   3   3 -16    4.60    3.20
   3  -3  16   -8.40    2.80
   3  -3  16   -5.10    2.90
  -3   3  16   -2.30    3.20
  -3   3  16   -0.80    2.50
  -3  -3 -16    5.00    3.60
  -3   3  16   -2.30    8.10
  -3   3 -16    1.30    3.50
  -3   3 -16   -0.20    2.70
   3  -3 -16    0.90    3.40
  -3  -3  16    3.00    3.40
  -3   3 -16    2.40    2.50
   3   3  16    5.90    3.60
   3  -3 -16   -2.50    2.10
   4  -3  16    5.00    3.20
  -4  -3 -16   11.60    4.20
  -4  -3 -16   10.90    4.50
  -4   3  16   10.60    4.30
   4  -3  16   13.20    4.10
   4   3 -16    7.40    3.20
   4  -3  16   16.10    4.50
   4   3 -16    8.90    4.00
  -4   3  16   31.00   15.40
   4   3 -16   13.60    4.80
   4  -3 -16   18.80    4.50
  -4  -3  16    6.50    4.90
  -4   3 -16   13.60    4.10
  -4   3 -16   15.50    5.00
   4   3  16   22.00    5.10
   5  -3  16   14.60    5.10
   5   3 -16   18.50    4.90
  -5   3  16   22.40    5.10
  -5   3  16   31.90   18.30
  -5  -3 -16   17.70    4.40
   5  -3  16   22.10    4.80
   5   3 -16   23.80    5.00
  -5  -3 -16   21.50    4.90
   5  -3 -16   27.00    5.70
  -5   3 -16   19.80    4.40
  -5  -3  16   26.70    6.10
  -5   3 -16   29.70    7.00
  -5  -3  16   28.50   12.00
   5   3  16   18.80    5.30
   0  -4 -16    1.20    1.90
   0   4 -16   -0.80    2.70
   0  -4 -16    0.60    2.20
   0   4 -16    0.40    2.30
   0  -4 -16   -0.70    3.10
   0  -4  16    0.70    2.60
   0   4  16    0.40    3.00
   0   4  16    5.20    4.30
  -1   4  16   64.39    6.60
   1  -4  16   63.29    6.50
   1   4 -16   53.89    6.00
   1  -4  16   57.99    6.10
  -1   4  16   57.79   12.40
  -1  -4 -16   65.59    6.30
   1   4 -16   63.19    6.40
  -1  -4 -16   61.69    7.10
   1  -4 -16   61.99    7.00
   1  -4 -16   59.69    7.00
  -1  -4  16   62.39    6.50
   1  -4 -16   51.19    6.40
  -1   4 -16   62.79    7.00
   1   4  16   63.39    7.10
  -1   4 -16   54.89    5.90
   2   4 -16   74.69    7.10
  -2   4  16   59.09    6.40
   2  -4  16   72.79    7.30
   2   4 -16   52.69    6.30
  -2  -4 -16   68.09    7.30
  -2  -4 -16   60.59    6.40
  -2   4  16   64.19   13.10
  -2  -4 -16   61.59    6.40
  -2   4 -16   59.29    6.00
   2  -4 -16   51.69    6.30
   2  -4 -16   62.19    6.70
   2   4  16   50.89    6.60
  -2   4 -16   61.59    7.10
  -2   4 -16   68.89    6.20
  -2  -4  16   76.19    8.20
   3  -4  16   26.30    4.60
  -3  -4 -16   15.70    4.50
  -3  -4 -16   23.90    5.10
   3  -4  16   15.20    4.00
   3   4 -16   29.70    4.70
  -3   4  16   14.10   12.80
  -3   4  16   21.70    4.00
   3  -4  16   29.40    5.30
  -3  -4  16    7.00    5.30
  -3   4 -16   20.00    3.60
   3  -4 -16   17.30    4.30
   3   4  16   23.00    4.60
  -3   4 -16   29.40    5.90
  -3   4 -16   26.70    4.80
  -4  -4 -16   18.60    4.40
  -4   4  16   21.50   16.10
   4  -4  16   15.00    4.60
  -4  -4 -16   19.50    4.70
   4  -4  16   24.80    5.80
   4   4 -16   18.00    4.70
   4   4 -16   20.70    4.90
   4  -4  16   14.00    3.40
  -4   4 -16   24.20    5.50
   4   4  16   15.20    4.30
  -4   4 -16   20.50    4.70
  -4  -4  16   18.60    5.80
   4  -4 -16   25.20    5.60
   0   5 -16  113.89    7.80
   0  -5 -16  111.69    7.60
   0  -5  16  105.69    8.70
   0  -5 -16  114.49    8.20
   0   5 -16  122.99    8.00
   0  -5 -16  128.99    8.40
   0   5  16  112.49    8.60
   0   5  16  164.78   16.50
  -1  -5 -16   17.60    4.00
  -1   5  16   21.00    8.90
   1  -5  16   18.80    4.70
   1   5 -16   15.10    4.10
  -1  -5 -16   24.10    4.60
  -1  -5 -16   24.00    4.60
   1   5 -16   30.30    5.30
  -1   5  16   20.40    4.00
   1  -5  16   20.20    4.80
   1  -5 -16   27.20    4.80
   1  -5 -16   21.70    3.80
  -1   5 -16   21.50    5.20
   1   5  16   22.40    5.10
  -1  -5  16   20.40    5.20
  -1   5 -16   25.80    4.30
   1  -5 -16   26.00    5.40
  -2  -5 -16    9.40    4.30
   2   5 -16   18.30    3.60
  -2   5  16   11.50   10.10
  -2  -5 -16   10.70    3.90
  -2  -5 -16   20.80    3.80
  -2   5  16   13.10    3.40
   2   5 -16   21.10    4.10
   2  -5  16    8.50    4.50
   2  -5  16   17.90    4.60
  -2   5 -16   10.20    3.50
  -2   5 -16   11.30    3.20
   2  -5 -16   10.60    3.30
  -2   5 -16   11.60    4.60
  -2  -5  16   10.00    3.90
   2   5  16   11.60    4.50
   2  -5 -16    9.60    3.80
   3  -5  16   44.40    6.80
   3  -5  16   45.20    6.30
  -3  -5 -16   47.80    6.60
  -3  -5 -16   56.19    6.30
  -3   5  16   70.39   16.30
   3  -5  16   52.09    6.40
  -3  -5 -16   52.49    6.10
  -3   5 -16   51.39    5.70
   3  -5 -16   52.49    7.00
  -3   5 -16   30.20    6.10
  -3  -5  16   46.90    6.30
   3   5  16   40.20    6.50
   4  -5  16   19.70    5.50
  -4  -5 -16   27.10    5.10
   4   5 -16   23.90    5.40
   4  -5  16   19.10    4.70
   4  -5  16   18.70    4.60
  -4  -5 -16   23.10    4.30
   4   5  16   30.40    5.40
   4  -5 -16   29.20    5.20
  -4   5 -16   25.90    4.50
   0  -6 -16   10.50    4.30
   0   6 -16   10.40    4.10
   0   6  16    6.50    4.00
   0   6 -16    6.20    3.80
   0  -6 -16    4.80    3.30
   0  -6 -16    5.90    3.10
   0  -6  16    0.50    4.00
  -1  -6 -16   30.10    5.40
  -1  -6 -16   39.20    5.80
  -1  -6 -16   31.10    5.00
  -1   6  16   27.60    5.20
   1  -6  16   22.90    4.90
   1   6 -16   30.20    4.80
   1   6 -16   30.10    5.00
  -1   6  16   41.20   10.30
   1  -6 -16   31.80    4.60
  -1  -6  16   36.60    6.20
   1   6  16   25.50    4.80
  -1   6 -16   30.00    4.80
   1  -6 -16   27.10    5.00
   1  -6 -16   34.40    5.70
  -1   6 -16   34.10    5.20
   2   6 -16   50.89    6.60
  -2  -6 -16   49.80    6.40
  -2  -6 -16   47.90    6.20
  -2   6  16   53.69    6.50
  -2   6  16   59.29   13.50
   2  -6  16   40.90    6.70
   2  -6  16   40.40    6.70
   2  -6  16   49.30    6.00
  -2  -6  16   39.40    5.60
   2  -6 -16   47.60    7.00
   2   6  16   46.30    6.30
  -2   6 -16   61.39    7.30
  -2   6 -16   51.59    6.30
  -3  -6 -16   11.60    4.50
   3  -6  16    7.30    4.10
   3  -6  16    5.10    3.40
   3  -6  16    7.50    4.80
   3   6 -16    7.00    4.40
  -3  -6 -16    8.00    3.10
  -3   6 -16    8.70    3.60
  -3  -6  16    5.30    3.80
   3   6  16    5.70    3.50
  -3   6 -16    9.70    3.90
   3  -6 -16   11.20    4.90
   0   7 -16    6.80    3.20
   0   7 -16    0.60    3.20
   0  -7  16    6.50    4.50
   0  -7 -16    3.40    2.70
   0  -7 -16    3.40    2.50
   0   7  16    2.10    3.60
  -1  -7 -16    0.50    3.40
  -1  -7 -16    5.00    3.60
  -1  -7 -16    2.00    3.00
  -1   7  16   10.40    4.00
   1  -7  16    2.80    2.60
  -1   7 -16    7.10    3.80
  -1   7 -16    1.40    3.70
  -1  -7  16    4.80    4.60
   1   7  16    4.60    4.00
   1  -7 -16    6.90    3.50
   1  -7 -16    1.70    3.30
   0   0  17    1.30    3.30
   0   0 -17    5.10    3.80
  -1   0 -17   79.69    7.70
   1   0  17  101.39    8.50
  -1   0  17   92.59    7.50
   1   0 -17   85.09    7.20
  -1   0  17   85.79   12.60
  -1   0  17   88.09    8.10
  -1   0 -17   86.49    5.90
  -2   0 -17  155.08    9.50
  -2   0  17  170.68   10.70
   2   0  17  169.88   10.60
  -2   0  17  161.68   20.60
  -2   0  17  158.38    9.70
  -2   0 -17  171.98    8.80
   2   0 -17  174.28   10.40
  -3   0  17  -10.70    9.00
   3   0 -17    0.60    2.00
   3   0  17   -0.90    3.10
  -3   0  17   -2.40    4.20
  -3   0 -17    1.30    2.30
  -3   0  17   -4.20    2.70
  -3   0 -17    5.90    3.80
   3   0  17    6.40    3.70
  -4   0  17    2.40    3.30
   4   0 -17    0.80    3.10
  -4   0 -17   -0.40    3.50
  -4   0 -17   -0.20    2.60
   4   0  17   -3.90    2.70
   4   0  17   -3.90    3.30
  -4   0  17    2.20    3.00
  -4   0  17   -5.20   10.70
   0  -1  17   59.09    7.00
   0   1  17   64.89   10.10
   0  -1 -17   59.69    6.70
   0  -1  17   59.79    6.50
   0   1 -17   74.39    7.60
   0   1  17   50.79    6.10
  -1  -1 -17   42.20    6.20
  -1   1  17   48.40    6.50
   1   1 -17   33.60    5.80
  -1   1  17   34.40    9.80
  -1   1  17   30.50    4.90
   1  -1  17   38.10    6.00
  -1  -1 -17   35.20    4.80
  -1  -1  17   35.80    5.20
  -1   1 -17   31.30    5.70
  -1  -1  17   32.70    6.00
  -1   1 -17   32.70    4.90
  -1   1 -17   34.10    4.60
   1  -1 -17   48.40    6.70
   1   1  17   31.80    4.90
   2   1 -17   25.60    5.10
   2  -1  17   32.50    5.60
  -2  -1 -17   24.60    4.70
  -2  -1 -17   17.10    4.00
  -2   1  17   22.00    5.20
  -2   1  17   23.60    4.70
  -2   1  17   27.80   10.80
  -2   1 -17   19.40    4.10
   2   1  17   12.00    4.50
  -2  -1  17   15.20    4.40
  -2   1 -17   27.10    5.50
   2  -1 -17   19.70    5.00
  -2  -1  17   23.00    5.40
  -3  -1 -17   18.40    4.80
  -3   1  17   23.80    5.40
   3   1 -17   16.40    4.40
  -3   1  17   20.20   12.40
   3  -1  17    8.90    4.20
  -3  -1 -17   11.00    3.90
   3  -1  17   17.20    4.60
  -3   1  17   19.00    4.40
   3   1  17   14.30    3.80
  -3  -1  17   13.70    5.30
  -3   1 -17   10.20    3.90
  -3  -1  17   13.60    3.50
  -3  -1  17   18.90   10.90
  -3   1 -17   15.40    4.80
   3   1  17   18.90    5.00
   3  -1 -17   25.40    5.10
  -4   1  17    4.70    3.40
   4   1 -17    7.80    3.80
   4  -1  17    7.70    3.20
  -4  -1 -17    8.70    4.30
  -4   1  17   23.70   13.80
  -4   1  17   -2.80    4.30
  -4  -1 -17    6.00    3.30
   4  -1  17    9.30    4.20
  -4   1 -17   15.10    3.90
   4  -1 -17   18.20    4.90
  -4   1 -17   12.00    4.80
  -4  -1  17    9.50    4.10
  -4  -1  17    9.20    3.00
  -4  -1  17    9.80    9.40
   4   1  17   13.70    4.00
   4   1  17    6.40    4.20
   0   2  17   -1.90    3.00
   0  -2  17    7.80    3.30
   0   2 -17    4.10    3.80
   0  -2 -17    8.20    3.10
   0   2  17    9.50    4.70
   0   2 -17    8.90    2.70
   0  -2 -17   13.20    3.60
   0  -2  17    9.50    4.40
  -1   2  17   52.39   11.50
  -1  -2 -17   68.69    5.60
  -1   2  17   58.09    6.40
   1  -2  17   65.09    7.30
  -1  -2 -17   36.90    5.90
   1   2 -17   49.60    5.90
  -1   2 -17   69.09    7.10
  -1   2 -17   51.19    6.30
   1  -2 -17   52.99    6.60
   1   2  17   59.59    7.20
  -1   2 -17   50.79    5.30
  -1  -2  17   56.89    6.90
  -1  -2  17   50.49    6.10
  -2  -2 -17   10.80    3.40
  -2  -2 -17    5.60    2.70
  -2   2  17    4.40    3.00
  -2   2  17    7.50    3.30
   2  -2  17    8.50    4.00
   2   2 -17    9.90    4.00
  -2   2  17    5.50    9.40
  -2   2 -17    7.20    3.10
  -2  -2  17    7.90    3.20
   2  -2 -17    2.60    2.80
  -2  -2  17   10.00    4.90
   2   2  17   11.60    3.50
  -2   2 -17    0.40    2.70
  -3   2  17   38.00    5.20
  -3   2  17   29.70   13.60
   3   2 -17   34.80    5.60
  -3  -2 -17   24.60    5.30
  -3  -2 -17   28.30    5.00
   3  -2  17   40.70    6.20
   3  -2  17   34.30    6.00
  -3   2  17   28.60    4.80
  -3  -2  17   28.70    6.20
   3  -2 -17   25.80    5.50
  -3   2 -17   32.70    5.30
  -3   2 -17   34.50    6.20
  -3  -2  17   35.50    5.70
   3   2  17   23.30    5.20
  -4   2  17    8.00    4.70
   4  -2  17   17.30    4.40
  -4  -2 -17   14.00    3.80
   4  -2  17   16.30    3.80
   4   2 -17   27.40    5.20
  -4   2  17   22.90   11.50
  -4  -2 -17    6.60    3.90
  -4   2 -17   17.20    4.20
  -4   2 -17   16.10    3.90
  -4  -2  17   14.50    5.70
   4   2  17   10.50    4.50
  -4  -2  17   10.30   13.20
  -4  -2  17   10.80    4.10
   0   3  17   37.60    5.40
   0  -3  17   45.00    6.60
   0   3  17   35.40    8.50
   0  -3 -17   36.40    5.40
   0  -3  17   31.00    5.00
   0   3 -17   33.40    5.60
   0   3 -17   34.20    5.10
   0  -3 -17   31.70    4.40
   1   3 -17    0.60    2.30
  -1   3  17   -5.10    6.90
   1   3 -17   -0.10    3.10
   1  -3  17    2.40    3.60
  -1   3  17    7.50    3.60
  -1  -3 -17    1.60    2.80
  -1  -3 -17   -1.60    2.30
  -1  -3  17    1.20    3.10
   1   3  17    1.90    2.60
  -1   3 -17    0.70    3.50
  -1   3 -17    3.10    2.00
  -1  -3  17   -1.10    2.30
   1  -3 -17   -2.50    2.00
  -2  -3 -17    9.10    3.40
  -2   3  17   11.60    9.70
   2   3 -17   15.00    4.20
  -2  -3 -17   14.40    4.20
  -2   3  17   15.00    4.20
   2  -3  17   18.00    4.80
  -2   3 -17   24.10    5.40
  -2  -3  17   12.10    5.20
  -2  -3  17   16.50    3.90
  -2   3 -17   12.10    3.50
  -2   3 -17   15.60    3.80
   2  -3 -17   18.30    5.10
   2   3  17   10.60    4.40
  -3   3  17    7.40    3.50
   3  -3  17   11.80    4.70
   3  -3  17    1.00    3.20
   3  -3  17    2.80    3.70
  -3   3  17    5.70    3.90
  -3  -3 -17    4.40    3.90
   3   3 -17    5.80    2.70
   3   3 -17   -0.50    2.30
  -3   3  17   -4.90   11.50
  -3  -3 -17    8.00    3.10
   3   3  17    2.90    2.90
  -3  -3  17   -0.30    4.70
  -3   3 -17    2.60    3.20
   3  -3 -17    1.80    3.70
  -3  -3  17    3.50    3.70
  -3   3 -17    5.70    3.40
   3  -3 -17    2.00    2.80
  -4  -3 -17    9.20    4.30
  -4   3  17   18.70   15.00
  -4   3  17    7.30    4.10
   4   3 -17    7.70    3.80
  -4  -3 -17    5.60    4.20
   4   3 -17   13.20    3.90
   4  -3  17    8.60    3.70
   4  -3  17    6.90    3.90
   4  -3 -17   -0.90    2.70
   4   3  17    9.10    3.60
  -4  -3  17   10.60    4.00
  -4   3 -17    8.90    3.30
  -4   3 -17   11.60    4.60
  -4  -3  17   13.80    5.10
   0  -4  17   35.80    5.50
   0  -4 -17   28.30    5.00
   0   4  17   25.80    4.60
   0   4  17   40.20    8.70
   0  -4 -17   26.70    4.30
   0   4 -17   31.90    5.10
   0  -4  17   16.90    4.80
   0  -4 -17   19.30    4.70
   0   4 -17   26.50    5.30
  -1  -4 -17   32.20    5.40
   1   4 -17   41.20    5.40
  -1  -4 -17   38.60    5.60
   1   4 -17   32.20    5.20
  -1  -4 -17   46.20    5.20
  -1   4  17   40.50    5.80
   1  -4  17   40.90    5.60
  -1   4  17   43.60   10.40
  -1  -4  17   37.70    6.00
   1   4  17   37.80    6.30
  -1   4 -17   45.60    5.80
   1  -4 -17   33.80    5.80
   1  -4 -17   51.09    6.40
  -1  -4  17   35.70    6.20
  -1   4 -17   39.90    5.90
   2  -4  17    0.70    2.60
  -2  -4 -17    8.70    3.00
  -2  -4 -17    3.40    2.50
   2   4 -17    8.40    3.70
  -2  -4 -17    7.00    4.00
  -2   4  17    5.30    7.00
  -2   4  17    6.50    3.40
   2   4  17    8.80    3.30
  -2   4 -17    2.00    3.00
  -2   4 -17    3.80    3.10
  -2  -4  17    2.20    3.50
   2  -4 -17    2.00    3.90
   2  -4 -17    9.20    4.40
  -2   4 -17    7.70    4.50
   3  -4  17   26.30    5.30
  -3  -4 -17   22.40    5.00
   3  -4  17   29.90    6.30
  -3   4  17   23.10   12.70
  -3  -4 -17   20.60    4.40
   3  -4  17   19.30    4.20
  -3   4 -17   28.30    5.20
  -3  -4  17   25.30    5.30
   3   4  17   24.40    5.90
  -3   4 -17   25.70    5.20
  -3   4 -17   16.20    3.40
   3  -4 -17   23.30    5.50
   0   5  17   39.20    6.20
   0  -5 -17   39.60    4.80
   0  -5 -17   41.20    6.30
   0   5 -17   41.00    6.00
   0   5 -17   49.30    6.60
   0  -5 -17   30.60    5.70
   0  -5  17   27.20    5.60
   1   5 -17   -5.60    2.60
  -1  -5 -17    2.90    3.50
  -1   5  17    3.80    3.30
   1   5 -17    2.10    2.40
   1  -5  17    2.60    3.80
  -1  -5 -17    0.70    3.10
  -1  -5 -17   -1.70    2.90
  -1   5  17    1.70    4.80
   1  -5 -17    1.50    2.50
  -1   5 -17    0.00    3.10
   1   5  17    3.10    3.40
   1  -5 -17    3.30    3.90
  -1   5 -17   -0.70    2.20
  -1  -5  17   -0.80    2.80
   2  -5  17    2.10    3.90
   2   5 -17   -1.20    3.20
   2  -5  17   -3.40    3.40
   2   5 -17    2.50    2.50
  -2   5  17    5.40    8.80
  -2  -5 -17    1.10    2.60
  -2  -5 -17    5.60    3.70
   2  -5  17    3.00    3.20
  -2   5  17    2.80    3.40
   2  -5 -17    1.70    3.40
  -2   5 -17    1.80    3.20
   2   5  17    3.60    4.30
  -2   5 -17    2.80    3.00
  -2  -5  17    3.80    4.70
   2  -5 -17    4.60    3.30
   0   6 -17   41.40    6.30
   0   6  17   43.80    6.50
   0  -6 -17   40.90    6.10
   0  -6  17   52.79    6.80
   0  -6 -17   42.10    5.60
   0  -6 -17   47.30    6.90
   0   6 -17   49.70    6.10
  -1  -6 -17    6.80    3.20
  -1  -6 -17    6.60    3.90
  -1   6 -17    1.90    3.60
  -1  -6  17    7.50    4.00
  -1   6 -17    8.60    4.40
   0   0 -18   21.50    4.50
   0   0  18   32.10    5.90
  -1   0  18   22.10    4.70
  -1   0 -18   26.00    4.90
   1   0 -18   15.40    4.90
   1   0  18   22.10    5.10
  -1   0  18   22.40    5.10
   2   0  18    3.80    3.10
   2   0 -18    3.50    3.70
  -2   0  18   -1.50    7.90
  -2   0  18    5.70    3.30
  -2   0 -18    5.80    3.50
  -2   0 -18   -0.10    2.80
  -2   0  18   -0.20    2.10
  -3   0  18   15.90    4.30
  -3   0  18    8.60    3.80
   3   0  18    8.20    3.60
  -3   0  18    3.90   10.50
  -3   0 -18    8.20    4.30
   3   0  18    5.60    3.00
   3   0 -18   16.00    4.70
  -3   0 -18   13.80    4.20
   0   1 -18   -2.80    3.40
   0  -1  18    3.30    3.60
   0   1  18    3.40    3.90
   0  -1 -18   -0.20    2.50
  -1   1  18   79.69    7.50
  -1   1  18   65.39   11.50
   1  -1  18   82.59    8.60
  -1  -1 -18   63.39    6.10
   1   1 -18   63.29    7.40
  -1  -1 -18   78.39    8.10
  -1   1 -18   88.79    9.00
  -1  -1  18   73.99    7.80
  -1  -1  18   73.29    7.40
   1   1  18   62.79    6.90
   1  -1 -18   73.49    7.50
   2   1 -18   18.30    4.90
  -2   1  18   16.20    9.30
  -2   1  18   22.00    5.30
  -2  -1 -18   13.10    3.70
   2  -1  18   14.90    4.00
  -2  -1 -18   17.70    4.30
  -2   1  18   14.20    4.30
  -2  -1  18   16.40    4.60
  -2   1 -18   21.80    3.90
  -2   1 -18   18.20    5.20
   2   1  18   24.60    5.60
  -2  -1  18   17.00    5.30
   2  -1 -18   20.20    4.50
  -3   1  18    5.30    3.80
   3  -1  18   -1.40    2.50
  -3   1  18   -5.50    6.90
   3   1 -18    6.50    3.70
  -3   1  18    3.00    4.20
  -3  -1 -18   -1.80    3.10
  -3  -1 -18   -1.70    3.90
   3  -1  18    1.50    2.50
  -3  -1  18    9.40    3.80
   3   1  18    1.90    2.80
  -3   1 -18   -0.70    2.60
   3   1  18    0.10    3.10
  -3  -1  18   10.40    3.80
   3  -1 -18   -1.00    3.70
  -3   1 -18    1.60    2.30
   0  -2  18   10.80    4.30
   0  -2 -18    0.60    3.60
   0   2  18    7.60    3.10
   0  -2  18    6.30    4.40
   0   2 -18    4.70    3.80
   1   2 -18    2.20    2.80
  -1  -2 -18    4.20    2.30
   1  -2  18    3.60    3.90
  -1  -2 -18    7.20    4.10
  -1   2  18    2.40    6.40
  -1   2  18   -1.10    3.30
  -1  -2  18   -1.50    2.80
   1   2  18    6.70    3.50
  -1   2 -18    4.90    3.20
  -1  -2  18   -1.30    2.40
  -1   2 -18    7.90    4.20
   1  -2 -18    1.00    2.60
  -2  -2 -18   18.10    4.40
  -2  -2 -18   12.60    3.30
  -2   2  18   15.60    3.90
   2  -2  18   13.10    4.60
  -2   2  18   24.80   10.80
   2   2 -18   13.60    3.80
  -2   2 -18   13.90    5.00
  -2  -2  18   14.40    4.50
  -2   2 -18   16.40    3.40
  -2  -2  18   11.70    5.20
   2  -2 -18   24.20    5.40
   2   2  18   16.80    5.00
   3  -2  18    8.50    4.30
   3  -2  18   23.90    4.90
  -3   2  18   11.80    4.70
  -3   2  18    9.10   11.30
   3   2 -18   16.80    4.60
  -3  -2 -18   15.20    4.50
  -3   2  18   15.50    3.60
  -3  -2 -18   17.90    5.20
  -3   2 -18   14.30    3.50
  -3  -2  18   19.80    4.20
   3   2  18   21.80    4.70
   3  -2 -18   22.90    4.90
  -3   2 -18   16.90    5.90
  -3  -2  18   16.60    5.40
   0   3 -18    3.70    3.90
   0  -3  18    3.70    3.80
   0  -3 -18    1.60    3.90
   0  -3  18    3.90    4.40
   0   3  18    7.80    4.10
   0   3 -18    0.00    2.60
  -1  -3 -18   11.00    4.40
  -1   3  18    3.30    2.60
   1  -3  18    5.20    3.10
  -1  -3 -18    4.00    3.30
   1   3 -18    9.70    3.50
  -1   3  18    4.30    6.60
  -1   3 -18    8.50    3.50
  -1  -3  18    7.70    4.20
   1  -3 -18   10.30    4.30
  -1   3 -18   14.60    4.20
  -1  -3  18    7.10    3.40
   1   3  18    8.00    4.00
  -2   3  18   26.90    5.20
   2   3 -18   20.20    4.90
  -2   3  18   27.20   10.80
  -2  -3 -18   12.60    3.90
   2  -3  18   15.30    4.50
  -2  -3 -18   31.80    5.30
   2  -3  18   22.70    5.40
   2   3  18   22.10    4.60
  -2  -3  18   23.00    5.10
  -2   3 -18   26.30    5.10
   2  -3 -18   27.40    5.10
  -2  -3  18   19.40    5.00
   0  -4 -18   -3.80    3.20
   0  -4 -18    1.50    3.60
   0  -4  18   -0.60    2.70
   0   4  18    2.60    3.60
   0   4 -18    2.30    2.40
   0   4 -18   -1.30    3.50
   0  -4  18    6.00    3.30
   1   4 -18    8.20    3.80
   1   4 -18    6.60    3.90
  -1  -4 -18    4.50    2.60
  -1  -4 -18    2.60    3.30
   1  -4  18    6.90    4.20
  -1   4  18   11.50    3.60
  -1  -4 -18   11.80    4.50
  -1   4  18   22.90    8.00
   1  -4 -18    2.30    4.30
   1   4  18   11.80    3.90
  -1   4 -18    6.60    2.80
   1  -4 -18    5.40    3.20
  -1   4 -18   11.50    3.90
  -1  -4  18    5.70    4.70
  -1  -4  18    6.00    4.10
   2  -4  18   29.20    5.00
  -2   4 -18   32.50    5.20
   0   0  19    3.80    3.90
   0   0 -19    5.20    3.30
   1   0 -19   -0.80    3.80
  -1   0  19   -0.60    3.60
   1   0  19    2.00    4.00
  -1   0 -19   -0.10    3.00
   0   1 -19   31.40    5.40
   0   1  19   37.00    6.60
   0  -1 -19   30.90    6.30
   0  -1  19   38.90    6.40
  -1   1  19   23.00    5.20
   1  -1  19   21.80    5.50
   1   1 -19   19.80    5.30
   1  -1 -19   17.70    4.80
  -1  -1  19   18.10    4.90
  -1  -1  19   22.40    5.90
   1   1  19   11.00    4.80
  -1   1 -19   10.00    5.50
   0   2 -19   77.39    9.30
   0   2  19   54.09    6.60
   0  -2  19   57.89    7.70
   1   2 -19   14.00    4.00
   0   0   0    0.00    0.00
_computing_structure_solution     'SHELXT 2014/5 (Sheldrick, 2014)'
;
_shelx_hkl_checksum              44097
_shelx_res_file
;
TITL hgpz10_0m_a.res in P2(1)2(1)2(1)
CELL  0.71073   6.6562   8.3692  12.5687   90.000   90.000   90.000
ZERR     4.00   0.0003   0.0004   0.0007    0.000    0.000    0.000
LATT  -1
SYMM  1/2 - X, - Y, 1/2 + Z
SYMM  - X, 1/2 + Y, 1/2 - Z
SYMM  1/2 + X, 1/2 - Y, - Z
SFAC  C    H    N    O
UNIT  16   24   16   16
temp -73
MERG   2
FMAP   2
PLAN   20
ACTA
BOND   $H
EQIV $1 x-1/2, -y+1/2, -z+1
HTAB N4 N2_$1
EQIV $2 x+1/2, -y+1/2, -z+1
HTAB N4 O1_$2
EQIV $3 -x+1/2, -y+1, z-1/2
HTAB N4 O2_$3
HTAB N4 O1
EQIV $4 x+1, y, z
HTAB N1 O2_$4
EQIV $5 -x+1, y+1/2, -z+3/2
HTAB C3 O2_$5
LIST   6
L.S.  6
WGHT    0.047600    0.075900
FVAR       1.31347
O1    4    0.210352    0.420636    0.568055    11.00000    0.02634    0.02754 =
         0.02872   -0.01187    0.00623   -0.00871
O2    4    0.107261    0.561677    0.707203    11.00000    0.01678    0.02848 =
         0.02013   -0.00368    0.00216    0.00147
O3    4    0.134348    0.875202    0.601919    11.00000    0.02982    0.03692 =
         0.03950    0.00397   -0.00195    0.01196
O4    4    0.372553    1.051103    0.605741    11.00000    0.06277    0.01838 =
         0.04402    0.00594    0.00725    0.00309
N1    3    0.738281    0.666142    0.647398    11.00000    0.01556    0.02783 =
         0.02802   -0.00237   -0.00173   -0.00315
N2    3    0.597801    0.548443    0.645917    11.00000    0.01552    0.02102 =
         0.02535   -0.00159   -0.00073    0.00041
N3    3    0.311870    0.912977    0.611190    11.00000    0.03656    0.02004 =
         0.01984    0.00157    0.00337    0.00680
C1    1    0.423040    0.622507    0.634336    11.00000    0.01550    0.01680 =
         0.01750   -0.00202    0.00060    0.00026
C2    1    0.455638    0.789172    0.628283    11.00000    0.02198    0.01690 =
         0.02004   -0.00041    0.00022    0.00014
C3    1    0.660570    0.811201    0.636343    11.00000    0.02415    0.02323 =
         0.02561   -0.00232   -0.00003   -0.00700
C4    1    0.231504    0.527806    0.635628    11.00000    0.01501    0.01756 =
         0.01700    0.00049   -0.00065    0.00002
N4    3    0.349456    0.246290    0.391527    11.00000    0.02574    0.01913 =
         0.02056   -0.00012    0.00197    0.00371
H41   2    0.254805    0.170928    0.381637    11.00000    0.03412
H42   2    0.472577    0.199571    0.405244    11.00000    0.04049
H43   2    0.369400    0.308205    0.330680    11.00000    0.02966
H44   2    0.317346    0.304878    0.444618    11.00000    0.03869
H1    2    0.857915    0.639885    0.662140    11.00000    0.04848
H3    2    0.730723    0.903109    0.635006    11.00000    0.03331
HKLF 4
REM  hgpz10_0m_a.res in P2(1)2(1)2(1)
REM R1 =  0.0330 for    2534 Fo > 4sig(Fo)  and  0.0352 for all    2667 data
REM    133 parameters refined using      0 restraints
END
WGHT      0.0478      0.0764
REM Highest difference peak  0.364,  deepest hole -0.245,  1-sigma level  0.053
Q1    1   0.5058  0.5775  0.6342  11.00000  0.05    0.36
Q2    1   0.5554  0.8130  0.6243  11.00000  0.05    0.34
Q3    1   0.4269  0.7029  0.6337  11.00000  0.05    0.31
Q4    1   0.3192  0.5854  0.6328  11.00000  0.05    0.29
Q5    1   0.6118  0.4726  0.6409  11.00000  0.05    0.23
Q6    1   0.3704  0.8429  0.6301  11.00000  0.05    0.21
Q7    1   0.1211  0.3898  0.5870  11.00000  0.05    0.17
Q8    1   0.4469  1.0770  0.6226  11.00000  0.05    0.17
Q9    1   0.9112  0.5335  0.5742  11.00000  0.05    0.17
Q10   1   0.3051  0.4044  0.5599  11.00000  0.05    0.16
Q11   1   0.1192  0.5399  0.6506  11.00000  0.05    0.16
Q12   1   0.6889  0.7365  0.6416  11.00000  0.05    0.16
Q13   1   0.2148  0.4423  0.6167  11.00000  0.05    0.16
Q14   1   0.3707  0.9971  0.6366  11.00000  0.05    0.15
Q15   1   0.6855  0.6024  0.6462  11.00000  0.05    0.15
Q16   1   0.6909  0.4795  0.6248  11.00000  0.05    0.15
Q17   1   0.5863  0.3168  0.3434  11.00000  0.05    0.15
Q18   1   0.0092  0.5465  0.6721  11.00000  0.05    0.15
Q19   1   0.1077  0.5138  0.7819  11.00000  0.05    0.15
Q20   1   0.2098  0.5613  0.7015  11.00000  0.05    0.14
;
_shelx_res_checksum              45304
_shelxl_version_number           2014/6
loop_
_space_group_symop_operation_xyz
'x, y, z'
'-x+1/2, -y, z+1/2'
'-x, y+1/2, -z+1/2'
'x+1/2, -y+1/2, -z'
loop_
_atom_site_type_symbol
_atom_site_label
_atom_site_fract_x
_atom_site_fract_y
_atom_site_fract_z
_atom_site_U_iso_or_equiv
_atom_site_adp_type
_atom_site_calc_flag
_atom_site_occupancy
O O1 0.21035(16) 0.42064(13) 0.56805(9) 0.0275(2) Uani d 1
O O2 0.10726(14) 0.56168(12) 0.70720(7) 0.02180(19) Uani d 1
O O3 0.13435(19) 0.87520(15) 0.60192(10) 0.0354(3) Uani d 1
O O4 0.3726(2) 1.05110(13) 0.60574(11) 0.0417(3) Uani d 1
N N1 0.73828(18) 0.66614(15) 0.64740(10) 0.0238(2) Uani d 1
N N2 0.59780(16) 0.54844(13) 0.64592(9) 0.0206(2) Uani d 1
N N3 0.3119(2) 0.91298(14) 0.61119(9) 0.0255(2) Uani d 1
C C1 0.42304(17) 0.62251(14) 0.63434(9) 0.0166(2) Uani d 1
C C2 0.45564(19) 0.78917(14) 0.62828(10) 0.0196(2) Uani d 1
C C3 0.6606(2) 0.81120(16) 0.63634(11) 0.0243(2) Uani d 1
C C4 0.23150(17) 0.52781(13) 0.63563(9) 0.0165(2) Uani d 1
N N4 0.34946(19) 0.24629(13) 0.39153(9) 0.0218(2) Uani d 1
H H41 0.255(3) 0.171(3) 0.3816(17) 0.034(5) Uiso d 1
H H42 0.473(4) 0.200(3) 0.405(2) 0.040(6) Uiso d 1
H H43 0.369(3) 0.308(3) 0.3307(17) 0.030(5) Uiso d 1
H H44 0.317(4) 0.305(3) 0.4446(18) 0.039(6) Uiso d 1
H H1 0.858(4) 0.640(3) 0.662(2) 0.048(7) Uiso d 1
H H3 0.731(3) 0.903(3) 0.6350(18) 0.033(5) Uiso d 1
loop_
_atom_site_aniso_label
_atom_site_aniso_U_11
_atom_site_aniso_U_22
_atom_site_aniso_U_33
_atom_site_aniso_U_12
_atom_site_aniso_U_13
_atom_site_aniso_U_23
O1 0.0263(5) 0.0275(5) 0.0287(5) -0.0087(4) 0.0062(4) -0.0119(4)
O2 0.0168(4) 0.0285(4) 0.0201(4) 0.0015(4) 0.0022(3) -0.0037(3)
O3 0.0298(6) 0.0369(6) 0.0395(6) 0.0120(5) -0.0020(5) 0.0040(5)
O4 0.0628(9) 0.0184(4) 0.0440(7) 0.0031(5) 0.0073(6) 0.0059(4)
N1 0.0156(5) 0.0278(5) 0.0280(5) -0.0032(4) -0.0017(4) -0.0024(4)
N2 0.0155(4) 0.0210(4) 0.0253(5) 0.0004(4) -0.0007(4) -0.0016(4)
N3 0.0366(6) 0.0200(5) 0.0198(5) 0.0068(4) 0.0034(4) 0.0016(4)
C1 0.0155(5) 0.0168(4) 0.0175(4) 0.0003(4) 0.0006(4) -0.0020(4)
C2 0.0220(5) 0.0169(5) 0.0200(5) 0.0001(4) 0.0002(4) -0.0004(4)
C3 0.0242(6) 0.0232(5) 0.0256(6) -0.0070(5) 0.0000(5) -0.0023(5)
C4 0.0150(5) 0.0176(5) 0.0170(4) 0.0000(4) -0.0006(4) 0.0005(4)
N4 0.0257(5) 0.0191(4) 0.0206(5) 0.0037(4) 0.0020(4) -0.0001(4)
loop_
_atom_type_symbol
_atom_type_description
_atom_type_scat_dispersion_real
_atom_type_scat_dispersion_imag
_atom_type_scat_source
C C 0.0033 0.0016 'International Tables Vol C Tables 4.2.6.8 and 6.1.1.4'
H H 0.0000 0.0000 'International Tables Vol C Tables 4.2.6.8 and 6.1.1.4'
N N 0.0061 0.0033 'International Tables Vol C Tables 4.2.6.8 and 6.1.1.4'
O O 0.0106 0.0060 'International Tables Vol C Tables 4.2.6.8 and 6.1.1.4'
loop_
_geom_angle_atom_site_label_1
_geom_angle_atom_site_label_2
_geom_angle_atom_site_label_3
_geom_angle
_geom_angle_publ_flag
C3 N1 N2 113.19(11) ?
C3 N1 H1 128.8(19) ?
N2 N1 H1 117.5(19) ?
C1 N2 N1 105.45(11) ?
O4 N3 O3 123.64(14) ?
O4 N3 C2 118.17(14) yes
O3 N3 C2 118.19(12) yes
N2 C1 C2 109.42(10) ?
N2 C1 C4 119.80(10) ?
C2 C1 C4 130.68(10) ?
C3 C2 C1 106.23(11) ?
C3 C2 N3 125.24(12) ?
C1 C2 N3 128.44(12) ?
N1 C3 C2 105.71(11) ?
N1 C3 H3 125.6(14) ?
C2 C3 H3 128.7(14) ?
O1 C4 O2 125.33(11) ?
O1 C4 C1 118.01(11) yes
O2 C4 C1 116.64(10) yes
H41 N4 H42 110(2) ?
H41 N4 H43 112.1(18) ?
H42 N4 H43 105(2) ?
H41 N4 H44 110(2) ?
H42 N4 H44 109(2) ?
H43 N4 H44 111(2) ?
loop_
_geom_bond_atom_site_label_1
_geom_bond_atom_site_label_2
_geom_bond_distance
_geom_bond_publ_flag
O1 C4 1.2432(15) yes
O2 C4 1.2544(15) yes
O3 N3 1.2287(19) ?
O4 N3 1.2264(16) ?
N1 C3 1.3269(19) yes
N1 N2 1.3583(16) yes
N1 H1 0.85(3) ?
N2 C1 1.3261(16) yes
N3 C2 1.4267(17) yes
C1 C2 1.4137(17) ?
C1 C4 1.5013(16) ?
C2 C3 1.3802(19) ?
C3 H3 0.90(2) ?
N4 H41 0.90(2) ?
N4 H42 0.92(3) ?
N4 H43 0.93(2) ?
N4 H44 0.86(2) ?
loop_
_geom_hbond_atom_site_label_D
_geom_hbond_atom_site_label_H
_geom_hbond_atom_site_label_A
_geom_hbond_site_symmetry_A
_geom_hbond_distance_DH
_geom_hbond_distance_HA
_geom_hbond_distance_DA
_geom_hbond_angle_DHA
N4 H41 N2 4_456 0.90(2) 2.14(2) 3.0186(16) 165(2)
N4 H42 O1 4_556 0.92(3) 1.91(3) 2.8249(16) 173(2)
N4 H43 O2 2_564 0.93(2) 1.90(2) 2.8343(14) 176(2)
N4 H44 O1 . 0.86(2) 1.96(2) 2.8123(15) 172(2)
N1 H1 O2 1_655 0.85(3) 1.87(3) 2.7132(16) 172(3)

_cod_database_fobs_code 2021474
