#------------------------------------------------------------------------------
#$Date: 2018-12-04 13:11:15 +0200 (Tue, 04 Dec 2018) $
#$Revision: 212337 $
#$URL: file:///home/coder/svn-repositories/cod/cif/2/02/13/2021397.cif $
#------------------------------------------------------------------------------
#
# This file is available in the Crystallography Open Database (COD),
# http://www.crystallography.net/. The original data for this entry
# were provided by IUCr Journals, http://journals.iucr.org/.
#
# The file may be used within the scientific community so long as
# proper attribution is given to the journal article from which the
# data were obtained.
#
data_2021397
loop_
_publ_author_name
'Dutkiewicz, Grzegorz'
'Dutkiewicz, Edward'
'Kubicki, Maciej'
_publ_contact_author
;
Maciej Kubicki
Faculty of Chemistry
Adam Mickiewicz University
Grunwaldzka 6
60-780 Pozna\'n
Poland 
;
_publ_section_title
;
 Cocrystals of pyrazine and benzene polycarboxylic acids
;
_publ_section_keywords
;
cocrystals; pyrazine; benzene carboxylic acids; hydrogen bonds; Hirshfeld
surface, crystal structure
;
_journal_coeditor_code           YP3167
_journal_issue                   11
_journal_name_full               'Acta Crystallographica Section C'
_journal_page_first              1420
_journal_page_last               1426
_journal_paper_doi               10.1107/S2053229618013669
_journal_volume                  74
_journal_year                    2018
_chemical_formula_iupac          'C4 H4 N2, C8 H6 O4'
_chemical_formula_moiety         'C4 H4 N2, C8 H6 O4'
_chemical_formula_sum            'C12 H10 N2 O4'
_chemical_formula_weight         246.22
_chemical_name_common
;
Pyrazine--phthalic acid (1/1)
;
_chemical_name_systematic
;
Pyrazine--benzene-1,2-dicarboxylic acid (1/1)
;
_space_group_crystal_system      triclinic
_space_group_IT_number           2
_space_group_name_Hall           '-P 1'
_space_group_name_H-M_alt        'P -1'
_symmetry_space_group_name_Hall  '-P 1'
_symmetry_space_group_name_H-M   'P -1'
_atom_sites_solution_hydrogens   difmap
_audit_creation_method           SHELXL-2014/7
_cell_angle_alpha                90.425(7)
_cell_angle_beta                 96.907(6)
_cell_angle_gamma                114.347(9)
_cell_formula_units_Z            2
_cell_length_a                   6.6714(5)
_cell_length_b                   7.3296(8)
_cell_length_c                   12.9870(9)
_cell_measurement_reflns_used    1538
_cell_measurement_temperature    100(1)
_cell_measurement_theta_max      27.9370
_cell_measurement_theta_min      3.5380
_cell_volume                     573.23(10)
_computing_cell_refinement
;
CrysAlis PRO (Rigaku OD, 2015)
;
_computing_data_collection
;
CrysAlis PRO (Rigaku OD, 2015)
;
_computing_data_reduction
;
CrysAlis PRO (Rigaku OD, 2015)
;
_computing_molecular_graphics
;
Mercury (Macrae <i>et al.</i>,  2008)
;
_computing_publication_material
;
SHELXL2014 (Sheldrick, 2015b)
;
_computing_structure_refinement
;
SHELXL2014 (Sheldrick, 2015b)
;
_computing_structure_solution
;
SHELXT (Sheldrick, 2015a)
;
_diffrn_ambient_environment      N~2~
_diffrn_ambient_temperature      100(1)
_diffrn_detector                 'CCD plate'
_diffrn_detector_area_resol_mean 16.1544
_diffrn_detector_type            Eos
_diffrn_measured_fraction_theta_full 0.972
_diffrn_measured_fraction_theta_max 0.828
_diffrn_measurement_device       'four-circle diffractometer'
_diffrn_measurement_device_type  'Rigaku Xcalibur Eos'
_diffrn_measurement_method       '\w scans'
_diffrn_radiation_monochromator  graphite
_diffrn_radiation_probe          x-ray
_diffrn_radiation_type           'Mo K\a'
_diffrn_radiation_wavelength     0.71073
_diffrn_reflns_av_R_equivalents  0.0165
_diffrn_reflns_av_unetI/netI     0.0325
_diffrn_reflns_Laue_measured_fraction_full 0.972
_diffrn_reflns_Laue_measured_fraction_max 0.828
_diffrn_reflns_limit_h_max       8
_diffrn_reflns_limit_h_min       -8
_diffrn_reflns_limit_k_max       8
_diffrn_reflns_limit_k_min       -9
_diffrn_reflns_limit_l_max       15
_diffrn_reflns_limit_l_min       -13
_diffrn_reflns_number            3698
_diffrn_reflns_point_group_measured_fraction_full 0.972
_diffrn_reflns_point_group_measured_fraction_max 0.828
_diffrn_reflns_theta_full        26.000
_diffrn_reflns_theta_max         28.060
_diffrn_reflns_theta_min         3.166
_diffrn_source                   'fine-focus sealed X-ray tube'
_diffrn_source_type              'Enhance (Mo) X-ray Source'
_exptl_absorpt_coefficient_mu    0.109
_exptl_absorpt_correction_T_max  1.00000
_exptl_absorpt_correction_T_min  0.82122
_exptl_absorpt_correction_type   multi-scan
_exptl_absorpt_process_details
;
(CrysAlis PRO; Rigaku OD, 2015)
;
_exptl_crystal_colour            colourless
_exptl_crystal_density_diffrn    1.427
_exptl_crystal_description       prism
_exptl_crystal_F_000             256
_exptl_crystal_size_max          0.45
_exptl_crystal_size_mid          0.15
_exptl_crystal_size_min          0.15
_refine_diff_density_max         0.250
_refine_diff_density_min         -0.220
_refine_diff_density_rms         0.041
_refine_ls_extinction_method     none
_refine_ls_goodness_of_fit_ref   1.057
_refine_ls_hydrogen_treatment    refall
_refine_ls_matrix_type           full
_refine_ls_number_parameters     203
_refine_ls_number_reflns         2308
_refine_ls_number_restraints     0
_refine_ls_restrained_S_all      1.057
_refine_ls_R_factor_all          0.0411
_refine_ls_R_factor_gt           0.0359
_refine_ls_shift/su_max          0.001
_refine_ls_shift/su_mean         0.000
_refine_ls_structure_factor_coef Fsqd
_refine_ls_weighting_details
'w=1/[\s^2^(Fo^2^)+(0.0416P)^2^+0.1017P] where P=(Fo^2^+2Fc^2^)/3'
_refine_ls_weighting_scheme      calc
_refine_ls_wR_factor_gt          0.0865
_refine_ls_wR_factor_ref         0.0910
_reflns_Friedel_coverage         0.000
_reflns_number_gt                2049
_reflns_number_total             2308
_reflns_threshold_expression     'I > 2\s(I)'
_cod_data_source_file            yp3167sup1.cif
_cod_data_source_block           1
_cod_original_cell_volume        573.23(9)
_cod_database_code               2021397
_shelx_shelxl_version_number     2014/7
_shelx_space_group_comment
;
The symmetry employed for this shelxl refinement is uniquely defined
by the following loop, which should always be used as a source of
symmetry information in preference to the above space-group names.
They are only intended as comments.
;
_exptl_absorpt_special_details
;
CrysAlisPro 1.171.38.43c (Rigaku Oxford Diffraction, 2015)
Empirical absorption correction using spherical harmonics,
implemented in SCALE3 ABSPACK scaling algorithm.
;
_shelx_res_file
;

    shelx.res created by SHELXL-2014/7


TITL mp4_1lty_a.res in P-1
CELL 0.71073 6.6714 7.3296 12.9870 90.425 96.907 114.347
ZERR 2       0.0005 0.0008  0.0009  0.007  0.006   0.009
LATT 1
SFAC C H N O
UNIT 24 20 4 8
omit -2 1 4

L.S. 4
PLAN -5
BOND $H

CONF
acta 52
temp -173

WGHT    0.041600    0.101700
FVAR       8.63941
C1A   1    0.137887    0.247408    0.693693    11.00000    0.01420    0.01436 =
         0.01575    0.00358    0.00117    0.00520
C2A   1    0.102994    0.357875    0.772853    11.00000    0.01551    0.01450 =
         0.01667    0.00269    0.00128    0.00405
C3A   1   -0.105455    0.289299    0.805716    11.00000    0.02049    0.01955 =
         0.01822    0.00081    0.00498    0.00755
rem afix  43
H3A   2   -0.131375    0.370837    0.861440    11.00000    0.02792
rem afix   0
C4A   1   -0.275694    0.109632    0.763057    11.00000    0.01413    0.02140 =
         0.02232    0.00625    0.00612    0.00447
rem afix  43
H4A   2   -0.416256    0.063059    0.787903    11.00000    0.02029
rem afix   0
C5A   1   -0.240494   -0.002106    0.686003    11.00000    0.01448    0.01429 =
         0.02357    0.00169   -0.00078    0.00170
rem afix  43
H5A   2   -0.358374   -0.128434    0.656933    11.00000    0.02508
rem afix   0
C6A   1   -0.034369    0.068254    0.651142    11.00000    0.01764    0.01551 =
         0.01748    0.00039   -0.00006    0.00647
rem afix  43
H6A   2   -0.009232   -0.004516    0.594603    11.00000    0.02334
rem afix   0
C7A   1    0.355658    0.330584    0.651839    11.00000    0.01486    0.01467 =
         0.01811    0.00246    0.00098    0.00646
O71A  4    0.376442    0.206011    0.583603    11.00000    0.01603    0.02021 =
         0.02468   -0.00380    0.00647    0.00404
rem afix 147
H71A  2    0.515138    0.269069    0.561844    11.00000    0.06987
rem afix   0
O72A  4    0.497323    0.498328    0.677120    11.00000    0.01729    0.01559 =
         0.03781   -0.00283    0.00992    0.00149
C8A   1    0.282347    0.548999    0.825482    11.00000    0.01832    0.02068 =
         0.01632   -0.00123    0.00650    0.00217
O81A  4    0.429877    0.515040    0.889785    11.00000    0.02762    0.02211 =
         0.02768    0.00264   -0.01102   -0.00427
rem afix 147
H81A  2    0.547524    0.639786    0.918768    11.00000    0.05592
rem afix   0
O82A  4    0.278750    0.712118    0.814005    11.00000    0.02241    0.01772 =
         0.04089   -0.00701    0.00758    0.00445
N1B   3    0.784222    0.394108    0.522806    11.00000    0.01605    0.01815 =
         0.02026    0.00467    0.00386    0.00840
C2B   1    0.860890    0.329240    0.446453    11.00000    0.01743    0.01739 =
         0.02086    0.00090    0.00213    0.00784
rem afix  43
H2B   2    0.765629    0.207260    0.405834    11.00000    0.02118
rem afix   0
C3B   1    1.075287    0.434868    0.423542    11.00000    0.01829    0.01868 =
         0.01930    0.00217    0.00422    0.00966
rem afix  43
H3B   2    1.132057    0.391277    0.369413    11.00000    0.01800
rem afix   0
N1C   3    0.795261    0.844100    0.965748    11.00000    0.02133    0.02123 =
         0.02040    0.00214   -0.00039    0.00272
C2C   1    0.975474    0.870475    0.922018    11.00000    0.03094    0.02095 =
         0.01707   -0.00231    0.00158    0.01044
rem afix  43
H2C   2    0.955312    0.779472    0.866953    11.00000    0.02653
rem afix   0
C3C   1    1.178996    1.025690    0.956204    11.00000    0.02243    0.02996 =
         0.02200    0.00412    0.00712    0.01069
rem afix  43
H3C   2    1.306689    1.044078    0.924391    11.00000    0.03116

rem afix   0
HKLF 4

REM  mp4_1lty_a.res in P-1
REM R1 =  0.0359 for    2049 Fo > 4sig(Fo)  and  0.0411 for all    2308 data
REM    203 parameters refined using      0 restraints

END

WGHT      0.0418      0.1010

REM Highest difference peak  0.250,  deepest hole -0.220,  1-sigma level  0.041
Q1    1   0.2389  0.2761  0.6825  11.00000  0.05    0.25
Q2    1   0.1350  0.2912  0.7424  11.00000  0.05    0.24
Q3    1   1.0554  0.5873  0.5825  11.00000  0.05    0.19
Q4    1  -0.2517  0.0669  0.7221  11.00000  0.05    0.18
Q5    1  -0.0031  0.3592  0.7634  11.00000  0.05    0.17
;
_shelx_res_checksum              12593
_shelx_hkl_file
;
   0   0   2 10555.0 167.883   1
   0   0   3 1813.21 92.9157   4
   0   0  -3 1649.72 81.1039   1
   0   0  -3 1871.76 93.5045   4
   0   0   3 1547.11 78.3053   1
   0   0  -4 9361.39 219.752   1
   0   0   4 9087.05 240.494   4
   0   0  -4 9467.85 247.775   4
   0   0   5 2920.44 153.997   4
   0   0  -5 2940.27 138.125   1
   0   0  -5 3053.11 157.570   4
   0   0  -6 4968.17 195.192   1
   0   0   6 4554.83 212.814   4
   0   0   7 7747.74 322.148   2
   0   0  -7 8338.87 265.995   1
   0   0   8 61427.8 1000.36   2
   0   0  -8 64103.5 800.041   1
   0   0   8 60993.1 913.477   4
   0   0   9 17964.1 541.035   4
   0   0   9 16253.0 549.407   2
   0   0  10 186.372 64.3661   4
   0   0  10 173.861 67.4027   2
   0   0  11 4390.76 331.875   2
   0   0  12 1987.87 229.374   2
   0   0  13 4071.77 341.446   2
   0   0  14 2821.85 298.322   2
   0   0  15 3454.06 348.972   2
   0  -1  15 2254.47 282.894   2
   0  -1  14 2623.27 292.169   2
   0  -1  13 379.317 108.071   2
   0  -1  12 2203.37 236.852   2
   0  -1  11 5218.51 351.561   2
   0  -1  10 16762.9 593.355   2
   0  -1   9 8543.95 397.742   2
   0  -1   8 7704.41 353.835   2
   0  -1   7 35.1010 38.4292   2
   0  -1   7-0.63052 8.24133   5
   0   1  -7 33.7091 20.4480   1
   0  -1   6 5165.95 249.780   2
   0  -1   6 5337.52 188.886   5
   0   1  -5 6859.02 261.801   2
   0  -1   5 6917.84 206.487   5
   0   1  -5 6425.28 237.769   4
   0  -1   5 6662.52 261.724   2
   0   1  -4 15971.3 363.478   2
   0  -1   4 15969.4 221.240   3
   0   1  -4 15442.2 337.875   4
   0  -1   4 15084.1 359.384   2
   0  -1   3 289720. 849.849   3
   0   1  -3 288041. 1371.21   2
   0  -1   3 286372. 1415.76   2
   0  -1   2 126355. 848.430   2
   0   1  -2 126878. 550.795   3
   0   1  -1 179.783 30.1800   2
   0  -1   1 148.166 29.4169   2
   0   1   1 149658. 825.817   2
   0  -1  -1 148429. 809.044   4
   0   1   1 149242. 761.646   4
   0   1   2 55923.5 453.347   1
   0  -1  -2 57333.9 516.074   4
   0   1   2 56346.7 501.930   4
   0   1   3 30593.5 414.765   4
   0  -1  -3 31124.1 362.621   1
   0  -1  -3 30486.9 419.186   4
   0   1   3 30338.0 368.517   1
   0   1   4 9709.73 263.989   4
   0  -1  -4 10163.4 225.859   1
   0   1   4 9718.18 227.360   1
   0  -1  -4 9897.21 265.122   4
   0  -1  -5 707.450 75.5299   4
   0  -1  -5 854.613 71.5698   1
   0   1   5 836.220 84.9164   4
   0   1   5 761.607 68.6197   1
   0   1   6 9289.62 271.220   1
   0  -1  -6 9594.18 259.526   1
   0   1   6 9599.03 316.664   4
   0  -1  -7 14242.7 340.806   1
   0   1   7 13828.7 414.106   4
   0   1   7 13608.9 351.780   1
   0   1   8 6025.33 247.506   1
   0   1   8 6511.33 307.705   4
   0  -1  -8 6264.35 242.294   1
   0   1   9 5085.82 249.525   1
   0   1   9 5883.30 309.343   4
   0   1  10 10.6339 26.3075   4
   0   1  11 2575.30 228.994   4
   0   1  12 7752.35 419.377   4
   0   1  12 7233.20 441.234   2
   0   1  13 790.656 157.954   2
   0   1  13 852.347 146.815   4
   0   1  14 182.715 76.5120   2
   0   1  15 1722.92 256.805   2
   0  -2  15 734.176 170.094   2
   0  -2  14 3257.34 339.544   2
   0  -2  13-14.8900 25.7879   2
   0  -2  12 787.487 146.781   2
   0  -2  11 996.889 159.687   2
   0  -2  10 5368.38 182.158   3
   0  -2  10 5077.28 344.256   2
   0  -2   9 14711.8 429.849   5
   0  -2   9 14010.4 545.853   2
   0  -2   9 14446.8 289.990   3
   0  -2   8 684.215 90.1888   5
   0  -2   8 800.975 66.2453   3
   0  -2   8 635.340 108.306   2
   0  -2   7 1176.30 117.010   5
   0  -2   7 1177.94 76.0511   3
   0  -2   7 965.491 125.645   2
   0  -2   6 8184.52 299.450   5
   0  -2   6 7825.90 343.289   2
   0  -2   5 43074.1 758.362   2
   0   2  -4 9550.78 320.802   2
   0   2  -4 9586.14 215.032   3
   0  -2   4 9266.32 330.880   2
   0   2  -3 18723.0 305.351   3
   0   2  -3 18926.0 435.360   2
   0  -2   3 18096.5 446.571   2
   0   2  -2 18615.7 421.771   2
   0  -2   2 17309.9 416.869   2
   0  -2   1 66.8730 32.3815   2
   0   2  -1 114.168 32.9925   2
   0   2   0 6961.82 252.256   2
   0  -2   0 6554.47 247.527   2
   0   2   1 19292.6 420.737   2
   0  -2  -1 18532.5 414.223   2
   0   2   2 7006.83 231.861   4
   0   2   2 7162.36 262.232   2
   0   2   3 31091.8 559.729   2
   0   2   3 31140.5 472.205   1
   0   2   3 31539.1 505.390   4
   0  -2  -3 31017.3 537.519   4
   0   2   4 72591.1 753.244   1
   0  -2  -4 74271.0 868.825   4
   0   2   4 73712.0 801.525   4
   0   2   5 72976.0 789.162   1
   0   2   5 72009.6 858.206   4
   0   2   6 30.1256 19.6867   1
   0   2   6 35.3309 28.9650   4
   0   2   7 6813.02 307.646   4
   0  -2  -7 7469.97 267.824   1
   0   2   8 14040.4 397.410   1
   0   2   8 14961.4 488.835   4
   0   2   9 723.938 116.118   4
   0   2   9 671.212 94.0840   1
   0   2  10 5.52917 21.1485   1
   0   2  10-22.4111 32.6864   4
   0   2  11 11771.9 421.498   1
   0   2  11 12284.4 529.245   4
   0   2  12 6817.57 409.678   4
   0   2  13 118.265 83.2370   4
   0   2  14 1573.56 219.041   4
   0   2  15 3904.11 388.425   2
   0  -3  15 42.9843 57.9227   2
   0  -3  14 2276.49 297.588   2
   0  -3  13 288.127 107.383   2
   0  -3  12 740.544 152.492   2
   0  -3  11 809.838 151.590   2
   0  -3  10 701.795 132.886   2
   0  -3   9 25108.4 783.192   2
   0  -3   8 6047.57 367.849   2
   0  -3   7 13257.1 522.344   2
   0  -3   6 2149.16 207.384   2
   0   3  -6 2130.93 120.637   3
   0  -3   5 3429.30 245.618   2
   0   3  -5 3215.64 154.595   3
   0  -3   4 14184.1 483.775   2
   0   3  -4 15417.9 345.402   3
   0  -3   3 4015.96 251.436   2
   0  -3   2 18385.3 521.688   2
   0  -3   1 11730.1 422.078   2
   0  -3   0 24.5247 21.6677   2
   0  -3  -1 16043.3 476.922   2
   0   3   2 2632.09 169.787   4
   0   3   3 41906.8 678.325   4
   0   3   4 8860.87 320.998   4
   0   3   4 8551.68 305.132   1
   0   3   5 5338.17 247.222   1
   0   3   5 5191.64 256.613   4
   0   3   6 23152.8 534.852   1
   0   3   6 23936.2 581.529   4
   0   3   7 4473.41 261.852   4
   0   3   7 4431.95 239.913   1
   0   3   8 17730.1 494.706   1
   0   3   8 18917.3 579.325   4
   0   3   9 22822.9 560.697   1
   0   3   9 24289.9 688.254   4
   0   3  10 6113.33 366.262   4
   0   3  10 5252.85 289.950   1
   0   3  11 2618.56 250.563   4
   0   3  11 2648.38 216.938   1
   0   3  12 7679.10 455.063   4
   0   3  13 29.9245 78.9341   4
   0   3  14 168.672 61.7936   4
   0  -4  14 1775.91 273.248   2
   0  -4  13 1878.67 272.204   2
   0  -4  12 4526.06 411.311   2
   0  -4  11 17.4197 50.0888   2
   0  -4  10 5982.92 436.875   2
   0  -4   9 2365.71 264.930   2
   0  -4   8 11072.1 551.879   2
   0   4  -7 9233.32 298.241   3
   0  -4   7 9252.80 487.220   2
   0   4  -6 517.832 72.0164   3
   0  -4   6 583.497 116.095   2
   0  -4   5 132.328 46.2306   2
   0  -4   4 56513.5 1101.93   2
   0  -4   3 4231.43 298.068   2
   0  -4   2 25653.9 714.346   2
   0  -4   1 11257.5 467.609   2
   0  -4   0 9034.58 422.257   2
   0  -4  -1 15321.6 538.964   2
   0   4   2 5015.02 269.847   4
   0  -4  -2 4705.58 292.643   2
   0   4   3 4469.59 258.266   4
   0   4   4 562.110 97.3638   1
   0   4   4 684.400 105.245   4
   0   4   5 9388.18 373.063   1
   0   4   5 9222.10 377.870   4
   0   4   6 36861.2 771.774   4
   0   4   6 35065.4 744.667   1
   0   4   7 13449.8 490.504   4
   0   4   7 13480.7 469.407   1
   0   4   8 20267.7 626.113   4
   0   4   8 20028.1 589.119   1
   0   4   9 2770.58 251.802   4
   0   4   9 2888.37 224.681   1
   0   4  10 17892.2 654.836   4
   0   4  10 16116.8 547.728   1
   0   4  11 3450.62 303.478   4
   0   4  12 1216.97 187.000   4
   0   4  13 1710.96 233.327   4
   0  -5  13 2406.46 329.024   2
   0  -5  12 50.8004 58.1979   2
   0  -5  11 12082.6 695.503   2
   0  -5  10 206.660 73.5549   2
   0  -5   9 5794.59 448.559   2
   0  -5   8 897.284 172.397   2
   0  -5   7 59.9175 36.0629   2
   0  -5   6 2261.84 259.079   2
   0  -5   5 2681.76 277.344   2
   0  -5   4 5214.95 376.627   2
   0  -5   3 1733.34 214.624   2
   0  -5   2 32940.3 912.662   2
   0  -5   1 4865.36 348.108   2
   0  -5   0 6981.37 417.285   2
   0  -5  -1 11870.0 530.855   2
   0   5   1 12667.9 483.394   4
   0  -5  -2 10091.6 483.476   2
   0   5   2 10584.2 433.258   4
   0   5   3 8275.89 383.431   4
   0   5   4 30611.4 746.197   4
   0   5   4 27819.9 724.739   1
   0   5   5 4413.41 286.675   1
   0   5   5 4850.89 302.889   4
   0   5   6 2554.84 223.400   4
   0   5   6 2335.20 215.930   1
   0   5   7 20205.3 644.517   1
   0   5   7 20092.7 647.807   4
   0   5   8 1283.24 165.793   1
   0   5   8 1386.56 180.182   4
   0   5   9 3768.90 289.299   1
   0   5   9 3992.69 316.016   4
   0   5  10 151.492 61.8394   1
   0   5  10 186.508 66.9812   4
   0   5  11 4198.03 351.100   4
   0   5  12 62.9792 47.0809   4
   0  -6  11 153.752 86.4661   2
   0  -6  10 616.270 169.728   2
   0  -6   9 5647.50 483.809   2
   0  -6   8 1016.25 191.457   2
   0  -6   7 2044.08 275.061   2
   0  -6   6 217.030 96.3864   2
   0  -6   5 5041.03 412.627   2
   0  -6   4 51.7988 35.0727   2
   0  -6   3 1825.92 242.657   2
   0  -6   2 22.9934 26.4683   2
   0  -6   1 2154.64 262.899   2
   0  -6   0 6774.29 456.654   2
   0  -6  -1 17388.6 712.473   2
   0   6   1 19923.0 668.330   4
   0   6   2 1303.95 166.972   4
   0   6   3 28019.1 775.493   4
   0   6   4 2871.18 258.670   1
   0   6   4 2884.08 253.498   4
   0   6   5 72.6818 50.6967   4
   0   6   5 68.3867 61.4004   1
   0   6   6 454.572 106.273   1
   0   6   6 475.286 105.846   4
   0   6   7 683.607 129.717   4
   0   6   7 698.987 142.148   1
   0   6   8 41.6203 33.7835   1
   0   6   8 154.451 66.7797   4
   0   6   9 473.267 125.353   4
   0   6   9 468.405 116.101   1
   0   6  10 1237.45 197.079   4
   0  -7   8 6577.58 551.237   2
   0  -7   7 1341.27 240.670   2
   0  -7   6 2267.67 313.058   2
   0  -7   5 7048.02 537.700   2
   0  -7   4 79.1700 97.8242   2
   0  -7   3 3688.69 383.861   2
   0  -7   2 825.759 180.243   2
   0  -7   1 12333.0 685.693   2
   0   7   0 88.2006 71.0907   4
   0  -7   0 99.6623 80.5164   2
   0  -7  -1 662.032 158.990   2
   0   7   1 980.154 156.693   4
   0   7   2-13.3757 56.4458   4
   0   7   3 1102.29 168.782   4
   0   7   3 718.896 157.663   1
   0   7   4 5864.26 419.223   1
   0   7   4 6723.06 415.267   4
   0   7   5 50.1444 54.0580   1
   0   7   5 66.3296 50.1654   4
   0   7   6 6897.13 425.368   4
   0   7   6 6724.61 441.258   1
   0   7   7 601.637 139.659   4
   0   7   7 451.030 117.468   1
   0   7   8 5262.71 389.468   4
   0   7   8 5467.23 410.648   1
   0  -8   3 258.199 104.574   2
   0  -8   2 4136.57 437.411   2
   0  -8   1 4934.75 469.639   2
   0   8  -1 5573.25 415.421   4
   0  -8   0 896.558 201.002   2
   0   8   0 804.369 151.332   4
   0   8   1-28.4761 47.0852   4
   0   8   2-153.634 87.8173   4
   0   8   3 4351.68 359.600   4
   0   8   3 3817.34 353.517   1
   0   8   4 933.476 162.204   4
   0   8   4 697.188 159.050   1
   0   8   5 10308.3 589.377   1
   0   8   5 10500.9 555.392   4
  -1   8   6 2354.07 287.333   1
  -1   8   5 182.027 79.0479   1
  -1   8   4 295.529 108.207   1
  -1   8   3 1147.88 199.682   1
  -1   8   2 76.0072 67.1048   1
   1  -8   0 864.406 188.002   2
   1  -8   1 1470.38 242.639   2
   1  -8   2 4381.53 427.740   2
   1  -8   3 63.4290 49.8349   2
   1  -8   4 7891.72 583.470   2
   1  -8   5 63.6760 43.4793   2
   1  -8   6 1986.51 303.081   2
  -1   7  10 3594.96 323.222   4
  -1   7  10 3436.92 339.099   1
  -1   7   9 45.9157 38.2129   4
  -1   7   9 101.015 45.4059   1
  -1   7   8 558.183 127.568   1
  -1   7   8 519.353 119.718   4
  -1   7   7 3113.59 307.679   1
  -1   7   7 3459.71 284.036   4
  -1   7   6 993.498 176.655   1
  -1   7   6 1164.13 162.946   4
  -1   7   5 757.684 124.791   4
  -1   7   5 775.898 145.833   1
  -1   7   4 1053.39 177.524   1
  -1   7   4 1433.68 171.057   4
  -1   7   3 4634.88 357.074   1
  -1   7   3 5304.12 327.391   4
  -1   7   2 6132.59 410.417   1
  -1   7   2 6527.91 360.251   4
   1  -7  -1 332.171 126.851   2
  -1   7   1 424.614 90.5552   4
   1  -7   0 10788.4 588.595   2
  -1   7   0 12476.5 515.882   4
   1  -7   1 1181.10 200.903   2
   1  -7   2 2296.30 288.988   2
   1  -7   3 95.1132 44.5768   2
   1  -7   4 791.463 160.392   2
   1  -7   5 1827.73 266.569   2
   1  -7   6 1799.24 266.762   2
   1  -7   7 181.525 93.8135   2
   1  -7   8 130.992 93.8458   2
   1  -7   9 139.095 84.7706   2
   1  -7  10 1945.82 298.361   2
  -1   6  11 135.833 53.2129   1
  -1   6  11 168.708 88.0812   4
  -1   6  10 147.787 60.9778   1
  -1   6  10 62.9762 61.6495   4
  -1   6   9 4848.32 346.906   4
  -1   6   9 4953.11 372.948   1
  -1   6   8 227.723 78.4733   4
  -1   6   8 260.944 101.061   1
  -1   6   7 1592.76 179.215   4
  -1   6   7 1411.80 192.268   1
  -1   6   6 2293.90 206.217   4
  -1   6   6 2444.94 247.323   1
  -1   6   5 22559.6 626.775   4
  -1   6   5 21449.1 697.964   1
  -1   6   4 38399.4 804.797   4
  -1   6   4 34127.0 871.171   1
  -1   6   3 26401.5 763.486   1
  -1   6   3 29899.5 710.729   4
  -1   6   2 1870.69 174.615   4
  -1   6   1 8010.29 365.071   4
   1  -6  -1 7124.13 431.699   2
   1  -6   0 296.834 85.8148   2
  -1   6   0 313.482 72.8738   4
   1  -6   1 11136.7 554.136   2
   1  -6   2 2244.39 251.156   2
   1  -6   3 8073.29 480.862   2
   1  -6   4 2720.12 285.296   2
   1  -6   5 19265.9 768.001   2
   1  -6   6 6451.95 452.328   2
   1  -6   7 2498.12 289.430   2
   1  -6   8 5849.68 455.947   2
   1  -6   9 303.538 115.436   2
   1  -6  10 364.988 118.466   2
   1  -6  11 8.19994 42.6268   2
   1  -6  12 1099.41 218.577   2
  -1   5  13 3023.51 313.808   4
  -1   5  12 541.271 129.592   4
  -1   5  11 2148.98 228.497   1
  -1   5  11 2273.07 243.054   4
  -1   5  10 3887.91 305.218   4
  -1   5  10 4150.42 319.096   1
  -1   5   9 3381.88 278.384   1
  -1   5   9 3818.76 286.935   4
  -1   5   8 4180.27 307.076   1
  -1   5   8 4267.37 292.515   4
  -1   5   7 38784.8 819.197   4
  -1   5   7 38174.2 898.107   1
  -1   5   6 5768.25 306.625   4
  -1   5   6 5406.97 329.790   1
  -1   5   5 46436.8 927.414   1
  -1   5   5 49102.2 843.276   4
  -1   5   4 9608.04 364.318   4
  -1   5   4 9178.46 408.015   1
  -1   5   3 12906.5 485.445   1
  -1   5   3 13861.4 429.831   4
  -1   5   2 588.411 90.5611   4
  -1   5   1 350.472 72.3852   4
   1  -5  -1 272.551 77.8568   2
   1  -5   0 234.472 63.5980   2
   1  -5   1 23845.9 730.202   2
   1  -5   2 70.3321 50.1135   2
   1  -5   3 278.728 78.1276   2
   1  -5   4 8478.30 451.335   2
   1  -5   5 1214.86 174.953   2
   1  -5   6 3720.92 312.767   2
   1  -5   7 5057.22 376.539   2
   1  -5   8 6749.15 448.319   2
   1  -5   9 726.198 147.498   2
   1  -5  10 5869.36 450.067   2
   1  -5  11 11825.6 658.795   2
   1  -5  12 4249.02 406.176   2
   1  -5  13 322.322 120.820   2
  -1   4  13 178.510 85.1149   4
  -1   4  12 268.706 87.4025   1
  -1   4  12 217.643 82.7877   4
  -1   4  11 925.513 147.483   4
  -1   4  11 776.148 133.734   1
  -1   4  10 618.417 112.996   4
  -1   4  10 523.624 101.689   1
  -1   4   9 23917.1 682.054   4
  -1   4   9 21861.5 655.726   1
  -1   4   8 5095.12 296.186   4
  -1   4   8 5135.77 306.186   1
  -1   4   7 3765.20 257.031   1
  -1   4   7 3646.88 238.186   4
  -1   4   6 20381.4 522.012   4
  -1   4   6 19215.1 564.057   1
  -1   4   5 10252.9 400.865   1
  -1   4   5 11152.8 372.322   4
  -1   4   4 14.1866 15.2064   4
  -1   4   4 67.2265 41.0686   1
  -1   4   3 32.2817 24.9771   4
  -1   4   3 32.6095 28.8537   1
  -1   4   2 22816.4 564.952   1
  -1   4   2 24515.0 501.144   4
   1  -4  -1-7.92715 26.7838   2
  -1   4   1 13.1001 18.4876   4
   1  -4   0 72997.5 1093.86   2
   1  -4   1 490.456 90.7419   2
   1  -4   2 8360.40 375.221   2
   1  -4   3 7460.40 363.561   2
   1  -4   4 4650.20 294.856   2
   1  -4   5 152.401 67.3194   2
   1  -4   6 2854.32 246.736   2
   1  -4   7-9.79368 17.6506   2
   1  -4   8 2488.09 248.855   2
   1  -4   9 151.191 80.2266   2
   1  -4  10 5470.45 396.904   2
   1  -4  11 4773.69 382.760   2
   1  -4  12 1591.30 232.214   2
   1  -4  13 2386.09 295.134   2
   1  -4  14 123.757 91.0793   2
  -1   3  14 4280.41 359.822   4
  -1   3  13 139.741 70.3377   1
  -1   3  13 48.7845 41.8897   4
  -1   3  12 4285.98 305.692   1
  -1   3  12 4605.26 337.274   4
  -1   3  11 55.4421 41.4235   1
  -1   3  11-17.4677 44.7651   4
  -1   3  10 441.815 91.9143   4
  -1   3  10 328.916 80.1656   1
  -1   3   9 4431.08 278.338   4
  -1   3   9 4178.26 260.457   1
  -1   3   8 6710.30 312.374   1
  -1   3   8 7616.30 339.060   4
  -1   3   7 5935.01 292.394   1
  -1   3   7 6144.91 293.903   4
  -1   3   6 20277.3 490.671   4
  -1   3   6 20381.5 522.791   1
  -1   3   5 4391.38 235.692   1
  -1   3   5 4823.71 219.531   4
  -1   3   4 8704.49 317.845   1
  -1   3   4 8639.24 273.338   4
   1  -3  -4 8780.97 297.169   4
  -1   3   3 1090.60 109.479   1
   1  -3  -3 1092.69 101.905   4
  -1   3   3 1156.83 94.8643   4
  -1   3   2 29552.5 457.653   4
  -1   3   2 29229.7 549.220   1
  -1   3   1 248.063 54.5490   2
  -1   3   1 250.232 47.3273   4
   1  -3  -1 322.293 64.1717   2
  -1   3   0 32719.5 611.164   2
   1  -3   0 31416.5 609.459   2
   1  -3   1 10159.2 346.328   2
  -1   3  -1 11087.8 317.487   3
  -1   3  -1 10663.0 350.059   2
  -1   3  -2 698.789 82.2689   3
   1  -3   2 508.069 83.1409   2
  -1   3  -2 597.328 86.3630   2
   1  -3   3 2260.61 170.478   2
  -1   3  -3 2559.97 154.141   3
  -1   3  -3 2523.62 172.568   2
  -1   3  -4 963.894 96.9009   3
   1  -3   4 897.411 111.115   2
   1  -3   4 973.582 94.9614   3
   1  -3   5 61728.5 971.891   2
  -1   3  -5 63034.7 793.417   3
   1  -3   5 63348.8 753.215   3
   1  -3   6 16662.4 524.500   2
   1  -3   6 17477.0 403.687   3
   1  -3   7 7681.76 276.524   3
   1  -3   7 6840.54 352.196   2
   1  -3   8 1137.41 110.935   3
   1  -3   8 1476.11 175.689   2
   1  -3   9 7505.74 410.136   2
   1  -3   9 7713.30 288.899   3
   1  -3  10 2268.38 238.142   2
   1  -3  10 2316.71 160.882   3
   1  -3  11 2036.70 233.674   2
   1  -3  12 753.488 143.733   2
   1  -3  13 11082.4 612.556   2
   1  -3  14 167.599 107.334   2
   1  -3  15 156.951 106.037   2
  -1   2  15 365.792 126.842   2
  -1   2  14 25.0029 60.3913   2
  -1   2  13 10999.0 541.390   4
  -1   2  12 812.069 133.472   1
  -1   2  12 925.738 142.895   4
  -1   2  11 739.513 116.024   4
  -1   2  11 866.844 127.304   1
  -1   2  10 813.816 123.196   4
  -1   2  10 657.133 108.959   1
  -1   2   9 33095.1 714.118   1
  -1   2   9 33150.1 736.713   4
  -1   2   8 10710.3 388.468   1
  -1   2   8 10936.3 395.873   4
  -1   2   7 20419.8 499.514   1
  -1   2   7 21977.0 525.031   4
  -1   2   6 14341.2 393.297   1
  -1   2   6 14707.1 391.371   4
   1  -2  -5 2578.62 147.954   4
  -1   2   5 2656.40 151.094   4
   1  -2  -5 2553.28 155.872   1
  -1   2   5 2459.54 158.791   1
  -1   2   4 846.133 77.6051   4
  -1   2   4 848.223 87.4155   1
   1  -2  -4 827.362 77.5681   4
   1  -2  -4 917.888 87.9243   1
   1  -2  -3 14072.3 289.971   4
  -1   2   3 13842.8 283.590   4
  -1   2   3 14101.6 339.866   1
  -1   2   2 19533.4 280.839   4
  -1   2   2 19934.6 380.076   1
   1  -2  -2 19839.4 302.472   4
  -1   2   1 14.7794 15.1717   2
  -1   2   1 7.23755 11.6050   1
  -1   2   1 28.6654 14.4522   4
  -1   2   0 7268.25 218.045   2
  -1   2   0 7318.05 218.781   3
   1  -2   0 7686.53 228.460   2
  -1   2  -1 48098.3 566.204   2
   1  -2   1 48208.0 550.891   3
   1  -2   1 47295.5 573.854   2
  -1   2  -2 999999. 2611.46   2
  -1   2  -2 999255. 2583.42   3
  -1   2  -3 6641.11 192.084   4
  -1   2  -3 6529.89 222.030   2
   1  -2   3 6011.62 226.938   2
   1  -2   3 6273.20 205.770   3
  -1   2  -3 6294.75 211.421   3
  -1   2  -4 7417.81 228.370   4
  -1   2  -4 7724.71 257.772   2
   1  -2   4 7822.26 276.394   2
   1  -2   4 7704.74 237.312   3
   1  -2   5 91770.0 1024.44   2
  -1   2  -5 91171.4 901.120   4
   1  -2   5 97601.6 892.318   3
  -1   2  -5 98151.9 1001.94   2
   1  -2   6 22926.0 446.686   3
   1  -2   6 25217.9 574.287   2
   1  -2   7 396.323 81.9049   2
   1  -2   7 361.485 58.7528   3
   1  -2   8 3027.12 227.058   2
   1  -2   8 2941.71 170.527   3
   1  -2   9 13290.2 351.383   5
   1  -2   9 13052.9 377.332   3
   1  -2   9 12892.8 500.470   2
   1  -2  10 9547.20 332.868   3
   1  -2  10 9255.92 444.949   2
   1  -2  11 7639.73 429.935   2
   1  -2  11 7697.40 310.661   3
   1  -2  12 303.796 94.1122   2
   1  -2  13 2318.03 263.222   2
   1  -2  14-27.7648 48.1045   2
   1  -2  15 3.33659 33.8299   2
  -1   1  15 7630.09 533.479   2
  -1   1  14 3456.76 354.007   2
  -1   1  13 173.533 76.3159   2
  -1   1  12 546.708 124.467   2
  -1   1  11 1395.47 189.650   2
  -1   1  10 1.97139 24.9369   2
   1  -1 -10 65.1519 27.2148   5
   1  -1  -9 1204.81 86.6386   5
  -1   1   9 1638.56 156.854   1
  -1   1   9 1564.71 158.900   4
  -1   1   8 7939.18 335.290   4
  -1   1   8 7438.52 319.931   1
  -1   1   7 2275.46 164.325   4
  -1   1   7 2019.48 153.532   1
  -1   1   6 10647.3 322.780   4
  -1   1   6 10947.1 338.880   1
   1  -1  -5 252581. 1480.39   1
  -1   1   5 248400. 1518.15   1
  -1   1   4 40777.6 567.364   1
   1  -1  -4 42254.5 515.492   4
   1  -1  -4 40915.7 552.936   1
   1  -1  -3 37482.5 418.286   4
  -1   1   3 37647.9 424.523   4
   1  -1  -3 37854.6 488.032   1
  -1   1   2 76875.0 563.633   3
  -1   1   2 75380.1 636.319   1
   1  -1  -2 76130.8 487.699   4
  -1   1   1 303576. 1096.05   3
   1  -1  -1 294585. 1112.81   1
  -1   1   1 293920. 1123.60   1
   1  -1  -1 300688. 1070.80   3
  -1   1   0 58661.2 445.485   1
  -1   1   0 59382.5 353.902   2
   1  -1   0 59348.9 337.329   2
  -1   1   0 59150.3 500.087   3
   1  -1   0 60500.3 438.136   1
   1  -1   0 58732.0 489.259   3
   1  -1   1 29681.7 363.313   3
   1  -1   1 29087.5 269.966   2
   1  -1   1 28870.5 217.078   4
  -1   1  -1 29379.7 257.274   2
  -1   1  -1 29285.4 217.797   4
  -1   1  -1 29778.0 285.046   1
   1  -1   2 13953.9 227.434   2
  -1   1  -2 13997.5 214.145   4
   1  -1   2 14299.4 216.955   4
  -1   1  -2 14494.5 228.350   2
   1  -1   4 104853. 833.521   4
  -1   1  -4 103008. 818.086   4
   1  -1   4 105392. 872.751   2
   1  -1   5 4979.32 203.669   4
   1  -1   5 4482.19 202.856   2
  -1   1  -5 4703.09 199.136   4
   1  -1   6 155.136 51.5361   2
   1  -1   6 288.061 61.2024   4
  -1   1  -6 181.776 35.8114   1
   1  -1   7 10244.3 352.014   4
  -1   1  -7 9790.93 267.464   1
   1  -1   7 9729.62 361.294   2
   1  -1   8 9022.19 353.884   4
  -1   1  -8 10102.3 289.043   1
   1  -1   8 9562.75 386.503   2
  -1   1  -9 3523.58 182.311   1
   1  -1   9 3470.65 238.670   4
   1  -1   9 3151.02 236.285   2
   1  -1  10 1675.59 183.246   2
   1  -1  10 2117.89 196.811   4
   1  -1  11 13583.8 556.194   2
   1  -1  12 74.8209 36.9210   2
   1  -1  13 3212.69 304.096   2
   1  -1  14 5003.96 394.965   2
   1  -1  15 1459.36 221.987   2
  -1   0  15 175.243 95.3947   2
  -1   0  14 2606.97 293.616   2
  -1   0  13 3658.56 329.205   2
  -1   0  12 11377.4 551.772   2
  -1   0  11 4187.83 320.817   2
  -1   0  10 1020.82 151.502   2
  -1   0   9 6040.24 340.955   2
  -1   0   8 13117.9 472.458   2
   1   0  -8 13464.2 327.468   5
   1   0  -7 5476.86 205.380   5
  -1   0   7 5748.81 294.805   2
  -1   0   6 5917.10 274.883   2
   1   0  -6 5639.91 204.493   5
   1   0  -6 5566.16 251.069   1
   1   0  -5 44196.1 558.248   5
  -1   0   5 44839.2 680.881   2
   1   0  -4 95521.8 887.962   1
  -1   0   4 92146.5 873.302   2
  -1   0   3 20147.6 354.727   2
   1   0  -3 20770.5 361.805   2
   1   0  -3 20169.3 374.553   1
   1   0  -2 166.568 37.3037   1
  -1   0   2 198.786 32.3179   2
   1   0  -2 156.474 17.0589   3
   1   0  -2 182.822 30.8516   2
  -1   0   1 23175.5 275.877   2
   1   0  -1 23877.5 270.486   2
   1   0  -1 23587.8 327.569   1
  -1   0   0 26335.2 255.210   2
   1   0   0 26860.8 254.336   2
   1   0   1 27822.2 348.103   4
   1   0   1 29191.5 274.897   2
  -1   0  -2 22041.2 343.401   4
   1   0   2 23127.4 329.975   4
  -1   0  -3 4581.01 169.345   4
   1   0   3 4348.09 159.115   4
  -1   0  -4 390.752 57.0665   4
   1   0   4 384.004 54.2533   4
  -1   0  -4 391.804 25.3570   1
  -1   0  -5 66.4756 13.1587   1
   1   0   5 14.7697 25.7781   4
  -1   0  -5 37.6082 27.1175   4
   1   0   6 354.538 65.8698   4
  -1   0  -6 391.274 39.3894   1
  -1   0  -7 3410.78 128.229   1
   1   0   7 3542.65 206.815   4
  -1   0  -8 380.985 47.9239   1
   1   0   8 236.782 62.5284   4
   1   0   9 18729.3 559.108   4
  -1   0  -9 19285.5 362.631   1
   1   0  10 3437.90 254.153   4
   1   0  10 3160.99 253.561   2
   1   0  11 1192.09 158.390   4
   1   0  11 988.527 149.537   2
   1   0  12 1094.57 155.776   4
   1   0  12 1210.85 181.395   2
   1   0  13-85.4382 67.4117   4
   1   0  13 42.2014 27.0385   2
   1   0  14 3585.65 327.337   4
   1   0  14 3187.94 316.800   2
   1   0  15 1733.72 248.795   2
  -1  -1  15 1697.04 252.405   2
  -1  -1  14 7.25707 49.8010   2
  -1  -1  13 150.902 88.8671   2
  -1  -1  12 2651.12 270.656   2
  -1  -1  11 171.662 59.3389   2
  -1  -1  10 4898.15 334.084   2
  -1  -1   9 16.5819 25.0916   2
  -1  -1   8 339.914 83.4975   2
  -1  -1   7 28274.6 667.491   2
  -1  -1   6 30650.4 649.485   2
  -1  -1   5 27681.8 578.871   2
  -1  -1   5 29063.2 548.095   5
   1   1  -4 10306.0 316.274   2
   1   1  -4 10043.7 303.252   5
  -1  -1   4 10344.9 331.560   2
  -1  -1   4 10433.5 318.883   5
   1   1  -3 1859.59 124.977   2
  -1  -1   3 1891.18 129.566   2
  -1  -1   3 1816.28 127.430   5
   1   1  -3 2084.09 136.034   5
  -1  -1   2 33918.6 526.836   2
  -1  -1   2 34362.9 534.803   5
   1   1  -2 33343.3 522.177   5
   1   1  -2 33111.0 504.119   2
  -1  -1   1 126625. 999.977   5
   1   1  -1 123747. 971.879   5
   1   1  -1 124412. 957.790   2
  -1  -1   1 123455. 966.547   2
  -1  -1   0 59063.3 649.280   2
   1   1   0 60178.2 650.341   2
  -1  -1   0 61415.1 672.959   5
   1   1   0 60559.8 658.356   5
  -1  -1  -1 1805.81 110.831   2
   1   1   1 1921.30 114.593   5
   1   1   1 1974.80 118.285   2
  -1  -1  -1 1812.34 111.597   5
   1   1   2 5849.93 207.834   2
   1   1   2 5825.76 215.900   4
  -1  -1  -2 5505.01 189.228   5
  -1  -1  -3 69505.2 645.194   5
   1   1   3 69968.9 766.122   4
   1   1   4 14944.2 367.487   4
   1   1   4 14693.0 245.146   1
   1   1   5 22269.6 321.966   1
   1   1   5 22627.8 488.697   4
   1   1   6 30257.8 398.289   1
   1   1   6 29977.1 598.931   4
   1   1   7 8300.39 230.354   1
   1   1   7 8505.54 345.485   4
   1   1   8 576.249 97.6094   4
   1   1   8 366.793 52.3802   1
   1   1   9 1645.89 170.527   4
   1   1   9 1501.11 114.641   1
   1   1  10 2392.47 217.878   4
   1   1  11 39307.7 942.708   4
   1   1  12 1361.55 189.130   4
   1   1  13 1649.64 212.285   4
   1   1  13 1290.78 196.934   2
   1   1  14 12682.5 647.623   2
   1   1  14 14062.0 657.217   4
   1   1  15 2103.74 281.540   2
  -1  -2  15 247.365 97.5358   2
  -1  -2  14 23660.7 931.408   2
  -1  -2  13 548.210 135.793   2
  -1  -2  12 364.770 101.150   2
  -1  -2  11 182.375 70.7096   2
  -1  -2  10 5269.12 368.985   2
  -1  -2   9 12141.6 534.058   2
  -1  -2   8 6550.65 374.165   2
  -1  -2   7 3783.90 268.048   2
  -1  -2   6 43652.9 864.921   2
   1   2  -6 39880.1 330.947   3
  -1  -2   5 56397.5 941.010   2
   1   2  -5 55237.9 452.129   3
  -1  -2   4 14809.2 464.684   2
   1   2  -3 5118.62 254.268   2
  -1  -2   3 4985.61 260.040   2
  -1  -2   3 5206.88 255.207   5
  -1  -2   2 15207.0 438.470   2
  -1  -2   2 15645.5 433.727   5
   1   2  -2 15827.2 440.044   2
  -1  -2   1 1949.16 150.338   5
  -1  -2   1 1769.08 146.992   2
   1   2  -1 1921.77 151.200   2
  -1  -2   0 87636.0 978.010   5
  -1  -2   0 84439.2 995.965   2
   1   2   0 86648.2 1013.51   2
  -1  -2  -1 143521. 1227.64   5
   1   2   1 144734. 1310.86   2
  -1  -2  -2 893.602 95.9246   5
   1   2   2 954.467 106.398   2
   1   2   2 775.510 93.5309   4
   1   2   3 42518.4 708.181   4
  -1  -2  -3 41093.8 633.737   5
  -1  -2  -4 1765.15 129.090   5
   1   2   4 1852.04 119.126   1
   1   2   4 1812.24 148.402   4
  -1  -2  -5 7336.88 256.029   5
   1   2   5 7021.10 301.392   4
   1   2   5 6650.17 226.969   1
   1   2   6 11580.4 405.153   4
  -1  -2  -6 12502.5 318.104   5
   1   2   6 11477.9 309.031   1
   1   2   7 564.701 102.866   4
   1   2   7 558.986 70.8477   1
   1   2   8 15934.9 379.012   1
   1   2   8 16678.6 543.470   4
   1   2   9 17471.4 423.314   1
   1   2   9 17492.5 588.113   4
   1   2  10 10710.8 490.771   4
   1   2  10 10620.3 342.990   1
   1   2  11 2453.29 245.563   4
   1   2  12 22254.4 769.051   4
   1   2  13 1361.77 203.415   4
   1   2  14 4943.42 397.586   4
  -1  -3  14 3137.59 359.773   2
  -1  -3  13 5190.02 445.163   2
  -1  -3  12 929.021 175.591   2
  -1  -3  11 202.247 85.2452   2
  -1  -3  10 428.652 114.206   2
  -1  -3   9 6951.54 437.523   2
  -1  -3   8 3374.89 293.347   2
  -1  -3   7 506.183 113.507   2
   1   3  -7 504.112 52.4164   3
  -1  -3   6 14446.1 561.682   2
   1   3  -6 15106.1 309.297   3
  -1  -3   5 27146.9 750.854   2
  -1  -3   4 620.695 106.451   2
  -1  -3   3 4963.81 301.513   2
  -1  -3   2 4945.49 294.617   2
  -1  -3   1 30715.4 730.142   2
  -1  -3   0 71196.3 1100.74   2
  -1  -3  -1 19737.9 575.602   2
   1   3   2 2330.65 189.719   4
  -1  -3  -2 2342.20 193.059   2
   1   3   3 111.568 49.0162   4
   1   3   4 145.767 43.7481   4
   1   3   5 1385.74 131.273   1
   1   3   5 1332.38 149.469   4
   1   3   6 16065.6 517.723   4
   1   3   6 14896.2 410.228   1
  -1  -3  -6 15452.9 447.633   5
  -1  -3  -7 4456.22 232.647   5
   1   3   7 4435.71 283.343   4
   1   3   7 4578.34 237.417   1
   1   3   8 126.243 59.7822   4
   1   3   8 37.4326 29.0560   1
   1   3   9 50425.5 820.249   1
   1   3   9 49861.2 1045.03   4
   1   3  10 3857.27 308.473   4
   1   3  11 9421.49 504.994   4
   1   3  12 2989.20 288.702   4
   1   3  13 147.351 84.9942   4
  -1  -4  13 5755.88 501.502   2
  -1  -4  12 1318.98 235.352   2
  -1  -4  11 131.767 95.7732   2
  -1  -4  10 111.458 61.4609   2
  -1  -4   9 821.339 160.798   2
  -1  -4   8 13407.8 640.002   2
  -1  -4   7 1332.25 195.773   2
  -1  -4   6 9435.61 503.063   2
   1   4  -6 8889.51 295.216   3
  -1  -4   5 2976.56 274.860   2
  -1  -4   4 10390.8 503.809   2
  -1  -4   3 9321.71 466.812   2
  -1  -4   2 1369.70 176.526   2
  -1  -4   1 25077.5 748.709   2
  -1  -4   0 6041.61 370.673   2
  -1  -4  -1 8220.67 422.909   2
   1   4   2 76.9125 37.2235   4
  -1  -4  -2-10.0734 32.4145   2
   1   4   3 5016.90 307.061   4
   1   4   4 270.554 67.3919   4
   1   4   5 37428.4 846.367   4
   1   4   5 37042.4 750.616   1
   1   4   6 4168.18 288.961   4
   1   4   6 4522.79 262.633   1
   1   4   7 6828.22 378.050   4
   1   4   7 6955.61 337.465   1
   1   4   8 331.622 93.1095   4
   1   4   8 315.617 69.7995   1
   1   4   9 2248.64 235.015   4
   1   4  10 837.761 158.152   4
   1   4  11 163.944 67.4202   4
   1   4  12 1119.64 194.911   4
  -1  -5  12 43.5470 53.3317   2
  -1  -5  11 680.646 167.327   2
  -1  -5  10 154.839 70.7465   2
  -1  -5   9 384.242 124.781   2
  -1  -5   8 1249.30 216.934   2
  -1  -5   7 721.138 167.476   2
  -1  -5   6 296.801 100.810   2
  -1  -5   5 533.665 133.846   2
  -1  -5   4 10126.5 553.113   2
  -1  -5   3 99.4087 81.9409   2
  -1  -5   2 6726.67 440.348   2
  -1  -5   1 3850.28 332.170   2
  -1  -5   0 8076.23 476.083   2
   1   5   1 9678.81 473.999   4
  -1  -5  -1 9108.47 496.236   2
   1   5   2 2924.61 256.643   4
  -1  -5  -2 2663.49 265.224   2
   1   5   3 1264.71 168.359   4
   1   5   4 1539.16 192.272   4
   1   5   5 30.1169 21.6793   1
   1   5   5-26.7966 37.0468   4
   1   5   6 18377.3 604.778   1
   1   5   6 18448.7 660.426   4
   1   5   7 4842.10 345.191   4
   1   5   7 4448.04 296.620   1
   1   5   8 1525.10 175.983   1
   1   5   8 1439.93 196.072   4
   1   5   9 786.552 153.292   4
   1   5  10 178.022 77.2580   4
  -1  -6  10 773.898 196.215   2
  -1  -6   9 13839.0 792.684   2
  -1  -6   8 22149.7 980.163   2
  -1  -6   7 2316.70 312.499   2
  -1  -6   6 3023.97 345.529   2
  -1  -6   5 7123.07 520.031   2
  -1  -6   4 7485.46 526.261   2
  -1  -6   3 2536.66 297.282   2
  -1  -6   2 17180.3 779.593   2
  -1  -6   1 219.052 86.1594   2
  -1  -6   0 26573.7 948.779   2
  -1  -6  -1 126.341 75.3925   2
   1   6   1 128.891 56.4141   4
   1   6   2 6014.45 397.556   4
   1   6   3 1129.50 174.143   4
   1   6   4 4029.33 324.376   4
   1   6   5 1463.54 202.197   4
   1   6   5 1386.69 188.742   1
   1   6   6 497.893 112.213   4
   1   6   6 551.039 121.460   1
   1   6   7 1466.57 205.659   4
   1   6   7 1524.80 194.899   1
   1   6   8 1506.50 213.298   4
  -1  -7   6 2179.78 317.142   2
  -1  -7   5 382.903 137.345   2
  -1  -7   4 3500.14 390.441   2
  -1  -7   3 297.504 139.954   2
  -1  -7   2 10629.3 675.573   2
  -1  -7   1 3012.42 359.506   2
   1   7   0 1751.30 236.040   4
  -1  -7   0 1500.44 248.202   2
   1   7   1 583.466 125.031   4
  -1  -7  -1 545.606 157.694   2
   1   7   2 9484.21 535.752   4
   1   7   3 1464.15 207.056   4
   1   7   4 6781.30 462.939   4
   1   7   4 5244.01 404.330   1
   1   7   5 4628.60 380.142   4
   1   7   5 4173.81 359.389   1
   1   7   6 244.572 75.2700   4
   1   7   6 123.005 44.7048   1
   1   8  -1-8.98502 43.8760   4
   1   8   0 76.2786 37.1581   4
   2  -9   1 2030.95 298.062   2
   2  -9   2 9674.52 643.110   2
  -2   8   7-54.9827 68.0076   1
  -2   8   6 195.549 90.9978   1
  -2   8   5 56.4762 40.5744   1
  -2   8   4 1518.56 218.674   1
  -2   8   3 470.644 120.748   1
  -2   8   2 11059.8 580.418   1
  -2   8   1 332.544 98.5308   1
  -2   8   0 373.376 113.841   1
   2  -8   0 464.710 131.330   2
   2  -8   1 3868.68 373.227   2
   2  -8   2 270.207 92.9439   2
   2  -8   3 922.102 193.396   2
   2  -8   4 2901.27 346.808   2
   2  -8   5-0.59658 72.8254   2
   2  -8   6 157.637 93.9198   2
   2  -8   7 1289.60 233.624   2
   2  -8   8 1253.49 232.844   2
  -2   7  11 617.754 163.905   1
  -2   7  10 458.218 108.739   4
  -2   7  10 548.733 138.739   1
  -2   7   9 6052.87 450.696   1
  -2   7   9 5810.34 374.895   4
  -2   7   8 917.903 176.987   1
  -2   7   8 965.183 146.706   4
  -2   7   7 5526.13 414.145   1
  -2   7   7 5693.73 338.452   4
  -2   7   6 4270.35 274.400   4
  -2   7   6 4229.76 351.670   1
  -2   7   5 5436.22 297.182   4
  -2   7   5 4465.57 357.277   1
  -2   7   4 2493.72 196.174   4
  -2   7   4 2375.57 254.861   1
  -2   7   3 17703.0 504.823   4
  -2   7   3 15803.0 644.929   1
  -2   7   2 19993.8 710.163   1
  -2   7   2 22317.8 559.146   4
  -2   7   1 15615.1 473.511   4
  -2   7   1 13855.1 591.408   1
   2  -7   0 21913.1 784.646   2
  -2   7   0 22907.7 579.746   4
   2  -7   1 557.030 134.644   2
  -2   7  -1 484.896 65.4778   4
   2  -7   2 2895.25 298.109   2
   2  -7   3 308.802 85.3496   2
   2  -7   4 7460.19 487.143   2
   2  -7   5 2336.26 280.425   2
   2  -7   6 13489.9 677.423   2
   2  -7   7 2978.66 330.738   2
   2  -7   8 5311.39 448.758   2
   2  -7   9 2527.25 320.508   2
   2  -7  10 1345.45 243.545   2
   2  -7  11 41.3428 65.8325   2
  -2   6  12 4165.65 345.025   4
  -2   6  12 3461.78 338.811   1
  -2   6  11 316.659 91.7856   4
  -2   6  11 349.048 101.679   1
  -2   6  10 5040.18 339.891   4
  -2   6  10 5570.96 411.062   1
  -2   6   9 260.341 80.8378   4
  -2   6   9 239.034 77.5639   1
  -2   6   8 426.743 86.2769   4
  -2   6   8 512.311 123.352   1
  -2   6   7 27927.4 694.655   4
  -2   6   7 28033.7 849.510   1
  -2   6   6 108.522 43.2207   1
  -2   6   6 49.7832 31.5009   4
  -2   6   5 5970.57 285.137   4
  -2   6   5 6184.84 382.871   1
  -2   6   4 50212.4 788.016   4
  -2   6   4 44446.4 993.828   1
  -2   6   3 2405.07 166.826   4
  -2   6   3 2381.21 227.435   1
  -2   6   2 14823.9 404.355   4
  -2   6   2 12419.0 521.431   1
  -2   6   1 2574.07 171.315   4
  -2   6   1 2071.86 219.704   1
   2  -6  -1 2493.40 241.876   2
   2  -6   0 1874.01 212.212   2
  -2   6   0 1874.11 149.137   4
   2  -6   1 262.084 86.0579   2
   2  -6   2 3572.53 302.813   2
   2  -6   3 1966.32 228.745   2
   2  -6   4 9164.58 496.275   2
   2  -6   5 633.823 147.135   2
   2  -6   6 1944.28 236.631   2
   2  -6   7 1614.74 222.013   2
   2  -6   8 4205.33 367.981   2
   2  -6   9 817.434 166.710   2
   2  -6  10 863.754 179.322   2
   2  -6  11 351.152 129.494   2
   2  -6  12 532.609 162.918   2
   2  -6  13 2027.03 296.149   2
  -2   5  13 109.950 77.9735   1
  -2   5  13 162.325 69.2878   4
  -2   5  12 339.486 102.804   4
  -2   5  12 430.647 123.004   1
  -2   5  11 211.057 87.9001   1
  -2   5  11 389.365 97.1315   4
  -2   5  10 3669.93 299.417   1
  -2   5  10 3700.14 282.451   4
  -2   5   9 2022.04 195.979   4
  -2   5   9 2183.62 231.224   1
  -2   5   8 770.863 116.672   4
  -2   5   8 619.046 115.728   1
  -2   5   7 4925.07 328.659   1
  -2   5   7 5140.61 283.168   4
  -2   5   6 4984.58 318.922   1
  -2   5   6 5461.66 269.702   4
  -2   5   5 10888.4 353.738   4
  -2   5   5 9985.81 442.869   1
  -2   5   4 14572.7 383.008   4
  -2   5   4 13424.7 511.809   1
  -2   5   3 4615.24 202.471   4
  -2   5   3 4288.28 276.012   1
  -2   5   2 19545.3 585.762   1
  -2   5   2 21991.4 426.209   4
  -2   5   1 73.7782 46.8524   1
  -2   5   1 134.447 33.6444   4
  -2   5   0 1051.74 97.5558   4
  -2   5   0 865.571 126.090   1
   2  -5   0 1100.43 145.119   2
   2  -5   1 1120.24 148.679   2
   2  -5   2 5409.55 320.533   2
   2  -5   3 9317.54 429.420   2
   2  -5   4 4843.88 319.776   2
   2  -5   5 7222.14 396.927   2
   2  -5   6 53.2780 31.1350   2
   2  -5   7 6721.02 406.362   2
   2  -5   8 258.351 84.0535   2
   2  -5   9 88.3965 41.8526   2
   2  -5  10 793.593 159.832   2
   2  -5  11 11289.2 614.230   2
   2  -5  12 1218.43 208.612   2
   2  -5  13 1660.03 252.580   2
   2  -5  14 55.8160 59.1152   2
  -2   4  14 4232.36 350.708   1
  -2   4  13 102.348 65.8713   1
  -2   4  13 110.041 63.3564   4
  -2   4  12 1910.28 225.276   1
  -2   4  12 2051.82 218.841   4
  -2   4  11 10564.3 518.554   1
  -2   4  11 11889.8 508.964   4
  -2   4  10 1506.30 182.003   1
  -2   4  10 1778.72 192.511   4
  -2   4   9 3031.94 230.547   4
  -2   4   9 2295.53 219.056   1
  -2   4   8 89.4778 49.8702   1
  -2   4   8 44.7679 46.8311   4
  -2   4   7 2495.75 180.354   4
  -2   4   7 2544.94 218.051   1
  -2   4   6 4211.07 216.211   4
  -2   4   6 4009.76 266.528   1
  -2   4   5 2021.77 143.497   4
  -2   4   5 2028.58 183.551   1
   2  -4  -4 16567.0 412.258   4
  -2   4   4 17314.7 386.167   4
  -2   4   4 16810.2 512.570   1
  -2   4   3 415.775 55.8152   4
  -2   4   3 422.551 82.8214   1
  -2   4   2 3035.46 130.857   4
  -2   4   2 2919.42 199.705   1
  -2   4   1 2446.02 112.396   4
  -2   4   1 2326.94 177.091   1
  -2   4   0 893.764 109.548   1
  -2   4   0 801.190 70.8494   4
   2  -4   0 852.067 110.506   2
   2  -4   1 32723.1 668.464   2
   2  -4   2 139.344 42.3942   2
   2  -4   3 637.571 99.4916   2
   2  -4   4 87355.1 1174.48   2
   2  -4   4 88034.2 1082.67   3
  -2   4  -4 85574.8 831.665   4
  -2   4  -5 43.8007 20.8529   4
   2  -4   5 24.6460 24.6619   3
   2  -4   5 62.2069 29.6656   2
   2  -4   6 55.1753 53.6278   3
   2  -4   6 1.49690 31.1375   2
   2  -4   7 11380.3 479.309   2
   2  -4   7 11159.1 409.546   3
   2  -4   8 50800.0 894.877   3
   2  -4   8 48796.5 1037.28   2
   2  -4   9 3736.32 304.848   2
   2  -4   9 3673.58 242.006   3
   2  -4  10 200.998 85.3243   2
   2  -4  10 206.722 58.4822   3
   2  -4  11 6629.03 438.057   2
   2  -4  12 2495.13 283.082   2
   2  -4  13 414.447 111.467   2
   2  -4  14 66.7176 39.4594   2
   2  -4  15 163.840 87.1850   2
  -2   3  14-6.50332 33.1848   1
  -2   3  13 4637.28 352.926   1
  -2   3  12 2137.48 227.500   1
  -2   3  11 626.084 110.020   4
  -2   3  11 583.135 112.933   1
  -2   3  10 10038.0 459.911   1
  -2   3  10 10325.5 439.690   4
  -2   3   9 154.053 63.9861   4
  -2   3   9 174.534 65.8255   1
  -2   3   8 1586.81 148.788   4
  -2   3   8 1492.41 162.380   1
  -2   3   7 6865.47 331.309   1
  -2   3   7 6924.08 289.845   4
  -2   3   6 23060.2 485.692   4
  -2   3   6 21215.1 570.971   1
   2  -3  -5 33.9533 28.7466   4
  -2   3   5 70.0837 32.6539   4
  -2   3   5 15.5895 11.2603   1
  -2   3   4 44523.8 558.045   4
  -2   3   4 42797.2 743.910   1
  -2   3   3 117199. 1179.45   1
   2  -3  -3 116842. 836.298   4
   2  -3  -2 2764.03 109.658   4
  -2   3   2 2544.25 168.469   1
  -2   3   2 2672.00 160.959   2
  -2   3   2 2655.80 98.5211   4
  -2   3   1 2882.74 177.738   3
  -2   3   1 2739.77 168.514   1
  -2   3   1 2582.43 157.407   2
  -2   3   1 2706.03 76.9130   4
  -2   3   0 7242.49 265.325   1
  -2   3   0 7990.66 266.595   2
   2  -3   0 7339.24 279.980   3
   2  -3   0 7466.33 250.298   2
  -2   3   0 7819.11 289.198   3
  -2   3  -1 29789.8 510.522   2
   2  -3   1 29842.1 506.954   2
  -2   3  -1 30812.7 582.765   3
   2  -3   1 30975.5 564.460   3
  -2   3  -1 28571.2 517.459   1
  -2   3  -1 27878.3 242.364   4
  -2   3  -2 34303.9 545.249   2
   2  -3   2 33474.3 561.207   2
  -2   3  -2 33809.2 338.618   4
   2  -3   2 32990.8 604.707   3
  -2   3  -3 11449.1 236.058   4
   2  -3   3 10952.8 333.762   2
  -2   3  -3 12018.4 330.252   2
   2  -3   3 11119.5 352.408   3
  -2   3  -4 2931.60 137.085   4
  -2   3  -4 2924.32 168.669   2
   2  -3   4 2954.75 187.333   3
   2  -3   4 2613.60 173.732   2
  -2   3  -5 386106. 2045.08   2
   2  -3   5 383574. 2225.67   2
   2  -3   5 387062. 2201.83   3
   2  -3   6 46932.8 818.894   2
   2  -3   6 47934.1 796.029   3
   2  -3   7 2103.67 172.850   3
   2  -3   7 1816.85 171.660   2
   2  -3   8 5398.18 316.484   2
   2  -3   8 5465.80 293.062   3
   2  -3   9 3959.53 289.011   2
   2  -3   9 4160.54 261.897   3
   2  -3  10 313.011 91.2839   2
   2  -3  10 279.135 71.2621   3
   2  -3  11 238.462 67.7938   3
   2  -3  11 236.283 86.4434   2
   2  -3  12 791.703 151.687   2
   2  -3  13 2079.55 252.824   2
   2  -3  14 1942.46 258.916   2
   2  -3  15 2431.67 300.044   2
  -2   2  15 2341.56 306.789   2
  -2   2  14 20.6668 49.2597   2
  -2   2  13 2295.76 273.816   2
  -2   2  12 1022.53 154.881   1
  -2   2  12 888.123 155.551   2
  -2   2  11 11434.7 501.703   1
  -2   2  10 138.987 80.1376   1
  -2   2   9 23679.8 659.876   1
  -2   2   8 6246.27 326.507   1
  -2   2   7 453.113 83.5940   1
  -2   2   6 15390.2 461.802   1
  -2   2   5 15269.1 424.192   1
   2  -2  -5 15734.9 358.149   4
   2  -2  -4 12549.3 283.572   4
  -2   2   4 11435.6 309.943   3
  -2   2   3 42926.7 593.319   3
  -2   2   3 42651.5 652.301   1
   2  -2  -2 26860.5 291.254   4
   2  -2  -2 28459.7 489.758   1
  -2   2   2 26763.2 482.803   1
   2  -2  -2 29065.1 476.660   3
  -2   2   2 28873.7 482.418   3
   2  -2  -1 4933.55 189.874   1
  -2   2   1 4635.48 148.635   2
  -2   2   1 5083.01 200.831   1
  -2   2   1 5287.22 210.193   3
   2  -2  -1 5162.48 207.079   3
  -2   2   0 41161.9 418.065   2
   2  -2   0 43540.6 537.233   1
  -2   2   0 39777.4 532.351   1
  -2   2   0 42339.5 588.571   3
   2  -2   0 40653.9 581.076   3
  -2   2  -1 5650.04 108.725   4
   2  -2   1 5396.47 96.6453   4
  -2   2  -1 5736.28 149.680   2
  -2   2  -1 5703.10 231.025   3
   2  -2   1 5797.70 226.596   3
  -2   2  -1 5487.37 185.321   1
   2  -2   1 5770.88 152.186   2
  -2   2  -2 64449.1 518.849   2
   2  -2   2 64588.4 570.999   2
  -2   2  -2 64036.5 461.182   4
   2  -2   2 64531.1 463.889   4
  -2   2  -2 64475.2 595.942   1
   2  -2   2 63378.6 776.404   3
  -2   2  -3 3188.35 124.245   4
   2  -2   3 3244.89 179.431   3
  -2   2  -3 3233.31 131.911   1
   2  -2   3 3401.04 133.261   4
   2  -2   3 3072.63 137.917   2
  -2   2  -3 3413.18 136.781   2
   2  -2   4 34425.3 522.625   2
   2  -2   4 34029.7 482.155   4
   2  -2   4 33928.4 617.065   3
  -2   2  -4 34179.7 489.488   2
  -2   2  -4 32845.4 462.930   4
   2  -2   5 1133.02 97.8614   4
   2  -2   5 1129.47 103.096   2
  -2   2  -5 1072.98 92.7820   4
   2  -2   6 93728.8 1036.94   2
   2  -2   6 94074.0 990.815   4
   2  -2   7 4277.11 240.173   2
   2  -2   7 4830.94 241.544   4
   2  -2   8 1250.84 137.897   2
   2  -2   8 1322.49 139.958   4
   2  -2   9 132.215 45.0284   4
   2  -2   9 142.556 53.1476   2
   2  -2  10 5454.84 334.180   2
   2  -2  11 25.9255 39.1423   2
   2  -2  12 1131.10 173.630   2
   2  -2  13 3276.88 303.419   2
   2  -2  14 370.243 96.5921   2
   2  -2  15 116.904 73.5767   2
  -2   1  15 996.594 179.397   2
  -2   1  14 2247.36 269.025   2
  -2   1  13 2138.98 256.087   2
  -2   1  12 1592.36 210.419   2
   2  -1 -11 7093.37 290.313   5
  -2   1  11 7727.38 447.182   2
   2  -1 -10 488.812 74.7254   5
  -2   1  10 532.598 109.587   2
  -2   1   9 23869.4 399.656   3
  -2   1   9 25374.1 715.630   2
  -2   1   8 14280.9 501.550   2
  -2   1   8 14786.5 306.386   3
  -2   1   8 14139.9 493.365   1
  -2   1   7 26.1065 33.9682   1
  -2   1   7-7.36743 16.9701   2
  -2   1   7 84.1017 24.1892   3
  -2   1   6 42977.2 498.554   3
  -2   1   6 41613.6 748.883   1
  -2   1   6 42651.1 738.265   2
  -2   1   5 546.546 54.0676   3
   2  -1  -5 477.041 67.9369   4
  -2   1   5 484.013 69.3774   2
  -2   1   5 482.252 77.4427   1
   2  -1  -4 1374.37 126.319   1
  -2   1   4 1418.99 97.7014   3
  -2   1   4 1602.93 130.543   1
  -2   1   4 1340.51 111.717   2
   2  -1  -3 87149.1 875.679   1
  -2   1   3 87078.5 915.092   1
  -2   1   3 90842.5 717.740   3
   2  -1  -3 89054.2 706.807   3
  -2   1   3 89569.7 764.178   2
   2  -1  -2 7147.99 229.225   1
  -2   1   2 7441.60 247.980   1
   2  -1  -2 7376.38 211.142   3
  -2   1   2 7523.78 188.098   2
  -2   1   1 16473.9 338.989   1
   2  -1  -1 16631.5 327.342   3
   2  -1  -1 16263.6 320.351   1
  -2   1   1 16664.7 211.538   2
  -2   1   0 48115.1 526.878   1
   2  -1   0 49241.1 503.068   1
   2  -1   1 29158.7 363.848   4
  -2   1  -1 29665.1 361.132   1
  -2   1  -2 59.8630 22.0309   4
   2  -1   2 75.2117 14.5465   1
   2  -1   2 44.7636 11.2576   4
  -2   1  -2 92.2122 17.5227   1
   2  -1   2 62.4037 15.2552   2
   2  -1   3 1150.28 84.9054   4
  -2   1  -3 1039.60 47.6141   1
  -2   1  -3 1120.60 90.9600   4
   2  -1   3 1180.31 75.7115   2
  -2   1  -4 28953.0 493.663   4
   2  -1   4 28612.6 465.401   4
   2  -1   4 28211.4 433.197   2
   2  -1   5 632.838 76.9181   4
   2  -1   5 541.452 69.6584   2
   2  -1   6 3622.85 199.788   4
   2  -1   6 3636.46 198.645   2
   2  -1   7 27268.3 589.159   4
   2  -1   7 26064.0 580.757   2
   2  -1   8 517.811 92.8483   2
  -2   1  -8 344.919 27.3485   1
   2  -1   8 455.142 83.5159   4
   2  -1   9 9405.29 397.217   4
   2  -1   9 9214.03 412.976   2
   2  -1  10 120.025 48.6980   4
   2  -1  10 107.509 54.6074   2
   2  -1  11 4507.49 307.667   4
   2  -1  11 4132.68 303.686   2
   2  -1  12 737.906 122.329   4
   2  -1  12 701.533 137.226   2
   2  -1  13 8378.05 481.457   2
   2  -1  13 9481.29 506.428   4
   2  -1  14 157.044 69.2946   2
   2  -1  15 42.2709 33.8256   2
  -2   0  15 11001.1 643.783   2
  -2   0  14 689.070 145.551   2
  -2   0  13 3380.86 327.084   2
  -2   0  12 22903.8 798.386   2
  -2   0  11 11.1007 27.2838   2
   2   0 -10 27.0498 20.7489   5
  -2   0  10 53.7515 17.5612   2
  -2   0   9 3713.58 274.045   2
   2   0  -9 3669.35 223.626   5
  -2   0   8 2386.57 204.966   2
   2   0  -8 2467.26 178.748   5
   2   0  -7 188.540 41.3035   5
  -2   0   7 295.959 66.2034   2
  -2   0   6 6844.32 302.204   2
   2   0  -6 7259.36 297.229   5
  -2   0   5 75238.2 925.956   2
   2   0  -5 79031.3 936.389   2
  -2   0   4 143423. 1171.05   2
   2   0  -4 147000. 1285.79   1
  -2   0   3 177491. 1198.52   2
   2   0  -3 177677. 1160.24   2
   2   0  -2 19.4478 9.30924   1
   2   0  -2 48.3928 24.8058   2
  -2   0   2 23.1809 16.5426   2
  -2   0   1 11731.2 260.271   2
   2   0  -1 12388.0 252.516   2
   2   0  -1 12260.6 304.133   1
  -2   0   0 17452.9 296.473   2
   2   0   0 18230.4 296.363   2
   2   0   0 17635.5 336.651   1
   2   0   1 48012.7 490.644   2
   2   0   1 46955.9 486.993   1
   2   0   2 260.894 48.2353   4
   2   0   2 295.117 42.7725   2
   2   0   2 287.980 32.9402   1
  -2   0  -3 15939.0 428.195   4
   2   0   3 15983.3 369.521   4
   2   0   4 18759.4 417.732   4
   2   0   5 38.2027 19.4908   4
   2   0   5 36.4206 13.8099   5
   2   0   6 22615.1 358.918   5
   2   0   6 23674.8 536.886   4
   2   0   7 142.072 56.2579   4
   2   0   8 589.184 101.097   4
   2   0   9 22136.2 625.343   4
   2   0  10 1412.05 167.405   4
   2   0  11 650.757 122.074   4
   2   0  11 666.978 127.172   2
   2   0  12 3581.91 298.283   4
   2   0  12 3357.47 298.586   2
   2   0  13 4622.33 360.435   4
   2   0  13 5213.33 403.364   2
   2   0  14 33668.9 1010.89   4
   2   0  14 31705.0 1019.08   2
   2   0  15 328.342 120.056   2
  -2  -1  15 17944.3 855.725   2
  -2  -1  14 16534.0 773.955   2
  -2  -1  13 7705.97 510.064   2
  -2  -1  12 2058.23 248.896   2
  -2  -1  11 22368.3 783.369   2
  -2  -1  10 1764.13 208.630   2
  -2  -1   9 2417.58 236.011   2
  -2  -1   8 2357.72 217.044   2
   2   1  -8 2885.16 213.762   5
  -2  -1   7 24552.4 658.169   2
   2   1  -7 24332.5 610.763   5
   2   1  -6 1625.82 156.120   5
  -2  -1   6 1663.20 165.131   2
  -2  -1   5 59627.7 932.651   2
   2   1  -5 59613.1 917.665   5
  -2  -1   4 1770.28 149.634   2
   2   1  -4 1863.10 161.806   5
   2   1  -3 77022.5 911.639   2
   2   1  -3 78255.3 1017.55   5
  -2  -1   3 77627.2 962.318   2
  -2  -1   2 2530.54 165.498   2
   2   1  -2 3044.52 198.842   5
   2   1  -2 2760.71 168.270   2
  -2  -1   1 149437. 1231.91   2
   2   1  -1 149160. 1216.77   2
   2   1  -1 149678. 1353.07   5
   2   1   0 10294.2 315.963   2
  -2  -1   0 9972.34 307.619   2
   2   1   0 10294.3 346.545   5
   2   1   1 11372.5 333.196   2
  -2  -1  -1 10874.2 320.068   2
   2   1   1 11595.1 359.123   5
   2   1   2 79615.4 974.659   4
   2   1   2 82202.9 913.696   2
   2   1   2 82211.1 934.783   5
   2   1   3 34612.0 586.977   5
   2   1   3 34946.7 625.627   2
   2   1   3 33653.0 633.385   4
   2   1   4 32071.3 629.399   4
   2   1   4 33443.2 560.600   5
   2   1   4 33615.8 620.882   2
   2   1   5 1256.28 71.3434   1
   2   1   5 1269.64 134.078   4
   2   1   6 11609.4 407.691   4
   2   1   6 10983.1 202.077   1
   2   1   7 668.375 107.037   4
   2   1   7 501.366 43.5806   1
   2   1   8 3488.03 249.438   4
   2   1   8 2709.64 105.163   1
   2   1   9 4817.15 310.181   4
   2   1  10 1674.59 191.286   4
   2   1  11 37996.4 955.625   4
   2   1  12 16440.3 662.243   4
   2   1  13 1923.93 238.614   4
   2   1  14 546.686 128.847   2
   2   1  15 1058.91 197.817   2
  -2  -2  14 22872.8 962.199   2
  -2  -2  13 1957.03 267.640   2
  -2  -2  12 78.3913 27.1723   2
  -2  -2  11 3904.14 347.686   2
  -2  -2  10 1929.56 233.967   2
  -2  -2   9 30.8344 31.6246   2
  -2  -2   8 2463.45 242.537   2
  -2  -2   7 2834.52 246.404   2
  -2  -2   6 25419.3 719.204   2
  -2  -2   5 1791.43 181.849   2
  -2  -2   4 12990.8 474.971   2
  -2  -2   3 5162.02 292.313   2
  -2  -2   2 418.825 83.6914   2
  -2  -2   1 467.060 86.8367   2
  -2  -2   0 8248.19 344.680   2
  -2  -2  -1 17699.0 504.984   2
   2   2   2 48470.4 874.918   4
   2   2   3 12193.0 440.584   4
   2   2   4 21853.5 588.942   4
   2   2   5 3023.98 159.540   1
   2   2   5 3148.52 230.521   4
   2   2   6 3944.41 261.717   4
   2   2   6 3747.54 169.528   1
   2   2   7 8035.74 381.613   4
   2   2   7 7842.18 243.003   1
   2   2   8 4194.72 291.604   4
   2   2   8 3919.12 170.471   1
   2   2   9 17269.2 613.399   4
   2   2  10 4262.34 321.928   4
   2   2  11-20.9269 39.2388   4
   2   2  12 5204.74 387.902   4
   2   2  13 1530.04 218.283   4
  -2  -3  13 2972.91 353.662   2
  -2  -3  12 4110.30 396.029   2
  -2  -3  11 2321.55 289.141   2
  -2  -3  10 15846.0 726.676   2
  -2  -3   9 4025.52 355.315   2
  -2  -3   8 387.365 111.724   2
  -2  -3   7 326.542 96.4456   2
  -2  -3   6 5741.41 382.428   2
  -2  -3   5 277.111 88.3912   2
  -2  -3   4 2161.87 218.530   2
  -2  -3   3 5869.48 360.035   2
  -2  -3   2 18.2972 41.8478   2
  -2  -3   1 444.057 94.4950   2
  -2  -3   0 48085.7 992.532   2
  -2  -3  -1 148.252 52.2870   2
   2   3   2 260.655 74.0814   4
  -2  -3  -2 221.223 74.7224   2
   2   3   3 9549.81 428.156   4
   2   3   4 10652.7 453.694   4
   2   3   5 2601.05 228.171   4
   2   3   6 1179.06 154.613   4
   2   3   6 1008.12 114.252   1
   2   3   7 541.818 102.610   4
   2   3   7 625.182 86.1024   1
   2   3   8 16232.2 615.118   4
   2   3   9 1334.24 186.660   4
   2   3  10 1022.90 172.691   4
   2   3  11 80.0399 77.4218   4
  -2  -4  12 44.2580 70.8049   2
  -2  -4  11 594.517 150.057   2
  -2  -4  10 172.014 60.1533   2
  -2  -4   9 6895.52 504.030   2
  -2  -4   8 3613.54 349.782   2
  -2  -4   7 4739.30 389.078   2
  -2  -4   6 7180.69 470.978   2
  -2  -4   5 74.6307 59.5140   2
  -2  -4   4 5435.40 395.458   2
  -2  -4   3 293.388 88.6416   2
  -2  -4   2 8827.61 484.946   2
  -2  -4   1 1261.12 183.687   2
  -2  -4   0 8878.25 480.881   2
  -2  -4  -1 3365.72 289.804   2
   2   4   2 1940.81 209.200   4
  -2  -4  -2 1530.31 193.063   2
   2   4   3 1008.01 153.245   4
   2   4   4 1461.34 185.780   4
   2   4   5 4176.30 317.750   4
   2   4   6 785.940 119.356   1
   2   4   6 924.983 152.320   4
   2   4   7 2577.03 250.182   4
   2   4   7 2351.84 194.584   1
   2   4   8 441.566 112.279   4
   2   4   9 5160.29 383.175   4
   2   4  10 5597.32 413.165   4
  -2  -5  11 330.855 115.905   2
  -2  -5  10 3989.40 427.302   2
  -2  -5   9 70.4270 91.7008   2
  -2  -5   8 24784.6 999.850   2
  -2  -5   7 3899.76 383.036   2
  -2  -5   6 18355.7 825.877   2
  -2  -5   5 70218.6 1577.99   2
  -2  -5   4 1146.61 202.722   2
  -2  -5   3 541.121 141.648   2
  -2  -5   2 17403.9 745.901   2
  -2  -5   1 39.8347 26.4481   2
  -2  -5   0 16383.4 721.193   2
  -2  -5  -1 15096.8 671.389   2
   2   5   1 16256.7 667.120   4
   2   5   2 1098.26 174.354   4
   2   5   3 15647.0 651.112   4
   2   5   4 7301.51 446.009   4
   2   5   5 610.534 134.046   4
   2   5   6 423.390 99.9972   1
   2   5   6 438.893 117.516   4
   2   5   7 45.2006 28.5914   4
   2   5   8 278.412 97.5071   4
  -2  -6   8 4389.46 457.011   2
  -2  -6   7 11925.8 733.781   2
  -2  -6   6 659.991 172.663   2
  -2  -6   5 9860.32 647.331   2
  -2  -6   4 9.53133 31.2930   2
  -2  -6   3 6077.20 490.876   2
  -2  -6   2 2089.51 290.644   2
  -2  -6   1-13.4413 29.2389   2
  -2  -6   0 2038.39 273.059   2
   2   6   1 2465.79 276.770   4
  -2  -6  -1 1936.81 266.013   2
   2   6   2 599.973 143.405   4
   2   6   3 1135.80 195.281   4
   2   6   4 3622.08 339.432   4
   2   6   5 671.733 144.099   1
   2   6   5 1031.38 191.945   4
   2   6   6 1467.31 217.573   4
   2   7   0 3940.66 383.154   4
   2   7   1 2043.90 270.335   4
   3  -9   2 7979.20 554.700   2
   3  -9   3 67.6530 52.9570   2
   3  -9   4 1812.86 280.578   2
   3  -9   5 284.240 108.636   2
   3  -9   6 2571.96 336.049   2
  -3   8   7 1328.90 231.906   1
  -3   8   6 2440.27 295.637   1
  -3   8   5 539.947 137.886   1
  -3   8   4 2051.89 263.389   1
  -3   8   3 6999.10 471.230   1
  -3   8   2 8993.72 519.054   1
  -3   8   1 7960.29 487.549   1
  -3   8   0 9641.19 526.282   1
  -3   8  -1 19204.6 739.824   1
   3  -8   1 19948.1 780.204   2
  -3   8  -2 1971.29 238.186   1
   3  -8   2 1776.06 238.127   2
   3  -8   3 5270.39 425.782   2
  -3   8  -3 4325.68 353.394   1
   3  -8   4 717.231 152.712   2
   3  -8   5 522.895 137.248   2
   3  -8   6 3354.52 350.480   2
   3  -8   7 2021.81 284.584   2
   3  -8   8 545.279 155.291   2
   3  -8   9 786.594 180.436   2
  -3   7  10 1070.10 198.710   1
  -3   7   9 6784.43 485.960   1
  -3   7   8 5597.58 429.864   1
  -3   7   7 637.985 139.285   1
  -3   7   6 37.7642 45.3297   1
  -3   7   5 1769.60 230.084   1
  -3   7   4 18191.1 707.201   1
  -3   7   3 1412.16 198.341   1
  -3   7   2 3794.75 314.765   1
  -3   7   1 12021.3 548.488   1
  -3   7   0 2276.00 244.091   1
  -3   7  -1 7370.29 433.767   1
   3  -7   1 7535.95 435.174   2
  -3   7  -2 1163.71 177.649   1
   3  -7   2 1216.08 182.747   2
  -3   7  -3 6702.66 415.130   1
   3  -7   3 7759.29 462.093   2
   3  -7   4 2271.87 256.194   2
   3  -7   5 189.916 81.0051   2
   3  -7   6 737.179 154.388   2
   3  -7   7 216.755 84.3887   2
   3  -7   8 52.7305 33.2141   2
   3  -7   9 1700.64 247.913   2
   3  -7  10 114.997 71.2514   2
   3  -7  11 366.467 129.402   2
  -3   6  13 848.910 154.442   4
  -3   6  13 1140.80 221.902   1
  -3   6  12 1397.03 238.222   1
  -3   6  12 968.685 157.989   4
  -3   6  11 664.542 141.784   1
  -3   6  11 750.345 122.254   4
  -3   6  10 250.672 87.0970   1
  -3   6  10 355.245 82.1933   4
  -3   6   9 4570.34 290.006   4
  -3   6   9 4617.98 376.052   1
  -3   6   8 5695.04 306.735   4
  -3   6   8 5408.41 393.815   1
  -3   6   7 151.917 40.5541   4
  -3   6   7 138.790 73.7760   1
  -3   6   6 647.557 131.806   1
  -3   6   6 694.790 91.7146   4
  -3   6   5 3097.86 179.997   4
  -3   6   5 3120.10 277.857   1
  -3   6   4 934.811 147.976   1
  -3   6   4 1134.45 103.555   4
  -3   6   3 2286.88 133.144   4
  -3   6   3 2120.34 227.407   1
  -3   6   2 2450.58 125.035   4
  -3   6   2 2133.52 221.134   1
  -3   6   1 7512.65 203.862   4
  -3   6   1 6577.40 375.300   1
  -3   6   0 3956.23 145.825   4
  -3   6   0 3793.41 286.957   1
   3  -6   0 3967.47 279.522   2
  -3   6  -1 355.034 46.7358   4
  -3   6  -1 294.403 83.4012   1
   3  -6   1 343.884 88.0646   2
  -3   6  -2 95.7157 51.3449   1
   3  -6   2 122.219 60.9189   2
  -3   6  -3 71.7276 41.7944   1
   3  -6   3 96.8499 49.3762   2
   3  -6   4 1710.52 198.948   2
   3  -6   5 16.8974 46.6353   2
   3  -6   6 160.190 55.6148   2
   3  -6   7 50.6704 33.9812   2
   3  -6   8 1139.40 188.724   2
   3  -6   9 2307.45 268.439   2
   3  -6  10 22842.5 866.890   2
   3  -6  11 83.2782 64.6102   2
   3  -6  12 31.7445 40.0812   2
  -3   5  14-54.1999 49.0270   1
  -3   5  13 3023.63 321.535   1
  -3   5  12 169.041 77.2045   1
  -3   5  11 3923.05 349.093   1
  -3   5  11 3800.82 290.002   4
  -3   5  10 3980.39 276.727   4
  -3   5  10 3632.18 315.219   1
  -3   5   9 3008.44 277.322   1
  -3   5   9 3182.14 232.182   4
  -3   5   8 25060.6 613.891   4
  -3   5   8 24318.7 774.893   1
  -3   5   7 50.1805 26.6327   4
  -3   5   7 76.3584 50.3618   1
  -3   5   6 2457.78 234.063   1
  -3   5   6 2527.64 166.007   4
  -3   5   5 2489.58 154.149   4
  -3   5   5 2683.76 241.372   1
  -3   5   4 16.6832 25.9054   1
  -3   5   4 81.0110 28.3487   4
  -3   5   3 228.162 62.5427   1
  -3   5   3 190.793 33.5948   4
  -3   5   2 6178.29 160.426   4
  -3   5   2 5866.00 331.259   1
  -3   5   1 39070.3 335.548   4
  -3   5   1 38720.2 825.385   1
  -3   5   0 420.467 88.9059   1
  -3   5   0 356.849 26.7058   4
   3  -5   0 513.012 92.1173   2
  -3   5  -1 870.011 46.8107   4
  -3   5  -1 889.486 126.262   1
   3  -5   1 1096.72 133.656   2
  -3   5  -1 892.656 49.4093   4
  -3   5  -2 8.04073 15.1740   1
   3  -5   2 43.0455 38.8203   2
  -3   5  -2 43.3560 13.4765   4
  -3   5  -3 345.719 82.8409   1
   3  -5   3 336.759 77.4019   2
  -3   5  -3 477.159 48.1111   4
   3  -5   3 380.780 83.9367   3
  -3   5  -4 5249.53 184.020   4
   3  -5   4 5183.12 301.300   2
   3  -5   4 5387.03 312.740   3
   3  -5   5 2749.29 229.011   2
   3  -5   5 3271.41 245.475   3
   3  -5   6 532.282 118.235   2
   3  -5   6 429.857 111.513   3
   3  -5   7 129487. 1674.71   2
   3  -5   7 128984. 1598.39   3
   3  -5   8 2443.48 233.623   3
   3  -5   8 2185.84 232.031   2
   3  -5   9 2987.58 280.893   2
   3  -5   9 3082.11 254.577   3
   3  -5  10 928.481 142.426   3
   3  -5  10 982.841 172.166   2
   3  -5  11 1000.92 177.091   2
   3  -5  12-75.5288 62.0607   2
   3  -5  13 23.3738 57.5824   2
  -3   4  15-9.37358 26.9418   1
  -3   4  14 6.32855 38.5945   1
  -3   4  13 9.92820 45.3172   1
  -3   4  12 1185.28 186.763   1
  -3   4  11 202.005 75.4904   1
  -3   4  10 4115.49 328.054   1
  -3   4   9 7766.03 434.603   1
  -3   4   8 70.6220 40.9916   1
  -3   4   7 2720.97 227.203   1
  -3   4   7 2858.33 186.949   4
  -3   4   6 2522.14 162.273   4
  -3   4   6 2511.33 221.862   1
   3  -4  -5 7339.57 247.533   4
  -3   4   5 6719.90 349.490   1
   3  -4  -4 1642.91 106.157   4
  -3   4   4 1691.64 105.779   4
  -3   4   4 1611.18 168.261   1
   3  -4  -3 47518.9 505.625   4
  -3   4   3 44760.9 848.523   1
  -3   4   2 113.821 52.5111   1
  -3   4   2 29.3209 18.2391   2
  -3   4   1 25517.2 552.351   2
  -3   4   1 26539.9 610.130   1
  -3   4   0 33853.7 616.112   2
  -3   4   0 32945.6 673.261   1
  -3   4  -1 2761.15 173.926   2
  -3   4  -1 2829.68 185.106   1
   3  -4   1 2799.59 170.057   2
   3  -4   1 2679.81 202.034   3
  -3   4  -2 3641.42 87.9336   4
  -3   4  -2 3907.43 201.251   2
  -3   4  -2 3878.35 217.799   1
   3  -4   2 3923.25 204.474   2
   3  -4   2 4336.88 259.291   3
  -3   4  -3 770.125 97.5937   1
   3  -4   3 680.594 87.6392   2
  -3   4  -3 841.139 58.7309   4
   3  -4   3 823.605 115.209   3
  -3   4  -3 751.574 86.8898   2
  -3   4  -4 40862.6 659.716   2
  -3   4  -4 40355.5 480.895   4
   3  -4   4 40260.5 719.641   2
   3  -4   4 39326.0 811.021   3
  -3   4  -5 1032.86 112.419   1
   3  -4   5 1017.48 123.390   2
  -3   4  -5 1036.10 90.3941   4
   3  -4   5 1238.05 144.395   3
   3  -4   6 4201.07 263.009   2
   3  -4   6 4213.79 275.461   3
   3  -4   7 5856.92 326.846   2
   3  -4   7 5394.24 320.366   3
   3  -4   8 46375.7 957.893   2
   3  -4   8 46307.3 955.040   3
   3  -4   9 17842.9 629.667   2
   3  -4   9 17015.4 591.513   3
   3  -4  10 1229.72 173.631   2
   3  -4  10 1154.12 154.767   3
   3  -4  11 4329.13 340.441   2
   3  -4  11 3967.40 299.162   3
   3  -4  12 3490.76 316.331   2
   3  -4  13 180.522 70.2964   2
  -3   3  14 2423.85 301.090   2
  -3   3  13 296.070 99.7870   1
  -3   3  13 277.308 93.5846   2
  -3   3  12 11060.3 554.071   1
  -3   3  11 2885.74 271.610   1
  -3   3  10 485.755 108.230   1
  -3   3   9 1018.59 150.902   1
  -3   3   8 4031.77 287.966   1
  -3   3   7 6643.75 360.234   1
  -3   3   6 32005.8 746.353   1
  -3   3   5 13066.4 454.477   1
   3  -3  -5 14158.1 338.156   4
   3  -3  -4 5164.67 180.100   4
  -3   3   4 4951.98 266.782   1
   3  -3  -3 59.6565 16.9518   4
  -3   3   3 78.1914 36.6094   1
   3  -3  -2 550.192 37.7781   4
  -3   3   2 598.216 70.3316   2
   3  -3  -2 514.396 83.8717   3
  -3   3   2 496.836 79.2546   1
  -3   3   1 3110.12 151.467   2
  -3   3   1 3216.39 193.861   1
   3  -3  -1 3100.07 199.805   3
  -3   3   0 404.854 51.5759   2
  -3   3   0 413.026 72.2674   1
   3  -3   0 511.493 83.7735   3
  -3   3  -1 12409.1 263.253   2
  -3   3  -1 12502.9 354.012   1
   3  -3   1 12125.6 248.381   2
   3  -3   1 11774.3 396.740   3
  -3   3  -2 33578.5 424.229   2
  -3   3  -2 33286.3 554.397   1
   3  -3   2 34268.3 690.921   3
   3  -3   2 33996.8 453.864   2
  -3   3  -3 4972.01 171.770   2
  -3   3  -3 5382.56 167.403   4
   3  -3   3 4952.62 190.821   2
  -3   3  -3 5051.78 209.881   1
   3  -3   3 5036.74 275.633   3
  -3   3  -4 65.0515 26.7623   4
   3  -3   4 61.1260 26.5747   4
  -3   3  -4 34.1451 21.7114   1
  -3   3  -4 62.2058 23.0621   2
   3  -3   4 63.3975 38.1255   3
   3  -3   4 66.6518 26.1798   2
   3  -3   5 3688.06 199.167   2
  -3   3  -5 3573.85 166.342   1
   3  -3   5 3839.35 185.296   4
   3  -3   5 3601.66 245.318   3
  -3   3  -6 831.478 79.2178   1
   3  -3   6 695.116 92.2282   2
   3  -3   6 796.828 115.360   3
   3  -3   7 533.962 97.5806   3
   3  -3   7 719.357 101.460   2
  -3   3  -7 692.714 72.8362   1
  -3   3  -8 353.832 51.3041   1
   3  -3   8 304.436 69.8527   2
   3  -3   8 214.373 61.9974   3
   3  -3   9 951.776 134.875   2
   3  -3   9 757.701 123.891   3
   3  -3  10 2321.24 222.205   3
   3  -3  10 2210.12 217.166   2
   3  -3  11 3995.76 309.504   2
   3  -3  11 3631.44 281.672   3
   3  -3  12 2157.11 239.110   2
   3  -3  12 2300.47 229.504   3
   3  -3  13 25.8929 55.5092   2
   3  -3  14 95.9847 60.6477   2
  -3   2  15 2208.55 292.732   2
  -3   2  14 301.831 127.594   2
  -3   2  13 8821.68 545.926   2
  -3   2  12 1172.25 183.386   2
  -3   2  11 362.774 96.2201   1
  -3   2  11 365.110 99.3046   2
  -3   2  10 5996.39 379.040   1
  -3   2  10 6400.62 388.412   2
  -3   2   9 2661.34 237.130   1
  -3   2   9 2315.16 156.428   3
  -3   2   9 2402.11 223.346   2
  -3   2   8 20067.8 627.459   1
  -3   2   8 20424.8 460.986   3
  -3   2   8 20299.3 603.032   2
  -3   2   7 6642.91 351.228   1
  -3   2   7 6508.00 255.318   3
  -3   2   7 6639.02 320.646   2
  -3   2   6 3614.82 245.966   1
  -3   2   6 3797.42 199.054   3
  -3   2   5 8284.78 358.211   1
   3  -2  -5 8376.66 274.259   4
  -3   2   5 8390.50 296.762   3
  -3   2   4 12865.9 430.004   1
   3  -2  -4 13345.8 315.373   4
  -3   2   4 13729.1 368.382   3
   3  -2  -4 12910.0 350.041   3
  -3   2   3 1085.32 117.190   1
  -3   2   3 847.627 95.8085   3
   3  -2  -3 760.444 88.6724   3
  -3   2   2 38432.6 661.898   1
   3  -2  -2 38622.4 631.444   3
  -3   2   1 1010.37 99.5503   1
   3  -2  -1 838.539 88.0060   1
   3  -2  -1 975.792 103.997   3
  -3   2   0 44405.2 624.605   1
   3  -2   0 45684.5 450.304   4
   3  -2   0 46096.7 621.130   1
   3  -2   0 45283.9 727.642   3
  -3   2  -1 318.962 47.3635   1
   3  -2   1 319.076 37.6358   4
   3  -2   1 372.695 54.7283   1
   3  -2   1 323.464 67.7937   3
   3  -2   2 12098.0 282.279   1
   3  -2   2 10982.2 233.642   4
   3  -2   2 11579.4 394.754   3
  -3   2  -2 11664.1 281.802   1
   3  -2   3 3247.05 117.181   2
  -3   2  -3 3241.37 164.477   4
   3  -2   3 3382.31 144.050   4
  -3   2  -3 3587.27 144.432   1
   3  -2   4 12701.3 280.848   2
  -3   2  -4 12505.2 346.280   4
   3  -2   4 13055.4 318.559   4
  -3   2  -4 12240.0 242.290   1
   3  -2   5 10344.0 291.509   2
   3  -2   5 9835.74 305.390   4
  -3   2  -5 10265.4 198.666   1
   3  -2   6 30396.5 556.144   2
   3  -2   6 31401.7 593.056   4
   3  -2   7 828.447 102.198   2
   3  -2   7 941.741 111.882   4
   3  -2   8 8966.41 361.504   2
   3  -2   8 9381.32 377.823   4
   3  -2   9 1746.34 172.842   2
   3  -2   9 1546.78 163.632   4
   3  -2  10 477.340 101.776   4
   3  -2  10 440.709 94.8569   2
   3  -2  11 7209.33 398.635   2
   3  -2  11 7109.97 392.703   4
   3  -2  12 97.1683 75.3325   4
   3  -2  12 67.0381 46.6017   2
   3  -2  13 1486.25 200.833   2
   3  -2  14 209.838 77.6158   2
  -3   1  15 3522.22 372.403   2
  -3   1  14 65.7821 52.3343   2
  -3   1  13 1261.36 202.100   2
  -3   1  12 24350.1 831.875   2
   3  -1 -12 23101.2 647.470   5
  -3   1  11 3382.75 296.585   2
   3  -1 -11 3380.10 244.827   5
  -3   1  10 8277.78 435.986   2
   3  -1 -10 8143.34 378.464   5
  -3   1   9 59308.8 1100.80   2
  -3   1   8 14240.8 505.205   2
  -3   1   7 21169.8 576.196   2
  -3   1   6 6453.69 293.724   2
  -3   1   6 6745.34 342.591   1
  -3   1   5 1523.55 131.276   2
   3  -1  -5 1336.49 99.5129   3
  -3   1   5 1470.20 153.359   1
  -3   1   4 208.429 47.8135   2
  -3   1   4 133.318 47.4068   1
   3  -1  -4 189.422 41.5311   3
  -3   1   3 20736.2 391.695   2
  -3   1   3 20220.5 511.090   1
  -3   1   2 48079.7 528.309   2
   3  -1  -2 48105.3 687.142   3
   3  -1  -1 113390. 1001.83   1
  -3   1   1 111538. 681.529   2
  -3   1   0 120740. 538.984   2
  -3   1   0 125049. 1050.00   1
   3  -1   0 128583. 970.734   1
   3  -1   1 27240.2 480.267   4
  -3   1  -1 26230.7 447.495   1
   3  -1   1 27174.4 420.960   1
   3  -1   2 1138.28 98.9751   4
   3  -1   2 1076.70 61.0462   2
   3  -1   2 1253.01 79.9113   1
   3  -1   3 51967.5 672.937   4
   3  -1   3 55592.1 434.593   1
   3  -1   4 9580.90 304.208   4
   3  -1   5 5324.79 245.042   4
   3  -1   6 2359.60 172.589   4
   3  -1   6 2076.87 145.486   2
   3  -1   7 2834.93 202.922   4
   3  -1   7 2820.32 190.073   2
   3  -1   8 10891.7 428.141   4
   3  -1   8 10954.5 405.532   2
   3  -1   9 3408.42 247.037   4
   3  -1   9 3722.47 264.975   2
   3  -1  10 7.40584 47.4916   4
   3  -1  10 46.6831 41.4932   2
   3  -1  11 219.076 68.0146   4
   3  -1  11 348.386 93.2827   2
   3  -1  12 570.549 126.686   4
   3  -1  12 435.232 101.201   2
   3  -1  13 9136.24 500.192   2
   3  -1  13 9836.67 523.262   4
   3  -1  14 4483.77 366.906   2
   3  -1  14 4427.98 369.792   4
  -3   0  15 307.771 125.503   2
  -3   0  14 765.114 158.129   2
  -3   0  13 3008.76 317.153   2
  -3   0  12 46931.3 1181.51   2
   3   0 -12 46282.7 964.812   5
  -3   0  11 1193.83 175.895   2
   3   0 -11 1056.44 145.403   5
  -3   0  10 17936.0 659.015   2
   3   0 -10 17510.1 582.705   5
  -3   0   9 14807.1 570.479   2
   3   0  -9 14593.4 525.654   5
  -3   0   8 12031.3 482.137   2
   3   0  -8 11571.3 458.182   5
   3   0  -7 286.029 73.0106   5
  -3   0   7 433.260 80.5907   2
  -3   0   6 3294.14 224.006   2
   3   0  -6 3185.04 233.578   5
   3   0  -6 3260.49 129.759   3
  -3   0   5 251.910 62.4650   2
   3   0  -5 125.873 29.8788   3
  -3   0   4 88859.3 1022.78   2
   3   0  -4 90935.3 1002.46   2
   3   0  -3 9535.51 296.067   2
  -3   0   3 9360.00 314.513   2
   3   0  -2 1904.77 124.203   2
  -3   0   2 1881.74 132.772   2
   3   0  -1 4504.51 180.400   2
  -3   0   1 4395.76 188.544   2
   3   0  -1 4328.05 213.769   1
  -3   0   0 6400.11 213.496   2
   3   0   0 6470.35 211.984   2
   3   0   0 6348.55 242.967   1
   3   0   1 1489.20 104.736   2
   3   0   1 1400.86 105.297   1
   3   0   2 24697.6 544.685   4
   3   0   2 24366.1 437.359   2
   3   0   2 23677.1 396.561   1
   3   0   3 1456.84 133.454   4
   3   0   3 1522.57 86.0110   1
   3   0   3 1575.03 119.357   2
   3   0   4 382.794 33.2040   1
   3   0   4 473.455 70.8862   2
   3   0   4 536.178 88.2351   4
   3   0   5 46955.2 791.026   4
   3   0   5 50093.6 770.183   5
   3   0   6 29184.8 563.495   5
   3   0   6 28775.6 647.507   4
   3   0   7 13262.9 359.709   5
   3   0   7 12403.5 443.665   4
   3   0   8 291.550 76.6657   4
   3   0   9 2902.69 242.304   4
   3   0  10 8227.42 428.557   4
   3   0  11 15575.9 613.900   4
   3   0  11 16019.5 605.266   2
   3   0  12 509.536 123.066   4
   3   0  12 449.179 113.830   2
   3   0  13 128.599 89.5874   4
   3   0  13-6.41769 41.2768   2
   3   0  14 12302.4 638.477   2
  -3  -1  14-5.22381 67.0959   2
  -3  -1  13-50.6289 35.5242   2
  -3  -1  12 4737.22 391.534   2
  -3  -1  11 16786.0 716.732   2
  -3  -1  10 9155.26 504.302   2
   3   1 -10 8453.64 432.930   5
  -3  -1   9 9296.84 481.577   2
   3   1  -9 8249.68 421.007   5
   3   1  -8 13050.0 523.485   5
  -3  -1   8 12888.5 544.689   2
   3   1  -7 2339.25 218.169   5
   3   1  -7 2149.52 79.8052   3
  -3  -1   7 2670.77 230.936   2
   3   1  -6 1004.30 143.562   5
  -3  -1   6 1008.13 140.700   2
   3   1  -5 24719.7 691.153   5
  -3  -1   5 25902.8 671.080   2
   3   1  -4 1014.54 139.567   5
  -3  -1   4 1014.03 127.204   2
   3   1  -3 1295.73 150.646   5
  -3  -1   3 1104.09 126.087   2
   3   1  -2 34086.9 774.635   5
  -3  -1   2 35436.0 693.969   2
   3   1  -1 1530.02 162.017   5
  -3  -1   1 1164.01 121.805   2
   3   1  -1 1400.44 131.190   2
   3   1   0 2045.09 181.983   5
   3   1   0 2205.09 165.673   2
  -3  -1   0 2070.63 159.394   2
   3   1   1 989.413 126.774   5
   3   1   1 945.639 110.930   2
  -3  -1  -1 988.579 108.540   2
   3   1   2 20013.1 570.320   4
   3   1   2 19309.3 500.715   2
   3   1   2 18972.1 545.756   5
   3   1   3 5155.03 279.119   5
   3   1   3 5110.07 286.615   4
   3   1   4 8948.95 378.696   4
   3   1   4 8596.13 352.556   5
   3   1   5 5394.73 272.355   5
   3   1   5 5811.20 308.892   4
   3   1   6 6204.69 329.142   4
   3   1   6 5482.11 130.376   1
   3   1   7 43.9391 43.4890   4
   3   1   8 16894.5 581.569   4
   3   1   9 4421.88 314.282   4
   3   1  10 4015.51 315.823   4
   3   1  11 1230.78 192.025   4
   3   1  12 76.9890 60.7379   4
   3   1  14 60.1721 60.8335   2
  -3  -2  14 1760.81 273.032   2
  -3  -2  13 2542.33 319.142   2
  -3  -2  12 213.631 87.9886   2
  -3  -2  11 4124.35 371.219   2
  -3  -2  10 336.914 104.236   2
  -3  -2   9 926.122 163.798   2
  -3  -2   8 2155.50 241.517   2
  -3  -2   7 1759.04 209.698   2
  -3  -2   6 3685.04 293.774   2
   3   2  -5 6449.02 381.261   5
  -3  -2   5 6414.32 376.902   2
   3   2  -4 11478.2 504.612   5
  -3  -2   4 11460.7 486.228   2
   3   2  -3 2583.32 238.056   5
  -3  -2   3 2273.68 209.271   2
  -3  -2   2 15291.4 532.015   2
   3   2  -2 15197.6 564.054   5
   3   2  -1 9471.09 439.787   5
  -3  -2   1 8689.28 392.166   2
   3   2   0 182.027 88.8456   5
  -3  -2   0 212.776 72.3198   2
  -3  -2  -1 4662.27 280.884   2
   3   2   2 15276.2 563.698   4
   3   2   3 14614.7 534.893   4
   3   2   4 629.767 117.448   4
   3   2   5 55.5843 68.1811   4
   3   2   6 4383.28 302.949   4
   3   2   6 4125.44 184.265   1
   3   2   7-5.72405 37.3354   4
   3   2   8 621.611 122.591   4
   3   2   9 289.658 90.2223   4
   3   2  10 179.511 69.1048   4
   3   2  11 13263.2 632.761   4
  -3  -3  13 980.716 219.949   2
  -3  -3  12 267.848 92.1910   2
  -3  -3  11 602.781 153.909   2
  -3  -3  10 78.3658 62.5116   2
  -3  -3   9 756.064 160.589   2
  -3  -3   8 4163.54 368.376   2
  -3  -3   7 1387.79 204.403   2
  -3  -3   6 24107.5 828.760   2
  -3  -3   5 166.308 52.4109   2
  -3  -3   4 21805.4 751.656   2
  -3  -3   3 71321.0 1342.51   2
  -3  -3   2 1187.91 168.439   2
  -3  -3   1 35.9208 50.8627   2
  -3  -3   0 771.713 134.904   2
  -3  -3  -1 1918.91 203.909   2
   3   3   2 20868.9 712.182   4
   3   3   3 1951.67 215.359   4
   3   3   4 2346.52 233.087   4
   3   3   5 7714.58 433.309   4
   3   3   6 6301.34 390.749   4
   3   3   7 1514.58 197.809   4
   3   3   8 635.425 134.480   4
   3   3   9 523.669 138.663   4
   3   3  10 112.114 64.1000   4
  -3  -4  11 6128.63 529.230   2
  -3  -4  10 72.4483 35.8354   2
  -3  -4   9 76.9202 79.5726   2
  -3  -4   8 1106.77 215.629   2
  -3  -4   7 6268.25 477.464   2
  -3  -4   6 8830.32 550.705   2
  -3  -4   5 45057.4 1221.63   2
  -3  -4   4 8899.00 526.723   2
  -3  -4   3 31298.5 982.530   2
  -3  -4   2 29520.5 929.236   2
  -3  -4   1 9068.97 520.958   2
  -3  -4   0 2.22972 54.6720   2
   3   4   1 7081.67 439.730   4
  -3  -4  -1 6359.28 418.668   2
   3   4   2 175.702 76.2613   4
   3   4   3 1968.09 232.739   4
   3   4   4 8837.82 497.059   4
   3   4   5 189.853 85.8748   4
   3   4   6 15491.5 662.681   4
   3   4   7 1114.81 178.667   4
   3   4   8 3702.23 334.905   4
  -3  -5   9 14479.2 824.002   2
  -3  -5   8 3943.57 417.744   2
  -3  -5   7 499.040 136.361   2
  -3  -5   6 2094.07 296.225   2
  -3  -5   5 59.8828 31.1629   2
  -3  -5   4 8.24009 30.7866   2
  -3  -5   3 1100.75 208.442   2
  -3  -5   2 419.885 124.929   2
  -3  -5   1 336.956 121.827   2
  -3  -5   0 184.277 87.0690   2
  -3  -5  -1 365.108 121.928   2
   3   5   1 437.948 114.811   4
   3   5   2 1841.91 244.287   4
   3   5   3 181.766 84.8980   4
   3   5   4 2750.51 295.940   4
   3   5   5 2681.33 298.973   4
   3   5   6 204.750 97.5353   4
  -3  -6   5 1811.27 287.826   2
  -3  -6   4-88.5581 87.2795   2
  -3  -6   3 2814.66 352.956   2
  -3  -6   2 589.047 152.486   2
  -3  -6   1 5861.19 494.001   2
   3   6   0 2672.56 316.731   4
  -3  -6   0 2639.18 328.811   2
   3   6   1 6064.07 473.145   4
   4  -9   3 3560.25 347.275   2
  -4   8   6 1006.45 190.990   1
  -4   8   5 4231.15 382.411   1
  -4   8   4 570.286 127.159   1
  -4   8   3 88.7455 32.4000   1
  -4   8   2 1111.47 189.618   1
  -4   8   1 7190.62 470.962   1
  -4   8   0 393.178 98.5727   1
  -4   8  -1 6283.38 422.439   1
  -4   8  -2 150.951 72.5469   1
   4  -8   2 143.469 67.8701   2
  -4   8  -3 58.1781 36.8067   1
   4  -8   3-0.37661 21.8760   2
  -4   8  -4 948.949 174.270   1
   4  -8   4 1275.32 201.735   2
  -4   8  -5 146.494 75.4446   1
  -4   8  -6 20.7184 45.0387   1
  -4   8  -7 861.993 165.362   1
  -4   7   9 416.310 121.023   1
  -4   7   8 11.1528 54.1177   1
  -4   7   7 79.2417 43.0243   1
  -4   7   6 12172.3 624.791   1
  -4   7   5 6440.15 440.783   1
  -4   7   4 140.159 63.1659   1
  -4   7   3 18.1303 45.6103   1
  -4   7   2 2343.92 248.651   1
  -4   7   1 2460.51 261.038   1
  -4   7   0 2326.68 254.367   1
  -4   7  -1 289.525 96.3811   1
   4  -7   2 334.419 91.2304   2
  -4   7  -2 338.556 99.2966   1
   4  -7   3 384.590 98.7103   2
  -4   7  -3 246.745 84.4140   1
  -4   7  -4 196.779 73.7284   1
   4  -7   4 240.735 82.9791   2
  -4   7  -5 1923.72 220.457   1
   4  -7   5 1688.00 206.248   2
  -4   7  -6 711.775 135.067   1
   4  -7   6 638.826 130.644   2
  -4   7  -7 2023.38 224.835   1
  -4   6  12 1295.73 232.739   1
  -4   6  11 142.656 71.0399   1
  -4   6  10 3089.87 317.935   1
  -4   6   9 1856.45 244.587   1
  -4   6   8 9129.56 522.550   1
  -4   6   7 10799.5 565.679   1
  -4   6   6 5647.28 394.653   1
  -4   6   5 3279.89 296.636   1
  -4   6   4 591.239 120.660   1
  -4   6   3 238.137 78.1955   1
  -4   6   2 984.352 159.118   1
  -4   6   1 39.9455 27.2786   1
  -4   6   0 223.875 72.0471   1
  -4   6  -1 2199.40 216.023   1
  -4   6  -2 43783.2 938.210   1
   4  -6   2 47163.4 879.200   2
   4  -6   3 113.064 48.1728   2
  -4   6  -3 112.574 60.3141   1
  -4   6  -4 4710.10 302.665   1
   4  -6   4 4795.11 296.499   2
   4  -6   4 5343.54 365.114   3
   4  -6   5 709.907 115.700   2
  -4   6  -5 591.232 115.309   1
   4  -6   5 671.256 130.524   3
  -4   6  -6 8600.41 403.449   1
   4  -6   6 9096.01 435.143   2
   4  -6   6 10036.6 498.437   3
   4  -6   7 628.664 119.688   2
  -4   6  -7 480.460 98.5851   1
   4  -6   7 666.407 143.749   3
   4  -6   8 335.962 95.5953   3
   4  -6   9 933.607 157.551   3
   4  -6  10 36799.0 1001.66   3
  -4   5  13 1369.01 233.875   1
  -4   5  12 2018.59 266.207   1
  -4   5  11 1884.91 251.716   1
  -4   5  10 1499.69 223.444   1
  -4   5   9 727.217 146.825   1
  -4   5   8 4878.94 361.543   1
  -4   5   7 408.500 101.457   1
  -4   5   6 6061.38 381.375   1
  -4   5   5 3717.52 295.404   1
  -4   5   4 6550.02 379.630   1
  -4   5   3 98.0850 51.4337   1
  -4   5   2 7979.23 399.438   1
  -4   5   1 1882.00 192.191   1
  -4   5   0 11717.4 395.446   2
  -4   5   0 10921.8 450.679   1
   4  -5   0 11185.7 477.665   3
  -4   5  -1 1671.85 144.040   2
  -4   5  -1 1795.69 180.458   1
   4  -5   1 1522.18 177.637   3
  -4   5  -2 10773.8 354.026   2
  -4   5  -2 11087.2 431.998   1
   4  -5   2 10510.7 348.836   2
   4  -5   2 10500.8 464.007   3
  -4   5  -3 1970.71 178.871   1
   4  -5   3 2035.25 164.542   2
   4  -5   3 2043.53 214.485   3
   4  -5   4 370.278 69.9631   2
  -4   5  -4 135.839 49.8127   1
   4  -5   5 504.781 87.6598   2
  -4   5  -5 358.955 74.4682   1
   4  -5   5 494.164 111.254   3
   4  -5   6 8654.84 377.909   2
  -4   5  -6 8610.67 350.056   1
   4  -5   6 8562.26 448.608   3
   4  -5   7 6231.78 341.808   2
  -4   5  -7 5791.44 284.264   1
   4  -5   8-11.0304 34.5272   3
   4  -5   8 9.78733 24.5607   2
   4  -5   9 214.161 69.4116   3
   4  -5  10 52.6822 22.2089   3
   4  -5  11 2929.96 281.540   3
  -4   4  14 834.955 173.376   1
  -4   4  13 1140.74 205.207   2
  -4   4  13 1575.55 236.386   1
  -4   4  12 45.4005 33.0109   1
  -4   4  11 239.541 78.4811   1
  -4   4  10 695.043 136.414   1
  -4   4   9 7906.70 464.601   1
  -4   4   8 1481.63 191.447   1
  -4   4   7 115.725 44.1751   1
  -4   4   6 2780.54 245.429   1
  -4   4   5 5723.24 340.207   1
   4  -4  -5 5909.11 208.173   4
   4  -4  -4 40.8780 20.5954   4
  -4   4   4 55.0437 31.9535   1
   4  -4  -3 40406.7 373.458   4
  -4   4   3 42150.2 698.015   2
  -4   4   3 41677.2 874.532   1
  -4   4   2 19133.2 450.418   2
   4  -4  -2 19120.9 564.979   3
  -4   4   2 18335.8 556.587   1
  -4   4   1 45.6752 22.8291   2
  -4   4   1 59.2142 45.1024   1
   4  -4  -1 121.100 58.8942   3
  -4   4   0 4177.76 181.856   2
  -4   4   0 4175.68 252.081   1
   4  -4   0 4633.60 289.342   3
  -4   4  -1 398.564 51.7303   2
  -4   4  -1 496.872 84.2429   1
   4  -4   1 411.577 83.8716   3
  -4   4  -2 3337.38 144.183   2
   4  -4   2 3540.42 148.570   2
  -4   4  -2 3539.33 215.263   1
   4  -4   2 3307.81 250.448   3
  -4   4  -3 3347.82 145.742   2
   4  -4   3 3456.32 162.267   2
  -4   4  -3 3232.19 201.279   1
   4  -4   3 3242.48 251.474   3
  -4   4  -4 1756.71 115.290   4
   4  -4   4 1727.49 124.772   2
  -4   4  -4 1805.21 147.049   1
   4  -4   4 1584.82 179.312   3
  -4   4  -4 1810.70 117.088   2
   4  -4   5 2973.92 180.402   2
  -4   4  -5 3121.38 185.920   1
   4  -4   5 3256.69 261.949   3
   4  -4   6 14235.4 426.036   2
  -4   4  -6 13970.2 382.881   1
   4  -4   6 13421.7 549.475   3
  -4   4  -7 59.4911 27.5831   1
   4  -4   7 49.0111 30.4023   2
   4  -4   8 2442.30 206.266   2
   4  -4   8 2680.13 267.230   3
   4  -4   9 133.740 66.7551   3
   4  -4  10 7057.36 442.357   3
   4  -4  11 971.327 169.470   3
   4  -4  12 96.4882 44.9921   3
  -4   3  14 593.907 149.458   2
  -4   3  13 210.808 84.2924   1
  -4   3  13 294.726 115.541   2
  -4   3  12 1079.19 186.903   1
  -4   3  12 1453.06 217.417   2
  -4   3  11 224.790 87.1415   1
  -4   3  11 330.805 100.217   2
  -4   3  10 24858.9 827.143   1
  -4   3  10 24886.0 788.914   2
  -4   3   9 1780.90 215.610   1
  -4   3   9 1644.12 188.949   2
  -4   3   8 3477.65 288.540   1
  -4   3   8 3392.95 253.989   2
  -4   3   7 37206.5 919.819   1
  -4   3   6 43.3527 42.0934   1
  -4   3   5 1298.11 157.530   1
   4  -3  -5 1393.32 112.181   4
  -4   3   4 2917.82 230.846   1
   4  -3  -4 2651.19 194.579   3
  -4   3   3 12970.5 459.940   1
   4  -3  -3 13141.6 274.100   4
   4  -3  -3 12814.9 433.380   3
  -4   3   2 958.844 116.623   1
  -4   3   2 1023.60 81.1750   2
   4  -3  -2 1132.78 131.169   3
  -4   3   1 1710.49 151.597   1
  -4   3   1 1656.01 91.0892   2
   4  -3  -1 1727.56 164.079   3
  -4   3   0 1975.20 155.604   1
   4  -3   0 2009.24 77.7790   4
   4  -3   0 2199.07 188.779   3
   4  -3   1 15871.4 233.582   4
  -4   3  -1 15080.6 413.919   1
   4  -3   2 28030.3 364.897   4
   4  -3   2 28387.1 713.075   3
  -4   3  -2 28310.2 550.169   1
   4  -3   3 10917.6 259.769   4
   4  -3   3 10563.5 438.933   3
  -4   3  -3 10979.3 327.535   1
   4  -3   4 16.4287 12.2855   2
   4  -3   4 2.65049 31.2581   3
  -4   3  -4 34.3762 19.8753   1
   4  -3   5 3991.63 176.272   2
   4  -3   5 3924.58 200.562   4
   4  -3   5 3615.28 270.434   3
  -4   3  -5 3748.46 169.884   1
   4  -3   6 8173.40 285.765   2
   4  -3   6 8221.44 307.476   4
   4  -3   6 8875.63 439.311   3
  -4   3  -6 8209.53 228.667   1
   4  -3   7 679.531 92.4375   2
   4  -3   7 781.318 105.044   4
   4  -3   7 517.031 116.756   3
   4  -3   8 8750.32 357.637   2
   4  -3   8 8917.27 370.999   4
   4  -3   8 8354.74 456.486   3
   4  -3   9 1953.61 182.124   2
   4  -3   9 2093.07 193.030   4
   4  -3   9 1980.38 229.052   3
   4  -3  10 11538.2 490.634   4
   4  -3  10 11653.3 564.385   3
   4  -3  11 1402.68 194.944   3
   4  -3  12 88.8227 30.6115   3
   4  -3  13 2.53947 29.6410   3
  -4   2  14 2166.62 275.613   2
  -4   2  13 911.862 174.336   2
  -4   2  12 11038.3 575.220   2
  -4   2  11 569.139 128.373   2
  -4   2  10 21724.8 722.660   2
  -4   2   9 5821.10 391.058   1
  -4   2   9 5678.71 348.531   2
  -4   2   8 35551.2 925.345   1
  -4   2   8 35823.9 818.543   2
  -4   2   7 149.666 64.1175   1
  -4   2   7 253.037 74.9701   2
  -4   2   6 45422.2 960.129   1
  -4   2   6 44299.9 783.923   2
  -4   2   5 21149.5 495.852   2
  -4   2   5 20590.7 619.297   1
   4  -2  -5 20820.3 497.309   3
  -4   2   4 4037.42 194.554   2
  -4   2   4 4118.51 267.351   1
   4  -2  -4 3921.79 219.376   3
  -4   2   3 491.229 60.4255   2
  -4   2   3 528.051 95.7230   1
   4  -2  -3 541.405 84.3921   3
  -4   2   2 7147.09 193.295   2
  -4   2   2 7106.93 321.944   1
   4  -2  -2 7057.51 317.213   3
  -4   2   1 3797.23 101.190   2
   4  -2  -1 4131.35 242.770   3
   4  -2   0 7811.55 254.499   4
  -4   2   0 8113.63 312.650   1
   4  -2   0 8192.24 357.720   3
   4  -2   1 50752.0 625.655   4
  -4   2  -1 50486.1 734.255   1
   4  -2   1 51724.2 686.512   1
   4  -2   1 49019.9 910.473   3
   4  -2   2 51557.0 629.049   4
  -4   2  -2 51146.3 694.228   1
   4  -2   3 18035.7 389.431   4
  -4   2  -3 17935.8 376.986   1
   4  -2   4 14072.6 367.454   4
  -4   2  -4 13465.0 292.223   1
   4  -2   5 892.854 76.1938   2
   4  -2   5 969.941 106.278   4
   4  -2   6 2056.60 136.540   2
   4  -2   6 2114.75 167.420   4
   4  -2   7 4878.28 233.584   2
   4  -2   7 5090.01 278.580   4
   4  -2   8 4040.11 233.877   2
   4  -2   8 4076.02 255.225   4
   4  -2   9 3230.35 225.799   2
   4  -2   9 3273.61 254.131   4
   4  -2  10-46.8214 30.5408   4
   4  -2  11 800.688 134.156   4
   4  -2  12 113.863 48.5511   4
   4  -2  13 2550.91 268.973   4
  -4   1  14 10156.9 617.234   2
  -4   1  13 1528.79 234.582   2
  -4   1  12 1360.24 204.479   2
   4  -1 -12 1069.97 165.124   5
  -4   1  11 1537.84 203.875   2
   4  -1 -11 1449.02 185.901   5
  -4   1  10 16085.9 626.862   2
   4  -1 -10 15424.1 594.699   5
  -4   1   9 66573.4 1206.85   2
  -4   1   8 147.541 64.5198   2
  -4   1   7 234.631 67.7034   2
   4  -1  -7 60.0427 28.3485   3
  -4   1   6 21436.5 566.140   2
   4  -1  -6 18967.2 431.529   3
  -4   1   5 298.146 58.9825   2
   4  -1  -5 343.656 59.2864   3
  -4   1   4 42.5749 21.0226   2
   4  -1  -4 28.3281 31.6631   3
  -4   1   3 1859.07 131.945   2
   4  -1  -3 1920.41 156.825   3
  -4   1   2 38.7398 20.1414   2
  -4   1   1 38798.8 475.042   2
   4  -1  -1 38303.0 432.289   2
   4  -1   0 580.817 83.9352   1
  -4   1   0 613.572 48.1647   2
   4  -1   0 585.992 45.1165   2
   4  -1   1 2481.56 86.3177   2
   4  -1   1 2820.23 188.648   4
   4  -1   1 2820.22 160.043   1
   4  -1   2 4161.09 132.296   2
   4  -1   2 4532.45 235.356   4
   4  -1   2 4751.18 190.411   1
   4  -1   3 5193.16 256.597   4
   4  -1   3 5234.62 174.957   2
   4  -1   3 5529.44 178.923   1
   4  -1   4 882.272 111.441   4
   4  -1   4 730.239 53.3807   1
   4  -1   4 750.823 78.1856   2
   4  -1   5 6896.84 301.895   4
   4  -1   5 7073.26 257.109   2
   4  -1   6 11389.1 409.718   4
   4  -1   7 3500.54 239.574   4
   4  -1   7 3377.40 204.024   2
   4  -1   8 10580.1 441.320   4
   4  -1   8 9560.42 376.506   2
   4  -1   9 2258.70 215.812   4
   4  -1   9 2356.96 208.850   2
   4  -1  10 1373.78 173.961   4
   4  -1  10 1462.35 173.437   2
   4  -1  11 1894.54 216.298   4
   4  -1  12 2350.44 257.138   4
   4  -1  13 1800.50 232.436   4
  -4   0  14 5486.35 463.878   2
  -4   0  13 15.0582 42.9301   2
  -4   0  12 4055.04 362.937   2
   4   0 -12 3893.17 322.728   5
   4   0 -11 733.512 133.590   5
  -4   0  11 931.379 164.489   2
  -4   0  10 3515.34 305.533   2
   4   0 -10 2895.65 267.887   5
  -4   0   9 5615.47 369.408   2
   4   0  -9 5112.60 354.221   5
   4   0  -8 301.280 87.2795   5
  -4   0   8 397.196 86.5377   2
  -4   0   7 27251.8 739.345   2
   4   0  -7 26627.0 444.694   3
   4   0  -7 26100.9 778.017   5
   4   0  -6 6434.32 379.680   5
  -4   0   6 6409.63 338.012   2
   4   0  -6 6419.28 244.854   3
   4   0  -5 4938.96 327.501   5
  -4   0   5 4939.05 280.686   2
   4   0  -5 4733.85 228.928   3
  -4   0   4 7336.15 328.862   2
   4   0  -3 12895.6 374.905   2
  -4   0   3 12441.8 403.608   2
   4   0  -2 5500.68 232.180   2
  -4   0   2 5351.06 247.833   2
   4   0  -1 10740.7 314.713   2
  -4   0   1 11071.2 340.924   2
   4   0   0 1083.32 97.3500   2
  -4   0   0 1129.12 103.134   2
   4   0   1 1511.26 155.908   4
   4   0   1 1348.42 111.486   2
   4   0   1 1506.47 129.600   1
   4   0   2 675.120 107.378   4
   4   0   2 798.357 89.8684   2
   4   0   2 739.856 83.2375   1
   4   0   3 4473.74 286.342   5
   4   0   3 4076.53 179.666   1
   4   0   3 4051.42 255.951   4
   4   0   3 4083.46 210.719   2
   4   0   4 485.637 50.7628   1
   4   0   4 598.921 101.072   5
   4   0   4 688.016 92.8300   2
   4   0   4 682.857 106.009   4
   4   0   5 8724.01 380.536   4
   4   0   5 8986.95 394.278   5
   4   0   6 19067.4 560.497   5
   4   0   6 18678.7 567.633   4
   4   0   7 716.765 107.275   5
   4   0   7 731.276 117.004   4
   4   0   8 359.873 86.1168   4
   4   0   9-5.92988 30.2418   4
   4   0  10 2659.89 258.836   4
   4   0  11 913.893 158.332   4
   4   0  12 184.935 63.8979   4
  -4  -1  13 187.226 101.537   2
  -4  -1  12 2947.00 333.645   2
   4   1 -11 300.009 111.884   5
  -4  -1  11 72.1224 59.5294   2
   4   1 -10 3767.23 324.042   5
  -4  -1  10 3590.96 329.816   2
   4   1  -9 821.023 155.987   5
  -4  -1   9 786.072 147.641   2
   4   1  -8 58.4429 59.8166   5
  -4  -1   8 82.9838 52.8901   2
  -4  -1   7 3510.53 288.215   2
   4   1  -7 3128.70 155.071   3
   4   1  -7 3051.23 282.648   5
  -4  -1   6 13593.8 548.832   2
   4   1  -6 12818.9 570.842   5
   4   1  -5 1281.27 174.125   5
  -4  -1   5 1128.30 148.165   2
   4   1  -4-38.6902 44.6210   5
  -4  -1   4 5.03456 35.9302   2
  -4  -1   3 27.6324 32.4049   2
   4   1  -3 61.2244 37.3210   5
   4   1  -2 2255.04 229.070   5
  -4  -1   2 2192.47 191.203   2
   4   1  -1 55732.9 1119.52   5
  -4  -1   1 56582.5 937.894   2
   4   1   0 5650.42 354.729   5
  -4  -1   0 5744.14 290.904   2
   4   1   1 4650.24 318.772   5
  -4  -1  -1 4324.32 239.622   2
   4   1   2 4823.93 321.470   5
   4   1   2 5129.31 325.454   4
   4   1   3 8572.06 423.188   5
   4   1   3 8705.45 418.730   4
   4   1   4 718.957 127.950   5
   4   1   4 638.359 119.905   4
   4   1   5 5867.84 338.068   5
   4   1   5 5739.11 340.479   4
   4   1   6 17471.7 603.276   4
   4   1   7 9536.27 455.602   4
   4   1   8 222.173 79.8087   4
   4   1   9 3125.38 276.950   4
   4   1  10 836.083 156.938   4
   4   1  11 149.418 83.8102   4
  -4  -2  13 82.6484 72.6955   2
  -4  -2  12 1557.28 254.215   2
  -4  -2  11 5854.24 471.069   2
  -4  -2  10 11.5001 35.5854   2
  -4  -2   9 9446.05 555.668   2
  -4  -2   8-34.1102 68.3120   2
   4   2  -7 204.208 109.332   5
  -4  -2   7 0.34679 42.9702   2
   4   2  -6 135.284 96.2164   5
  -4  -2   6-18.9648 38.0665   2
   4   2  -5 3063.19 293.876   5
  -4  -2   5 3225.11 286.253   2
   4   2  -4 3485.80 316.414   5
  -4  -2   4 4069.25 308.783   2
   4   2  -3 88066.3 1535.69   5
  -4  -2   3 90066.7 1426.71   2
  -4  -2   2 691.101 128.164   2
   4   2  -2 750.855 152.816   5
   4   2  -1 31319.7 899.784   5
  -4  -2   1 30143.4 784.401   2
   4   2   0 65251.6 1286.67   5
  -4  -2   0 67450.5 1162.78   2
   4   2   1 13092.1 576.296   5
  -4  -2  -1 13330.5 493.641   2
   4   2   2 609.948 128.836   4
   4   2   3 3973.29 306.196   4
   4   2   4 260.004 98.9495   4
   4   2   5 10361.0 498.936   4
   4   2   6 6845.10 408.952   4
   4   2   7 256.168 90.4874   4
   4   2   8 3983.29 328.143   4
   4   2   9 5632.12 402.784   4
   4   2  10 2698.76 289.748   4
  -4  -3  11 727.019 177.789   2
  -4  -3  10 726.569 163.688   2
  -4  -3   9 73.8483 60.2904   2
  -4  -3   8 13404.3 697.417   2
  -4  -3   7 8128.06 529.796   2
  -4  -3   6 2669.75 292.703   2
  -4  -3   5 1137.38 196.608   2
  -4  -3   4 207.866 89.0838   2
  -4  -3   3 1592.34 213.727   2
  -4  -3   2 3643.36 308.728   2
  -4  -3   1 12834.4 586.758   2
  -4  -3   0 9367.05 490.600   2
   4   3   1 13792.7 635.887   4
  -4  -3  -1 14017.1 580.453   2
   4   3   2 1550.75 214.890   4
   4   3   3 882.003 159.844   4
   4   3   4 3166.65 298.022   4
   4   3   5 530.951 121.640   4
   4   3   6 1838.19 237.904   4
   4   3   7 121.401 71.4140   4
   4   3   8 1633.67 225.795   4
  -4  -4   9 6244.11 530.571   2
  -4  -4   8 4545.85 435.885   2
  -4  -4   7 261.494 125.785   2
  -4  -4   6 3459.88 361.363   2
  -4  -4   5 131.165 72.0836   2
  -4  -4   4 9.87049 49.1171   2
  -4  -4   3 93.1796 70.0230   2
  -4  -4   2 33.8697 33.8805   2
  -4  -4   1 202.546 74.3698   2
  -4  -4   0 1778.95 234.935   2
   4   4   1 3284.70 339.047   4
  -4  -4  -1 3304.12 317.774   2
   4   4   2 8876.53 530.149   4
   4   4   3 446.273 124.663   4
   4   4   4 4296.96 372.920   4
   4   4   5 205.538 90.7310   4
  -4  -5   6 3933.37 425.662   2
  -4  -5   5 1544.23 255.128   2
  -4  -5   4 1217.80 227.320   2
  -4  -5   3 1614.46 260.495   2
  -4  -5   2 472.238 143.998   2
  -4  -5   1 1296.69 224.317   2
  -4  -5   0 259.089 109.150   2
   4   5   0 329.223 124.204   4
  -5   8   5 1146.48 206.009   1
  -5   8   4 70.8144 46.6943   1
  -5   8   3 10073.4 585.161   1
  -5   8   2 5857.77 435.235   1
  -5   8   1 1115.18 183.720   1
  -5   8   0 769.250 156.645   1
  -5   8  -1-1.45123 28.3098   1
  -5   8  -2 559.223 136.728   1
  -5   8  -3 2381.12 269.440   1
  -5   8  -4 4051.15 353.540   1
  -5   8  -5 588.681 128.933   1
  -5   7   8 1022.85 194.096   1
  -5   7   7 183.451 78.2502   1
  -5   7   6 322.695 104.310   1
  -5   7   5 2322.99 272.503   1
  -5   7   4 18693.1 752.736   1
  -5   7   3 4062.25 350.225   1
  -5   7   2 619.316 134.816   1
  -5   7   1 25.2640 34.9847   1
  -5   7   0-0.95098 31.5001   1
  -5   7  -1 1482.63 202.410   1
  -5   7  -2 176.330 74.8183   1
  -5   7  -3 1072.83 171.915   1
  -5   7  -4 3155.73 274.830   1
  -5   7  -5 9361.09 471.986   1
   5  -7   6 124.370 100.593   3
   5  -7   7 995.255 181.508   3
   5  -7   8 1083.87 201.741   3
   5  -7   9 4580.83 401.085   3
   5  -7  10 1754.10 264.466   3
  -5   6  10 437.986 141.319   1
  -5   6   9 339.545 116.943   1
  -5   6   8 98.7175 56.9856   1
  -5   6   7 2554.51 277.170   1
  -5   6   6 647.250 132.404   1
  -5   6   5 8697.81 497.231   1
  -5   6   4 1487.98 203.128   1
  -5   6   3 1700.37 211.463   1
  -5   6   2 4108.52 320.920   1
  -5   6   1 10582.7 503.091   1
  -5   6   0 265.748 80.1084   1
  -5   6  -1 7665.47 408.508   1
   5  -6   1 8135.06 461.175   3
  -5   6  -2 450.265 97.6984   1
   5  -6   2 512.352 124.426   3
  -5   6  -3 6309.28 359.630   1
   5  -6   3 5379.70 377.170   3
  -5   6  -4 1307.76 157.502   1
   5  -6   4 1095.35 177.960   3
  -5   6  -5 404.622 80.4162   1
   5  -6   5 221.758 72.5728   3
   5  -6   6 545.377 126.123   3
   5  -6   7 192.722 82.7400   3
   5  -6   8 614.680 134.578   3
   5  -6   9 1400.79 218.533   3
   5  -6  10 591.517 140.764   3
   5  -6  11-95.0786 64.9740   3
  -5   5  13 0.16745 67.0423   2
  -5   5  12 127.982 83.5513   1
  -5   5  12 38.1308 65.5854   2
  -5   5  11 1074.25 205.622   1
  -5   5  10 2773.97 308.072   1
  -5   5   9 1972.89 257.884   1
  -5   5   8 2651.52 288.807   1
  -5   5   7 1185.03 192.018   1
  -5   5   6 8163.14 466.046   1
  -5   5   5 10447.7 519.037   1
  -5   5   4 119.342 69.7933   1
  -5   5   3 396.232 100.426   1
  -5   5   2 693.978 125.311   1
   5  -5  -2 671.911 130.318   3
   5  -5  -1 305.599 93.7617   3
  -5   5   1 261.014 71.8801   1
   5  -5   0 4092.26 312.431   3
  -5   5   0 4118.31 279.625   1
   5  -5   1 23502.5 754.987   3
  -5   5  -1 24513.9 670.652   1
   5  -5   2 4780.36 346.629   3
  -5   5  -2 5116.79 303.163   1
  -5   5  -3 3960.38 258.957   1
   5  -5   3 4380.40 332.202   3
  -5   5  -4 5554.75 299.681   1
   5  -5   4 5488.35 377.598   3
  -5   5  -5 141.832 47.5316   1
   5  -5   5 128.958 49.7450   3
   5  -5   6 140.238 67.4169   3
   5  -5   7 2508.48 266.006   3
   5  -5   8 2859.85 294.565   3
   5  -5   9 706.004 151.503   3
   5  -5  10 1356.22 211.737   3
   5  -5  11 3378.00 338.375   3
   5  -5  12 739.074 162.824   3
  -5   4  13 162.535 73.6301   1
  -5   4  13 65.4822 59.2518   2
  -5   4  12 1830.30 258.949   1
  -5   4  12 2161.95 280.873   2
  -5   4  11 76.8028 51.4873   2
  -5   4  11 98.0195 76.7430   1
  -5   4  10 1618.59 228.269   1
  -5   4  10 1323.88 188.862   2
  -5   4   9 1260.11 197.880   1
  -5   4   9 1263.10 173.339   2
  -5   4   8 13357.5 630.912   1
  -5   4   8 13169.4 518.412   2
  -5   4   7 22226.4 783.012   1
  -5   4   6 25327.6 816.155   1
  -5   4   5 67.1065 60.0538   1
  -5   4   4 31858.3 852.427   1
   5  -4  -4 32604.9 792.294   3
  -5   4   3 10083.4 463.626   1
   5  -4  -3 9571.34 432.592   3
  -5   4   2 130.782 50.7603   1
   5  -4  -2 134.604 51.9347   3
  -5   4   1 3093.49 235.092   1
   5  -4  -1 2800.60 243.177   3
  -5   4   0 6087.77 318.649   1
   5  -4   0 5921.36 355.239   3
  -5   4  -1 1774.72 165.606   1
   5  -4   1 1677.52 192.517   3
   5  -4   2 3353.44 277.553   3
  -5   4  -2 3559.91 221.754   1
   5  -4   3 3029.67 272.015   3
  -5   4  -3 2972.59 196.690   1
   5  -4   4 14854.5 613.916   3
  -5   4  -4 13695.2 405.881   1
   5  -4   5 3658.25 311.424   3
  -5   4  -5 3812.19 201.567   1
   5  -4   6 15009.6 637.966   3
   5  -4   7 57.6386 37.6931   3
   5  -4   8 485.075 116.132   3
   5  -4   9 549.362 140.363   3
   5  -4  10 131.492 76.7577   3
   5  -4  11 2539.79 297.621   3
   5  -4  12-13.8947 49.9936   3
  -5   3  14 1170.47 210.696   2
  -5   3  13 95.3218 70.5479   2
  -5   3  12 4985.57 396.904   2
  -5   3  11 711.721 154.569   1
  -5   3  11 545.440 127.891   2
  -5   3  10 109.877 68.3670   1
  -5   3  10 244.001 69.1201   2
  -5   3   9 1982.01 244.192   1
  -5   3   9 1944.00 208.047   2
  -5   3   8 14807.9 645.805   1
  -5   3   8 14940.9 540.678   2
  -5   3   7 38825.9 1007.77   1
  -5   3   7 39905.3 822.089   2
  -5   3   6 718.789 135.371   1
   5  -3  -6 812.139 120.477   3
  -5   3   6 806.545 108.395   2
  -5   3   5 16127.6 442.298   2
  -5   3   5 16497.3 616.341   1
   5  -3  -5 15930.1 510.722   3
  -5   3   4 594.360 76.5188   2
   5  -3  -4 416.412 84.6004   3
  -5   3   3 19254.7 373.780   2
  -5   3   3 18759.8 621.643   1
   5  -3  -3 18506.8 574.594   3
  -5   3   2 8720.73 201.095   2
  -5   3   2 8836.92 410.496   1
  -5   3   2 8639.94 201.570   2
   5  -3  -2 7979.37 390.020   3
   5  -3  -1 1327.45 102.806   4
  -5   3   1 1334.87 150.824   1
   5  -3  -1 1480.02 169.312   3
   5  -3   0 1150.82 89.5093   4
  -5   3   0 1223.81 141.298   1
   5  -3   0 1164.69 156.653   3
   5  -3   1 17792.2 343.849   4
  -5   3  -1 18190.7 516.833   1
   5  -3   1 17585.1 610.541   3
   5  -3   2 3400.19 155.700   4
  -5   3  -2 3333.91 210.744   1
   5  -3   2 3250.42 264.607   3
   5  -3   3 1048.53 93.2768   4
  -5   3  -3 1143.32 118.268   1
   5  -3   3 1128.60 155.972   3
   5  -3   4 4123.13 201.104   4
  -5   3  -4 4307.74 209.340   1
   5  -3   5-13.4382 20.3422   4
   5  -3   5 13.3546 30.9650   3
   5  -3   6 8077.18 322.957   4
   5  -3   6 7891.39 458.824   3
   5  -3   7 2390.83 188.816   4
   5  -3   7 2153.49 242.902   3
   5  -3   8 310.964 71.7712   4
   5  -3   8 233.825 92.9427   3
   5  -3   9 3680.49 262.605   4
   5  -3   9 3883.94 345.099   3
   5  -3  10 867.421 137.624   4
   5  -3  10 686.019 147.230   3
   5  -3  11 2535.01 244.299   4
   5  -3  11 2416.92 285.342   3
   5  -3  12-34.5746 63.4630   3
  -5   2  14 2344.50 305.122   2
  -5   2  13 1492.93 232.151   2
  -5   2  12 6566.28 451.441   2
   5  -2 -12 5705.17 404.777   5
  -5   2  11 5299.67 387.897   2
  -5   2  10 5288.06 364.106   2
  -5   2   9 3608.10 283.406   2
  -5   2   8 101.407 59.6761   2
  -5   2   7 15853.8 521.910   2
   5  -2  -7 15339.2 463.305   3
  -5   2   6 25419.1 801.620   1
  -5   2   6 23960.5 599.037   2
   5  -2  -6 25752.7 612.023   3
  -5   2   5 6409.29 288.882   2
   5  -2  -5 6275.23 308.597   3
  -5   2   5 6281.22 381.572   1
  -5   2   4 645.800 85.4525   2
  -5   2   4 689.111 127.561   1
   5  -2  -4 591.532 95.9657   3
  -5   2   3 28239.1 482.900   2
   5  -2  -3 28327.1 715.776   3
  -5   2   3 27658.7 751.452   1
  -5   2   2 1615.87 95.8262   2
   5  -2  -2 1584.91 170.228   3
  -5   2   2 1536.38 171.098   1
   5  -2  -1 7169.97 365.501   3
  -5   2   1 8351.54 380.554   1
   5  -2   0 51.3655 36.6602   4
   5  -2   0 83.7755 51.8777   3
  -5   2   0 43.7013 28.1928   1
   5  -2   1 19504.0 471.591   4
   5  -2   2 113.775 33.0698   1
   5  -2   2 51.0785 27.7630   4
   5  -2   3 673.630 86.7360   4
   5  -2   4 99.8551 41.0242   4
   5  -2   5 156.240 52.5159   4
   5  -2   6 42.8313 42.5781   4
   5  -2   7 5215.40 298.116   4
   5  -2   8 340.527 84.5804   4
   5  -2   9 135.810 62.7730   4
   5  -2  10 219.795 75.5604   4
   5  -2  11 2968.72 279.076   4
   5  -2  12 623.170 129.798   4
  -5   1  14 1316.38 229.720   2
   5  -1 -13 992.628 171.055   5
  -5   1  13 1033.02 194.581   2
   5  -1 -12 185.205 77.5377   5
  -5   1  12 344.597 113.896   2
   5  -1 -11 784.254 155.252   5
  -5   1  11 902.392 159.340   2
  -5   1  10 2499.84 259.651   2
   5  -1 -10 1970.32 239.449   5
   5  -1  -9 522.569 124.388   5
  -5   1   9 743.478 135.366   2
  -5   1   8 8114.79 423.187   2
  -5   1   7 3020.53 243.536   2
   5  -1  -7 2881.11 189.186   3
  -5   1   6 674.312 112.665   2
   5  -1  -6 432.735 76.5500   3
  -5   1   5 797.449 112.588   2
   5  -1  -5 785.636 108.293   3
   5  -1  -4 262.386 67.3675   3
  -5   1   4 357.279 69.3366   2
  -5   1   3 10065.9 337.655   2
   5  -1  -3 9045.06 397.521   3
  -5   1   2 886.572 92.8255   2
  -5   1   1 17559.1 351.293   2
   5  -1  -1 16489.4 312.398   2
   5  -1   1 388.775 87.4490   4
   5  -1   2 2293.11 191.614   4
   5  -1   3 633.206 101.895   4
   5  -1   4 45.9062 35.8886   4
   5  -1   5 12080.5 443.167   4
   5  -1   6 156.613 55.9233   4
   5  -1   7 118.498 63.6532   5
   5  -1   7 24.6923 38.0557   4
   5  -1   8 9281.80 441.189   4
   5  -1   9 278.536 82.7196   4
   5  -1  10 317.042 84.6351   4
   5  -1  11 121.840 59.7242   4
  -5   0  13 2530.27 321.789   2
   5   0 -13 2803.57 304.007   5
  -5   0  12 4378.30 392.837   2
   5   0 -12 3857.27 353.074   5
   5   0 -11 4246.35 369.453   5
  -5   0  11 4533.70 386.148   2
  -5   0  10 1319.09 202.129   2
   5   0 -10 1213.94 188.909   5
   5   0  -9 1367.17 199.043   5
  -5   0   9 1669.79 211.484   2
   5   0  -8 1902.90 235.106   5
  -5   0   8 2108.59 228.908   2
   5   0  -7 1150.56 186.841   5
  -5   0   7 1665.96 194.840   2
   5   0  -7 1581.58 136.859   3
   5   0  -6 4001.82 335.777   5
  -5   0   6 3917.34 285.483   2
   5   0  -6 3805.34 225.733   3
   5   0  -5 93.6147 54.2687   5
   5   0  -5 81.7046 47.7980   3
  -5   0   5 67.8665 21.6332   2
   5   0  -4 1534.69 203.417   5
  -5   0   4 1391.10 158.101   2
   5   0  -3 16703.1 670.343   5
  -5   0   3 16931.5 511.199   2
   5   0  -2 1410.08 194.485   5
  -5   0   2 1342.54 137.371   2
   5   0  -1 11627.4 546.747   5
  -5   0   1 11783.9 384.436   2
   5   0   0 788.228 134.179   5
  -5   0   0 874.287 96.5527   2
   5   0   1 5567.68 374.360   5
   5   0   1 5366.73 332.337   4
   5   0   2 112700. 1676.32   5
   5   0   2 115935. 1498.21   4
   5   0   3 384.032 109.982   5
   5   0   3 287.895 78.3316   4
   5   0   4 5938.35 378.035   5
   5   0   4 5957.72 343.939   4
   5   0   5 16510.4 616.961   5
   5   0   5 15562.3 559.522   4
   5   0   6 194.037 70.9102   5
   5   0   6 261.883 79.8498   4
   5   0   7 2851.85 252.932   4
   5   0   8 5486.04 362.980   4
   5   0   9 1239.48 183.816   4
   5   0  10 3712.34 326.921   4
  -5  -1  13 1465.29 249.499   2
  -5  -1  12 99.4304 75.8372   2
   5   1 -11 938.141 191.696   5
  -5  -1  11 779.436 167.734   2
   5   1 -10 1815.33 249.588   5
  -5  -1  10 1903.06 255.311   2
   5   1  -9 82.6184 51.6829   5
  -5  -1   9-1.25286 31.2943   2
   5   1  -8 14033.1 673.822   5
  -5  -1   8 15120.2 668.997   2
   5   1  -7 299.531 91.5861   5
  -5  -1   7 465.904 113.699   2
   5   1  -6 16012.2 708.055   5
  -5  -1   6 16737.3 648.074   2
   5   1  -5 4141.85 358.266   5
  -5  -1   5 4080.14 310.863   2
   5   1  -4 6694.86 449.952   5
  -5  -1   4 7354.48 401.762   2
   5   1  -3 998.855 182.397   5
  -5  -1   3 929.322 141.670   2
  -5  -1   2 146.118 45.5207   2
   5   1  -2 108.740 50.8520   5
   5   1  -1 4701.59 366.901   5
  -5  -1   1 5154.37 303.442   2
   5   1   0 39090.9 1053.67   5
  -5  -1   0 39668.1 800.674   2
   5   1   1 11819.7 576.542   5
   5   1   1 12213.1 546.268   4
   5   1   2 29749.9 902.066   5
   5   1   2 29594.2 838.257   4
   5   1   3 18585.4 705.610   5
   5   1   3 20044.4 689.462   4
   5   1   4 18101.9 689.241   5
   5   1   4 19129.6 672.225   4
   5   1   5 2467.32 253.930   5
   5   1   5 3023.16 267.565   4
   5   1   6 482.024 106.642   4
   5   1   7 36.4962 26.8868   4
   5   1   8 2470.87 259.960   4
   5   1   9 12.3134 37.5057   4
  -5  -2  11-19.5177 52.1919   2
  -5  -2  10 1895.25 274.046   2
  -5  -2   9 2752.59 317.466   2
  -5  -2   8-7.62661 33.6570   2
   5   2  -7 4365.15 396.360   5
  -5  -2   7 4506.99 381.794   2
  -5  -2   6 71.0223 34.6102   2
   5   2  -6 16.4246 53.7863   5
   5   2  -5 3871.86 364.846   5
  -5  -2   5 4188.19 347.263   2
   5   2  -4 1186.22 209.991   5
  -5  -2   4 1370.63 196.813   2
   5   2  -3 1331.10 214.234   5
  -5  -2   3 1220.03 181.437   2
  -5  -2   2-13.6597 19.6815   2
   5   2  -2 97.1947 73.2749   5
  -5  -2   1 207.684 70.6603   2
   5   2  -1 382.167 130.888   5
  -5  -2   0 555.928 116.178   2
   5   2   0 572.332 140.517   5
   5   2   1 50.3619 61.8966   5
   5   2   1-55.0499 50.2631   4
   5   2   2 626.321 125.938   4
   5   2   3 1130.00 175.338   4
   5   2   4 518.657 123.693   4
   5   2   5 264.063 96.4483   4
   5   2   6 3137.94 309.641   4
   5   2   7 4560.70 371.458   4
  -5  -3  10 388.262 133.164   2
  -5  -3   9 1045.24 209.537   2
  -5  -3   8 4.79586 39.0116   2
  -5  -3   7 3930.40 382.394   2
  -5  -3   6 4350.47 396.630   2
  -5  -3   5 4049.58 370.724   2
  -5  -3   4 3367.31 332.222   2
  -5  -3   3 1601.13 224.955   2
  -5  -3   2 976.271 178.546   2
  -5  -3   1 43.0029 29.5603   2
  -5  -3   0 860.745 154.509   2
   5   3   1 4945.03 422.276   4
   5   3   2 244.506 79.4309   4
   5   3   3 620.259 137.313   4
   5   3   4 1777.12 243.828   4
   5   3   5 1208.65 206.002   4
  -5  -4   7 635.151 184.828   2
  -5  -4   6 7877.36 577.324   2
  -5  -4   5 1286.20 227.823   2
  -5  -4   4 1423.88 231.438   2
  -5  -4   3 36.1936 45.5379   2
  -5  -4   2 9260.73 582.090   2
  -5  -4   1 690.462 162.705   2
  -5  -4   0 88.2472 51.1369   2
  -6   8   3 512.344 136.224   1
  -6   8   2 436.983 129.774   1
  -6   8   1 5956.69 450.691   1
  -6   8   0 46.6346 67.5872   1
  -6   8  -1 1993.57 255.293   1
  -6   8  -2 45.1450 37.5060   1
  -6   8  -3 484.222 118.373   1
  -6   8  -4 179.396 68.0082   1
  -6   7   7 209.502 105.261   1
  -6   7   6 179.962 76.9890   1
  -6   7   5-44.5511 42.6660   1
  -6   7   4 535.065 124.967   1
  -6   7   3 979.390 175.945   1
  -6   7   2 6624.37 452.661   1
  -6   7   1 1804.66 236.078   1
  -6   7   0 1074.70 179.283   1
  -6   7  -1 394.670 118.635   1
  -6   7  -2 2113.32 236.134   1
   6  -7   2 2044.91 269.910   3
  -6   7  -3 5478.38 374.445   1
   6  -7   3 5556.31 437.344   3
   6  -7   4 179.827 103.563   3
   6  -7   5 1163.79 212.734   3
   6  -7   6 526.015 149.549   3
  -6   6   9 356.987 125.528   1
  -6   6   8 161.158 77.2235   1
  -6   6   7 2505.04 303.443   1
  -6   6   6 222.603 74.1971   1
  -6   6   5 5563.12 415.599   1
  -6   6   4 92.0822 75.1318   1
  -6   6   3 4031.02 336.841   1
  -6   6   2 15737.5 640.251   1
   6  -6  -1 6810.66 451.873   3
  -6   6   1 6298.96 406.276   1
   6  -6   0 4054.80 345.550   3
  -6   6   0 4297.50 333.643   1
   6  -6   1 1045.50 180.185   3
  -6   6  -1 843.070 141.190   1
   6  -6   2 140.676 68.7939   3
  -6   6  -2 211.474 76.4095   1
   6  -6   3 2897.58 308.341   3
  -6   6  -3 2916.08 249.388   1
   6  -6   4 1368.26 212.576   3
   6  -6   5 1622.14 230.560   3
   6  -6   6 3338.64 336.492   3
   6  -6   7 3244.64 342.045   3
   6  -6   8 584.278 151.386   3
  -6   5  12 6351.25 481.188   2
  -6   5  11 2100.15 263.267   2
  -6   5  10 3891.04 395.845   1
  -6   5  10 3579.19 317.089   2
  -6   5   9 2253.38 289.338   1
  -6   5   9 2048.45 226.557   2
  -6   5   8 22.5606 57.7290   1
  -6   5   7 334.104 113.682   1
  -6   5   6 2100.82 261.928   1
  -6   5   5 29368.0 940.314   1
  -6   5   4 1605.14 221.634   1
  -6   5   3 37728.7 1001.93   1
   6  -5  -3 36151.0 948.950   3
  -6   5   2 303.243 94.5824   1
   6  -5  -2 330.629 109.808   3
  -6   5   1 22704.7 713.976   1
   6  -5  -1 20119.1 734.846   3
  -6   5   0 4012.88 290.866   1
   6  -5   0 4294.15 344.901   3
  -6   5  -1 1973.01 199.777   1
   6  -5   1 2182.13 246.124   3
  -6   5  -2 883.474 132.563   1
   6  -5   2 971.573 171.748   3
  -6   5  -3 12919.3 482.449   1
   6  -5   3 12237.4 600.090   3
   6  -5   4 803.862 156.238   3
   6  -5   5 395.267 113.383   3
   6  -5   6 1422.05 212.361   3
   6  -5   7 413.966 109.953   3
   6  -5   8 3326.46 333.652   3
   6  -5   9 3072.36 335.272   3
  -6   4  13 1933.41 261.184   2
  -6   4  12 2143.82 260.094   2
  -6   4  11 1118.82 216.915   1
  -6   4  11 775.887 148.109   2
  -6   4  10 1385.21 188.917   2
  -6   4  10 1642.96 247.767   1
  -6   4   9 1424.24 182.823   2
  -6   4   9 1671.63 241.029   1
  -6   4   8 50.4287 49.6257   2
  -6   4   8 22.8583 60.0655   1
  -6   4   7 450.554 110.247   1
  -6   4   6 1514.73 206.850   1
  -6   4   5 17203.6 693.566   1
   6  -4  -5 17063.5 611.552   3
  -6   4   4 33797.9 948.502   1
   6  -4  -4 31134.9 840.144   3
  -6   4   3 6924.52 411.710   1
   6  -4  -3 6685.22 399.723   3
  -6   4   2 1471.10 182.893   1
   6  -4  -2 1295.09 176.515   3
  -6   4   1 253.598 74.8070   1
   6  -4  -1 257.480 76.2265   3
   6  -4   0 39.5549 26.7350   3
  -6   4   0 40.5823 31.7761   1
  -6   4  -1 1862.71 186.496   1
   6  -4   1 1622.12 202.147   3
  -6   4  -2 548.336 102.698   1
   6  -4   2 591.130 132.592   3
  -6   4  -3 2629.78 208.477   1
   6  -4   3 2469.08 274.902   3
   6  -4   4 10.4248 35.1432   3
   6  -4   5 9215.41 532.304   3
   6  -4   6 549.046 138.366   3
   6  -4   7 908.309 176.024   3
   6  -4   8 22.4482 39.6750   3
   6  -4   9-86.0277 78.9697   3
  -6   3  13 71.0237 43.4739   2
  -6   3  12 36.0913 56.3493   2
  -6   3  11 302.066 81.9215   2
  -6   3  10 499.627 113.854   2
  -6   3   9 3144.66 270.129   2
  -6   3   8 2502.67 225.467   2
  -6   3   8 2532.23 287.561   1
  -6   3   7 1348.07 156.085   2
   6  -3  -7 1309.95 160.637   3
  -6   3   7 1589.35 219.138   1
   6  -3  -6 11907.4 481.990   3
  -6   3   6 12384.7 600.602   1
  -6   3   5 559.899 125.858   1
   6  -3  -5 586.100 112.110   3
   6  -3  -4 12944.8 523.160   3
  -6   3   4 14428.7 605.721   1
   6  -3  -3 1501.42 178.004   3
  -6   3   3 2079.01 221.125   1
  -6   3   2 731.073 130.255   1
   6  -3  -2 405.489 93.6362   3
   6  -3  -1 4938.82 236.319   4
   6  -3  -1 4833.45 350.149   3
  -6   3   1 5342.89 337.211   1
   6  -3   0 1904.22 139.057   4
   6  -3   0 1931.98 221.409   3
  -6   3   0 2008.88 194.058   1
   6  -3   1 4436.07 207.374   4
   6  -3   1 3956.56 315.487   3
  -6   3  -1 4700.03 291.934   1
   6  -3   2 11736.7 343.924   4
   6  -3   2 11112.6 537.033   3
  -6   3  -2 12091.5 448.082   1
   6  -3   3 59.2058 54.5388   3
   6  -3   4 6027.72 422.572   3
   6  -3   5 1641.49 220.787   3
   6  -3   6 848.217 163.814   3
   6  -3   7 3659.97 362.579   3
   6  -3   8 95.1536 74.0349   3
   6  -3   9 122.093 63.4047   3
   6  -2 -13 990.936 178.748   5
  -6   2  13 1412.46 227.946   2
   6  -2 -12-150.562 111.365   5
  -6   2  12 11.2933 53.0317   2
  -6   2  11 6618.01 449.348   2
  -6   2  10-1.62623 22.1335   2
  -6   2   9 869.308 141.972   2
  -6   2   8 16.4528 55.1817   2
  -6   2   7 4711.35 303.164   2
   6  -2  -7 4674.96 283.633   3
  -6   2   6 1316.37 148.989   2
   6  -2  -6 1216.70 152.174   3
   6  -2  -5 22.9903 25.5550   3
   6  -2  -4 2930.43 244.643   3
   6  -2  -3 1493.84 180.424   3
   6  -2  -2-19.9199 28.6712   3
   6  -2  -1 2891.47 257.358   3
   6  -2   0 248.468 77.1720   4
   6  -2   0 453.308 107.648   3
   6  -2   1 1752.96 160.144   4
   6  -2   2 4217.89 251.272   4
   6  -2   3 298.648 68.8713   4
   6  -2   4 19084.9 539.167   4
   6  -2   5 3696.79 245.671   4
   6  -2   6 1162.35 151.023   4
   6  -2   7 2554.53 223.601   4
   6  -2   8 2906.65 251.381   4
   6  -2   9 2673.64 255.824   4
  -6   1  13 17193.7 824.874   2
   6  -1 -13 16248.7 781.462   5
   6  -1 -12 2915.58 331.159   5
  -6   1  12 3292.44 347.319   2
   6  -1 -11 582.589 147.785   5
  -6   1  11 780.520 156.104   2
   6  -1 -10 123.631 77.5013   5
  -6   1  10 188.361 79.7159   2
   6  -1  -9 1945.63 260.145   5
  -6   1   9 2111.98 233.450   2
   6  -1  -8 568.238 133.534   5
  -6   1   8 537.160 108.320   2
  -6   1   7 399.109 95.7413   2
  -6   1   6 4211.04 288.669   2
   6  -1  -6 4333.71 277.714   3
   6  -1  -5 2172.59 207.464   3
   6  -1  -4 5986.93 342.180   3
   6  -1  -3 5255.47 335.848   3
   6  -1   0 16739.7 584.623   4
   6  -1   1 10376.2 446.923   4
   6  -1   2 20131.9 621.335   4
   6  -1   3 10933.6 461.702   4
   6  -1   4 20952.4 634.222   4
   6  -1   5 40824.1 1070.52   5
   6  -1   5 41177.9 902.884   4
   6  -1   6 8291.40 477.507   5
   6  -1   6 8269.54 412.423   4
   6  -1   7 468.015 110.050   4
   6  -1   8 1421.91 190.050   4
   6  -1   9 117.307 76.3229   4
   6  -1  10 93.9466 36.7991   4
   6   0 -12 465.772 145.886   5
  -6   0  12 247.468 91.3213   2
   6   0 -11 1082.16 198.590   5
  -6   0  11 1212.47 211.904   2
   6   0 -10 8303.06 563.430   5
  -6   0  10 9448.50 567.304   2
   6   0  -9 1.52588 34.3520   5
  -6   0   9 126.193 72.0805   2
   6   0  -8 2337.29 293.582   5
  -6   0   8 2457.99 262.299   2
   6   0  -7 6080.59 466.387   5
  -6   0   7 7345.74 435.908   2
   6   0  -6-16.7924 36.1240   5
  -6   0   6-34.1955 23.5159   2
   6   0  -5 3168.79 329.811   5
  -6   0   5 3449.71 274.808   2
   6   0  -5 3016.22 243.721   3
   6   0  -4-58.5008 35.0527   5
   6   0  -3 13760.2 679.990   5
   6   0  -2 5997.21 445.987   5
   6   0  -1 3026.84 313.814   5
   6   0   0 779.039 163.857   5
   6   0   0 625.628 132.469   4
   6   0   1 5352.14 407.956   5
   6   0   1 5445.78 362.990   4
   6   0   2 244.270 99.6221   5
   6   0   2 161.847 54.4666   4
   6   0   3 5636.69 415.385   5
   6   0   3 5678.07 364.079   4
   6   0   4 1008.85 176.656   5
   6   0   4 1014.66 156.203   4
   6   0   5 1553.30 213.674   5
   6   0   5 1537.50 192.201   4
   6   0   6 4580.06 336.789   4
   6   0   7 8051.50 455.620   4
   6   0   8 96.9413 55.9004   4
  -6  -1  11 59.6390 50.8246   2
   6   1 -10 229.867 128.405   5
  -6  -1  10 236.340 57.7300   2
   6   1  -9 768.729 189.543   5
  -6  -1   9 564.309 136.240   2
   6   1  -8 1055.92 209.732   5
  -6  -1   8 1037.73 183.674   2
  -6  -1   7 717.153 149.071   2
   6   1  -7 777.189 184.950   5
  -6  -1   6 77.1745 63.3547   2
   6   1  -6 47.9034 73.2236   5
   6   1  -5 2075.04 277.447   5
  -6  -1   5 2257.25 246.074   2
   6   1  -4 4225.07 397.124   5
   6   1  -3 1393.87 230.688   5
   6   1  -2 1050.90 197.836   5
   6   1  -1-15.4557 56.2477   5
   6   1   0 3505.14 352.766   5
   6   1   0 3942.22 350.344   4
   6   1   1 2706.19 305.727   5
   6   1   1 2517.79 272.296   4
   6   1   2 1441.78 220.059   5
   6   1   2 1709.64 215.455   4
   6   1   3 564.922 138.587   5
   6   1   3 583.149 129.925   4
   6   1   4 1532.76 225.289   5
   6   1   4 1775.78 229.764   4
   6   1   5 1489.41 214.197   4
   6   1   6 3395.61 314.407   4
  -6  -2  10 709.345 182.615   2
  -6  -2   9 1453.04 232.505   2
  -6  -2   8 2496.97 307.314   2
  -6  -2   7 3824.39 367.971   2
   6   2  -6 8310.99 592.917   5
  -6  -2   6 8687.75 540.378   2
   6   2  -5 331.584 154.890   5
   6   2  -4 4798.17 451.620   5
   6   2  -3 3240.54 363.920   5
   6   2  -2 4991.47 447.631   5
   6   2  -1 1305.42 230.449   5
   6   2   0 1619.22 258.432   5
   6   2   0 1007.64 195.381   4
   6   2   1 1180.27 199.922   4
   6   2   2 400.241 118.301   4
   6   2   3 1879.45 246.971   4
   6   2   4 602.192 150.246   4
  -6  -3   8-76.9692 95.2200   2
  -6  -3   7 1854.79 271.611   2
  -7   8   1 272.699 107.038   1
  -7   8   0 3800.24 367.955   1
  -7   8  -1 469.945 132.523   1
  -7   7   4 193.649 82.3624   1
  -7   7   3 852.795 173.365   1
  -7   7   2 316.491 117.232   1
  -7   7   1 8731.65 528.311   1
  -7   7   0 492.223 126.729   1
   7  -7   0 635.976 176.776   3
  -7   7  -1 13825.9 626.969   1
   7  -7   1 14132.8 723.538   3
  -7   6   7 3719.16 384.530   1
  -7   6   6 1079.82 202.237   1
  -7   6   5 1238.05 217.052   1
  -7   6   4 645.562 151.972   1
  -7   6   3 8029.24 518.241   1
  -7   6   2 38757.8 1102.41   1
   7  -6  -2 37411.9 1093.62   3
  -7   6   1 476.952 131.684   1
   7  -6  -1 633.441 164.445   3
  -7   6   0 10847.4 552.107   1
   7  -6   0 10212.1 586.696   3
  -7   6  -1 68.9659 35.4340   1
   7  -6   1 145.743 101.284   3
   7  -6   2 1289.13 219.572   3
   7  -6   3 2173.26 286.679   3
   7  -6   4 1082.90 204.185   3
  -7   5   8 70.8382 71.0092   1
  -7   5   7 3195.47 337.814   1
  -7   5   6 170.683 39.6557   1
  -7   5   5 511.177 140.484   1
   7  -5  -5 695.615 152.595   3
  -7   5   4 1952.85 254.034   1
   7  -5  -4 1731.27 223.507   3
  -7   5   3 3758.54 335.526   1
   7  -5  -3 3390.78 317.303   3
  -7   5   2 16508.5 693.135   1
   7  -5  -2 15304.8 688.105   3
  -7   5   1 3518.38 308.709   1
   7  -5  -1 3378.54 322.055   3
  -7   5   0 8530.68 467.277   1
   7  -5   0 7404.54 484.972   3
  -7   5  -1 377.570 95.8930   1
   7  -5   1 353.498 108.296   3
   7  -5   2 138.266 59.8951   3
   7  -5   3 1067.57 190.449   3
   7  -5   4 2618.95 305.231   3
   7  -5   5 19.6267 29.7916   3
  -7   4   9 1665.75 253.176   1
  -7   4   8-131.415 83.9028   1
  -7   4   7 1780.82 243.362   1
  -7   4   6 507.143 127.745   1
   7  -4  -6 459.749 118.932   3
  -7   4   5-53.2040 61.0015   1
   7  -4  -5 31.0422 37.6636   3
  -7   4   4 644.693 140.489   1
   7  -4  -4 527.292 123.579   3
  -7   4   3 7273.83 461.513   1
   7  -4  -3 7271.65 446.566   3
   7  -4  -2 1464.07 200.031   3
  -7   4   2 1596.60 206.910   1
   7  -4  -1 1450.45 204.798   3
  -7   4   1 1420.05 188.240   1
   7  -4   0 2078.64 247.897   3
  -7   4   0 2293.08 235.763   1
   7  -4   1 4163.29 359.669   3
   7  -4   2 487.317 127.874   3
   7  -4   3 484.033 121.617   3
   7  -4   4 1698.67 250.306   3
   7  -4   5 1188.41 215.794   3
   7  -4   6 2527.17 307.621   3
   7  -3  -7 27.5739 53.1901   3
   7  -3  -6 106.014 46.9371   3
   7  -3  -5 932.747 151.350   3
   7  -3  -4 2859.42 270.921   3
   7  -3  -3 24.8242 51.4867   3
   7  -3  -2 2373.52 256.464   3
   7  -3  -1 208.349 87.2681   3
   7  -3   0 75.3453 53.4825   3
   7  -3   1-0.92548 24.1122   3
   7  -3   2 5321.87 407.477   3
   7  -3   3 2201.07 268.791   3
   7  -3   4 9787.53 576.008   3
   7  -3   5 202.785 110.350   3
   7  -3   6 5628.44 457.222   3
   7  -2 -10 9329.19 617.321   5
   7  -2  -6 2679.40 249.452   3
   7  -2  -5 0.91632 19.4678   3
   7  -2  -4 759.151 140.415   3
   7  -2  -3 4776.95 354.443   3
   7  -2  -2 2575.20 267.131   3
   7  -2  -1 11877.8 568.048   3
   7  -2   0 286.718 99.2250   3
   7  -2   1 2490.17 279.690   3
   7  -1  -8 261.130 114.306   5
   7  -1  -7 8481.67 591.831   5
   7  -1  -6 164.641 89.9888   5
   7  -1  -5 1450.14 238.570   5
   7  -1  -5 1700.78 202.965   3
   7  -1  -4 8000.54 556.039   5
   7  -1  -4 7845.00 436.924   3
   7  -1  -3-10.3142 54.5273   5
   7  -1  -3-9.12592 32.5532   3
   7  -1  -2 222.363 90.4454   3
   7  -1  -1 2467.96 241.957   4
   7  -1   0 639.854 158.280   5
   7  -1   0 416.151 107.251   4
   7  -1   1 272.672 87.1366   5
   7  -1   1 223.124 64.6120   4
   7  -1   2 29.0210 40.8433   5
   7  -1   2 50.0422 50.2067   4
   7  -1   3 120.100 71.7995   5
   7  -1   3 193.049 74.2478   4
   7  -1   4 308.478 93.2676   5
   7  -1   4 237.655 72.9943   4
   7  -1   5-52.9125 53.6590   4
   7  -1   6 90.5056 59.9966   4
   7   0  -6 191.434 91.8559   5
   7   0  -5 149.242 92.9417   5
   7   0  -4 3.42502 58.6678   5
   7   0  -3 3144.76 356.396   5
   7   0  -2 6548.50 508.580   5
   7   0  -1 5674.66 476.750   5
   7   0  -1 6211.33 433.322   4
   7   0   0 26.1582 38.8909   5
   7   0   0-86.8161 67.9829   4
   7   0   1 2646.72 319.597   5
   7   0   1 2595.47 269.869   4
   7   0   2 1629.82 255.363   5
   7   0   2 1835.68 225.762   4
   7   0   3 8750.43 578.156   5
   7   0   3 8939.71 501.732   4
   7   0   4 178.714 86.7068   5
   7   0   4 89.4055 61.7598   4
   7   0   5 113.847 47.8201   4
   7   0   6 1043.24 178.811   4
   7   1  -2 1366.90 250.738   5
   7   1  -1 8237.87 598.563   5
   7   1  -1 7601.11 518.115   4
   7   1   0 83.2696 82.4434   5
   7   1   0 54.6546 47.4282   4
   7   1   1 9725.06 639.919   5
   7   1   1 10012.7 568.219   4
   7   1   2 39.7784 54.7611   5
   7   1   2 51.8974 55.3562   4
   7   1   3 651.601 186.808   5
  -8   7   2 1373.85 231.711   1
  -8   7   1 110.292 94.3055   1
  -8   6   4 688.785 172.842   1
  -8   6   3 536.746 137.332   1
  -8   6   2 419.192 119.187   1
  -8   6   1 3956.46 357.393   1
  -8   5   5 130.777 65.1562   1
   8  -5  -5 194.519 90.8341   3
   8  -5  -4 2649.57 303.047   3
  -8   5   4 2911.96 331.097   1
  -8   5   3 530.641 135.141   1
   8  -5  -3 613.549 148.296   3
  -8   5   2 135.672 63.2065   1
   8  -5  -2 50.0213 35.5456   3
   8  -5  -1 125.779 79.5712   3
   8  -5   0 46.6019 66.0283   3
   8  -4  -6 109.642 50.6087   3
   8  -4  -5 1391.33 214.401   3
   8  -4  -4 148.382 80.3101   3
   8  -4  -3 31.1960 50.8758   3
   8  -4  -2 248.673 94.2854   3
   8  -4  -1 5535.58 440.700   3
   8  -4   0-29.4177 72.0426   3
   8  -4   1 7079.22 514.251   3
   8  -3  -5 2653.74 281.884   3
   8  -3  -4 176.021 77.2832   3
   8  -3  -3 2123.92 259.014   3
   8  -3  -2 1551.56 225.657   3
   8  -3  -1 11.8466 55.6514   3
   8  -3   0 236.134 96.5792   3
   8  -3   1 474.715 121.591   3
   8  -2  -4 1953.89 244.778   3
   8  -2  -3 225.233 97.4517   3
   8  -2  -2 2383.79 275.628   3
   8  -2  -1 151.118 70.8822   3
   8  -2   0 1509.35 227.103   3
   8  -2   4-6.39414 49.4734   5
   8  -1  -3 142.308 62.8159   3
   8  -1  -2 78.5243 76.2654   3
   8  -1  -1 3411.72 349.355   3
   8   0  -2 7685.58 525.230   4
   8   0  -1 5305.54 428.569   4
   0   0   0    0.00    0.00   0

TITL MP4_1lty in P-1
REM P-1 (#2 in standard setting)
CELL 0.71073   6.671399   7.329640  12.986973  90.4251  96.9069 114.3466
ZERR    3.00   0.000553   0.000797   0.000910   0.0071   0.0063   0.0092
LATT  1
SFAC C H N O
UNIT 33.00 30.00 3.00 3.00
TREF
HKLF 4
END
;
_shelx_hkl_checksum              39292
loop_
_space_group_symop_operation_xyz
'x, y, z'
'-x, -y, -z'
loop_
_atom_site_label
_atom_site_type_symbol
_atom_site_fract_x
_atom_site_fract_y
_atom_site_fract_z
_atom_site_U_iso_or_equiv
_atom_site_adp_type
_atom_site_occupancy
_atom_site_site_symmetry_order
_atom_site_calc_flag
C1A C 0.13789(19) 0.24741(18) 0.69369(9) 0.0151(3) Uani 1 1 d
C2A C 0.1030(2) 0.35787(19) 0.77285(9) 0.0164(3) Uani 1 1 d
C3A C -0.1055(2) 0.2893(2) 0.80572(10) 0.0195(3) Uani 1 1 d
H3A H -0.131(3) 0.371(2) 0.8614(12) 0.028(4) Uiso 1 1 d
C4A C -0.2757(2) 0.1096(2) 0.76306(10) 0.0199(3) Uani 1 1 d
H4A H -0.416(2) 0.063(2) 0.7879(11) 0.020(4) Uiso 1 1 d
C5A C -0.2405(2) -0.0021(2) 0.68600(10) 0.0192(3) Uani 1 1 d
H5A H -0.358(2) -0.128(2) 0.6569(11) 0.025(4) Uiso 1 1 d
C6A C -0.0344(2) 0.06825(19) 0.65114(10) 0.0172(3) Uani 1 1 d
H6A H -0.009(2) -0.005(2) 0.5946(12) 0.023(4) Uiso 1 1 d
C7A C 0.3557(2) 0.33058(19) 0.65184(10) 0.0159(3) Uani 1 1 d
O71A O 0.37644(15) 0.20601(14) 0.58360(7) 0.0212(2) Uani 1 1 d
H71A H 0.515(4) 0.269(3) 0.5618(16) 0.070(7) Uiso 1 1 d
O72A O 0.49732(15) 0.49833(14) 0.67712(8) 0.0248(2) Uani 1 1 d
C8A C 0.2823(2) 0.5490(2) 0.82548(10) 0.0201(3) Uani 1 1 d
O81A O 0.42988(17) 0.51504(16) 0.88979(8) 0.0320(3) Uani 1 1 d
H81A H 0.548(3) 0.640(3) 0.9188(15) 0.056(6) Uiso 1 1 d
O82A O 0.27875(15) 0.71212(14) 0.81401(8) 0.0281(3) Uani 1 1 d
N1B N 0.78422(17) 0.39411(16) 0.52281(8) 0.0176(2) Uani 1 1 d
C2B C 0.8609(2) 0.3292(2) 0.44645(10) 0.0184(3) Uani 1 1 d
H2B H 0.766(2) 0.207(2) 0.4058(11) 0.021(4) Uiso 1 1 d
C3B C 1.0753(2) 0.4349(2) 0.42354(10) 0.0179(3) Uani 1 1 d
H3B H 1.132(2) 0.391(2) 0.3694(11) 0.018(3) Uiso 1 1 d
N1C N 0.79526(18) 0.84410(17) 0.96575(9) 0.0233(3) Uani 1 1 d
C2C C 0.9755(2) 0.8705(2) 0.92202(10) 0.0233(3) Uani 1 1 d
H2C H 0.955(2) 0.779(2) 0.8670(12) 0.027(4) Uiso 1 1 d
C3C C 1.1790(2) 1.0257(2) 0.95620(11) 0.0245(3) Uani 1 1 d
H3C H 1.307(3) 1.044(2) 0.9244(12) 0.031(4) Uiso 1 1 d
loop_
_atom_site_aniso_label
_atom_site_aniso_U_11
_atom_site_aniso_U_22
_atom_site_aniso_U_33
_atom_site_aniso_U_23
_atom_site_aniso_U_13
_atom_site_aniso_U_12
C1A 0.0142(6) 0.0144(6) 0.0157(6) 0.0036(5) 0.0012(5) 0.0052(5)
C2A 0.0155(6) 0.0145(6) 0.0167(6) 0.0027(5) 0.0013(5) 0.0040(5)
C3A 0.0205(7) 0.0195(7) 0.0182(7) 0.0008(5) 0.0050(5) 0.0076(6)
C4A 0.0141(6) 0.0214(7) 0.0223(7) 0.0063(5) 0.0061(5) 0.0045(5)
C5A 0.0145(6) 0.0143(7) 0.0236(7) 0.0017(5) -0.0008(5) 0.0017(5)
C6A 0.0176(6) 0.0155(6) 0.0175(6) 0.0004(5) -0.0001(5) 0.0065(5)
C7A 0.0149(6) 0.0147(6) 0.0181(6) 0.0025(5) 0.0010(5) 0.0065(5)
O71A 0.0160(5) 0.0202(5) 0.0247(5) -0.0038(4) 0.0065(4) 0.0040(4)
O72A 0.0173(5) 0.0156(5) 0.0378(6) -0.0028(4) 0.0099(4) 0.0015(4)
C8A 0.0183(6) 0.0207(7) 0.0163(6) -0.0012(5) 0.0065(5) 0.0022(6)
O81A 0.0276(5) 0.0221(6) 0.0277(6) 0.0026(4) -0.0110(4) -0.0043(5)
O82A 0.0224(5) 0.0177(5) 0.0409(6) -0.0070(4) 0.0076(4) 0.0045(4)
N1B 0.0160(5) 0.0181(6) 0.0203(6) 0.0047(4) 0.0039(4) 0.0084(5)
C2B 0.0174(6) 0.0174(7) 0.0209(7) 0.0009(5) 0.0021(5) 0.0078(6)
C3B 0.0183(6) 0.0187(7) 0.0193(6) 0.0022(5) 0.0042(5) 0.0097(5)
N1C 0.0213(6) 0.0212(6) 0.0204(6) 0.0021(5) -0.0004(4) 0.0027(5)
C2C 0.0309(8) 0.0210(7) 0.0171(7) -0.0023(5) 0.0016(6) 0.0104(6)
C3C 0.0224(7) 0.0300(8) 0.0220(7) 0.0041(6) 0.0071(6) 0.0107(6)
loop_
_atom_type_symbol
_atom_type_description
_atom_type_scat_dispersion_real
_atom_type_scat_dispersion_imag
_atom_type_scat_source
C C 0.0033 0.0016 'International Tables Vol C Tables 4.2.6.8 and 6.1.1.4'
H H 0.0000 0.0000 'International Tables Vol C Tables 4.2.6.8 and 6.1.1.4'
N N 0.0061 0.0033 'International Tables Vol C Tables 4.2.6.8 and 6.1.1.4'
O O 0.0106 0.0060 'International Tables Vol C Tables 4.2.6.8 and 6.1.1.4'
loop_
_geom_angle_atom_site_label_1
_geom_angle_atom_site_label_2
_geom_angle_atom_site_label_3
_geom_angle
_geom_angle_site_symmetry_1
_geom_angle_site_symmetry_3
C6A C1A C2A 119.62(12) . .
C6A C1A C7A 121.03(11) . .
C2A C1A C7A 119.24(11) . .
C3A C2A C1A 119.33(12) . .
C3A C2A C8A 117.69(11) . .
C1A C2A C8A 122.98(11) . .
C4A C3A C2A 120.47(12) . .
C4A C3A H3A 120.3(9) . .
C2A C3A H3A 119.2(9) . .
C5A C4A C3A 120.33(12) . .
C5A C4A H4A 120.3(9) . .
C3A C4A H4A 119.3(9) . .
C4A C5A C6A 119.39(12) . .
C4A C5A H5A 120.4(9) . .
C6A C5A H5A 120.2(9) . .
C5A C6A C1A 120.82(12) . .
C5A C6A H6A 120.5(9) . .
C1A C6A H6A 118.7(9) . .
O72A C7A O71A 123.61(12) . .
O72A C7A C1A 122.55(11) . .
O71A C7A C1A 113.83(11) . .
C7A O71A H71A 108.1(13) . .
O82A C8A O81A 125.10(12) . .
O82A C8A C2A 122.63(12) . .
O81A C8A C2A 112.07(11) . .
C8A O81A H81A 110.3(11) . .
C2B N1B C3B 116.79(11) . 2_766
N1B C2B C3B 121.49(12) . .
N1B C2B H2B 119.6(9) . .
C3B C2B H2B 118.9(9) . .
N1B C3B C2B 121.71(12) 2_766 .
N1B C3B H3B 115.7(9) 2_766 .
C2B C3B H3B 122.6(9) . .
C3C N1C C2C 116.87(12) 2_777 .
N1C C2C C3C 121.42(12) . .
N1C C2C H2C 116.2(10) . .
C3C C2C H2C 122.4(10) . .
N1C C3C C2C 121.71(13) 2_777 .
N1C C3C H3C 117.3(10) 2_777 .
C2C C3C H3C 121.0(10) . .
loop_
_geom_bond_atom_site_label_1
_geom_bond_atom_site_label_2
_geom_bond_distance
_geom_bond_site_symmetry_2
C1A C6A 1.3938(18) .
C1A C2A 1.4026(17) .
C1A C7A 1.4975(17) .
C2A C3A 1.3922(18) .
C2A C8A 1.5061(17) .
C3A C4A 1.3913(19) .
C3A H3A 1.010(15) .
C4A C5A 1.3893(19) .
C4A H4A 0.954(15) .
C5A C6A 1.3894(18) .
C5A H5A 0.970(15) .
C6A H6A 0.974(15) .
C7A O72A 1.2141(15) .
C7A O71A 1.3267(15) .
O71A H71A 0.93(2) .
C8A O82A 1.2156(16) .
C8A O81A 1.3174(16) .
O81A H81A 0.96(2) .
N1B C2B 1.3366(16) .
N1B C3B 1.3403(17) 2_766
C2B C3B 1.3880(18) .
C2B H2B 0.962(15) .
C3B N1B 1.3403(17) 2_766
C3B H3B 0.949(15) .
N1C C3C 1.3328(17) 2_777
N1C C2C 1.3340(18) .
C2C C3C 1.382(2) .
C2C H2C 0.933(15) .
C3C N1C 1.3328(17) 2_777
C3C H3C 0.952(16) .
loop_
_geom_torsion_atom_site_label_1
_geom_torsion_atom_site_label_2
_geom_torsion_atom_site_label_3
_geom_torsion_atom_site_label_4
_geom_torsion
_geom_torsion_site_symmetry_1
_geom_torsion_site_symmetry_4
C6A C1A C2A C3A -1.73(18) . .
C7A C1A C2A C3A 174.55(11) . .
C6A C1A C2A C8A 177.84(11) . .
C7A C1A C2A C8A -5.87(17) . .
C1A C2A C3A C4A 2.13(19) . .
C8A C2A C3A C4A -177.47(11) . .
C2A C3A C4A C5A -0.9(2) . .
C3A C4A C5A C6A -0.67(19) . .
C4A C5A C6A C1A 1.05(19) . .
C2A C1A C6A C5A 0.15(18) . .
C7A C1A C6A C5A -176.07(11) . .
C6A C1A C7A O72A 169.61(12) . .
C2A C1A C7A O72A -6.63(18) . .
C6A C1A C7A O71A -9.08(16) . .
C2A C1A C7A O71A 174.69(10) . .
C3A C2A C8A O82A -69.34(17) . .
C1A C2A C8A O82A 111.08(15) . .
C3A C2A C8A O81A 105.91(13) . .
C1A C2A C8A O81A -73.67(15) . .
C3B N1B C2B C3B -0.4(2) 2_766 .
N1B C2B C3B N1B 0.4(2) . 2_766
C3C N1C C2C C3C 0.0(2) 2_777 .
N1C C2C C3C N1C 0.0(2) . 2_777

_cod_database_fobs_code 2021397
