#------------------------------------------------------------------------------
#$Date: 2018-11-16 05:33:51 +0200 (Fri, 16 Nov 2018) $
#$Revision: 212003 $
#$URL: file:///home/coder/svn-repositories/cod/cif/2/02/13/2021352.cif $
#------------------------------------------------------------------------------
#
# This file is available in the Crystallography Open Database (COD),
# http://www.crystallography.net/. The original data for this entry
# were provided by IUCr Journals, http://journals.iucr.org/.
#
# The file may be used within the scientific community so long as
# proper attribution is given to the journal article from which the
# data were obtained.
#
data_2021352
loop_
_publ_author_name
'Rosiak, Damian'
'Okuniewski, Andrzej'
'Chojnacki, Jaros\/law'
_publ_section_title
;
 Copper(I) iodide ribbons coordinated with thiourea derivatives
;
_journal_coeditor_code           QF3017
_journal_issue                   12
_journal_name_full               'Acta Crystallographica Section C'
_journal_page_first
;
;
_journal_paper_doi               10.1107/S2053229618015620
_journal_volume                  74
_journal_year                    2018
_chemical_formula_iupac          '[Cu Br I (C14 H11 N2 O1 S1)], 0.5C3 H6 O'
_chemical_formula_moiety         'C14 H11 Br Cu I N2 O S, 0.5(C3 H6 O)'
_chemical_formula_sum            'C15.5 H14 Br Cu I N2 O1.5 S'
_chemical_formula_weight         554.70
_chemical_name_systematic
;
Poly[[1-benzoyl-3-(4-bromophenyl)thiourea-\k<i>S</i>]-\m~3~-iodido-copper(I)]
acetone hemisolvate
;
_space_group_crystal_system      triclinic
_space_group_IT_number           2
_space_group_name_Hall           '-P 1'
_space_group_name_H-M_alt        'P -1'
_symmetry_space_group_name_Hall  '-P 1'
_symmetry_space_group_name_H-M   'P -1'
_atom_sites_solution_hydrogens   geom
_atom_sites_solution_primary     iterative
_audit_creation_method
;
Olex2 1.2
(compiled 2018.05.29 svn.r3508 for OlexSys, GUI svn.r5506)
;
_cell_angle_alpha                102.079(6)
_cell_angle_beta                 94.047(6)
_cell_angle_gamma                94.299(6)
_cell_formula_units_Z            2
_cell_length_a                   4.0594(3)
_cell_length_b                   10.8684(8)
_cell_length_c                   20.7336(15)
_cell_measurement_reflns_used    6948
_cell_measurement_temperature    120
_cell_measurement_theta_max      29.46
_cell_measurement_theta_min      2.47
_cell_volume                     888.48(12)
_computing_cell_refinement
;
X-AREA (Stoe & Cie, 2009)
;
_computing_data_collection
;
X-AREA (Stoe & Cie, 2009)
;
_computing_data_reduction
;
X-RED32 (Stoe & Cie, 2009)
;
_computing_molecular_graphics
;
OLEX2 (Dolomanov <i>et al.</i>,  2009)
;
_computing_publication_material
;
OLEX2 (Dolomanov <i>et al.</i>,  2009)
;
_computing_structure_refinement
;
SHELXL2017 (Sheldrick, 2015b)
;
_computing_structure_solution
;
SHELXT (Sheldrick, 2015a)
;
_diffrn_ambient_temperature      120.0
_diffrn_measured_fraction_theta_full 0.996
_diffrn_measured_fraction_theta_max 0.996
_diffrn_measurement_device       '2-circle goniometer'
_diffrn_measurement_device_type  'Stoe IPDS 2T'
_diffrn_measurement_method       'rotation method'
_diffrn_radiation_monochromator  'parabolic x-ray mirror'
_diffrn_radiation_probe          x-ray
_diffrn_radiation_type           MoK\a
_diffrn_radiation_wavelength     0.71073
_diffrn_reflns_av_R_equivalents  0.0484
_diffrn_reflns_av_unetI/netI     0.0416
_diffrn_reflns_limit_h_max       5
_diffrn_reflns_limit_h_min       -4
_diffrn_reflns_limit_k_max       13
_diffrn_reflns_limit_k_min       -12
_diffrn_reflns_limit_l_max       25
_diffrn_reflns_limit_l_min       -25
_diffrn_reflns_number            7687
_diffrn_reflns_theta_full        25.242
_diffrn_reflns_theta_max         25.990
_diffrn_reflns_theta_min         2.469
_diffrn_source                   'microfocus sealed X-ray tube'
_diffrn_source_current           1.000
_diffrn_source_power             0.050
_diffrn_source_voltage           50
_exptl_absorpt_coefficient_mu    5.339
_exptl_absorpt_correction_T_max  0.9048
_exptl_absorpt_correction_T_min  0.3583
_exptl_absorpt_correction_type   integration
_exptl_absorpt_process_details
;
[X-RED32 (Stoe & Cie, 2009), by Gaussian integration, analogous
to Coppens (1970)]
;
_exptl_crystal_colour            colourless
_exptl_crystal_density_diffrn    2.073
_exptl_crystal_description       needle
_exptl_crystal_F_000             532
_exptl_crystal_size_max          0.436
_exptl_crystal_size_mid          0.023
_exptl_crystal_size_min          0.022
_refine_diff_density_max         1.885
_refine_diff_density_min         -2.957
_refine_ls_extinction_method     none
_refine_ls_goodness_of_fit_ref   1.068
_refine_ls_hydrogen_treatment    constr
_refine_ls_matrix_type           full
_refine_ls_number_parameters     257
_refine_ls_number_reflns         3446
_refine_ls_number_restraints     40
_refine_ls_restrained_S_all      1.808
_refine_ls_R_factor_all          0.0687
_refine_ls_R_factor_gt           0.0632
_refine_ls_shift/su_max          0.000
_refine_ls_shift/su_mean         0.000
_refine_ls_structure_factor_coef Fsqd
_refine_ls_weighting_details
'w=1/[\s^2^(Fo^2^)+(0.1209P)^2^+2.3538P] where P=(Fo^2^+2Fc^2^)/3'
_refine_ls_weighting_scheme      calc
_refine_ls_wR_factor_gt          0.1677
_refine_ls_wR_factor_ref         0.1746
_reflns_number_gt                3069
_reflns_number_total             3446
_reflns_threshold_expression     'I > 2\s(I)'
_cod_data_source_file            qf3017sup1.cif
_cod_data_source_block           I
_cod_original_cell_volume        888.48(11)
_cod_original_formula_sum        'C15.50 H14 Br Cu I N2 O1.50 S'
_cod_database_code               2021352
_shelx_space_group_comment
;
The symmetry employed for this shelxl refinement is uniquely defined
by the following loop, which should always be used as a source of
symmetry information in preference to the above space-group names.
They are only intended as comments.
;
_shelx_estimated_absorpt_t_min   0.204
_shelx_estimated_absorpt_t_max   0.892
_shelx_hkl_file
;
  -4  -6  13  185.04   10.18   0
  -4  -5  12   -6.33    7.34   0
  -4  -4  11   65.89    7.16   0
  -4  -3  10    4.33    5.41   0
  -4  -1   9  694.25    7.81   0
  -3 -10  15   69.28   11.15   0
  -3  -9  13   10.19    9.25   0
  -3  -7  10   59.32    7.70   0
  -3  -3   6 1716.64    9.53   0
  -3  -1   5  231.79    3.70   0
  -3   8   8    4.73    5.58   0
  -2  -7   7  316.61    8.86   0
  -2   7   4 3098.68   14.57   0
  -2   8   5  392.47    8.48   0
  -2  10   8  182.18   11.18   0
  -1 -12  13  284.30   14.45   0
  -1 -11  11  184.74   10.96   0
  -1  12  11   -8.30    9.56   0
   0 -12  12    9.63    9.93   0
   0 -11  10   23.57    8.32   0
   0  -9   7 1477.32   14.09   0
   0   3   0  478.15    3.78   0
   0  10   6  174.55    8.74   0
   0  11   8   -9.15    7.77   0
   0  12  11    8.35    7.96   0
   1  -9   7 1173.32   11.34   0
   1  -4   2 2727.63    7.72   0
   1   6   2    4.03    3.88   0
   1   8   4  193.84    7.32   0
   1  11  10    7.62    7.07   0
   2  -8   7  950.72    9.09   0
   2   8   6    1.40    7.09   0
   2   9   8  285.46   12.22   0
   3   1   4  651.49    5.97   0
   3   6   7    0.43    6.00   0
   4  -8  14   12.62    4.88   0
   4   5  12    3.70    7.94   0
  -4  -7  15  100.97   11.38   0
  -4   6  10   12.53    3.96   0
  -4   7  11   18.07    5.81   0
  -3  -6   9  312.08    8.40   0
  -3  -4   7 2206.78   13.10   0
  -3   9   9  169.11   10.27   0
  -3  10  11   40.45    9.91   0
  -2 -12  16   14.67   12.39   0
  -2  -9  10    8.16    8.41   0
  -2  -6   6  511.59    7.90   0
  -2  -5   5  914.91    8.46   0
  -2   9   6   49.96    6.98   0
  -2  11  10   44.72    9.81   0
  -1 -13  16    8.03   12.41   0
  -1  10   6   32.60    7.16   0
  -1  11   8   40.75    8.45   0
   0 -13  15   15.94   13.34   0
   0   7   2 2959.52   14.33   0
   0   8   3   78.57    5.47   0
   0   9   4   -6.45    6.11   0
   1 -13  15    7.34   10.36   0
   1  -8   6  374.58    7.27   0
   1   9   5    1.48    5.71   0
   1  11   9  107.50    9.49   0
   2 -12  14   20.43    8.31   0
   2 -11  12   94.87    8.95   0
   2 -10  10   17.14    6.04   0
   2  10  10   18.85   10.62   0
   3 -11  15   19.43    8.36   0
   3 -10  13   12.46    6.81   0
   3  -1   4   74.17    2.15   0
   3   2   4 2051.46   11.30   0
   3   4   5  302.28    7.17   0
   3   7   8   50.49    7.99   0
   3   8  10   69.76   10.67   0
   4  -1   8   75.69    3.90   0
   4   0   8  100.46    4.96   0
   4   3   9  228.72    9.56   0
   4   4  10  199.50   11.26   0
  -3 -10  16   37.07   12.27   0
  -3  -8  12   63.73    8.56   0
  -3  -5   8   70.14    5.78   0
  -3   5   5  398.11    4.70   0
  -2 -11  14   40.69   11.37   0
  -2 -10  12    6.01    9.33   0
  -2  -2   3  393.15    4.06   0
  -2   6   3 3283.24   11.91   0
  -1 -12  14  268.00   14.51   0
  -1 -11  12  258.09   12.84   0
  -1 -10  10   66.00    8.30   0
  -1  -3   2  323.57    4.00   0
  -1   5   1 2842.27    9.81   0
  -1   8   3  583.72    8.94   0
  -1  12  10   27.93    9.27   0
   0 -12  13   20.80   10.25   0
   0 -10   9  246.22   10.29   0
   0   6   1 8109.68   19.74   0
   0  11   7   44.03    8.26   0
   0  12  10    9.17    8.79   0
   1 -12  13  335.36   12.77   0
   1 -11  11  106.45    9.48   0
   1 -10   9   93.82    7.12   0
   1   5   1 2464.50   10.60   0
   2  -7   6  184.90    4.15   0
   2   4   2  473.34    5.73   0
   2   9   7   81.61    8.56   0
   2  10   9   97.27   11.52   0
   4   5  11   35.98    8.73   0
  -4  -6  14  121.82    9.93   0
  -4  -2  10  492.99    8.33   0
  -4   5   9  175.56    4.33   0
  -4   8  12   24.00    7.40   0
  -3  -9  14   19.85   10.31   0
  -2 -12  17    5.99   12.60   0
  -2  -8   9  784.30   13.12   0
  -2   4   2  784.05    4.40   0
  -2  10   7    9.43    7.07   0
  -2  11   9  148.45   11.34   0
  -1 -13  17   10.92   13.05   0
  -1  -1   1 1643.04    4.52   0
  -1   7   2  -10.58    4.27   0
  -1   9   4   23.17    6.08   0
  -1  11   7    0.22    7.72   0
   0 -13  16    0.13   13.30   0
   0 -11  11  106.65   10.07   0
   0  -7   5  158.56    5.64   0
   0  -4   2   68.18    3.17   0
   0   4   0 1103.99    5.94   0
   0  10   5    8.89    6.44   0
   0  12   9   35.72    8.79   0
   1 -13  16   -8.04    9.09   0
   1  -6   4    7.63    4.31   0
   1  -5   3 1086.08    6.12   0
   1   2   0  543.51    4.10   0
   1   7   2 1096.07   10.74   0
   1   8   3  732.09   11.14   0
   1  10   6   14.08    6.43   0
   1  11   8  -12.84    7.30   0
   2 -12  15   10.39    8.13   0
   2  -9   9  607.59    9.15   0
   2   6   3 1005.96   10.29   0
   2   8   5    9.42    6.55   0
   3   3   4    9.32    4.50   0
   3   6   6   75.53    6.91   0
   3   8   9   26.44    8.67   0
   4  -7  13    6.00    4.32   0
   4   2   8   87.26    5.87   0
  -4  -7  16   26.23   10.07   0
  -4  -5  13   37.26    7.68   0
  -3  -7  11   -5.78    7.19   0
  -3  -2   6  814.49    6.86   0
  -3   0   5  531.88    4.17   0
  -3   8   7  347.39    8.89   0
  -3  10  10   46.91    9.07   0
  -2 -11  15   62.44   12.49   0
  -2 -10  13  175.99   11.49   0
  -2  -9  11  135.69    9.70   0
  -2  -7   8 2399.30   16.33   0
  -1 -12  15  173.88   14.50   0
  -1  10   5  137.29    7.72   0
  -1  12   9   15.36    9.36   0
   0  -6   4 4169.87   14.04   0
   0  -5   3 2024.35    9.12   0
   1  -9   8  608.01    9.38   0
   1  -2   1 1006.08    2.76   0
   1   1   0 4060.42    6.92   0
   1   3   0  381.13    4.00   0
   1   9   4   10.82    5.56   0
   2 -11  13  138.09    9.29   0
   2 -10  11   30.53    7.12   0
   2   9   6   49.97    7.34   0
   2  10   8  105.06   10.81   0
   3 -11  16   34.42    9.58   0
   3   5   5  101.10    5.96   0
   3   7   7  209.35   10.12   0
   4   4   9   56.08    7.82   0
   4   5  10   -2.03    8.67   0
  -4  -4  12  252.88    8.62   0
  -4  -3  11   19.79    6.03   0
  -3 -10  17   -3.45   11.13   0
  -3  -9  15   -0.97   10.19   0
  -3  -8  13   22.20    8.66   0
  -3  -6  10  620.20   10.83   0
  -3   7   6   43.12    4.66   0
  -3   9   8  153.97    8.90   0
  -2  -3   4  324.72    4.91   0
  -2   8   4    5.61    4.66   0
  -2   9   5  123.53    7.42   0
  -2  11   8    5.06    9.40   0
  -1 -11  13  697.09   16.73   0
  -1 -10  11   18.54    7.94   0
  -1  -6   5    7.99    4.46   0
  -1  -5   4 2712.65   11.40   0
  -1  -4   3 3582.14   11.35   0
  -1   6   1  361.57    5.96   0
   0 -13  17   21.28   14.44   0
   0 -12  14   -4.72   11.10   0
   0  -9   8  499.12   10.62   0
   0   5   0 5416.46   14.18   0
   0   8   2   -1.54    5.03   0
   0   9   3  554.11   10.32   0
   0  11   6  120.13    9.79   0
   0  12   8    1.44    9.02   0
   1 -13  17   -4.02   11.04   0
   1 -12  14  151.37   10.99   0
   1 -11  12  250.19   11.15   0
   1 -10  10   36.71    7.39   0
   1   6   1   70.51    4.52   0
   1  10   5   22.23    6.68   0
   1  11   7    5.14    7.65   0
   3 -10  14   19.54    7.10   0
   3   4   4    3.52    5.09   0
   4  -8  15    9.96    6.18   0
  -4  -7  17   60.44   11.79   0
  -4  -6  15   50.47    9.38   0
  -3  -5   9  337.06    8.72   0
  -3  -3   7 1206.12    9.31   0
  -2 -11  16   24.61   11.97   0
  -2  -8  10 1736.97   17.18   0
  -2  -6   7  350.75    7.23   0
  -2  -5   6  602.26    7.27   0
  -2  -4   5  993.82    8.27   0
  -2   7   3 1449.94   10.53   0
  -2  10   6  145.25    9.46   0
  -2  12  10    8.86    9.90   0
  -1 -12  16   10.52   10.80   0
  -1  11   6  132.60   10.10   0
  -1  12   8    5.38    8.85   0
   0 -11  12   47.31    9.00   0
   0 -10  10   55.37    7.49   0
   0   7   1  258.78    5.96   0
   0  10   4   87.08    8.57   0
   1   4   0 3302.13   10.78   0
   1  12   9    7.64    8.55   0
   2 -12  16   -1.94    8.47   0
   2  -8   8 1880.01   11.36   0
   2   2   1 1227.94    6.15   0
   2   7   3   21.48    5.74   0
   2   8   4  132.14    7.92   0
   2  10   7   45.38    9.35   0
   3  -7   9  442.33    6.07   0
   3   7   6  218.54   10.22   0
  -4  -5  14    0.57    7.84   0
  -4   7  10   30.48    5.97   0
  -3  -9  16   34.81   11.36   0
  -3  -7  12  242.38    9.36   0
  -3  -4   8   86.87    5.28   0
  -3   6   5   26.68    3.84   0
  -3  10   9   28.41    8.39   0
  -2 -10  14  317.01   13.92   0
  -2  -9  12   82.25    9.19   0
  -1   8   2 1621.48   12.30   0
  -1   9   3  304.70    8.34   0
  -1  10   4    2.69    6.25   0
   0 -13  18    7.36   12.99   0
   0 -12  15   -3.23   11.43   0
   0  11   5   33.68    7.61   0
   0  12   7   93.37   10.93   0
   1 -12  15  151.85   11.59   0
   1  -8   7    5.28    4.83   0
   1   8   2  720.82   10.91   0
   1   9   3   44.65    6.00   0
   1  11   6   20.68    7.68   0
   1  12   8   -6.01    8.30   0
   2 -11  14   69.63    9.55   0
   2   1   1  952.07    4.53   0
   2   6   2 1568.61   11.84   0
   2   9   5  126.62    9.09   0
   3   6   5   59.31    6.38   0
   3   8   7  185.94   11.52   0
   3   9   9   10.40    9.27   0
   4  -6  12    6.06    3.41   0
   4   4   8  189.92    9.55   0
   4   5   9   12.49    7.31   0
   4   6  10   -0.83    9.35   0
  -4  -6  16  216.99   12.33   0
  -4   1   9  183.90    4.02   0
  -4   8  11    5.91    6.74   0
  -3  -8  14    6.11    8.65   0
  -2 -11  17    1.23   11.57   0
  -2  -7   9 1175.85   12.76   0
  -2  -1   3  754.00    4.31   0
  -2  11   7    3.81    8.16   0
  -2  12   9   15.86   10.47   0
  -1 -12  17   20.05   10.70   0
  -1 -11  14  326.55   12.99   0
  -1 -10  12  106.38    9.25   0
  -1  11   5    1.49    8.41   0
  -1  12   7   11.76    9.42   0
   0 -11  13  198.44   12.33   0
   0  -9   9 1938.58   16.46   0
   0  -2   1    7.10    1.75   0
   0   6   0 1419.71    8.99   0
   0   9   2  127.45    6.87   0
   1 -11  13  242.67   11.81   0
   1  -9   9  149.10    7.84   0
   1   5   0  127.62    4.25   0
   1   7   1  739.67    8.92   0
   1  10   4    8.18    6.68   0
   2 -12  17    3.81    9.88   0
   2 -10  12  276.00    8.62   0
   2  -9  10  248.66    6.83   0
   2  -7   7  613.62    6.59   0
   2   4   1   25.44    3.84   0
   2  10   6   68.29    9.36   0
   2  11   8    4.92    9.31   0
   3 -10  15    4.73    7.04   0
   3  -6   8   61.24    3.59   0
   3   5   4   10.74    4.76   0
   4   0   7   17.39    3.93   0
   4   1   7   -0.60    3.81   0
   4   2   7   27.93    5.08   0
  -4  -4  13   20.52    6.88   0
  -4  -3  12   -2.67    6.00   0
  -4  -2  11  164.76    6.52   0
  -3  -6  11 1347.65   14.37   0
  -3   8   6  697.04   11.16   0
  -3   9   7  104.37    7.64   0
  -2 -10  15  143.32   12.95   0
  -2   9   4   22.18    5.96   0
  -1   3   0  752.77    3.79   0
  -1   7   1  898.87    8.17   0
   0 -12  16    3.87   10.58   0
   0 -10  11   56.00    8.81   0
   0  -7   6  959.37    9.32   0
   0   8   1  136.27    6.15   0
   0  10   3   94.12    8.07   0
   0  12   6   94.25   10.26   0
   1 -12  16   48.37   10.63   0
   1 -10  11   91.47    7.56   0
   1  11   5   -2.99    7.13   0
   1  12   7   -1.71    8.26   0
   2   8   3   -0.02    5.94   0
   2   9   4    9.66    7.49   0
   3  -9  13   42.65    6.86   0
   3   1   3 1831.50    8.55   0
   3   2   3  169.89    4.53   0
   3   3   3  217.70    5.85   0
   3   7   5   57.70    7.52   0
   3   9   8   11.91    8.79   0
   4   5   8    5.93    7.62   0
   4   6   9   15.60    9.19   0
  -4  -5  15    7.60    8.40   0
  -4   6   9   46.57    3.97   0
  -3  -9  17  -17.81   10.92   0
  -3  -8  15  186.36   11.30   0
  -3  -7  13   13.97    7.72   0
  -3  10   8   41.91    8.49   0
  -2 -11  18    8.92   12.16   0
  -2  -9  13   21.35    9.08   0
  -2  -8  11  386.38   10.59   0
  -2  -6   8    1.08    5.56   0
  -2   6   2  882.13    7.04   0
  -2   8   3  347.77    7.45   0
  -2  10   5  117.34    7.81   0
  -2  12   8   13.10   10.83   0
  -1 -12  18   26.79   12.30   0
  -1 -11  15  121.03   11.62   0
  -1  -2   2  375.12    3.84   0
  -1   4   0 1087.01    5.25   0
  -1  12   6   -2.34    9.49   0
  -1  13   8   -1.94   10.39   0
   0  11   4  119.79    9.24   0
   1   6   0   17.15    4.13   0
   1   9   2   21.47    5.63   0
   2 -11  15  111.02   10.22   0
   2   5   1 1754.68   10.60   0
   2   7   2  313.64    7.70   0
   2  10   5   23.13    8.52   0
   2  11   7    4.81    9.73   0
   3  -5   7  588.07    4.75   0
   3   4   3  450.30    8.06   0
   3   6   4    7.18    5.67   0
   3   8   6   80.07    8.95   0
   4  -7  14    5.07    4.58   0
  -4  -6  17   20.30    9.74   0
  -3  -5  10  509.28    8.92   0
  -3   1   5  288.65    2.75   0
  -2 -10  16  307.50   15.26   0
  -2  11   6    7.33    8.03   0
  -1 -10  13   36.62    8.47   0
  -1  -9  11   14.50    6.99   0
  -1  -6   6  261.01    5.82   0
  -1   5   0 1292.87    6.80   0
  -1   9   2   30.09    5.90   0
  -1  11   4  307.27   12.15   0
   0 -12  17   -2.85   12.70   0
   0 -11  14  252.92   13.31   0
   0  -6   5   15.81    4.11   0
   0   7   0 1517.79   10.86   0
   0  12   5  168.95   12.38   0
   0  13   7   34.40   11.38   0
   1 -11  14  265.50   11.40   0
   1  -8   8    7.95    5.94   0
   1  -6   5   30.34    3.99   0
   1   8   1  121.53    6.58   0
   1  10   3  297.45   10.30   0
   2 -10  13  193.97    8.74   0
   2  -8   9  664.36    8.31   0
   3 -10  16   -3.47    7.59   0
   3   9   7    6.75    8.70   0
   4  -5  11   17.70    2.86   0
   4   4   7    5.50    6.45   0
  -4  -4  14  141.17    8.87   0
  -4   2   9   62.21    3.09   0
  -3  -9  18    4.43   10.52   0
  -3  -6  12  242.72    9.89   0
  -3  -4   9  295.16    6.86   0
  -3  -3   8 1661.75   11.18   0
  -3  -2   7  372.61    5.69   0
  -3  11   9   -1.72    8.92   0
  -2 -11  19    1.47   11.97   0
  -2  -9  14  168.22   11.54   0
  -2  -7  10 1535.78   14.42   0
  -2  -5   7  651.19    7.50   0
  -2  -2   4 1674.22    7.43   0
  -1 -12  19   23.11   12.91   0
  -1 -11  16  164.46   12.52   0
  -1  -5   5  198.49    4.92   0
  -1   8   1  -13.44    5.19   0
  -1  13   7   30.32   11.48   0
   0 -10  12  334.48   11.21   0
   0  -9  10  108.18    7.70   0
   0  -5   4 2597.94   10.31   0
   0  -3   2  471.36    3.81   0
   0   9   1    8.90    6.14   0
   0  10   2    2.50    6.60   0
   1 -12  17   44.31   11.06   0
   1 -10  12    2.12    6.87   0
   1  -9  10  430.31    9.75   0
   1   7   0   68.12    5.18   0
   1  11   4  128.77    9.52   0
   2  -9  11    4.08    4.99   0
   2  -3   3 1494.78    3.79   0
   2   6   1 2915.58   15.21   0
   3  -7  10  232.04    5.98   0
   3   5   3    5.37    4.72   0
   3   7   4  394.58   11.56   0
   3   8   5  241.90   11.04   0
   4  -1   7   -2.16    2.80   0
   4   5   7   -3.60    6.96   0
   4   6   8    3.31    7.81   0
  -4  -6  18   60.32   11.88   0
  -4  -5  16    2.56    9.38   0
  -4  -3  13   85.25    7.26   0
  -4   0  10  226.04    5.49   0
  -4   8  10    2.70    5.78   0
  -3  -9  19    9.10   11.01   0
  -3  -8  16   79.25   10.19   0
  -3  -7  14   26.53    7.99   0
  -2  -8  12  873.43   13.60   0
  -2  -4   6   64.59    4.68   0
  -2  -3   5 1648.93    8.64   0
  -2   7   2 1865.77   11.00   0
  -2  10   4    7.69    7.96   0
  -1 -12  20   22.21   12.53   0
  -1 -10  14   92.44   10.27   0
  -1  -4   4 3735.09   12.02   0
  -1  -3   3 1850.65    7.48   0
  -1   6   0  296.61    5.27   0
  -1  12   5   40.13    9.66   0
   0 -12  18   33.56   13.30   0
   0 -11  15  222.61   13.38   0
   0  -4   3  754.61    5.40   0
   0   4  -1 1246.99    6.42   0
   0   5  -1 1304.19    7.67   0
   0  11   3  165.99   10.42   0
   0  13   6   23.84    9.68   0
   1  -4   3 8217.13   13.40   0
   1   0   0   49.63    1.34   0
   1  12   5   -3.31    8.15   0
   2 -11  16  135.91   10.61   0
   2   8   2  178.10    7.56   0
   3  -9  14   41.40    7.82   0
   3   0   3   72.91    2.55   0
   4   2   6  337.32    7.70   0
  -4  -2  12   78.08    6.61   0
  -4  -1  11 1347.44   11.13   0
  -3   9   6   94.87    7.29   0
  -3  10   7   -1.04    7.79   0
  -2 -10  17   96.30   12.15   0
  -2   9   3   37.37    6.37   0
  -2  11   5   32.97    8.82   0
  -1 -11  17   88.78   11.56   0
  -1  -9  12  182.44    8.56   0
  -1   2   0  553.99    2.42   0
  -1  10   2   29.70    7.91   0
  -1  11   3   38.19    8.92   0
   0  -7   7 1138.71    9.77   0
   0   3  -1 1285.93    5.51   0
   0   8   0   26.73    5.46   0
   0  12   4  449.28   15.59   0
   1 -11  15   68.24    9.04   0
   1   4  -1 1022.49    6.67   0
   1   9   1   54.57    6.31   0
   1  10   2   26.26    6.08   0
   1  11   3   24.70    6.91   0
   2 -10  14  181.53    9.34   0
   2  -4   4   40.09    2.55   0
   2   7   1   11.72    5.63   0
   2  11   5  -13.76    9.18   0
   3 -10  17    2.76    8.35   0
   3   6   3  245.02    7.98   0
   4   1   6   14.59    3.98   0
   4   3   6  143.63    7.12   0
   4   4   6   30.26    6.92   0
   4   7   8    4.19    9.61   0
  -4  -4  15   76.12    8.14   0
  -4   7   9   27.05    4.70   0
  -3  -8  17  146.52   11.67   0
  -3  -5  11  396.64    8.59   0
  -3   8   5  280.33    7.85   0
  -3  11   8   18.12    8.97   0
  -2 -10  18  112.12   13.86   0
  -2  -9  15  325.60   12.83   0
  -2  -6   9 1060.44   10.74   0
  -2  12   6  119.85   11.64   0
  -1   7   0   10.54    4.31   0
  -1   9   1    8.77    5.64   0
  -1  12   4   10.11    8.84   0
  -1  13   6   14.43   10.15   0
   0 -12  19    9.68   13.52   0
   0 -10  13  326.95   11.75   0
   0  -9  11  299.23    9.83   0
   0  -8   9 1174.92   11.37   0
   0   6  -1 4359.27   14.82   0
   0  10   1   25.65    8.07   0
   0  13   5  122.51   14.06   0
   1 -12  19   24.81   11.20   0
   1 -10  13   27.54    7.13   0
   1   3  -1 1523.47    6.74   0
   1   5  -1 2204.07   10.47   0
   1   8   0  493.52    8.99   0
   1  12   4   35.32    8.64   0
   2 -11  17   61.62    8.99   0
   2  -7   8  139.97    4.37   0
   2   3   0  912.29    6.16   0
   2   4   0  429.85    5.85   0
   2   5   0 2691.47   12.58   0
   2   9   2   29.10    6.90   0
   2  10   3   41.49    8.53   0
   3   3   2   61.38    4.49   0
   3   8   4   11.44    7.01   0
   3   9   5   -8.63    8.19   0
   4   6   7   46.06    8.62   0
  -4  -5  17    3.73    8.95   0
  -3  -7  15    2.85    7.92   0
  -3  -6  13  691.49   11.89   0
  -3  -4  10   24.24    6.10   0
  -2  -8  13   11.06    8.23   0
  -2  -7  11 1181.10   13.24   0
  -2   8   2  232.43    6.15   0
  -1 -11  18  154.52   12.59   0
  -1 -10  15   29.47    8.60   0
  -1  -6   7  168.80    5.67   0
   0 -11  16  111.88   11.12   0
   0   7  -1  450.39    6.98   0
   0   9   0  201.23    7.69   0
   0  11   2   23.91    7.64   0
   0  12   3  115.89   11.34   0
   1 -11  16  183.42   11.06   0
   1  -9  11   14.31    6.32   0
   1  -8   9   97.29    5.87   0
   1   6  -1   53.79    4.57   0
   2  -9  12   77.08    6.09   0
   2  -8  10  891.24    9.06   0
   2   6   0  494.81    8.03   0
   2   8   1   54.51    6.42   0
   2  11   4  150.91   11.87   0
   3  -9  15   78.18    7.93   0
   3   2   2  790.77    7.34   0
   3   4   2  259.34    5.97   0
   3   5   2    2.46    5.38   0
   3   7   3  131.75    8.27   0
   3  10   6   11.28    9.49   0
   4  -7  15   -3.27    5.14   0
   4  -6  13    5.36    4.18   0
   4  -4  10   31.66    2.38   0
   4   5   6   11.03    6.64   0
  -4  -3  14   -0.60    6.95   0
  -3  -8  18   21.88   10.75   0
  -2 -10  19   65.01   12.92   0
  -2  -9  16  101.21   10.66   0
  -2  -5   8  109.42    5.36   0
  -2  10   3  104.61    8.42   0
  -2  11   4   -3.20    8.32   0
  -1  -9  13    0.54    7.18   0
  -1   8   0 1012.24    9.66   0
  -1  13   5   78.63   11.60   0
   0 -12  20    7.21   13.39   0
   0 -10  14  848.38   17.06   0
   0  -6   6 1018.23    7.99   0
   1 -12  20    9.96   12.09   0
   1   7  -1 1491.63   11.71   0
   1   9   0  343.74    8.88   0
   1  10   1  330.09   10.05   0
   1  11   2  228.79   10.20   0
   1  13   5   59.08   12.34   0
   2 -11  18   78.98   10.37   0
   2 -10  15  183.04    9.73   0
   3 -10  18   10.84    9.49   0
   3  -6   9  345.52    5.66   0
   4   6   6  126.32   11.06   0
   4   7   7    6.76    8.84   0
  -4  -5  18    7.52   10.05   0
  -4  -4  16  121.11    9.86   0
  -3  -7  16   63.28    9.06   0
  -3  -5  12  902.24   12.04   0
  -3  -3   9  193.22    6.54   0
  -3   0   6   37.59    2.95   0
  -3  10   6   13.98    8.28   0
  -3  11   7   -8.87    8.03   0
  -2  -8  14   20.38    9.21   0
  -2   5   1   62.40    3.49   0
  -2  12   5   56.60   11.59   0
  -1 -11  19   86.35   12.55   0
  -1 -10  16   20.74    8.66   0
  -1  -5   6 1490.86    9.05   0
  -1  10   1  168.80    8.55   0
  -1  11   2  113.12    9.04   0
  -1  12   3    3.36    8.68   0
   0 -12  21    6.48   13.91   0
   0 -11  17   29.71   12.18   0
   0   2  -1    9.83    1.88   0
   0   8  -1  270.45    6.75   0
   0  13   4   47.56   10.62   0
   1 -11  17   85.64   11.36   0
   1 -10  14    9.98    7.83   0
   1  -6   6   15.99    3.99   0
   1   2  -1 3408.62    8.19   0
   1  12   3   12.02    7.31   0
   2  -6   7   11.55    3.39   0
   2   7   0 1161.15   11.43   0
   2  10   2   19.31    7.72   0
   3   6   2   15.21    5.40   0
   3   8   3  144.45    8.90   0
   3   9   4   12.56    8.29   0
   3  10   5    5.59    8.74   0
   4   0   6   53.49    3.64   0
   4   3   5  413.30    9.21   0
  -4  -2  13  175.05    7.79   0
  -4   1  10   84.08    4.21   0
  -3  -8  19   50.53   11.54   0
  -3  -6  14  229.75    9.77   0
  -3  -2   8  133.48    4.95   0
  -3   9   5  335.62    9.37   0
  -2 -10  20  180.17   15.43   0
  -2  -9  17  233.82   13.54   0
  -2  -7  12  403.92    9.84   0
  -2  -6  10  235.60    7.31   0
  -2  -4   7  123.12    4.85   0
  -2   9   2   85.65    6.01   0
  -1 -11  20   76.83   12.18   0
  -1   0   1 1617.71    3.00   0
  -1  13   4   25.61   10.43   0
   0 -11  18   53.42   12.55   0
   0  -9  12   68.11    7.32   0
   0  10   0  500.34   11.37   0
   0  11   1  471.34   13.31   0
   0  12   2  536.26   15.70   0
   1   8  -1  203.21    6.85   0
   1  13   4   31.47    9.99   0
   2 -11  19   33.53   11.20   0
   2  -9  13   -2.03    6.53   0
   2   9   1   65.17    7.54   0
   2  12   4   87.73   12.20   0
   3   7   2  904.02   14.58   0
   4   2   5   31.40    4.63   0
   4   4   5   61.84    6.02   0
   4   5   5  154.53    8.27   0
   4   7   6   -8.32    8.77   0
  -4  -5  19    9.81   10.48   0
  -4  -1  12  823.85    9.40   0
  -4   0  11   29.24    4.87   0
  -4   3   9   17.26    2.41   0
  -4   8   9   92.20    6.76   0
  -3  -8  20   89.77   11.99   0
  -3  -7  17   -6.44    8.58   0
  -3  -1   7   70.47    3.78   0
  -2 -10  21  114.24   14.17   0
  -2   0   3  882.98    3.60   0
  -2   4   1    4.18    2.51   0
  -1 -10  17   55.65   10.03   0
  -1  -9  14  321.02   10.25   0
  -1   9   0  349.42    8.21   0
   0 -10  15  239.52   11.51   0
   0  -5   5 1534.08    8.26   0
   0  13   3  188.59   13.70   0
   1  -9  12  326.40    8.82   0
   1  -8  10  343.74    8.05   0
   1  -7   8 1806.33   11.13   0
   1  10   0  151.29    8.68   0
   1  11   1    6.70    7.01   0
   1  12   2   19.70    8.26   0
   2 -10  16  231.36   10.23   0
   2  -8  11  465.49    8.11   0
   2  -7   9  666.91    7.50   0
   2   8   0  115.57    7.34   0
   3  -9  16   15.20    7.84   0
   3   1   2  294.21    3.95   0
   3   9   3   36.47    8.49   0
   3  10   4   22.08    9.87   0
   4  -7  16   -0.73    6.39   0
  -4  -4  17  127.34   10.89   0
  -4  -3  15   66.83    8.03   0
  -3  -6  15  332.26   11.76   0
  -3  -4  11    7.00    5.44   0
  -2  -9  18  101.92   11.55   0
  -2  -8  15    8.45    8.46   0
  -2  -3   6  563.42    5.93   0
  -2  11   3   70.44    7.92   0
  -2  12   4  250.20   14.07   0
  -1 -11  21   13.57   11.48   0
  -1  -6   8  355.80    7.09   0
  -1  -4   5 9716.29   18.73   0
  -1   5  -1  201.90    3.77   0
  -1   6  -1  900.35    7.20   0
  -1   7  -1 1230.97    9.62   0
  -1  12   2   14.34    7.96   0
   0 -11  19   -3.04   11.86   0
   0   9  -1   34.60    6.47   0
   1 -10  15   24.77    7.99   0
   1   9  -1  162.33    7.76   0
   1  13   3   29.00   10.35   0
   2 -11  20   25.51    9.62   0
   2   4  -1  360.74    5.89   0
   2   5  -1 1097.37    8.76   0
   2   6  -1 2198.25   13.48   0
   2  10   1   18.78    7.94   0
   2  11   2  145.96   11.52   0
   3   4   1  169.78    6.15   0
   3   5   1  393.24    7.91   0
   4   6   5   43.02    7.74   0
  -3  -8  21  120.37   13.98   0
  -3  -7  18   50.95   10.06   0
  -3  -5  13  207.66    8.45   0
  -3   8   4  752.82    9.47   0
  -3  11   6   55.84    9.22   0
  -2  -7  13 1202.09   13.55   0
  -2  -6  11  196.27    7.94   0
  -2  -5   9  497.73    7.40   0
  -2  -2   5  311.89    4.98   0
  -2  -1   4   21.55    2.77   0
  -2   8   1   27.06    5.31   0
  -2  10   2    2.04    6.14   0
  -2  13   5  157.67   15.11   0
  -1 -11  22  -11.42   11.81   0
  -1 -10  18   17.52    9.88   0
  -1  -9  15   71.19    7.80   0
  -1  10   0  567.22   11.44   0
   0 -10  16  532.86   14.68   0
   0  -9  13   63.15    8.25   0
   0  -4   4   57.51    3.25   0
   0   5  -2 5149.05   14.11   0
   0   6  -2 1392.16    8.72   0
   0   7  -2   37.99    4.70   0
   0  11   0  173.32   11.26   0
   0  12   1  115.37   10.69   0
   0  13   2   -4.30   10.97   0
   1 -11  19   91.86   12.03   0
   1   5  -2 1108.45    7.71   0
   1   6  -2  267.77    5.64   0
   1   7  -2   11.49    4.74   0
   2 -10  17  292.75   11.29   0
   2  -9  14   32.43    6.98   0
   2   1   0   14.86    2.39   0
   2   7  -1  168.23    7.10   0
   2   9   0   10.00    6.97   0
   2  12   3  109.40   11.77   0
   3  -9  17  164.91    9.87   0
   3  -8  14   10.49    6.08   0
   3  -5   8   24.27    3.19   0
   3   3   1   78.42    4.35   0
   4  -6  14   28.34    5.47   0
   4   1   5   17.16    4.04   0
  -4  -4  18   85.01   10.96   0
  -4  -2  14   98.05    7.84   0
  -3  -3  10  801.37    9.68   0
  -3  10   5   -2.93    6.54   0
  -2  -9  19  421.40   16.80   0
  -2  -8  16  -10.77    8.89   0
  -1  -3   4 2092.48    7.96   0
   0 -11  20   59.88   13.29   0
   0  -8  11  557.79    9.16   0
   0  -6   7  386.21    5.97   0
   0   4  -2   65.40    3.21   0
   0   8  -2   49.89    5.31   0
   0  10  -1   14.26    6.75   0
   0  14   3   -1.91   11.75   0
   1 -10  16   -0.51    8.38   0
   1  -9  13  209.87    8.61   0
   1   4  -2 2580.18    9.86   0
   1  10  -1  636.99   12.62   0
   1  11   0   58.57    8.65   0
   1  12   1   -0.17    8.11   0
   1  13   2   36.59    9.80   0
   2   3  -1  327.21    5.20   0
   3   7   1  301.31    9.26   0
   3   9   2   -1.34    7.53   0
   3  10   3   33.62    9.93   0
   4  -5  12  225.46    5.24   0
   4   4   4   43.74    6.45   0
   4   5   4   36.45    7.20   0
  -4  -3  16  126.06    9.06   0
  -4   6   8   14.31    2.44   0
  -4   9   9    3.30    5.93   0
  -3  -7  19   29.42    9.68   0
  -3  -6  16  299.94   10.44   0
  -2   9   1   11.90    5.93   0
  -2  12   3   89.42   11.52   0
  -1 -10  19  145.26   12.05   0
  -1  -5   7  100.60    4.58   0
  -1  -2   3    7.09    2.41   0
  -1  -1   2 1278.66    4.35   0
  -1   9  -1  171.14    7.97   0
  -1  12   1   27.87    8.86   0
   0 -11  21   21.82   11.87   0
   0 -10  17  261.49   12.91   0
   0  -9  14    9.44    8.38   0
   1 -11  20   17.36   11.02   0
   1  -8  11   24.85    5.81   0
   1   8  -2   74.49    6.13   0
   2 -10  18  255.65   11.60   0
   2  -8  12  543.25    9.06   0
   2   8  -1   64.90    6.96   0
   2  10   0   95.26    8.57   0
   2  11   1  186.82   12.05   0
   2  12   2  165.13   13.42   0
   3   8   1   75.92    8.59   0
   4   3   4   74.31    5.81   0
   4   6   4  190.92    9.97   0
  -4  -1  13 1064.40   11.35   0
  -4   7   8  130.06    4.60   0
  -3  -5  14  870.68   12.99   0
  -3  -4  12    4.11    5.64   0
  -3   2   5 1835.89    4.72   0
  -3   9   4   72.82    6.14   0
  -2  -9  20  367.26   16.34   0
  -2  -8  17   36.20    9.69   0
  -2  -7  14  458.12   10.30   0
  -2  -4   8  110.53    4.77   0
  -2  11   2    0.56    6.65   0
  -2  13   4   43.35   10.77   0
  -1 -10  20   12.90   11.03   0
  -1  -9  16  193.20   10.24   0
  -1  -6   9 3141.63   15.18   0
  -1  11   0  182.61    9.08   0
  -1  13   2   64.75   10.78   0
   0  -3   3 4967.71   10.15   0
   0   9  -2  883.91   11.42   0
   0  11  -1  797.89   15.97   0
   0  12   0  598.80   15.63   0
   0  13   1   51.72   11.11   0
   1 -11  21   24.80   11.22   0
   1 -10  17    7.50    8.74   0
   1  -7   9  823.35    8.52   0
   1  -4   4  985.74    5.34   0
   1   9  -2  674.40   11.55   0
   1  12   0    0.78    7.76   0
   2  -9  15   19.56    6.68   0
   2  -7  10  156.77    5.80   0
   2  -6   8   72.53    4.11   0
   2   9  -1    3.42    6.41   0
   3  -9  18  131.86   10.36   0
   3  -8  15    8.39    7.27   0
   3   2   1   79.31    3.74   0
   3  10   2   35.66    9.98   0
   4   7   4    5.19    8.19   0
  -4  -4  19  133.75   11.48   0
  -4  -3  17  237.85   11.46   0
  -4  -2  15   62.05    7.25   0
  -4   0  12 1038.73    9.81   0
  -3  -7  20  114.04   11.80   0
  -3  -6  17  224.99   10.77   0
  -3  -2   9  980.37    8.07   0
  -3  11   5    8.00    8.27   0
  -3  12   6   15.63    9.68   0
  -2  -9  21  293.57   15.79   0
  -2  -6  12  245.84    8.00   0
  -2  -5  10   -0.23    5.18   0
  -2  10   1   23.49    6.90   0
  -1  10  -1  853.22   13.86   0
   0 -10  18  464.62   14.90   0
   0  -8  12  681.56   10.50   0
   0  -5   6    6.79    4.20   0
   0  14   2    0.33   11.77   0
   1 -11  22    5.12   12.15   0
   1  -9  14  205.80    8.83   0
   1   3  -2  260.96    3.65   0
   1  11  -1  127.06    9.30   0
   1  13   1   10.38    9.77   0
   2 -10  19  188.95   11.22   0
   2  11   0   40.20   10.18   0
   2  12   1    0.21    8.69   0
   3  -1   3  439.20    2.34   0
   3   5   0    9.03    5.26   0
   3   6   0  166.92    7.26   0
   3   9   1   16.55    7.54   0
   4   2   4  166.72    5.49   0
  -4  -4  20   24.56   10.67   0
  -4   1  11   71.44    5.08   0
  -4   8   8   10.51    4.87   0
  -3  -7  21  151.64   13.21   0
  -3  10   4    4.18    6.14   0
  -2  -9  22  125.01   13.13   0
  -2  -8  18  113.40   10.88   0
  -2  -7  15  564.43   12.74   0
  -1 -10  21   -0.73   10.22   0
  -1  -9  17   53.30    8.46   0
  -1  -8  14   -1.81    6.58   0
  -1  13   1   -2.19    9.58   0
   0 -11  23   20.11   13.76   0
   0  -9  15  454.27   11.86   0
   0  10  -2   49.76    7.22   0
   1 -10  18    2.25    9.27   0
   1   1  -1 1575.38    4.56   0
   1  10  -2  999.45   14.40   0
   2   2  -1  345.49    4.08   0
   2   5  -2 3116.41   13.38   0
   2   6  -2  280.39    6.78   0
   2   7  -2   84.48    5.93   0
   2  10  -1   14.95    8.06   0
   3  -9  19   83.54   10.69   0
   3   4   0 1831.44   12.07   0
   3   7   0  277.55    8.64   0
   4   5   3  342.66   10.53   0
   4   8   4    6.75    8.85   0
  -3  -6  18  198.59   10.81   0
  -3  -5  15  574.95   11.57   0
  -3  -4  13   68.54    6.99   0
  -3  -3  11  307.93    6.96   0
  -2  -9  23   21.25   12.81   0
  -2  -3   7 1544.47    8.51   0
  -2   6   0 1026.78    6.93   0
  -2   8   0   45.18    5.32   0
  -2  12   2  208.68   12.59   0
  -2  13   3   81.08   11.02   0
  -1 -10  22   -4.82   10.90   0
  -1  -4   6 1362.33    8.03   0
  -1   7  -2  287.92    5.57   0
  -1  12   0    5.07    8.53   0
  -1  14   2    0.12   10.81   0
   0 -10  19  927.57   19.11   0
   0  -6   8   17.84    4.45   0
   0  -2   2    7.34    1.85   0
   0   3  -2  426.62    3.78   0
   0   7  -3  506.30    7.26   0
   0  12  -1  287.03   12.80   0
   0  13   0   -9.85    9.74   0
   0  14   1    4.83   11.47   0
   1  -9  15   73.87    8.00   0
   1  -8  12   56.80    6.56   0
   1   6  -3  152.29    5.19   0
   1   7  -3  863.83    9.43   0
   1   8  -3  316.62    8.01   0
   1  12  -1   81.36    9.84   0
   1  13   0  103.32   11.52   0
   2 -10  20   87.28    9.34   0
   2  -9  16   37.02    6.44   0
   2  -8  13  655.15    9.37   0
   2   8  -2  439.06    9.99   0
   3   0   2  501.97    3.57   0
   3   8   0   70.15    7.66   0
   3  10   1  158.59   12.06   0
   3  11   2   60.79   10.67   0
   4  -6  15    6.81    5.69   0
   4   4   3    8.57    5.47   0
   4   6   3   10.84    6.12   0
   4   7   3    7.32    8.57   0
  -4  -3  18  266.22   13.01   0
  -3  -7  22  202.12   14.82   0
  -3   0   7 2043.38    8.08   0
  -3   8   3   43.60    4.86   0
  -3  12   5   13.98    9.28   0
  -2  -8  19  100.69   10.68   0
  -2  -6  13   44.43    7.02   0
  -2   9   0  571.28    9.53   0
  -2  11   1  242.99    9.66   0
  -1 -10  23   -7.70   11.32   0
  -1  -9  18   11.90    7.49   0
  -1  -8  15  162.20    8.24   0
  -1  -6  10  644.04    8.34   0
  -1  -5   8   31.68    4.22   0
  -1   3  -1 1262.21    4.54   0
  -1   6  -2   24.90    3.88   0
  -1   9  -2  311.87    8.66   0
  -1  11  -1  894.78   14.26   0
   0 -10  20  367.92   16.02   0
   0  -9  16  184.79    9.96   0
   0  -8  13  505.18    9.82   0
   0   6  -3 2031.97   10.65   0
   0   8  -3 2595.83   15.27   0
   0  11  -2  227.12   10.52   0
   1 -10  19   34.50   10.28   0
   1  -5   6 1840.20    8.73   0
   1   5  -3   56.83    4.22   0
   1   9  -3  594.89   11.06   0
   1  11  -2   63.57    8.80   0
   2 -10  21  120.64   11.38   0
   2   4  -2   30.83    4.17   0
   2   9  -2   65.32    7.58   0
   2  11  -1  362.98   13.52   0
   2  12   0   88.48   11.46   0
   3  -8  16    9.20    6.56   0
   3  -4   7  207.72    3.10   0
   3   3   0  129.23    4.79   0
   3   9   0  122.80    9.30   0
   4  -3   9  679.92    4.22   0
   4   0   5  460.22    5.27   0
   4   3   3  118.53    5.94   0
   4   8   3   18.55    9.90   0
  -4   9   8   10.52    5.14   0
  -3  -6  19    6.30    8.19   0
  -3  -5  16  789.14   13.91   0
  -3   9   3  299.20    7.92   0
  -3  11   4   55.87    9.25   0
  -2  -7  16  271.64   10.22   0
  -2  -5  11  486.37    7.78   0
  -2  -4   9    4.26    4.67   0
  -1  -9  19   48.03    9.28   0
  -1  13   0  105.80   11.21   0
   0   5  -3 1964.53    9.11   0
   0   9  -3  733.81   10.66   0
   0  13  -1   -8.53   10.41   0
   1 -10  20    8.40   11.03   0
   2  -9  17  198.23    9.35   0
   2  -7  11  494.59    7.55   0
   2  10  -2  231.53   11.51   0
   3  11   1   11.32    9.34   0
  -4  -3  19  217.98   12.53   0
  -3  -2  10  429.17    7.06   0
  -2  -8  20  284.15   13.60   0
  -2  -2   6 4550.81   11.87   0
  -2  10   0   -0.69    6.25   0
  -2  12   1  242.34   13.21   0
  -2  13   2   52.32   10.11   0
  -1  -8  16   69.88    8.40   0
  -1   5  -2 2793.86    9.30   0
  -1  10  -2 1371.83   15.14   0
  -1  12  -1   -5.20    8.07   0
   0  -9  17  336.48   12.10   0
   0  -4   5  318.59    4.35   0
   0  10  -3   12.54    6.82   0
   0  12  -2  268.10   12.67   0
   0  14   0   33.90   12.48   0
   1  -9  16   16.20    8.05   0
   1  -8  13  162.31    7.75   0
   1   4  -3 3590.26   11.38   0
   1  10  -3  618.56   12.58   0
   1  12  -2   -0.95    8.05   0
   1  13  -1   34.90   10.56   0
   1  14   0   10.57   10.77   0
   2  -8  14  188.20    7.39   0
   2  -6   9  302.96    5.40   0
   2  12  -1   26.92   10.61   0
   2  13   0   18.22   10.31   0
   3  -8  17   16.47    7.83   0
   3  -5   9  127.65    4.05   0
   3   1   1 2421.07    8.25   0
   3   5  -1  901.39    9.98   0
   3   6  -1  163.58    6.50   0
   3   7  -1   54.20    6.37   0
   3  10   0   28.57    9.55   0
   4   5   2  186.05    8.58   0
   4   6   2  141.30    8.85   0
  -4   0  13  298.31    7.02   0
  -3  -6  20   10.92    8.75   0
  -3  -5  17  405.11   12.08   0
  -3  -4  14   37.81    6.25   0
  -3  -3  12  602.35    9.54   0
  -3  10   3   28.98    7.06   0
  -2  -8  21  151.03   12.37   0
  -2  -7  17  110.24    9.49   0
  -2  -6  14  751.73   11.40   0
  -1  -9  20   61.82   10.22   0
  -1  -3   5 3142.71    9.85   0
   0  -8  14  513.13   10.29   0
   0  11  -3  121.78   10.48   0
   1 -10  21   -6.44   11.09   0
   1   2  -2  388.62    3.94   0
   1  11  -3  361.11   12.24   0
   2  -9  18  147.43    9.65   0
   2   3  -2   64.44    3.97   0
   2   6  -3  663.04    8.06   0
   2   7  -3  311.91    7.53   0
   2   8  -3 1013.57   12.90   0
   2  11  -2  137.26   11.01   0
   3  -7  14  245.81    8.19   0
   3   9  -1   21.06    8.55   0
   4  -6  16   25.19    6.55   0
   4  -4  11    6.15    3.43   0
   4   7   2    7.76    7.36   0
  -4  -3  20  173.69   12.87   0
  -3  -6  21   61.14   11.45   0
  -3  12   4   32.18    8.90   0
  -2  -8  22   45.38   12.37   0
  -2  -5  12   86.45    7.12   0
  -2  11   0  152.32    8.70   0
  -1  -9  21  173.51   11.55   0
  -1  11  -2  322.06   10.18   0
  -1  14   0    3.48   10.93   0
   0 -10  23    9.75   12.24   0
   0  -9  18  380.14   12.57   0
   0  -6   9  341.74    6.30   0
   0  -5   7  891.15    7.11   0
   0  13  -2   52.84   11.57   0
   0  14  -1    9.19   11.67   0
   1 -10  22   -6.56   11.11   0
   1  -9  17  183.69    9.80   0
   1  -7  11  853.35    9.99   0
   1   7  -4  150.19    6.08   0
   1   8  -4  273.42    7.62   0
   1   9  -4  465.98   10.98   0
   1  13  -2   91.52   11.78   0
   1  14  -1    2.48   10.82   0
   2   5  -3  270.84    7.47   0
   2   9  -3   45.67    7.56   0
   3  -8  18   84.73    9.62   0
   3   4  -1  391.23    7.01   0
   3  11   0   18.50    9.79   0
   4   2   3   29.28    4.33   0
   4   4   2  104.43    6.48   0
  -4   1  12    4.67    4.62   0
  -4   4   9  402.77    4.58   0
  -3  -6  22    4.19   10.77   0
  -3  -5  18  447.51   12.66   0
  -3  -4  15  565.85   11.22   0
  -3  -1   9   88.05    4.42   0
  -2  -8  23    2.77   12.04   0
  -2  -7  18   32.29    8.58   0
  -2  -6  15  146.16    8.27   0
  -2  -4  10  826.57    9.02   0
  -2  -3   8  362.87    5.68   0
  -2  -1   5  434.81    4.16   0
  -1  -9  22   71.92   11.18   0
  -1  -8  17  210.55    8.83   0
  -1  -5   9  229.68    5.70   0
  -1  -4   7 1871.58    9.17   0
  -1  13  -1   11.44    9.21   0
   0 -10  24   14.56   12.20   0
   0   4  -3  713.62    5.22   0
   0   7  -4  594.31    7.49   0
   0   8  -4  501.08    8.43   0
   0   9  -4 2080.30   15.70   0
   0  12  -3  240.62   13.01   0
   1 -10  23   14.48   11.46   0
   1  -8  14   -5.59    6.76   0
   1   6  -4 1485.09   10.02   0
   1  10  -4 1260.90   16.56   0
   1  12  -3   26.82    9.12   0
   2  -9  19   52.44    8.02   0
   2  -8  15  145.55    6.48   0
   2  -7  12  271.42    6.91   0
   2  10  -3   20.60    8.04   0
   2  12  -2  224.14   13.34   0
   2  13  -1   -2.00    9.83   0
   3   2   0  146.54    3.92   0
   3  10  -1  171.05   12.60   0
  -4  -2  18   81.09    9.88   0
  -3  -6  23    7.94   11.73   0
  -3  11   3   81.48    8.29   0
  -2  -8  24   -1.19   12.51   0
  -2  -7  19   -8.59    9.37   0
  -2   9  -1   83.10    6.42   0
  -2  12   0  259.76   12.82   0
  -1  -9  23    9.77   10.49   0
  -1  -8  18  117.90    8.73   0
  -1   7  -3  917.78    7.91   0
  -1   9  -3 1025.12   11.08   0
  -1  10  -3  707.43   12.18   0
   0  -9  19  690.75   14.94   0
   0  -8  15  635.20   11.11   0
   0  10  -4   11.26    6.76   0
   1  -9  18  175.93   10.22   0
   1  -4   5 8226.34   15.07   0
   2  -9  20  140.65    9.92   0
   2  11  -3  355.64   12.61   0
   3  -8  19   70.51   10.05   0
   3   6  -2    5.38    5.78   0
   3   7  -2   -6.27    6.11   0
   3   8  -2   -3.65    6.39   0
   3  11  -1   18.62    9.39   0
   4  -6  17   -3.76    6.75   0
   4   3   2  166.85    6.21   0
   4   6   1  298.08   10.61   0
   4   7   1   -3.50    7.83   0
  -4  -1  16  540.18   11.91   0
  -4   0  14  167.92    7.03   0
  -4   2  11   41.38    4.82   0
  -3  -5  19  281.10   12.08   0
  -3  -3  13  373.85    8.07   0
  -3  -2  11  787.17    8.72   0
  -2   7  -1 1358.80    8.85   0
  -2  10  -1   75.13    6.29   0
  -1  -2   4  817.47    4.78   0
  -1   4  -2 2889.54    8.22   0
  -1  14  -1   20.93   10.75   0
   0   6  -4 3991.75   13.91   0
   0  11  -4  306.48   11.20   0
   0  13  -3    6.96   10.39   0
   0  14  -2   37.69   13.16   0
   1  -9  19  300.28   12.81   0
   1  -8  15   38.80    7.88   0
   1  -5   7  132.50    4.48   0
   1   3  -3 2267.24    8.33   0
   1   5  -4 3013.96   11.86   0
   1  11  -4   29.50    8.51   0
   1  13  -3   10.67    9.51   0
   1  14  -2    1.23   11.06   0
   2  -8  16   -4.82    6.13   0
   2  -3   4 1731.16    4.83   0
   2   4  -3 1827.93    9.44   0
   2   7  -4  806.81   10.49   0
   2   8  -4  162.78    8.19   0
   2  13  -2   -0.66    8.96   0
   3   9  -2  304.98   11.43   0
   4  -5  14  106.97    6.57   0
   4   5   1  397.48    9.74   0
   4   8   1    9.78    7.70   0
  -4  -2  19   42.65    8.90   0
  -4   3  10   23.38    3.57   0
  -4   8   7   73.00    4.56   0
  -4   9   7   11.63    5.10   0
  -3  -4  16  183.11    8.19   0
  -3   8   2  294.50    6.39   0
  -3   9   2   34.57    4.91   0
  -3  12   3  -10.19    8.42   0
  -2  -7  20   23.93    9.24   0
  -2  -6  16  235.50    8.60   0
  -2  -5  13  135.05    7.05   0
  -2  11  -1  175.26   10.47   0
  -2  13   0  138.64   12.19   0
  -1  -9  25   17.25   11.39   0
  -1  -8  19  244.69   10.76   0
  -1  -7  15  376.07    9.24   0
  -1   6  -3  379.92    5.45   0
  -1  11  -3  490.93   11.13   0
  -1  13  -2   41.63    9.25   0
   0  -9  21  243.63   13.55   0
   0  -8  16   -5.05    7.22   0
   0  -6  10   12.00    4.88   0
   0  -3   4   56.58    2.91   0
   1  -7  12  214.21    7.02   0
   1  12  -4   12.24    8.10   0
   2  -9  21   30.29    8.44   0
   2  -6  10    2.61    3.50   0
   2   0   0 7479.51    8.42   0
   2   1  -1 2886.33    7.03   0
   2   6  -4  257.93    7.05   0
   2   9  -4  464.13   10.97   0
   2  10  -4   85.55    8.37   0
   2  12  -3   34.40   10.33   0
   3  -8  20   82.96   11.05   0
   3   3  -1  989.26    7.60   0
   3   5  -2  117.62    5.11   0
   3  10  -2   69.31   10.99   0
  -4  -2  20   16.78    9.47   0
  -4  -1  17   -7.83    7.42   0
  -3  -5  20   14.24    8.23   0
  -3   0   8    8.82    3.23   0
  -3  10   2   88.83    7.17   0
  -2  -7  21   21.68    9.72   0
  -2  -4  11  100.73    6.37   0
  -2  -2   7 2201.18    9.68   0
  -2   0   4 4459.26    8.11   0
  -1  -8  20  545.28   13.72   0
  -1  12  -3   10.96    8.91   0
   0  -9  22  198.52   13.65   0
   0  -5   8  318.92    5.47   0
   0  12  -4    1.11    8.45   0
   1   7  -5  457.57    8.38   0
   1   8  -5  133.07    6.90   0
   1   9  -5 1021.92   13.30   0
   1  10  -5  148.06    8.21   0
   1  14  -3   -3.67   11.08   0
   2  -9  22   40.82    9.54   0
   2  -7  13  235.60    6.30   0
   2  11  -4   69.03    9.72   0
   3  -7  16   24.88    7.44   0
   3  -5  10   -3.07    4.04   0
   3  11  -2    2.55    9.34   0
   4   4   1   21.30    5.70   0
  -4   1  13   39.50    5.21   0
  -4   7   7   55.56    2.70   0
  -3  -5  21   81.15   10.31   0
  -3  -4  17  360.24    9.96   0
  -3  -3  14   36.89    5.57   0
  -3  11   2   79.92    8.20   0
  -2  -7  22   46.32    9.93   0
  -2  -6  17   20.17    7.90   0
  -2  -5  14   13.57    7.15   0
  -2  -3   9   58.19    4.28   0
  -1  -7  16    8.25    6.67   0
  -1  -5  10  756.23    7.76   0
  -1  -3   6 9039.26   16.64   0
  -1  14  -2   21.38   10.74   0
   0  -9  23   88.10   12.63   0
   0  -8  17   15.43    7.70   0
   0  -4   6  349.79    4.99   0
   0   2  -2   12.87    1.94   0
   0   5  -4 2614.26   10.40   0
   0   8  -5 2174.88   14.15   0
   0   9  -5   19.20    6.45   0
   0  10  -5   13.00    6.77   0
   0  14  -3   28.93   12.54   0
   1  -8  16   21.79    7.26   0
   1  11  -5  155.76    9.88   0
   1  13  -4   21.31    9.62   0
   2  -9  23   50.23   10.01   0
   2  -8  17    7.07    5.72   0
   2   2  -2  179.12    3.25   0
   2  13  -3   -0.89   10.89   0
   3   4  -2 2145.53   12.04   0
   3   7  -3  328.99    9.60   0
   3   8  -3  222.31    8.61   0
   3   9  -3  260.46   10.77   0
   4   6   0  238.54   10.20   0
   4   7   0   27.32    7.48   0
   4   8   0   66.45    8.98   0
   4   9   0   -4.74    9.04   0
   5   1   8   40.55    4.67   0
  -4  -2  21   91.69   11.59   0
  -4   0  15  239.76    7.99   0
  -3  -5  22   19.81   11.23   0
  -3  -2  12   16.87    5.46   0
  -3  -1  10   14.14    4.57   0
  -2  -7  23   14.06   11.04   0
  -2  14   0    8.96   11.77   0
  -1  -8  21  308.33   11.41   0
  -1  -4   8   70.63    4.01   0
  -1   8  -4   33.74    5.96   0
  -1   9  -4   23.71    5.61   0
  -1  10  -4  845.11   11.75   0
   0  -9  24  122.07   14.03   0
   0  -8  18  130.44    9.60   0
   0   7  -5  137.09    5.39   0
   0  11  -5   29.52    8.86   0
   0  13  -4   -4.37   10.12   0
   1  -9  22   36.13   12.78   0
   1  -7  13  768.17   10.17   0
   1   4  -4 3816.05   11.92   0
   1   6  -5    2.87    4.41   0
   2   5  -4 3771.86   14.60   0
   2   9  -5   89.51    9.07   0
   2  12  -4   -3.33    9.97   0
   3  -4   8 1568.47    7.59   0
   3   6  -3   13.99    5.87   0
   3  10  -3  273.79   13.51   0
   4   1   3    4.33    3.35   0
   4   2   2   66.38    4.43   0
  -4  -1  18    6.82    8.10   0
  -3  -5  23   32.65   10.76   0
  -3  -4  18  133.85    8.71   0
  -3  12   2   28.91    7.67   0
  -2  -7  24    0.83   11.28   0
  -2  -6  18   99.06    8.67   0
  -2   9  -2  634.58    8.59   0
  -2  10  -2   32.66    7.01   0
  -2  13  -1   25.14    9.28   0
  -1  -8  22  301.66   13.66   0
  -1  -8  23  132.17   12.30   0
  -1  -7  17   60.59    7.23   0
  -1  11  -4   64.67    7.19   0
   0  -9  25   38.53   12.00   0
   0   3  -3 4820.68    9.95   0
   0  12  -5   11.02    8.41   0
   1  -9  23    8.08   11.22   0
   1  -9  24   42.15   13.67   0
   1  12  -5   22.64    8.82   0
   1  14  -4   -1.17   10.84   0
   2  -7  14  188.43    6.30   0
   2  -6  11   17.94    4.50   0
   2   3  -3  134.70    3.73   0
   2   7  -5   -8.62    5.63   0
   2   8  -5  594.34   10.74   0
   2  10  -5   16.46    8.08   0
   3  -7  17   -5.04    6.79   0
   3  11  -3   14.73    9.59   0
   4  -5  15  164.35    8.02   0
   4  -4  12   14.72    4.03   0
  -4   0  16   90.34    8.28   0
  -4   2  12    6.10    4.97   0
  -3  -5  24    1.81   11.20   0
  -3  -3  15    3.95    5.59   0
  -3   1   7  322.82    3.87   0
  -2  -7  25   -5.99   11.85   0
  -2  -6  19   11.39    8.52   0
  -2  -5  15    2.21    6.40   0
  -2  -4  12  632.48    8.30   0
  -2   8  -2   -0.29    4.04   0
  -2  11  -2   99.44    7.80   0
  -1  -8  24  159.79   12.84   0
  -1  -7  18   27.78    8.32   0
  -1  -5  11  253.47    6.20   0
  -1   7  -4  431.08    6.09   0
  -1  12  -4    3.64    7.75   0
  -1  14  -3   -0.19   10.28   0
   0  -8  19   72.85    9.07   0
   0  14  -4  230.87   16.55   0
   1  -8  18  462.10   12.51   0
   1   9  -6  903.67   12.91   0
   1  10  -6  281.45    9.35   0
   1  13  -5   15.37   10.13   0
   2  -8  19   11.02    7.31   0
   2  11  -5   61.49    9.43   0
   2  13  -4    3.87    9.49   0
   3   5  -3   84.44    5.91   0
   4   0   4  243.62    3.60   0
   4   3   1   11.33    4.12   0
   4   7  -1   11.55    7.52   0
   4   8  -1    4.46    8.34   0
   4   9  -1    5.70    9.04   0
  -4  -1  19   23.58    7.66   0
  -4   1  14   28.20    6.04   0
  -3  -4  19   46.72    7.99   0
  -3   9   1   -6.49    4.51   0
  -3  10   1   92.54    6.96   0
  -2  -6  20   11.22    9.32   0
  -2  14  -1    0.33   10.22   0
  -1  -8  25  149.77   12.82   0
  -1  -8  26   55.52   12.27   0
  -1  -1   3    8.82    1.81   0
  -1  13  -4   15.85    8.89   0
   0  -8  20   59.23    8.84   0
   0  -7  15  795.42   10.84   0
   0  -5   9 2315.25   11.12   0
   0   6  -5   14.13    3.98   0
   0  13  -5  224.45   14.01   0
   1  -7  14  390.78    8.79   0
   1   5  -5  197.86    4.92   0
   1   8  -6  640.42    9.79   0
   1  11  -6   24.59    7.83   0
   2  -8  20   15.40    8.04   0
   2  -7  15   71.15    6.26   0
   2   4  -4   -9.22    5.46   0
   2   6  -5  629.79    8.03   0
   2  12  -5   -9.62    9.47   0
   3  -7  18    8.40    7.14   0
   3  -6  14  633.58   10.31   0
   3   1   0 1329.56    6.01   0
   3   2  -1  240.46    4.15   0
   3   8  -4   18.14    6.61   0
   3   9  -4  487.37   12.96   0
   3  10  -4  279.85   12.35   0
   4   6  -1  447.88   11.15   0
  -4  -1  20   33.69    9.27   0
  -3  -4  20   85.70    9.19   0
  -3  -3  16   83.41    6.55   0
  -3  -2  13  213.36    6.18   0
  -3  11   1  237.89   10.37   0
  -2  -5  16  389.35    9.14   0
  -2  -3  10  473.67    6.28   0
  -2  -1   6 1391.56    6.17   0
  -2   7  -2   10.37    3.80   0
  -1  -7  19  102.37    8.69   0
   0  -8  21   14.06    9.21   0
   0   4  -4   46.83    3.17   0
   0   9  -6   60.59    6.84   0
   0  10  -6   13.55    6.99   0
   0  11  -6  476.14   12.74   0
   0  14  -5  155.37   15.59   0
   1  -8  19  260.30   11.33   0
   1  -6  11 1748.23   11.82   0
   1  -4   6 1827.60    7.70   0
   1  -3   4 2450.91    6.73   0
   1   7  -6  126.92    5.98   0
   1  12  -6   91.08   10.30   0
   1  14  -5   -1.10   11.60   0
   2   9  -6  191.82    9.63   0
   2  13  -5   49.86   10.53   0
   3  -7  19    7.18    8.89   0
   3   3  -2  109.48    4.48   0
   3   7  -4   13.43    6.03   0
   3  11  -4    2.58    9.54   0
   4  -5  16   84.58    7.68   0
  -4  -1  21    1.66    9.04   0
  -4   0  17  252.93    9.62   0
  -4   9   6    2.97    4.11   0
  -4  10   6   14.72    5.92   0
  -3  -4  21   49.82    8.80   0
  -3  -1  11   51.06    4.76   0
  -3  12   1   -0.89    7.19   0
  -2  -6  21  212.06   11.06   0
  -2  -6  22  132.75   11.49   0
  -2  -4  13    2.26    5.53   0
  -2  -2   8 2548.02    9.83   0
  -2   5  -1  391.15    3.74   0
  -2  13  -2   23.52    9.17   0
  -1  -7  20  232.89   10.15   0
  -1  -4   9 1309.69    8.69   0
  -1   6  -4    7.47    4.51   0
  -1   9  -5  607.28    9.00   0
  -1  10  -5  269.18    8.89   0
  -1  14  -4    6.11   11.60   0
   0  -8  22   -0.11    8.59   0
   0  -7  16  389.24    9.22   0
   0  -4   7 2719.18    9.80   0
   0  -2   3  770.49    3.76   0
   0   8  -6  989.42   10.56   0
   0  12  -6   19.86    8.83   0
   1  -8  20  481.18   14.39   0
   1  -7  15  665.87   10.80   0
   1  13  -6   14.78   10.08   0
   2  -8  21    5.93    7.43   0
   2  -8  22    7.15    9.34   0
   2  -6  12  189.91    5.77   0
   2  -5   9  591.98    6.09   0
   2   8  -6  249.12    9.17   0
   2  10  -6   30.59    7.71   0
   2  11  -6   98.08    9.74   0
   3   6  -4  770.20    9.77   0
   4   5  -1  781.38   12.47   0
   4   8  -2   40.20    9.11   0
   4   9  -2   -1.12    9.74   0
  -4   3  11   11.72    4.17   0
  -3  -4  22  159.78   11.51   0
  -3  -3  17   27.97    6.34   0
  -3   2   6  998.35    4.75   0
  -2  -6  23   93.35   11.03   0
  -2  -5  17    9.24    6.96   0
  -2  11  -3    8.00    7.94   0
  -2  14  -2   14.91   11.64   0
  -1  -7  21  377.22   12.45   0
  -1  -5  12 1407.87   11.02   0
  -1  -3   7  514.27    5.18   0
  -1  -2   5  252.43    3.50   0
  -1   8  -5  220.48    6.60   0
  -1  12  -5   37.48    8.29   0
   0  -8  23   49.35   10.79   0
   0  -3   5 5302.26   11.16   0
   0   7  -6  993.21    9.73   0
   0  13  -6  185.85   12.76   0
   1  -8  21  294.05   13.08   0
   1   2  -3    3.90    2.45   0
   1   6  -6  265.04    6.00   0
   1  10  -7  224.26    9.01   0
   2  -8  23    4.28   10.46   0
   2  -7  16  149.42    6.01   0
   2   5  -5  895.98    8.14   0
   2   7  -6  725.93    9.83   0
   2  12  -6   57.20   10.65   0
   3  -7  20   -2.08    8.32   0
   3  -6  15  261.25    8.72   0
   3   0   1   21.67    1.87   0
   3   4  -3  232.88    5.21   0
   3   9  -5  285.26   11.43   0
   3  10  -5   57.57    9.96   0
   4   7  -2   -8.12    7.31   0
  -4   0  18   77.87    8.14   0
  -4   1  15    0.42    5.66   0
  -4   2  13  192.54    6.99   0
  -3  -4  23   54.86   10.67   0
  -3  -4  24   19.24   10.82   0
  -3  -2  14   11.95    5.09   0
  -2  -6  24   40.60   10.95   0
  -2  -6  25   81.31   11.98   0
  -2   9  -3  478.10    7.86   0
  -2  12  -3  149.68   10.46   0
  -1  -7  22  195.11   10.96   0
  -1  -6  16 1936.88   15.88   0
  -1  13  -5  118.71   10.18   0
   0  -8  24   51.30   10.16   0
   0  -8  25   28.10   11.46   0
   0  -8  26    5.46    9.61   0
   0  -5  10   73.21    4.39   0
   0   5  -5 1535.07    8.26   0
   0  14  -6  174.02   15.58   0
   1  -8  22  183.77   12.88   0
   1  -7  16  200.60    8.50   0
   1  -6  12 1741.29   12.23   0
   1   3  -4 2116.49    8.09   0
   1   8  -7   53.29    7.10   0
   1   9  -7 1192.67   13.68   0
   1  11  -7   11.62    7.58   0
   1  12  -7   99.88   10.36   0
   1  14  -6    6.05   11.58   0
   2  -7  17    7.25    5.83   0
   2  13  -6   47.54   11.68   0
   3  -7  21   18.07    9.11   0
   3   8  -5  187.99    8.32   0
   3  11  -5   34.57   10.33   0
   4  -5  17   98.58    8.18   0
   4  -4  13   16.98    4.49   0
   5   1   7   13.31    3.78   0
  -4   0  19  103.35    9.40   0
  -3  -3  18    1.32    6.80   0
  -2  -6  26   40.23   12.23   0
  -2  -5  18  224.92    9.10   0
  -2  -4  14  159.96    7.31   0
  -2  -3  11    8.20    4.44   0
  -2   8  -3  386.79    6.73   0
  -2  13  -3    8.79    9.82   0
  -1  -7  23  103.10   10.86   0
  -1  -7  24  112.62   10.86   0
  -1  -6  17  263.44    8.35   0
  -1  -5  13  329.61    7.88   0
  -1   3  -2 1191.60    4.43   0
  -1  14  -5   10.01   10.94   0
   0  -7  18  141.18    8.05   0
   0  10  -7   36.44    7.25   0
   0  11  -7  179.28   10.02   0
   0  12  -7   24.52    9.93   0
   1  -8  23  169.17   13.17   0
   1  -8  24  125.60   13.66   0
   1   1  -2  978.39    3.84   0
   1   4  -5 9999.99   18.80   0
   1  13  -7  103.76   12.08   0
   2  -6  13   56.00    5.50   0
   2   6  -6  535.82    8.25   0
   2   9  -7   27.29    8.60   0
   2  10  -7  163.99    9.84   0
   2  11  -7   12.66    9.16   0
   3   5  -4    5.26    4.26   0
   3   7  -5  257.89    8.02   0
   4   2   1  192.30    5.14   0
   4   3   0  158.71    5.56   0
   4   6  -2   25.07    6.30   0
  -4   1  16    2.10    6.18   0
  -4   4  10  180.95    4.91   0
  -4   8   6   11.72    2.93   0
  -3  -3  19   36.29    7.46   0
  -3  -2  15  144.11    6.94   0
  -3  -1  12  434.91    6.40   0
  -3   7   1  162.70    4.14   0
  -3  10   0  345.81    8.47   0
  -3  11   0  148.50    8.93   0
  -2  -5  19   33.44    8.11   0
  -1  -7  25  269.51   14.88   0
  -1  -7  26  127.67   13.10   0
  -1  -4  10  657.65    6.89   0
  -1   4  -3 8277.39   13.33   0
  -1   7  -5    0.05    4.06   0
  -1  10  -6 1074.98   14.28   0
  -1  11  -6   63.62    8.18   0
   0  -7  19   45.70    8.77   0
   0   9  -7 1161.19   12.63   0
   0  13  -7  150.42   11.64   0
   1  -8  25  233.95   16.15   0
   1  -7  17   70.69    7.57   0
   1   7  -7   58.83    5.98   0
   2  -7  18   54.42    6.40   0
   2   8  -7 1407.68   14.20   0
   2  12  -7   -7.68   10.00   0
   3  -4   9  636.85    5.66   0
   4   4  -1   64.02    5.96   0
   4   8  -3   12.18    8.68   0
   4   9  -3   -4.01    8.58   0
  -3  -3  20   19.00    8.00   0
  -3   0  10  511.73    5.97   0
  -3   1   8  336.99    4.43   0
  -3   9   0    3.04    4.41   0
  -3  12   0   55.15    8.09   0
  -2  -5  20    1.00    8.32   0
  -2  -4  15  695.96   10.57   0
  -2  -2   9  670.16    6.23   0
  -2  14  -3   51.95   10.88   0
  -1  -6  18  323.02    9.18   0
  -1   9  -6  288.35    8.50   0
  -1  12  -6  165.90    9.55   0
  -1  13  -6  113.41   10.60   0
   0   6  -6  930.52    7.60   0
   0   8  -7 2181.80   14.56   0
   1  -6  13 1654.97   13.06   0
   1   5  -6 1626.46    9.28   0
   1  10  -8  382.73   10.12   0
   1  11  -8    8.12    7.74   0
   1  14  -7   28.86   10.89   0
   2  -7  19   52.29    7.86   0
   2  -5  10  375.94    5.13   0
   2   2  -3  419.77    4.11   0
   2   3  -4  298.09    4.65   0
   2   4  -5 1009.80    7.98   0
   2  13  -7  180.32   15.15   0
   3  -6  17  103.65    8.50   0
   3   6  -5   82.38    5.68   0
   3   9  -6  199.88    9.81   0
   3  10  -6  139.73   10.78   0
   3  11  -6   11.95    9.81   0
   4   5  -2  395.16    9.47   0
   4   7  -3   81.06    8.48   0
   5   4   3   33.57    6.90   0
  -4   1  17    3.62    6.64   0
  -4   2  14   68.06    6.73   0
  -4   3  12    6.68    4.96   0
  -3  -3  21    9.71    8.26   0
  -3  -2  16  465.81    9.52   0
  -2  -5  21    3.81    8.46   0
  -2  -3  12  352.00    6.40   0
  -2  -1   7 4009.61   10.79   0
  -2   0   5  151.65    2.77   0
  -2  10  -4  164.84    7.79   0
  -2  12  -4   19.49    8.89   0
  -1  -6  19   14.78    7.58   0
  -1   2  -1 1368.97    3.34   0
  -1   5  -4 3390.77   10.19   0
   0  -7  20  152.77    8.92   0
   0  -7  21   83.34    9.59   0
   0  -5  11  104.11    5.12   0
   0  -4   8 1195.28    7.30   0
   0  14  -7  250.90   15.31   0
   1  -7  18   42.12    7.60   0
   1  -4   7 1545.73    7.81   0
   1   9  -8  134.44    8.09   0
   1  12  -8  249.07   12.86   0
   1  13  -8   36.10    9.97   0
   2  -7  20   96.26    9.20   0
   2  -6  14   13.61    5.20   0
   2   7  -7  319.81    8.43   0
   3   8  -6   81.64    7.53   0
   4  -4  14   49.03    5.74   0
   4   1   2  115.46    3.87   0
  -4   5   9  167.58    4.10   0
  -3  -3  22    4.46    8.65   0
  -3  -3  23   -3.92    9.69   0
  -2  -5  22   43.82    9.20   0
  -2  -5  23   35.16    8.87   0
  -2  -4  16  572.27   10.40   0
  -2   7  -3  449.53    5.92   0
  -2  13  -4   -4.81    9.69   0
  -1  -6  20   23.82    7.56   0
  -1  -4  11    8.93    4.25   0
  -1  -3   8 3204.54   10.89   0
  -1   8  -6  390.76    7.53   0
  -1  14  -6   15.06   10.75   0
   0  -7  22  208.30   10.92   0
   0   7  -7 1016.69    9.01   0
   0  10  -8   14.19    7.14   0
   0  11  -8  262.62   11.02   0
   0  12  -8   21.28    8.73   0
   1  -7  19   70.48    8.13   0
   1   6  -7  153.36    5.52   0
   1   8  -8  955.11   11.72   0
   1  14  -8   -0.48   11.82   0
   2  -7  21   41.16    8.51   0
   2   1  -2   92.75    2.70   0
   2   5  -6  734.70    7.51   0
   2   9  -8   59.34    8.74   0
   2  10  -8   23.65    8.32   0
   2  11  -8  105.73    9.98   0
   2  12  -8   63.27   10.65   0
   3   2  -2    0.57    3.13   0
   3   3  -3 1574.28    8.43   0
   3   4  -4 1465.08   10.28   0
   3   7  -6    3.60    6.87   0
   4   6  -3   68.15    7.35   0
   4   9  -4   19.39    9.04   0
  -4   1  18    4.30    7.68   0
  -4  10   5   47.50    5.59   0
  -3  -3  24   16.41   10.15   0
  -3  -2  17    7.55    5.54   0
  -3   3   5  137.00    2.17   0
  -2  -5  24    2.26    9.98   0
  -2  -5  26   72.96   12.74   0
  -2  -4  17 1558.38   15.95   0
  -2   9  -4  536.77    8.04   0
  -2  14  -4   52.27   11.61   0
  -1  -6  21   24.48    7.80   0
  -1   6  -5   19.55    3.96   0
   0  -7  23   48.75    9.93   0
   0  -7  24    2.24    9.52   0
   0  -7  25   61.51   11.03   0
   0  -7  26   38.62   11.63   0
   0  -7  27   34.07   12.17   0
   0   9  -8  605.53   10.54   0
   0  13  -8  241.87   14.10   0
   1  -7  20    4.27    9.08   0
   1  -6  14 1707.50   13.42   0
   2  -7  22    5.46    8.61   0
   2  -7  23   30.35   11.08   0
   2  -6  15   59.60    5.93   0
   2  13  -8  128.05   13.60   0
   3  -6  19  179.90   11.20   0
   3   5  -5    8.81    5.24   0
   3  10  -7   11.98    8.79   0
   3  11  -7   13.07    9.67   0
   4  -2   8  298.77    3.49   0
   4   8  -4   60.87    8.72   0
  -4   1  19   -1.95    7.81   0
  -4   2  15  188.71    8.43   0
  -3  -2  18  438.49    9.89   0
  -3  11  -1  265.65    9.93   0
  -3  12  -1   12.13    7.31   0
  -2  -3  13  177.24    5.76   0
  -2  -2  10 2167.48   10.60   0
  -1  -6  22    9.39    8.11   0
  -1  -6  23   16.39    8.89   0
  -1  -2   6  344.45    4.28   0
  -1  10  -7 1404.86   14.33   0
  -1  11  -7    0.97    6.49   0
  -1  12  -7   25.44    8.25   0
  -1  13  -7  222.21   11.58   0
   0  -5  12  509.94    7.11   0
   0  -3   6 3578.45    9.61   0
   0   3  -4   66.01    2.70   0
   0   4  -5  324.27    4.24   0
   0  14  -8  134.10   14.02   0
   1  -7  21  183.38   11.03   0
   1  -7  22   86.99   10.48   0
   1  10  -9  134.24    8.62   0
   1  11  -9  131.76    9.53   0
   1  12  -9  172.73   11.90   0
   2  -5  11    2.46    3.34   0
   2  -2   3   94.32    1.48   0
   2   6  -7  370.92    7.12   0
   2   8  -8  597.52   11.94   0
   3  -6  20   15.19    9.89   0
   3   9  -7  301.86   10.50   0
   4  -4  15   95.11    6.86   0
   4  -3  11  208.80    5.30   0
   4   4  -2  138.98    6.86   0
   4   7  -4   50.48    8.24   0
  -4   1  20    2.00    8.60   0
  -3  -1  14  140.11    5.76   0
  -3  10  -1  148.06    6.97   0
  -2  -4  18  605.30   11.57   0
  -2  11  -5   53.03    8.11   0
  -2  12  -5  112.97    9.99   0
  -1  -6  24  172.29   11.03   0
  -1  -6  25   22.93   10.15   0
  -1  -6  26   31.37   11.02   0
  -1  -6  27   13.77   11.28   0
  -1  -5  16 1110.98   11.92   0
  -1  -4  12  580.56    7.86   0
  -1   0   2  114.72    1.48   0
  -1  14  -7    5.13   10.19   0
   0  -6  17   16.54    6.42   0
   0   5  -6   28.33    3.70   0
   0   8  -8 4301.07   20.41   0
   1  -7  23   87.06   12.34   0
   1  -7  24   67.99   11.83   0
   1  -7  25   91.96   12.19   0
   1  -7  26   50.42   12.54   0
   1  -6  15  789.36   11.24   0
   1  -3   5   61.68    2.32   0
   1   7  -8  733.14    9.50   0
   1   9  -9  709.52   11.65   0
   1  13  -9   85.10   10.81   0
   1  14  -9    6.23   11.80   0
   2  -6  16  167.54    6.71   0
   2  11  -9    5.07    8.99   0
   2  12  -9   -5.32   10.17   0
   3  -6  21   14.46   11.16   0
   3  -6  22   14.04   10.87   0
   3  -5  14   61.10    6.06   0
   3  -4  10  466.01    5.59   0
   3   1  -1 1210.37    5.47   0
   3   6  -6  205.23    6.59   0
   3   8  -7  110.64    7.64   0
   4   3  -1    4.75    3.86   0
   4   9  -5   -7.81    9.30   0
   5   4   2   15.88    6.48   0
  -4   2  16   40.16    6.48   0
  -4   3  13    0.75    4.98   0
  -4   4  11  340.84    7.23   0
  -4   9   5    1.36    3.30   0
  -3  -2  19  222.29    8.75   0
  -2  -4  19  483.80   11.29   0
  -2  -3  14   83.27    5.83   0
  -2  10  -5    0.94    6.14   0
  -2  13  -5   35.21    9.43   0
  -1  -5  17  712.90   10.86   0
  -1  -3   9  973.66    7.47   0
  -1  -1   4 4848.81    8.78   0
  -1   7  -6  845.92    7.61   0
  -1   9  -7 1186.66   11.83   0
   0  -6  18   46.93    6.65   0
   0  -4   9   57.49    3.56   0
   0   6  -7  370.25    5.73   0
   0  11  -9    0.68    8.07   0
   0  12  -9    3.91    8.38   0
   0  13  -9  120.84   12.06   0
   1  -6  16 1511.55   15.42   0
   1   4  -6 1404.30    7.96   0
   2   7  -8 2529.82   16.32   0
   2  10  -9  214.69   10.40   0
   2  13  -9   81.64   13.93   0
   3  11  -8   87.13   11.81   0
   4  -4  16  101.06    8.04   0
   4   2   0   20.07    3.87   0
   4   6  -4   -1.05    6.59   0
   4   8  -5  155.45   10.59   0
  -4   6   8   15.56    2.44   0
  -3  -2  20  308.44   10.41   0
  -3  -2  21   39.42    8.66   0
  -3  -1  15   24.27    5.78   0
  -3   9  -1   38.82    4.59   0
  -2  -4  20  187.29   10.15   0
  -2  -1   8   -2.37    3.48   0
  -2   2   2   21.61    0.92   0
  -2  14  -5  133.01   12.87   0
  -1  12  -8  241.45   11.87   0
   0  -6  19  267.08    9.56   0
   0   2  -3  721.78    3.70   0
   0  10  -9  229.54    9.28   0
   0  14  -9  211.96   15.78   0
   1  -4   8 1389.23    7.83   0
   1   3  -5 3042.40    9.75   0
   1   5  -7   86.55    4.33   0
   1   8  -9    1.74    6.14   0
   1  12 -10  281.29   13.89   0
   2  -6  17   15.46    5.27   0
   2  -5  12  764.07    7.88   0
   2   4  -6   49.21    5.24   0
   2   9  -9   34.44    7.45   0
   3   7  -7   31.84    6.11   0
   3   9  -8   65.12    8.81   0
   3  10  -8   43.48    9.93   0
  -4   2  17   26.52    7.75   0
  -3  -2  22   51.01    9.11   0
  -3  -2  23  285.48   13.68   0
  -3  -2  24  126.49   11.79   0
  -3   0  12 2468.68   11.99   0
  -2  -4  21  183.48   10.46   0
  -2  -4  22  248.01   11.51   0
  -2  -4  23   79.69   10.53   0
  -2  -3  15  193.45    6.70   0
  -2  -2  11 2629.08   11.62   0
  -2   5  -2  961.54    5.15   0
  -2   6  -3  827.74    6.31   0
  -2   9  -5  817.36    9.93   0
  -1  -5  18   98.54    7.21   0
  -1  -4  13  347.15    6.64   0
  -1   8  -7    6.35    4.89   0
  -1  11  -8   24.08    6.57   0
  -1  13  -8   73.37    9.54   0
  -1  14  -8    2.84   10.17   0
   0  -6  20    7.57    7.22   0
   0  -2   4 6437.78    9.99   0
   0   7  -8 2538.04   13.51   0
   0   9  -9 1914.01   15.59   0
   1  -6  17  145.98    8.11   0
   1   6  -8  367.47    6.67   0
   1  10 -10   53.03    7.80   0
   1  11 -10   25.42    8.78   0
   1  13 -10   18.00   10.38   0
   1  14 -10    3.74   12.05   0
   2  -6  18   -3.16    5.27   0
   2   3  -5 1353.67    7.33   0
   2   5  -7  614.96    7.05   0
   2   8  -9  802.64   12.23   0
   3   4  -5 1419.29   10.01   0
  -4   2  18   33.33    7.44   0
  -4   3  14   48.83    6.41   0
  -3  -1  16   -1.34    5.27   0
  -3  11  -2  171.41    8.46   0
  -3  12  -2   23.73    7.50   0
  -3  13  -2    2.75    8.23   0
  -2  -4  24  104.14   10.88   0
  -2  -4  25   -0.03    9.69   0
  -2  -4  26   -9.13   11.31   0
  -2  -4  27   18.45   11.80   0
  -1  -5  19  516.40   10.39   0
  -1  -5  20  145.43    9.15   0
  -1  10  -8  237.26    8.28   0
   0  -6  21  179.28    9.39   0
   0  -6  22   28.12    7.71   0
   0  -6  23   31.42    9.26   0
   0  -6  27  109.61   12.81   0
   0  -4  10  745.47    6.49   0
   0  12 -10   -0.60    9.23   0
   1  -6  18  217.52    8.73   0
   1   2  -4  818.53    4.83   0
   2  -6  19   14.30    6.22   0
   2   6  -8   10.17    5.32   0
   2  10 -10   78.23    8.40   0
   2  11 -10   90.12   10.40   0
   2  12 -10    9.99   10.82   0
   2  13 -10  122.07   13.60   0
   3  -5  16    1.63    7.01   0
   3   5  -6  326.06    6.49   0
   3   8  -8  320.42    9.59   0
   4  -3  12   22.55    4.93   0
   4   9  -6   -0.95    8.85   0
  -4   2  19   51.53    8.71   0
  -3  -1  17   16.96    7.19   0
  -2  -3  16  356.10    8.50   0
  -2   0   6   89.43    2.80   0
  -2   7  -4   17.13    3.80   0
  -2  11  -6  207.19    9.49   0
  -2  12  -6   41.98    7.93   0
  -2  13  -6   30.05    9.14   0
  -2  14  -6   55.18   12.17   0
  -1  -5  21  374.57   11.12   0
  -1  -5  22  192.84   10.57   0
  -1  -4  14   13.61    4.91   0
  -1  -3  10 2296.96   10.30   0
  -1   5  -5  977.66    6.17   0
   0  -6  24  161.19   10.99   0
   0  -6  25  167.25   11.68   0
   0  -6  26  212.21   13.38   0
   0   8  -9 1809.74   13.34   0
   0  11 -10   22.36    8.51   0
   0  13 -10  112.06   11.89   0
   0  14 -10   82.91   13.64   0
   1  -6  19  102.45    8.32   0
   1   7  -9  204.05    6.86   0
   1   9 -10  399.67    9.56   0
   2  -6  20   -4.36    6.97   0
   2  -6  21   26.29    9.68   0
   2  -5  13   93.27    4.81   0
   2   2  -4 1327.66    6.32   0
   3   6  -7    3.43    5.09   0
   3  10  -9    4.72    9.09   0
   3  11  -9   52.42   10.79   0
   4   4  -3  299.08    7.30   0
   4   5  -4  619.18   10.62   0
   4   8  -6  112.48    9.06   0
   5   2   4   71.42    4.72   0
   5   4   1   25.55    5.98   0
   5   5   0    9.87    6.64   0
  -4   4  12   76.23    5.72   0
  -4  10   4    6.60    4.15   0
  -3  -1  18    6.68    7.37   0
  -3   0  13  894.73    8.88   0
  -3  10  -2  336.96    8.06   0
  -2  -3  17  277.25    8.25   0
  -2  -2  12 1598.41    9.94   0
  -2  10  -6   10.17    6.13   0
  -1  -5  23   18.36    7.66   0
  -1  -5  24   33.05    8.91   0
  -1  -5  25    7.04    9.01   0
  -1  -5  26  -11.26    9.65   0
  -1  -5  27    6.73   10.80   0
  -1  -2   7  114.70    3.24   0
  -1   4  -4 1008.57    5.18   0
  -1   6  -6   15.87    3.96   0
  -1   9  -8  579.38    9.04   0
  -1  12  -9  112.90   10.40   0
  -1  13  -9  128.26   10.63   0
   0  -3   7 1322.14    6.54   0
   0  -1   2   16.70    1.15   0
   0  10 -10   60.59    7.95   0
   1  -6  20   17.50    8.09   0
   1  -6  21  185.95   10.94   0
   1  -6  27   11.61   11.45   0
   1  -4   9  719.74    7.52   0
   1  11 -11  238.05   10.21   0
   1  12 -11  105.96   11.06   0
   1  13 -11   15.29   10.32   0
   1  14 -11    8.18   12.20   0
   2  -6  22   82.33   10.36   0
   2  -6  23   13.72   10.12   0
   2  -6  24   80.34   11.80   0
   2   0  -1 2491.92    5.00   0
   2   7  -9 1278.35   12.30   0
   2   9 -10   11.89    7.46   0
   3  -5  18  157.44    9.15   0
   3   2  -3  225.00    4.05   0
   3   7  -8   41.31    6.43   0
   3   9  -9  318.23   10.67   0
   4   3  -2  143.81    5.25   0
   4   6  -5   58.25    6.38   0
  -4   5  10  373.30    6.29   0
  -3  -1  19  163.78    8.67   0
  -3   1  10   91.39    4.15   0
  -3   8  -1  362.93    5.77   0
  -2  -3  18 1089.28   12.88   0
  -2  -1   9 5366.65   13.74   0
  -2   1   4  243.20    2.56   0
  -2   8  -5  567.05    7.09   0
  -1  -4  15  297.73    7.08   0
  -1   7  -7  111.86    4.71   0
  -1  11  -9   10.95    6.69   0
  -1  14  -9  -16.60   10.65   0
   0   5  -7  805.28    6.62   0
   1  -6  22   28.39    9.18   0
   1  -6  23   -3.15    8.75   0
   1  -6  24   66.03   10.79   0
   1  -6  25   29.31   10.42   0
   1  -6  26   -1.75    9.96   0
   1   8 -10   83.93    6.84   0
   1  10 -11   32.87    7.62   0
   2  -5  14  544.52    8.23   0
   2   8 -10 1720.07   17.00   0
   2  11 -11    9.61    9.40   0
   2  12 -11   82.71   11.54   0
   2  13 -11   55.24   12.38   0
   4   1   1   47.44    3.00   0
   4   7  -6  198.92    9.76   0
   4   9  -7   -0.65    8.48   0
  -4   3  16   62.30    7.52   0
  -3  -1  20   18.21    7.25   0
  -3  -1  21  132.84   10.55   0
  -3   0  14 1610.53   11.97   0
  -3  13  -3   31.60    8.39   0
  -2  -3  19  435.89    9.99   0
  -2  -2  13 4190.73   16.34   0
  -2  13  -7    0.89    9.47   0
  -1  -4  16  337.99    8.16   0
  -1  10  -9   94.10    7.68   0
   0  -4  11   67.14    3.99   0
   0   4  -6  332.61    4.60   0
   0   6  -8    5.03    4.34   0
   0   9 -10   85.67    6.95   0
   0  12 -11  128.59   10.36   0
   0  13 -11  196.12   13.10   0
   0  14 -11  116.00   14.77   0
   1  -5  14 1017.26   10.43   0
   1  -3   6 2935.05    8.43   0
   1   5  -8   33.92    4.21   0
   2  10 -11   26.14    8.20   0
   3  -5  20   60.58   10.63   0
   3  -5  21   14.14    9.23   0
   3  -5  22   -1.57   10.62   0
   3  -3   8   44.30    2.62   0
   3   8  -9  105.55    7.87   0
   3  10 -10    6.21    9.83   0
   3  11 -10   31.71   10.42   0
   4  -3  13   97.91    6.08   0
   4   8  -7  202.69   11.41   0
  -4   3  17   17.06    7.39   0
  -3  -1  22  202.90   10.76   0
  -3   9  -2   10.56    4.30   0
  -3  11  -3  166.00    8.38   0
  -2  -3  20  723.09   12.50   0
  -2  -3  21  301.49   10.73   0
  -2  -3  22  745.68   14.82   0
  -2  -3  25  124.93   11.25   0
  -2  -3  26   -7.11    9.89   0
  -2   9  -6  180.85    6.88   0
  -2  12  -7   13.13    7.48   0
  -1  -3  11 1663.69    9.34   0
  -1   8  -8   19.40    4.85   0
   0   7  -9 3790.02   16.39   0
   0  11 -11  114.40    9.46   0
   1   4  -7 1730.30    8.73   0
   1   6  -9 3562.41   15.53   0
   1   9 -11    9.07    6.76   0
   1  12 -12  250.94   12.62   0
   1  13 -12   53.23   11.91   0
   1  14 -12   55.22   12.80   0
   2  -5  15  664.07    9.35   0
   2  -4  10   90.98    3.96   0
   2   4  -7  126.89    4.66   0
   2   5  -8  111.52    4.96   0
   2   6  -9 1036.97   10.11   0
   2   9 -11  131.21    9.74   0
   3   4  -6  929.75    8.76   0
   3   5  -7   76.65    5.11   0
   3   6  -8  394.29    8.23   0
   5   5  -1    9.33    6.82   0
  -4   3  18   73.85    9.05   0
  -4   4  13   26.64    5.42   0
  -4   7   7   61.62    2.58   0
  -3   0  15  309.83    7.56   0
  -3   1  11  173.73    5.24   0
  -3   2   8 1460.42    7.60   0
  -2  -3  23  720.09   14.70   0
  -2  -3  24  175.62   11.09   0
  -2  -2  14   38.94    5.63   0
  -2  11  -7   37.95    7.09   0
  -1  -4  17  290.95    7.34   0
  -1   3  -3  308.48    2.57   0
  -1  12 -10  353.12   12.51   0
  -1  13 -10   81.24    9.84   0
  -1  14 -10  -13.92   10.49   0
   0  -5  19  635.83   10.88   0
   0  -5  27  128.20   10.86   0
   0  -5  28   32.04   11.29   0
   0  -4  12   87.34    4.51   0
   0   3  -5 4994.51   10.65   0
   0   8 -10 2940.59   16.67   0
   0  10 -11   28.32    8.12   0
   1  -5  15 1788.52   14.10   0
   1  -4  10 2511.35   12.01   0
   1   3  -6 7949.69   15.37   0
   1   7 -10 1636.19   12.98   0
   1  11 -12  298.15   11.58   0
   2  -5  16  406.06    8.89   0
   2   1  -3  795.04    4.37   0
   2   3  -6  632.78    6.40   0
   2   7 -10 1561.41   13.42   0
   2  12 -12   81.18   11.30   0
   2  13 -12  104.30   13.22   0
   3   0   0 1805.13    4.58   0
   3   7  -9    2.77    6.55   0
   3   9 -10  209.78    9.88   0
   4  -3  14   -5.12    5.38   0
   4   4  -4  114.67    6.42   0
   4   5  -5  220.26    7.93   0
   4   6  -6   14.97    6.27   0
   4   9  -8    2.72    8.64   0
   5   4   0   38.19    6.63   0
  -4   3  19   81.88    9.86   0
  -2  -1  10 2015.59    9.28   0
  -2  10  -7   10.76    6.30   0
  -1  -4  18  372.92    8.56   0
  -1  -4  19   38.80    6.26   0
  -1  -4  27  117.08   11.75   0
  -1  -4  28   45.42   12.22   0
  -1  -3  12  251.48    5.28   0
  -1  -2   8  412.67    4.48   0
  -1  -1   5  689.73    4.21   0
  -1   9  -9  146.28    6.61   0
  -1  11 -10   -0.29    7.01   0
   0  -5  20   46.47    6.91   0
   0  -5  21   10.99    6.88   0
   0  -5  22   32.30    7.56   0
   0  -5  23   20.85    7.61   0
   0  -5  25  125.97   10.35   0
   0  -5  26   85.16    9.93   0
   0  -3   8 2584.42    8.89   0
   0  13 -12  375.08   15.21   0
   0  14 -12   87.28   14.31   0
   1   1  -3   10.00    1.90   0
   1   8 -11   -2.72    6.14   0
   1  10 -12  105.99    8.50   0
   2  -5  17  324.67    9.15   0
   2  11 -12    0.44    8.54   0
   3  11 -11   50.91   11.06   0
  -4   5  11  115.66    5.72   0
  -3   0  16  319.98    8.00   0
  -3  10  -3  186.35    6.76   0
  -3  13  -4    6.91    8.00   0
  -2  -2  15   16.44    4.97   0
  -2   0   7 1814.97    6.92   0
  -2   6  -4 1333.07    7.04   0
  -2   7  -5   19.74    4.09   0
  -2  13  -8   74.13   10.33   0
  -2  14  -8   36.36   11.17   0
  -1  -4  20   90.34    7.39   0
  -1  -4  21   78.08    7.81   0
  -1  -4  22  122.96    8.72   0
  -1  -4  23    9.97    7.50   0
  -1  -4  24   -5.71    8.16   0
  -1  -4  25    9.03    8.99   0
  -1  -4  26   16.15    9.53   0
   0  -4  13  432.99    6.37   0
   0  -2   5 1582.22    5.56   0
   0   9 -11  312.39    8.64   0
   0  12 -12   43.19    9.22   0
   1  -5  17  689.63   10.70   0
   1  -5  27   29.84   11.21   0
   1  13 -13   46.89   11.22   0
   2  -5  18   50.99    6.50   0
   2  -5  25   20.66   11.67   0
   2   8 -11  342.44    9.55   0
   2  10 -12    6.15    9.30   0
   3  -4  14    7.31    5.45   0
   3   1  -2  562.92    4.04   0
   3   8 -10  298.58    9.51   0
   3  10 -11   18.80    9.53   0
   4  -3  15   25.83    6.32   0
   4   8  -8   37.62    8.72   0
  -4   9   4    1.09    2.25   0
  -3   0  17  236.75    7.93   0
  -3   0  18  116.37    8.08   0
  -3   1  12  537.67    7.04   0
  -3  12  -4   24.31    7.31   0
  -2  -2  16   65.82    5.61   0
  -2   8  -6 2041.67   12.00   0
  -2  12  -8   26.59    7.78   0
  -1  -3  13  240.84    5.54   0
  -1   6  -7  933.72    7.24   0
  -1   7  -8 1823.21   10.46   0
  -1  10 -10   14.34    6.49   0
  -1  13 -11   46.29    9.76   0
  -1  14 -11    5.28   10.53   0
   0   1  -2  261.29    1.84   0
   0  11 -12   40.45    9.23   0
   1  -5  18  534.91   10.35   0
   1  -5  19  321.48    9.73   0
   1  -5  25   20.15    9.07   0
   1   9 -12  190.04    8.23   0
   1  12 -13  305.89   14.57   0
   2  -5  19  440.73   10.40   0
   2  -5  20  187.07    9.56   0
   2  -5  21  130.28    9.62   0
   2  -5  22   33.09    9.72   0
   2  -5  23   14.38    9.28   0
   2  -5  24   -0.21   10.36   0
   2  -4  11   83.48    3.61   0
   2   9 -12   71.29    7.93   0
   2  12 -13  116.09   12.53   0
   3  -3   9  179.48    3.89   0
   3   9 -11  138.62    9.76   0
   4   3  -3   11.19    3.90   0
   5   2   3   36.27    4.00   0
  -4   4  15   11.12    6.24   0
  -3   0  19  218.63    9.05   0
  -3   0  20    6.70    8.23   0
  -3   0  21   29.54    8.93   0
  -3   0  22   11.28    9.30   0
  -3   0  23   10.27    9.37   0
  -3   0  24   19.24    9.51   0
  -3  11  -4  135.99    7.95   0
  -2  -2  17   13.37    5.52   0
  -2  -2  27    5.01   10.96   0
  -2  -1  11 2482.61   10.50   0
  -2   5  -3  810.20    4.81   0
  -2   9  -7 1233.87   11.70   0
  -2  11  -8   10.48    7.15   0
  -1   8  -9   92.04    5.56   0
  -1  12 -11  376.48   12.47   0
   0   5  -8  353.62    5.30   0
   0   6  -9  341.93    5.93   0
   0   7 -10  501.43    7.64   0
   0  10 -12  343.22   10.39   0
   1  -5  20  108.68    8.29   0
   1  -5  21   27.27    7.69   0
   1  -5  22  140.86    9.35   0
   1  -5  23   16.37    8.37   0
   1  -5  24   46.20    9.44   0
   1  -3   7  716.56    5.07   0
   1   5  -9  232.41    5.53   0
   1   6 -10  827.88    8.73   0
   1  11 -13  564.26   14.47   0
   2   2  -5  275.13    5.01   0
   2   5  -9  483.91    6.70   0
   2   6 -10  235.02    6.84   0
   2  11 -13   34.15   10.07   0
   3  -4  15  115.01    6.24   0
   3   2  -4  811.77    5.84   0
   3   5  -8   69.75    5.84   0
   3   6  -9  320.45    7.82   0
   3  11 -12   38.71   10.94   0
   4  -1   6    3.09    1.71   0
   4   6  -7   64.28    7.14   0
   4   9  -9    9.92    8.79   0
   5   5  -2    0.63    6.08   0
  -4   4  16   40.92    7.20   0
  -4   6   9   46.52    3.38   0
  -4  10   3   12.27    3.51   0
  -3   2   9  152.22    4.16   0
  -3   8  -2   25.32    3.85   0
  -2  -2  18   -5.37    5.76   0
  -2  -2  19  307.50    8.74   0
  -2  -2  24   94.60   10.56   0
  -2  -2  25   34.47    9.92   0
  -2  -2  26   31.58   10.21   0
  -1  -3  14  314.00    6.02   0
  -1  -2   9 2612.15    9.34   0
  -1   9 -10  393.95    9.02   0
  -1  11 -11  110.99    8.41   0
   0  -4  28    2.24   10.24   0
   0  -3   9   26.31    3.25   0
   0   8 -11  660.49    9.47   0
   0  12 -13   30.23    9.47   0
   0  13 -13   99.88   13.25   0
   0  14 -13   24.68   11.30   0
   1   2  -5  183.89    3.16   0
   1   7 -11  613.38    9.12   0
   1  10 -13   30.92    8.08   0
   2  -4  12   11.34    4.02   0
   2   4  -8  106.20    4.68   0
   2   7 -11 1173.66   12.86   0
   2  10 -13  255.99   11.64   0
   3  -4  16   11.26    5.90   0
   3  -4  17   48.16    7.59   0
   3   4  -7 2107.99   11.72   0
   3   7 -10   67.26    6.62   0
   3  10 -12   38.33   10.46   0
   4  -2  10  189.67    5.34   0
  -4   4  17   17.04    7.76   0
  -4   4  18    7.35    7.73   0
  -4   5  12  307.94    7.48   0
  -3   1  13 1076.74    9.58   0
  -3   4   4  100.97    1.73   0
  -3   9  -3  194.44    5.64   0
  -3  13  -5   44.22    9.46   0
  -2  -2  20    0.03    6.67   0
  -2  -2  21  343.55   10.16   0
  -2  -2  22  195.92    9.35   0
  -2  -2  23  158.71    9.80   0
  -2  10  -8  152.83    7.58   0
  -2  13  -9   58.25    8.95   0
  -2  14  -9   87.23   11.90   0
  -1  -3  15  483.53    7.07   0
  -1  -3  28   19.30   11.15   0
  -1   4  -5 7778.64   13.49   0
   0  -4  27    5.59    8.93   0
   0   2  -4 7487.07   10.61   0
   0   4  -7 2160.05    8.60   0
   0  11 -13  199.10   12.05   0
   1   4  -8   50.19    3.75   0
   1   8 -12   12.78    6.32   0
   1  12 -14  237.64   13.72   0
   1  13 -14   43.43   10.19   0
   2   8 -12  842.54   12.39   0
   2  12 -14    9.61   11.43   0
   3  -4  18   -3.24    7.45   0
   3  -4  19   30.12    7.87   0
   3  -4  20   16.76    8.76   0
   3  -4  21   11.58    9.22   0
   3  -4  22   15.69   10.51   0
   3   8 -11   23.16    6.91   0
   4   4  -5  708.61    9.05   0
   4   8  -9  107.44    9.00   0
  -3   1  14  433.05    7.89   0
  -3  10  -4  297.85    7.83   0
  -3  12  -5    8.28    7.19   0
  -2  -1  12 4201.95   13.56   0
  -2   0   8 1023.13    5.97   0
  -2  12  -9    3.48    7.27   0
  -1  -3  16  360.48    7.17   0
  -1  -3  26   -2.85    8.81   0
  -1  -3  27    4.48    9.58   0
  -1  10 -11   83.33    7.13   0
  -1  13 -12  133.10   11.09   0
  -1  14 -12   21.01   10.55   0
   0  -4  25    3.54    8.10   0
   0  -4  26   -2.88    8.05   0
   0   9 -12   37.55    6.24   0
   1   9 -13   14.07    6.65   0
   1  11 -14  369.71   13.20   0
   2  -4  13  354.49    6.05   0
   2   9 -13   32.32    8.64   0
   2  11 -14   47.06   10.72   0
   3  -3  10    1.93    3.21   0
   3   9 -12   -4.78    7.84   0
   3  11 -13  171.65   13.75   0
   4   2  -2   36.92    3.88   0
   4   9 -10   -0.37    9.47   0
  -4   5  13  145.92    6.84   0
  -2  -1  13 1058.68    8.66   0
  -2  11  -9   81.89    7.84   0
  -1  -3  17  627.50    8.51   0
  -1  -3  24   98.85    9.75   0
  -1  -3  25   44.85    9.09   0
  -1  -2  10  128.91    3.83   0
  -1  -1   6 1658.93    6.18   0
  -1  12 -12  310.48   11.90   0
   0  -4  19 1257.10   12.59   0
   0  -4  21  512.15   10.50   0
   0  -4  22  818.83   13.08   0
   0  -4  23  200.53    8.71   0
   0  -4  24  133.15    9.16   0
   0  -3  10 3618.36   11.46   0
   0  10 -13  330.32   10.45   0
   0  13 -14   72.03   12.00   0
   0  14 -14   -4.35   12.31   0
   1   3  -7  501.73    5.13   0
   2  -4  14  391.59    7.83   0
   2  -2   4  737.62    3.12   0
   2   3  -7 1410.82    7.94   0
   4   1   0    0.96    2.60   0
   5   5  -3    4.43    6.08   0
  -3   1  15  801.45   10.44   0
  -3   1  16  181.42    7.78   0
  -3   1  24   -1.81    8.83   0
  -3   2  10  670.12    6.85   0
  -2   1   5 2698.86    6.65   0
  -2   3   0  296.61    1.31   0
  -2   7  -6  218.67    5.15   0
  -2   8  -7  995.95    9.33   0
  -1  -3  18   49.71    5.41   0
  -1  -3  19    5.31    5.60   0
  -1  -3  20  191.53    7.65   0
  -1  -3  22  176.41    8.51   0
  -1   6  -8  251.59    5.11   0
  -1   7  -9  792.34    7.79   0
  -1   8 -10  291.23    6.52   0
  -1  11 -12  326.07   10.95   0
   0  -2   6 8210.16   12.54   0
   0   3  -6 3392.19    9.10   0
   0   6 -10   24.74    4.45   0
   0   7 -11 2460.07   13.77   0
   0  12 -14    2.52    9.84   0
   1  -4  14  132.77    5.24   0
   1  -4  26   16.24    8.86   0
   1  -3   8 2188.47    8.64   0
   1   6 -11 2278.18   13.40   0
   1   7 -12  338.62    7.85   0
   1  10 -14   80.31    8.41   0
   1  12 -15  185.00   13.72   0
   1  13 -15   -4.76   10.74   0
   2  -4  24   27.99   10.55   0
   2  -4  25   27.25   11.16   0
   2   6 -11  203.34    6.75   0
   2   7 -12  387.65    9.18   0
   2  10 -14  333.06   12.66   0
   3   5  -9  293.04    6.69   0
   3   6 -10  652.83    9.74   0
   3   7 -11    2.80    6.06   0
   3   8 -12   65.46    8.59   0
   3  10 -13   50.47   10.47   0
   4   5  -7   94.47    6.60   0
   4   6  -8   23.50    5.75   0
   4   7  -9  184.23    8.96   0
  -4   5  14  195.70    8.48   0
  -4   6  10   15.89    3.72   0
  -3   1  17  502.55   10.56   0
  -3   1  19  406.90   11.83   0
  -3   1  22   67.99    8.83   0
  -3   1  23   -0.51    8.44   0
  -3   6   0   17.79    2.08   0
  -2  -1  14 1788.33   10.58   0
  -2  -1  25    2.92    9.71   0
  -2  -1  26   -3.17    9.75   0
  -2   9  -8  600.75    8.69   0
  -2  13 -10   71.01    9.28   0
  -1   0   3 5400.09    6.89   0
  -1   9 -11    9.79    5.61   0
  -1  13 -13   85.88   11.84   0
  -1  14 -13    7.61   10.62   0
   0  -3  11  784.83    6.40   0
   0   5  -9 2010.43    9.75   0
   0   8 -12  670.99    9.91   0
   0  11 -14  253.85   11.39   0
   1  -4  15   18.90    4.72   0
   1  -4  24    5.38    8.03   0
   1  -4  25   18.44    8.14   0
   1   5 -10  801.26    7.72   0
   1   8 -13  315.83    8.48   0
   2  -4  22  274.49   11.95   0
   2   5 -10  -11.10    5.00   0
   2   8 -13    7.16    7.14   0
   2  12 -15   -1.63   11.39   0
   4  -2  12  168.59    7.19   0
  -4   5  15  160.65    9.32   0
  -4   5  16   93.28    8.51   0
  -3   3   7 1769.90    7.80   0
  -3  13  -6   37.88    8.34   0
  -2  -1  15   63.72    4.91   0
  -2  -1  23    8.06    9.01   0
  -2  -1  24    2.34    8.89   0
  -2   0   9  272.67    4.50   0
  -2   6  -5   31.04    3.34   0
  -2  10  -9   28.22    6.56   0
  -2  12 -10   -8.99    7.45   0
  -1  -2  11  606.88    5.68   0
  -1  -2  28   35.57   11.12   0
  -1   5  -7  136.77    3.98   0
   0  -3  27   49.40   11.04   0
   0  -3  28   16.91    9.14   0
   0   9 -13   84.93    7.56   0
   0  13 -15   31.20   11.73   0
   1  -4  16   16.15    5.20   0
   1  -4  17   94.58    6.27   0
   1  -4  21   -2.26    7.45   0
   1  -4  22   -1.87    7.06   0
   1  -4  23   -6.28    7.56   0
   1   9 -14  325.31    9.81   0
   1  11 -15  129.52   10.82   0
   2  -4  17  399.24    8.89   0
   2  -4  18  488.78   10.55   0
   2  -4  19  453.15   10.74   0
   2   4  -9    1.83    4.36   0
   2   9 -14  179.58   10.06   0
   2  11 -15   82.34   11.23   0
   3   4  -8   65.18    4.39   0
   3   9 -13    9.66    8.12   0
   3  11 -14   84.20   12.09   0
   4   4  -6   82.63    5.44   0
   5   4  -2  204.41    7.72   0
  -4   5  17   62.17    8.74   0
  -3   2  11    7.29    3.63   0
  -3   9  -4   39.53    4.13   0
  -2  -1  16 1262.76   10.47   0
  -2  -1  17  473.16    8.08   0
  -2  -1  18  210.60    7.57   0
  -2  -1  19  173.14    7.84   0
  -2  -1  20   -5.77    6.96   0
  -2  -1  21   16.87    6.97   0
  -2  -1  22    8.31    7.98   0
  -1  -2  27   73.82   10.88   0
  -1  10 -12   -6.86    5.94   0
  -1  12 -13  327.11   12.25   0
   0  -3  12 1551.60    8.51   0
   0  -3  26   62.42    9.45   0
   0  10 -14  971.88   15.01   0
   0  12 -15   -6.80   10.52   0
   1  -4  19    8.54    5.73   0
   1  -3   9 1568.82    8.19   0
   1   4  -9 1399.75    8.47   0
   1  13 -16   -1.78   10.99   0
   2   2  -6 5308.45   12.65   0
   2  10 -15  207.50   12.41   0
   3   1  -3  150.80    2.79   0
   3   2  -5  332.92    4.36   0
   3  10 -14  116.72   11.16   0
   4  -2  13   81.79    6.42   0
  -4   6  11   78.73    5.08   0
  -3   8  -3  308.37    5.11   0
  -3  10  -5  237.58    6.96   0
  -2  11 -10   98.40    7.22   0
  -2  13 -11   23.81    9.27   0
  -1  -2  12   50.59    3.81   0
  -1  -2  25  243.32   11.83   0
  -1  -2  26   68.27    9.67   0
  -1   3  -4 2440.89    6.28   0
  -1  11 -13  271.36   10.21   0
   0  -3  25  162.76    9.55   0
   0  -1   3  131.78    1.69   0
   0   4  -8 1120.45    6.80   0
   1  10 -15   30.26    7.23   0
   1  12 -16   31.74   10.80   0
   2   7 -13 1265.71   13.71   0
   2  12 -16   15.36   11.25   0
   3  -3  13  143.21    6.32   0
   3  -3  22   67.86   11.38   0
   3   3  -7 1124.16    7.97   0
   3   6 -11 1248.09   12.60   0
   3   7 -12  203.51    8.01   0
   3   8 -13   14.84    8.13   0
   4  -2  14  177.49    8.60   0
   4   6  -9  177.14    7.45   0
   4   7 -10  461.93   11.63   0
   4   8 -11  129.72    8.87   0
   5   2   2   79.59    3.68   0
   5   5  -4   10.22    6.39   0
  -4   7   8  135.64    4.13   0
  -3   2  12    2.34    3.89   0
  -3  11  -6  102.02    7.57   0
  -2   0  10  825.67    6.06   0
  -1  -2  13   11.33    3.86   0
  -1  -2  24  267.96   11.13   0
  -1  -1   7 1297.97    5.63   0
  -1   7 -10 1360.80    9.61   0
  -1   8 -11   25.59    5.21   0
  -1  13 -14   72.32   10.89   0
   0  -3  13  138.21    4.28   0
   0  -3  24   91.80    8.46   0
   0  -2   7 4839.69   10.37   0
   0   7 -12  438.34    7.69   0
   0   8 -13  509.50    9.01   0
   0  11 -15  278.91   11.68   0
   1  -3  27   -3.85    9.70   0
   1   1  -4 4921.17    8.89   0
   1   2  -6  314.04    3.87   0
   1   6 -12  857.04    9.40   0
   1   7 -13  216.74    7.68   0
   1   8 -14   -0.55    6.02   0
   1  11 -16  175.31   11.65   0
   2   3  -8  398.52    5.60   0
   2   6 -12  243.17    7.30   0
   2   8 -14   43.68    7.79   0
   2  11 -16   26.60   10.78   0
   3  -3  14  130.81    6.80   0
   3  -3  21  140.43   12.00   0
   3   5 -10  479.13    7.52   0
   3   9 -14   21.22    8.43   0
   4  -2  18   -6.79    7.48   0
   4   5  -8   30.52    6.02   0
  -4   6  12   16.87    4.78   0
  -4  10   2   -1.13    2.66   0
  -3   2  13   31.17    4.87   0
  -3   2  22   -6.41    7.93   0
  -3   2  23   52.43   10.16   0
  -2   0  25   46.89   10.08   0
  -2   0  26   45.18   10.83   0
  -2   5  -4    1.84    2.66   0
  -2   8  -8 2120.60   11.81   0
  -2   9  -9  595.19    8.62   0
  -2  12 -11    7.68    7.73   0
  -1  -2  14   60.43    4.22   0
  -1  -2  22  392.22   10.74   0
  -1  -2  23  836.71   13.43   0
  -1   4  -6 1750.88    6.91   0
  -1   6  -9 1687.27    9.78   0
  -1   9 -12  286.81    8.13   0
  -1  12 -14  154.94   11.36   0
   0  -3  22  463.74   10.11   0
   0  -3  23  495.83   10.56   0
   0   6 -11   24.15    4.59   0
   0   9 -14    4.54    6.83   0
   0  13 -16   14.56   11.55   0
   1  -3  26   -5.36    8.83   0
   1   3  -8 3832.71   11.76   0
   1   5 -11  231.02    5.65   0
   1   9 -15   87.53    7.95   0
   1  13 -17   20.86   12.01   0
   2  -3  25   69.84   11.53   0
   2   5 -11  490.14    7.51   0
   2   9 -15  337.90   11.46   0
   3  -3  17   17.87    7.21   0
   3  -3  18  133.40    9.42   0
   3  -3  19   64.45    8.08   0
   3  10 -15   82.03   10.92   0
   4  -1   7    3.45    2.68   0
   4   2  -3  236.63    4.69   0
   4   3  -5    2.00    3.96   0
  -4   6  13  124.89    7.41   0
  -3   2  14   78.82    5.91   0
  -3   2  20   89.23    9.49   0
  -3   2  21   41.66    8.64   0
  -3   3   8  987.35    6.97   0
  -3   7  -2   82.21    3.11   0
  -3  12  -7    2.31    6.73   0
  -2   0  11  556.73    5.69   0
  -2   0  24  119.74   11.84   0
  -2   1   6 1461.16    5.71   0
  -2   7  -7  538.56    5.71   0
  -2  10 -10   18.72    5.91   0
  -1  -2  15   60.54    4.51   0
  -1  -2  16 1275.09    9.69   0
  -1  -2  19  308.50    8.14   0
  -1  -2  20  271.68    8.42   0
  -1  -2  21  804.62   11.47   0
  -1  10 -13   26.32    6.36   0
   0  -3  20 1101.92   11.18   0
   0  -3  21  787.89   10.84   0
   0  -2  28   10.03    9.41   0
   0   5 -10  115.23    4.30   0
   0  10 -15  241.48    9.68   0
   1  -3  25   53.60    9.01   0
   1  -2   5  732.68    3.71   0
   1  10 -16   36.09    8.15   0
   1  12 -17   14.13   10.97   0
   2  -3  24   23.74    9.64   0
   2   0  -2 7478.32    8.49   0
   2   4 -10  814.07    8.34   0
   2  10 -16  370.64   14.04   0
   2  12 -17   15.60   11.84   0
   3  -2   7   37.46    2.34   0
   3   4  -9  288.40    5.94   0
   4   4  -7  376.72    7.52   0
   4   7 -11  405.27   12.47   0
   4   8 -12   77.25    9.82   0
   5   4  -3   28.47    5.66   0
  -4   6  14   21.67    6.88   0
  -4   6  15  103.72    8.39   0
  -3   2  15    9.29    5.05   0
  -3   2  16  198.67    7.98   0
  -3   2  17   31.03    7.01   0
  -3   2  18  285.25   10.13   0
  -3   2  19  116.46    8.54   0
  -2   0  23   34.16    8.38   0
  -2  11 -11  298.76   10.16   0
  -2  13 -12   37.74    9.85   0
  -1  -2  17   39.16    4.85   0
  -1  -2  18  168.21    6.09   0
  -1  -1   8    4.64    2.96   0
  -1  -1  27  119.88   11.63   0
  -1  11 -14  272.51   10.44   0
  -1  13 -15   -3.41    9.83   0
   0  -2  27   15.01    8.53   0
   1  -3  23  115.66    8.97   0
   1  -3  24   54.94    7.55   0
   2  -3  11  919.36    7.32   0
   2  -2   5    4.39    1.96   0
   2  11 -17   -0.91   10.85   0
   3   6 -12  249.80    7.79   0
   3   7 -13   21.01    6.48   0
   3   8 -14   32.33    7.49   0
   4   6 -10  115.40    7.35   0
   5   5  -5    6.23    6.03   0
  -4   7   9   26.09    4.08   0
  -4   8   6    8.33    2.66   0
  -3  10  -6  207.11    7.20   0
  -2   0  12 1155.09    7.67   0
  -2   0  22  142.93    9.57   0
  -2   6  -6  155.01    3.98   0
  -1  -1  26  180.50   11.36   0
  -1   5  -8  415.71    5.11   0
   0  -2   8 4934.61   10.88   0
   0  -2  26   51.08    9.14   0
   0   2  -5 1111.75    4.74   0
   0   3  -7 1270.88    6.21   0
   0  11 -16  111.08   10.56   0
   0  13 -17   29.17   12.35   0
   1  -3  22  423.89   10.85   0
   1   4 -10  637.56    6.47   0
   1   7 -14    1.14    6.29   0
   1   8 -15  183.48    7.65   0
   1  11 -17   91.83   10.62   0
   2  -3  12  348.66    5.99   0
   2  -3  21  324.55   10.81   0
   2  -3  22   33.15    8.09   0
   2   6 -13   36.48    6.42   0
   2   7 -14  473.72    9.56   0
   2   8 -15    1.74    7.67   0
   2   9 -16  129.64    8.95   0
   3   0  -1   83.32    1.61   0
   3   5 -11  427.51    8.00   0
   3   9 -15    5.75    8.73   0
   4   1  -1   34.87    2.71   0
   4   5  -9   -9.01    5.57   0
  -3   3   9 1266.33    8.73   0
  -3   9  -5  128.47    4.75   0
  -3  11  -7   26.74    5.98   0
  -2   0  13  421.16    5.96   0
  -2   0  14   -0.78    4.71   0
  -2   0  20   -1.84    6.29   0
  -2   0  21    2.53    6.71   0
  -2   1  26    4.79    9.26   0
  -2  12 -12    4.11    7.72   0
  -1  -1  25   52.36    9.53   0
  -1   7 -11  772.21    8.64   0
  -1   8 -12   58.37    5.53   0
  -1   9 -13  189.27    7.45   0
  -1  12 -15  180.93   11.17   0
   0   4  -9   54.14    3.47   0
   0   7 -13 1898.71   13.11   0
   0   8 -14  431.05    9.07   0
   0   9 -15  418.16   10.25   0
   1  -3  20  392.14    8.72   0
   1  -3  21  316.65    8.94   0
   1  -2  27   79.20   11.85   0
   1   6 -13 1518.67   12.04   0
   1   9 -16  210.83    9.33   0
   1  12 -18   12.14   11.42   0
   2  -3  20  262.77    9.86   0
   2   5 -12   93.98    5.81   0
   2  10 -17  132.33   12.40   0
   3   3  -8 1553.18    9.19   0
   3  10 -16   47.28   10.30   0
  -3   3  22    1.58    9.10   0
  -3   4   5  217.34    2.89   0
  -3   8  -4    7.99    3.36   0
  -2   0  15  393.18    6.73   0
  -2   0  16   23.31    5.12   0
  -2   0  17  581.93    9.07   0
  -2   0  18  102.81    6.12   0
  -2   0  19   48.60    6.02   0
  -2   1  25   16.14    9.54   0
  -2   8  -9  632.19    8.01   0
  -2   9 -10  227.77    6.66   0
  -2  10 -11   31.95    6.75   0
  -1  -1   9 2185.98    7.99   0
  -1  -1  24  314.21   11.82   0
  -1  10 -14   19.15    6.94   0
   0  -2   9 5319.74   11.84   0
   0  -2  24   57.02    7.69   0
   0   6 -12  199.92    5.67   0
   0  10 -16  571.43   12.80   0
   1  -3  14    2.94    3.80   0
   1  -3  16  554.27    7.84   0
   1  -3  17  249.07    6.59   0
   1  -3  18  334.83    7.63   0
   1  -3  19   -0.71    5.28   0
   1  -2  26  101.54   11.02   0
   1   5 -12 1632.12   11.44   0
   1  10 -17   78.91    8.96   0
   2  -3  14   54.89    4.82   0
   2  -3  15   49.20    6.00   0
   2  -3  16  124.20    6.84   0
   2  -3  17   39.05    7.47   0
   2   2  -7 1595.16    7.67   0
   2   3  -9   49.00    4.07   0
   3  -2   8   17.24    2.71   0
   3  -2  22   43.33    9.80   0
   4  -1   8   90.23    3.86   0
   4   3  -6   28.27    4.51   0
   4   7 -12  310.54   11.08   0
   4   8 -13    0.42    8.59   0
  -4   7  10   35.73    4.88   0
  -3   3  21   11.09    8.45   0
  -3  12  -8   31.05    6.90   0
  -2   1   7  790.02    4.70   0
  -2   1  24    4.65    9.07   0
  -2   2   3    1.33    1.28   0
  -2  11 -12   91.57    8.92   0
  -2  13 -13   28.57    9.26   0
  -1  -1  23  124.84    8.80   0
  -1   0   4 4704.54    7.18   0
  -1   0  27   47.59   10.16   0
  -1   6 -10  466.54    6.02   0
  -1  11 -15   66.97    8.24   0
  -1  13 -16   -5.22    9.56   0
   0  -2  23    2.38    6.65   0
   0  13 -18   19.15   11.30   0
   1  -2   6  989.38    4.81   0
   1  -2  25   88.53   10.15   0
   1  11 -18  153.76   11.36   0
   2  -2  25    9.89    9.78   0
   2   1  -5  442.95    3.89   0
   2   8 -16    6.66    8.09   0
   2  11 -18   18.38   10.56   0
   3   1  -4  489.93    3.86   0
   3   4 -10   18.66    4.27   0
   3   6 -13  643.95   10.85   0
   3   7 -14   17.05    6.70   0
   3   8 -15  215.80    9.61   0
   3   9 -16   51.74    9.27   0
   4   2  -4   86.44    4.20   0
   4   4  -8   18.43    5.29   0
   4   6 -11  361.33    9.58   0
   5   4  -4  133.25    6.70   0
   5   5  -6    8.57    6.08   0
  -4   7  11   30.62    5.11   0
  -3   3  10  204.67    5.05   0
  -3   3  20   11.63    7.47   0
  -2   7  -8  133.50    4.23   0
  -1  -1  10   33.51    3.09   0
  -1  -1  22  341.88   10.02   0
  -1  12 -16   53.07    9.79   0
   0  -2  10 2721.79    9.06   0
   0  -2  22   17.32    6.26   0
   0  -1  27    6.88    8.71   0
   0   1  -3  133.64    1.77   0
   0   5 -11  110.84    4.55   0
   1   2  -7  100.30    3.15   0
   1   3  -9  835.57    6.28   0
   1   8 -16   65.62    7.24   0
   2  -2  24    1.72    8.80   0
   2   4 -11   65.71    5.17   0
   2   6 -14  680.64   10.36   0
   2   7 -15  602.54   11.10   0
   2   9 -17  334.22   12.41   0
   3  -2  20   50.24    9.26   0
   3  10 -17   -1.84    9.31   0
   5   2   1    2.44    2.31   0
  -4   7  12    0.31    5.35   0
  -4   7  13   13.02    6.53   0
  -4   7  14   17.57    7.05   0
  -3   3  11  564.61    7.24   0
  -3   3  18   19.61    7.32   0
  -3   3  19    1.77    7.03   0
  -2   1  23   19.77    8.44   0
  -2  12 -13   33.51    8.44   0
  -1  -1  11 2338.83    9.27   0
  -1  -1  21  291.70    8.68   0
  -1   0  26   20.58    9.09   0
  -1   3  -5   63.57    2.45   0
  -1   4  -7 1382.57    6.68   0
  -1   8 -13  153.48    7.07   0
  -1   9 -14  195.49    8.28   0
   0  -2  21  212.54    7.23   0
   0  -1   4 8719.23    9.59   0
   0  -1  26   16.85    8.84   0
   0   7 -14  705.85    9.20   0
   0   8 -15  568.83    9.95   0
   0   9 -16  232.94    9.03   0
   1  -2  24  123.90    9.30   0
   1   4 -11    4.44    4.06   0
   1   6 -14 1018.33   11.32   0
   1   7 -15  393.03    8.36   0
   1   9 -17   37.01    8.10   0
   1  10 -18   36.50    9.48   0
   1  12 -19   28.88   11.41   0
   2  -2  23   15.77    8.35   0
   2  10 -18  153.99   12.26   0
   3  -2  19  139.86   10.26   0
   3   5 -12  782.42    9.28   0
   4  -1   9    5.88    3.80   0
   4  -1  17    9.96    7.55   0
   4   5 -10   16.84    5.39   0
   4   8 -14   -0.88    9.09   0
  -4   9   4   -0.60    2.17   0
  -3   3  12   21.28    4.21   0
  -3   3  13  240.69    6.60   0
  -3   3  14  133.18    6.64   0
  -3   3  15   85.20    6.74   0
  -3   3  16   42.60    7.15   0
  -3   3  17   69.48    6.50   0
  -3   9  -6  136.59    4.98   0
  -3  10  -7  405.51    8.13   0
  -3  11  -8   35.13    6.35   0
  -2   1   8 1032.97    5.85   0
  -2   1  21   39.93    8.22   0
  -2   1  22   -6.08    7.55   0
  -2   5  -5  708.67    4.65   0
  -2   9 -11   -0.65    5.49   0
  -2  10 -12  305.17    9.18   0
  -2  13 -14   15.28    9.83   0
  -1  -1  12  295.50    4.55   0
  -1  -1  18  211.68    7.00   0
  -1  -1  19   -0.50    5.45   0
  -1   0  25   19.15    8.80   0
  -1   5  -9   90.79    3.97   0
  -1   7 -12  207.32    6.48   0
  -1  10 -15   20.13    6.74   0
  -1  13 -17    6.14   10.59   0
   0  -2  11 9002.80   16.57   0
   0  -1  25    4.74    8.06   0
   0  10 -17  317.10   10.94   0
   1  -2  23  381.89   10.78   0
   1  -1  27   77.24   12.73   0
   1  11 -19   88.53   11.83   0
   2  -2  22    1.55    7.34   0
   2   5 -13  139.20    6.52   0
   2  11 -19   -0.05   10.65   0
   3  -2  18   -2.85    7.38   0
   3   7 -15   -3.53    6.87   0
   3   8 -16   63.76    8.33   0
   3   9 -17   12.88    8.98   0
   4  -1  16    2.05    6.07   0
   4   7 -13  186.44    9.06   0
   5   1   7   15.52    3.37   0
  -4   8   7   61.38    4.02   0
  -3   4  22   22.40    9.64   0
  -3   7  -3    1.58    2.55   0
  -3  12  -9   82.54    8.03   0
  -2   1  20   38.58    7.32   0
  -2   2  25   55.14   10.41   0
  -2  11 -13  149.67    9.62   0
  -1  -1  13 1928.09    9.33   0
  -1  -1  14 1104.59    7.94   0
  -1  -1  15    3.66    4.06   0
  -1  -1  16  225.33    5.64   0
  -1  -1  17   42.54    4.98   0
  -1   0  24   19.87    8.29   0
  -1  11 -16  180.46    9.79   0
   0  -2  12 1320.82    7.13   0
   0  -2  13 3832.69   12.25   0
   0   3  -8 2338.96    8.21   0
   0   4 -10  772.12    6.30   0
   0   6 -13    7.96    4.48   0
   0  11 -18   46.71   10.55   0
   1  -2   7  257.39    3.48   0
   1  -2  22  278.36    9.89   0
   1  -1  26   54.43   10.72   0
   1   1  -5  624.23    3.80   0
   1   5 -13  317.17    6.78   0
   2   7 -16  244.75    9.97   0
   2   8 -17   31.11    8.46   0
   2   9 -18  139.09   12.12   0
   3  -2  16    3.02    7.38   0
   3  -2  17   20.62    6.44   0
   3  -1   3  311.50    1.77   0
   3   2  -7  296.32    4.51   0
   3   3  -9  151.78    4.49   0
   3   4 -11    6.25    5.04   0
   3   6 -14  211.02    8.64   0
   4  -1  11    6.95    4.29   0
   4  -1  12   23.72    5.57   0
   4   6 -12  106.21    7.17   0
   5   4  -5   17.86    5.52   0
   5   5  -7   19.04    6.74   0
  -3   4   6   55.27    2.63   0
  -3   4  21   81.44    9.78   0
  -3   6  -1  263.89    2.58   0
  -2   1   9  128.28    3.25   0
  -2   1  19   96.85    7.14   0
  -2   2  24   -0.27    8.77   0
  -2  12 -14   13.85    8.78   0
  -1   1  27   -0.37    9.89   0
  -1   6 -11 1738.60   10.97   0
  -1  12 -17   64.32    9.94   0
   0  -1  24  162.96    9.30   0
   0  12 -19   11.95   11.27   0
   1  -2  21  908.46   12.75   0
   1   8 -17  222.58    8.78   0
   1   9 -18   23.01    7.49   0
   1  12 -20   16.91   11.22   0
   2  -2  21   11.41    6.58   0
   2  -1  25   10.69    9.97   0
   2   2  -8 2643.15    9.57   0
   2   3 -10  396.38    5.60   0
   2   4 -12  705.24    8.52   0
   2   6 -15  159.36    7.65   0
   2  10 -19  113.32   12.32   0
   3  -2  12    6.13    4.39   0
   3  -2  14    0.67    5.90   0
   3  -2  15   40.68    5.94   0
   4   3  -7  134.49    4.87   0
   4   4  -9   40.79    4.97   0
  -3   4  20   47.83    8.81   0
  -3   8  -5   71.99    3.92   0
  -2   1  10  483.76    5.61   0
  -2   1  18   12.78    5.52   0
  -2   7  -9  689.33    7.23   0
  -1   0   5 3796.86    7.30   0
  -1   0  23   23.61    6.52   0
  -1   1  26   11.27    9.32   0
  -1   9 -15   84.70    7.15   0
   0  -1  23  170.13    8.67   0
   0   0  27   62.57    9.99   0
   0   2  -6 6408.87   10.87   0
   0   5 -12  442.50    6.17   0
   0   8 -16   -0.80    6.67   0
   0   9 -17  422.80   10.73   0
   0  10 -18  460.77   12.86   0
   1  -2  20  176.86    7.17   0
   1  -1  25   45.56    9.42   0
   1   7 -16   20.91    6.15   0
   1  10 -19  140.01   10.83   0
   2  -2  20   -4.12    6.38   0
   2  11 -20   26.93   11.43   0
   3  -1  22   -3.16    9.34   0
   3   5 -13  215.37    6.90   0
   4   5 -11   76.96    5.83   0
   4   7 -14   58.93    7.77   0
   4   8 -15   17.90    8.71   0
   5   1   8   29.31    4.42   0
  -4   8   8    7.23    4.10   0
  -3   4  19  125.62    9.81   0
  -3  10  -8   93.29    6.22   0
  -3  11  -9   -3.14    6.20   0
  -2   1  11  184.30    4.60   0
  -2   1  16   -3.69    4.63   0
  -2   1  17  123.17    6.31   0
  -2   2  23   60.15    9.80   0
  -2  13 -15   48.50    9.63   0
  -1   0  22   30.44    7.13   0
  -1  10 -16   10.73    7.10   0
  -1  11 -17  112.24    9.94   0
   0  -1  22   45.24    6.54   0
   0   0  26   28.87    9.04   0
   0   7 -15  699.15    9.56   0
   0  11 -19   -4.11    9.75   0
   1  -2   8  349.55    3.63   0
   1  -2  19  241.93    6.70   0
   1  -1  24   87.95    9.78   0
   1   3 -10 2075.93    9.32   0
   1   4 -12  659.85    7.02   0
   1   6 -15 1539.82   13.05   0
   1  11 -20  117.81   12.31   0
   2  -2  18  126.82    7.95   0
   2  -2  19    6.97    6.45   0
   2  -1  24   45.58    9.98   0
   2   5 -14    9.92    5.68   0
   3  -1  21   -7.60    8.57   0
   3   7 -16   66.09    7.27   0
   3   8 -17  166.18    9.91   0
   3   9 -18    5.89    8.76   0
   4   1  -2   86.89    2.95   0
   4   6 -13  211.40    9.21   0
  -4   8   9   71.58    5.88   0
  -3   4  18   -1.90    7.14   0
  -3  12 -10   55.71    7.92   0
  -2   1  12  200.43    4.50   0
  -2   1  13   98.74    4.27   0
  -2   1  14  209.73    5.67   0
  -2   1  15  164.01    5.47   0
  -2   2  22  163.84    9.98   0
  -2   9 -12   69.34    5.42   0
  -2  10 -13  175.75    7.58   0
  -1   0  21    8.78    6.10   0
  -1   1  25   68.37    9.78   0
  -1   7 -13  788.06    8.53   0
  -1  12 -18   39.74   10.14   0
   0  -1   5 4917.77    7.98   0
   0  -1  21   95.12    6.69   0
   0   6 -14  465.58    7.53   0
   0  12 -20   15.35   11.20   0
   1  -2   9  358.05    4.41   0
   1  -2  17    0.16    4.56   0
   1  -2  18   34.96    5.60   0
   1   2  -8  356.11    4.34   0
   2  -2  17   19.56    6.53   0
   2  -1  23    1.00    8.53   0
   2   1  -6 1795.25    6.69   0
   2   7 -17  127.61    8.40   0
   2   8 -18  136.46    9.62   0
   2   9 -19  557.41   15.75   0
   2  10 -20  154.56   14.21   0
   3   3 -10  906.99    8.02   0
   3   6 -15  312.40    8.61   0
   5   5  -8    6.01    6.33   0
  -4   8  10    3.09    5.02   0
  -4   8  11    8.44    5.65   0
  -4   8  12   28.10    6.51   0
  -4  11  -1    3.27    2.97   0
  -3   4   7  559.03    5.20   0
  -3   4  17   27.37    7.37   0
  -3   9  -7    4.79    3.79   0
  -2   2   4 1613.26    4.91   0
  -2   2  21   85.44    8.17   0
  -2   3  24  209.39   13.56   0
  -2   8 -11  469.71    7.75   0
  -2  12 -15   14.71    8.37   0
  -1   0  20   49.42    6.39   0
  -1   1  24   21.06    8.86   0
  -1   2  -3    6.73    1.35   0
  -1   4  -8 1189.02    6.40   0
  -1   5 -10   94.39    4.04   0
   0  -1  20   56.64    5.28   0
   1  -2  10   59.71    3.40   0
   1  -2  15    5.54    4.31   0
   1  -2  16  215.32    5.21   0
   1  -1  23   77.38    8.31   0
   1   0  26    8.43   10.32   0
   1   5 -14 2507.36   13.85   0
   1   7 -17   46.58    7.30   0
   1   8 -18  167.31    8.56   0
   1   9 -19   52.41    8.42   0
   1  10 -20   15.77    9.33   0
   2   0  -3  900.65    3.45   0
   2   6 -16  230.17    8.67   0
   3  -1  20   23.64    8.03   0
   3   4 -12   10.39    4.30   0
   4   3  -8    3.66    4.66   0
   4   4 -10  186.84    6.64   0
   5   4  -6   68.17    6.22   0
  -3   4  16    0.33    6.02   0
  -2   2  20  413.00   11.83   0
  -2   5  -6    1.24    2.69   0
  -2   6  -8   58.88    3.94   0
  -1   0   6  354.72    3.03   0
  -1   0  19  886.11   11.67   0
  -1   6 -12 1755.34   10.20   0
  -1   9 -16   18.86    7.29   0
  -1  10 -17   13.55    7.98   0
   0   0  24   68.11    8.18   0
   0   1  27   14.61    9.71   0
   0   3  -9   43.89    3.17   0
   0   4 -11   41.12    3.68   0
   0   8 -17   14.51    6.81   0
   0   9 -18  355.76   10.35   0
   0  10 -19  872.40   16.07   0
   1  -2  11  335.80    4.55   0
   1  -1  22  221.32    9.25   0
   1  11 -21   13.03   10.35   0
   2  -2  15   83.66    5.54   0
   2  -1  22   60.25    8.52   0
   2   3 -11   -0.15    4.24   0
   2   4 -13    6.52    5.57   0
   3  -1  19   15.97    7.63   0
   3   2  -8  133.78    3.81   0
   3   5 -14  898.91   10.72   0
   3   8 -18   15.23    8.46   0
   3   9 -19    7.21    8.82   0
   4   0   3  831.93    3.77   0
   4   5 -12    3.65    5.31   0
   4   7 -15   80.03    8.32   0
  -3   4   8  238.21    4.42   0
  -3   4  14  201.51    7.14   0
  -3   4  15   81.54    7.01   0
  -3   5  20   23.99    8.62   0
  -2   2  19  221.65    9.43   0
  -2   3  23   53.28    9.71   0
  -2   7 -10  170.91    5.39   0
  -1   0  18  354.70    7.91   0
  -1   1  23   38.82    7.77   0
  -1   2  26    5.79    9.55   0
  -1   3  -6 2749.60    7.32   0
  -1  11 -18   82.50   10.65   0
   0   5 -13   13.15    4.52   0
   0   7 -16  379.25    8.04   0
   0  11 -20   52.86   10.09   0
   1  -1  21   -8.05    6.61   0
   1   0  25    8.14    9.26   0
   1   6 -16 2142.05   14.58   0
   2   2  -9  611.34    5.66   0
   2   5 -15   12.21    5.92   0
   2   8 -19  112.69    9.15   0
   2   9 -20  343.98   14.19   0
   3  -1  18    6.84    7.87   0
   3   0  -2 1032.34    3.14   0
   3   7 -17  -10.52    6.79   0
   4   0  17   12.34    8.39   0
   4   6 -14   43.97    8.60   0
  -3   4   9  139.83    4.20   0
  -3   4  10  269.77    5.59   0
  -3   4  11   46.39    4.40   0
  -3   4  12  362.03    7.19   0
  -3   4  13    5.77    5.04   0
  -3   5  19   17.12    7.74   0
  -3   7  -4  183.34    3.45   0
  -3  10  -9   89.70    5.79   0
  -3  11 -10   21.52    6.22   0
  -3  12 -11   90.34    8.94   0
  -2   9 -13   -0.02    6.01   0
  -2  10 -14  207.22    7.95   0
  -2  11 -15  102.97    9.00   0
  -1   0   7  279.49    3.37   0
  -1   0  17 1165.32   10.61   0
  -1   1  22  108.27    8.24   0
  -1   2  25  -10.30    9.20   0
  -1   7 -14  330.26    7.12   0
  -1  12 -19   20.97    9.90   0
   0  -1   6  280.47    2.75   0
   0   0  23   72.54    7.45   0
   0   1  26   12.85    7.68   0
   0   6 -15   15.09    5.32   0
   1   1  -6 1676.45    5.98   0
   1   3 -11 1899.31    9.33   0
   1   4 -13  392.71    6.30   0
   1   8 -19  214.13   10.48   0
   1   9 -20   63.43    8.65   0
   2   0  24    3.92    8.53   0
   2   7 -18   40.93    8.19   0
   2  10 -21   33.24   12.26   0
   3  -1  17  149.24    8.85   0
   3   6 -16  335.65    8.80   0
   4   0  16    5.39    7.07   0
   4   2  -6  541.37    6.28   0
  -3   5  18    7.91    7.11   0
  -2   2  18  903.45   11.94   0
  -2   3  22  110.68    9.27   0
  -2   4  24   67.38   11.79   0
  -2   8 -12  572.80    8.57   0
  -2  12 -16    2.81    7.93   0
  -1   0  15  884.06    8.86   0
  -1   0  16  785.45    8.92   0
   0   0  22   87.92    7.40   0
   0   1  -4 8583.88    9.48   0
   0   1  25   -3.93    7.10   0
   0   2  -7 4529.37    9.67   0
   0   8 -18  119.93    8.47   0
   0   9 -19  726.12   13.13   0
   0  10 -20  323.02   13.10   0
   1   0  24   23.69    8.55   0
   1   5 -15 1898.68   12.76   0
   1   7 -18   42.94    7.38   0
   1  10 -21   13.30    9.05   0
   1  11 -22   -5.12    9.58   0
   2  -1  20   36.17    6.71   0
   2   6 -17   28.75    6.91   0
   3   0  21    5.78    9.57   0
   3   3 -11  329.97    6.14   0
   3   4 -13   55.99    4.81   0
   3   8 -19   37.98    9.24   0
   4   0  15   24.13    6.97   0
   4   4 -11   61.52    6.18   0
   4   5 -13   25.30    5.99   0
   4   7 -16   19.18    8.81   0
   5   4  -7   87.48    6.29   0
  -4   9   5    1.57    3.08   0
  -3   9  -8   95.71    4.61   0
  -2   2   5  122.16    2.58   0
  -2   2  17  172.36    7.23   0
  -2   3  21  320.40   11.98   0
  -2   4  -4   55.69    2.22   0
  -1   0   8  254.14    3.23   0
  -1   0  14 1625.81    9.86   0
  -1   1  21   28.84    6.55   0
  -1   2  24   24.44    8.73   0
  -1   4  -9  686.83    6.17   0
  -1   5 -11   37.01    3.71   0
  -1   9 -17  186.57    7.97   0
  -1  10 -18   11.46    7.97   0
  -1  11 -19   80.80   10.41   0
   0  -1   7 2393.03    6.65   0
   0   7 -17    9.86    6.67   0
   0  11 -21    9.45   10.99   0
   1   0  23    3.92    7.68   0
   1   1  26    0.33    9.85   0
   1   2  -9 2377.73    8.83   0
   2  -1  19   45.55    6.34   0
   2   0  23   -2.98    8.35   0
   2   3 -12  345.12    5.87   0
   2   4 -14  169.22    6.61   0
   3   1  -6  270.94    3.41   0
   3   5 -15  587.48    9.42   0
   3   7 -18   30.08    7.22   0
   4   3  -9   37.30    4.81   0
  -3   5  17   23.78    5.92   0
  -2   2  16  149.76    6.51   0
  -2   4  23   16.63    9.31   0
  -2   6  -9  366.94    5.21   0
  -2  10 -15  191.53    9.33   0
  -2  11 -16  160.04   10.95   0
  -1   0   9  172.10    3.31   0
  -1   0  10 1797.51    7.64   0
  -1   0  11  373.40    4.73   0
  -1   0  12 5301.59   14.41   0
  -1   0  13 2132.81   10.26   0
  -1   1  20  388.13    9.69   0
  -1   6 -13 1592.43   10.63   0
  -1   8 -16   25.37    5.75   0
  -1  12 -20   14.40   10.24   0
   0  -1   8  493.94    3.72   0
   0   0  21    2.90    5.11   0
   0   3 -10 3957.29   11.56   0
   0   5 -14  945.78    8.60   0
   1  -1  18  187.91    7.22   0
   1   6 -17  357.62    8.36   0
   2  -1  18   16.21    5.77   0
   2   1  -7 3470.97    9.28   0
   2   5 -16  390.90    8.39   0
   2   7 -19    1.77    8.36   0
   2   8 -20  300.18   12.25   0
   2   9 -21  263.63   13.23   0
   3  -1  15  193.59    7.83   0
   3   0  20   18.37    7.83   0
   3   2  -9  934.49    6.72   0
   3   6 -17  171.21    8.44   0
   4   0  14   -5.07    6.16   0
   4   1  -3   43.38    2.72   0
   4   6 -15   39.01    7.09   0
  -4   9   6    2.38    3.52   0
  -4  11  -2    7.93    2.96   0
  -3   5  16   41.90    6.71   0
  -3   6  19   -6.14    8.49   0
  -3  10 -10    6.54    5.49   0
  -3  11 -11   13.08    6.27   0
  -3  12 -12   28.65    8.08   0
  -2   2  15  190.37    6.09   0
  -2   3  20   44.57    7.48   0
  -2   5  -7  347.47    4.19   0
  -2   7 -11  454.02    6.31   0
  -2   9 -14   26.76    5.79   0
  -2  12 -17    2.18    8.20   0
  -1   2  23   26.10    8.84   0
  -1   3  25   36.90   10.66   0
  -1   7 -15  666.31    8.82   0
   0  -1   9 4759.68   10.37   0
   0  -1  11 1427.87    6.81   0
   0  -1  12 5807.75   13.66   0
   0   0  20  140.68    6.33   0
   0   2  26    8.06    8.92   0
   0   6 -16   19.58    5.16   0
   1   0  -3 6172.17    7.39   0
   1   0  22   28.31    7.60   0
   1   4 -14   25.41    4.72   0
   1   8 -20  740.41   13.61   0
   1   9 -21  117.26   10.61   0
   1  10 -22    1.72    9.53   0
   2   0  22   13.10    8.11   0
   2   2 -10 2026.15    9.07   0
   4   7 -17   44.61   10.08   0
  -4   9   7   10.03    4.26   0
  -4   9   8    3.92    4.50   0
  -4   9   9    3.22    5.09   0
  -3   5  15    4.95    5.77   0
  -3   6  -2   77.44    1.96   0
  -3   8  -7   49.02    4.03   0
  -2   2   6 1853.81    6.95   0
  -2   2  13  849.90    8.90   0
  -2   2  14   99.48    5.15   0
  -2   3  19  503.94   12.47   0
  -2   4  22   33.01    8.33   0
  -1   1  19  135.13    7.22   0
  -1   2  22    1.60    7.27   0
  -1   3  -7  733.77    4.73   0
  -1  10 -19    2.80    8.43   0
   0   1  23    6.03    6.67   0
   0   8 -19   78.49    7.79   0
   0   9 -20  464.88   12.13   0
   0  10 -21  167.59   11.90   0
   0  11 -22   -5.44   10.73   0
   1  -1  17   45.12    4.82   0
   1   3 -12  247.58    5.05   0
   1   5 -16 1313.77   11.20   0
   1   7 -19   98.20    8.09   0
   2  -1  17  289.50    8.15   0
   2   0  21    8.77    7.39   0
   2   1  24   11.52    9.33   0
   2   6 -18   85.57    7.89   0
   3  -1  13   85.99    5.83   0
   3   0  19   22.16    7.85   0
   3   3 -12  548.75    7.32   0
   3   4 -14   24.01    4.83   0
   3   5 -16  720.28   11.46   0
   3   7 -19   35.86    7.82   0
   3   8 -20   10.16    9.79   0
   4   0   4  214.31    3.25   0
   4   4 -12  274.80    7.76   0
   4   5 -14    6.69    5.94   0
   5   4  -8   24.56    5.76   0
  -3   5   3  541.21    3.50   0
  -3   5  14   27.44    5.88   0
  -3   6  18   14.68    8.61   0
  -3   9  -9    5.14    4.42   0
  -2   2   7   49.86    2.77   0
  -2   8 -13  568.91    8.09   0
  -1   1  18  884.51   11.29   0
  -1   3  24   -1.56    9.02   0
  -1   5 -12  853.36    7.86   0
  -1   8 -17   80.06    7.05   0
  -1   9 -18  120.22    8.12   0
  -1  11 -20   -5.25    9.04   0
   0   7 -18   99.38    7.11   0
   1  -1  16  641.48    7.68   0
   1   0  21   18.04    6.49   0
   1   1  24    2.44    7.80   0
   1   6 -18  376.48    8.71   0
   2  -1  16   60.27    5.67   0
   2   4 -15  787.66    9.46   0
   2   8 -21  151.78   11.15   0
   2   9 -22  116.60   12.95   0
   3   0  18  108.39   10.05   0
   4   2  -7  324.61    5.62   0
   4   3 -10    4.07    4.27   0
   4   6 -16  162.66    9.63   0
  -3   7  -5   25.49    2.80   0
  -3  11 -12   35.89    6.82   0
  -3  12 -13  100.52    9.18   0
  -2   2   8    9.30    2.89   0
  -2   2   9   30.67    3.34   0
  -2   2  10   -1.60    3.37   0
  -2   2  11  433.25    5.43   0
  -2   3  18  177.91    7.79   0
  -2   4  21   12.42    6.76   0
  -2   5  23   22.82    9.97   0
  -2  10 -16  275.94    9.79   0
  -2  11 -17   87.83    8.52   0
  -2  12 -18   20.15    8.88   0
  -1   1  17 1002.06   11.22   0
  -1   2  -4   60.51    1.76   0
  -1   2  21  133.77    8.48   0
  -1   4 -10 2578.05   10.49   0
  -1   6 -14 1581.48   10.96   0
   0   1  22   47.58    6.20   0
   0   2  -8 5002.01   10.63   0
   0   2  24   55.21    9.19   0
   0   4 -13  490.58    6.17   0
   0   5 -15  223.82    6.19   0
   1  -1  15   23.38    4.36   0
   1   0  20   28.19    7.00   0
   1   1  -7 1286.22    5.59   0
   1   1  23   82.22    9.92   0
   1   2 -10  107.33    3.61   0
   1   8 -21  347.50   11.29   0
   1   9 -22   81.87   10.15   0
   1  10 -23   -0.30    9.87   0
   2  -1  15  333.54    7.78   0
   2   0  20   35.60    7.02   0
   2   1  23  -11.52    9.06   0
   2   3 -13  159.53    5.36   0
   2   5 -17   22.05    6.46   0
   2   7 -20   53.20    8.28   0
   3  -1   7  639.62    5.43   0
   3   1  21   46.04    9.08   0
   3   6 -18  211.13    8.33   0
   4   0   5  432.88    5.09   0
   4   0   9   -3.75    3.98   0
   4   0  10  122.70    5.82   0
  -3   5  13   39.11    5.39   0
  -3   6  17  151.23    8.77   0
  -3  10 -11   31.79    6.08   0
  -2   3  17  159.59    8.10   0
  -2   6 -10    4.35    3.76   0
  -2   7 -12  285.47    6.69   0
  -1   3  23   12.82    8.14   0
  -1   4  25   52.48   11.92   0
  -1   7 -16  212.20    6.83   0
   0   1  21    8.29    5.44   0
   0   3 -11  722.20    5.73   0
   0   6 -17   22.77    5.65   0
   0   8 -20   74.24    8.64   0
   0   9 -21  251.66   11.15   0
   0  10 -22   28.56   10.49   0
   1   2  25   17.20   10.18   0
   1   4 -15  345.73    6.82   0
   1   7 -20  266.62    9.65   0
   2  -1   2 2040.77    3.46   0
   2   1  -8   -1.16    3.23   0
   2   2 -11 2769.25   11.48   0
   2   6 -19   14.68    7.91   0
   3   0  17  242.30   10.64   0
   3   1  -7   57.76    2.62   0
   3   2 -10  294.98    4.42   0
   3   8 -21  144.65   11.30   0
   4   0   6   46.94    3.39   0
   4   0   7   25.92    3.73   0
   4   0   8  107.56    5.03   0
   4   1  16   68.44    8.84   0
  -3   5  12   72.35    5.26   0
  -3   6  16  112.63    7.78   0
  -2   4  20   69.84    7.36   0
  -2   5  22   14.69    9.06   0
  -2   8 -14  175.47    6.96   0
  -1   1  16  833.47    9.17   0
  -1   2  20   18.29    6.59   0
  -1   9 -19  297.80   10.16   0
  -1  10 -20   -5.51    8.63   0
  -1  11 -21   22.67    9.10   0
   0   2  23  279.41   12.10   0
   0   3  25   32.78   10.21   0
   1   0  19  120.59    6.82   0
   1   1  22   86.04    8.77   0
   1   3 -13  236.05    5.15   0
   1   5 -17  760.40    9.66   0
   2  -1  14  642.29    8.10   0
   2   0  19   66.94    6.67   0
   2   1  22   48.82    9.58   0
   2   8 -22   85.45   10.89   0
   2   9 -23   34.22   11.57   0
   3   0  -3  216.29    1.97   0
   3   1  20   39.47    8.90   0
   3   3 -13  346.98    6.82   0
   3   4 -15  545.78    8.21   0
   3   5 -17  388.81    8.84   0
   3   7 -20  104.88    9.64   0
   4   4 -13   42.28    5.29   0
   4   5 -15    6.03    5.78   0
   4   6 -17   46.27    8.40   0
   5   4  -9   23.34    5.70   0
  -4  11  -3    1.10    2.68   0
  -3   5   4  209.91    3.19   0
  -3   5  11    3.91    3.92   0
  -3   7  18   56.26    9.38   0
  -3   8  -8  158.89    4.76   0
  -2   3  16   25.19    5.30   0
  -2   4  -5  377.21    3.13   0
  -2   4  19   -1.41    6.38   0
  -2   5  -8  109.00    3.46   0
  -2  10 -17  384.38   12.10   0
  -2  11 -18   82.51   10.05   0
  -1   1  15 1030.87    9.78   0
  -1   3  22   -3.49    7.36   0
  -1   4  24  218.17   13.22   0
  -1   8 -18  461.53    9.61   0
   0   1  -5 4265.63    7.43   0
   0   7 -19   59.69    7.30   0
   1   2  24   -1.28    9.84   0
   1   6 -19   27.10    7.03   0
   1   8 -22  271.27   12.49   0
   1  10 -24   53.50   11.52   0
   2  -1  13  208.32    5.24   0
   2   3 -14   81.24    5.86   0
   2   4 -16  654.36    9.88   0
   2   5 -18  191.44    7.59   0
   2   7 -21    5.61    8.83   0
   3   0  16  154.31    7.83   0
   3   6 -19    2.91    6.59   0
   4   1  15   91.59    8.47   0
   4   2  -8  903.27    7.89   0
   4   3 -11   26.47    4.61   0
  -3   5   9   93.34    4.18   0
  -3   5  10   83.04    4.47   0
  -3   6  15  419.88   10.20   0
  -3   9 -10   91.39    5.07   0
  -3  11 -13    0.86    6.30   0
  -2   3  -1  674.00    1.62   0
  -2   3  15    1.07    5.33   0
  -2   5  21   23.92    7.80   0
  -2   9 -16   27.81    6.95   0
  -1   2  19   75.44    6.99   0
  -1   3  -8 2003.19    7.33   0
  -1   5 -13  518.95    6.35   0
  -1   6 -15  731.03    9.01   0
   0   2  22  119.28    8.85   0
   0   4 -14  422.17    6.36   0
   0   5 -16 1426.66   11.13   0
   0   9 -22  225.16   11.73   0
   0  10 -23    9.40   10.21   0
   1   0  18  307.28    8.54   0
   1   1  21   47.84    6.77   0
   1   2 -11  689.77    5.80   0
   1   7 -21  395.46   12.28   0
   2  -1  12  857.50    7.61   0
   2   0  18    7.06    5.64   0
   2   1  21    5.33    8.22   0
   2   2  23  118.22   12.81   0
   2   6 -20    0.46    8.52   0
   3   0  15  565.41   11.75   0
   4   1  14   62.74    7.99   0
  -3   5   5  339.36    4.00   0
  -3   5   6   16.55    2.73   0
  -3   5   7  101.48    3.65   0
  -3   5   8   17.12    3.46   0
  -3   7  -6  493.96    5.34   0
  -3   7  17   50.23    9.10   0
  -3  10 -12   59.81    6.17   0
  -2   4  18   56.88    7.03   0
  -2   6 -11   11.54    4.17   0
  -2   7 -13  260.27    6.78   0
  -1   1   1 3423.56    2.88   0
  -1   3  21   95.24    8.04   0
  -1   4 -11   22.01    3.50   0
  -1   4  23   28.75    9.44   0
  -1   7 -17   58.76    5.93   0
  -1   9 -20  133.40    9.65   0
  -1  10 -21    5.44    8.51   0
  -1  11 -22    4.76    9.20   0
   0   1  19  377.54    8.68   0
   0   2  -9 5233.03   11.35   0
   0   3  24  250.19   12.64   0
   0   6 -18   40.32    5.55   0
   0   8 -21    7.90    7.89   0
   1  -1  10  951.78    5.73   0
   1   0  17 1526.89   13.56   0
   1   1  -8   10.65    2.53   0
   1   2  23    8.27    8.29   0
   1   4 -16  341.59    6.94   0
   1   5 -18  144.70    7.11   0
   2  -1  11    8.68    3.87   0
   2   0  17   60.47    6.06   0
   2   8 -23   31.99    9.67   0
   3   2 -11  586.21    5.61   0
   3   4 -16  161.51    6.29   0
   3   5 -18  416.25    9.82   0
   3   7 -21  178.25   10.77   0
   4   4 -14  138.23    7.00   0
   4   5 -16    9.66    6.12   0
   4   6 -18   40.98    9.08   0
  -4  10   2    0.56    2.48   0
  -3   6  14   63.71    5.79   0
  -2   3  14  209.74    5.82   0
  -2   5  20   56.41    7.20   0
  -2   8 -15  173.20    6.98   0
  -2  11 -19   44.39   10.07   0
  -1   1  13 1792.80   10.46   0
  -1   5  24   36.26   11.09   0
  -1   8 -19  241.89    9.33   0
   0   2  21  298.35   10.46   0
   0   3 -12 1260.21    7.26   0
   0   7 -20  191.92    8.71   0
   1  -1   5 1071.15    3.98   0
   1  -1   9 2487.82    7.92   0
   1   0  -4 5208.16    7.62   0
   1   3 -14  315.29    5.82   0
   1   6 -20    6.31    7.19   0
   1   9 -24    7.90    9.30   0
   2   0  -5  150.18    2.58   0
   2   1  -9 5242.50   12.54   0
   2   1  20  221.89   10.67   0
   2   2 -12 1464.79    8.91   0
   2   4 -17 1750.46   15.06   0
   2   7 -22   43.98    9.61   0
   3   1  -8  471.93    4.20   0
   3   1  18   11.11    7.48   0
   3   3 -14   24.54    4.25   0
   3   6 -20   -3.50    7.61   0
   5   2   7   37.26    5.15   0
   5   4 -10   11.17    5.81   0
  -4  10   6   19.68    4.71   0
  -3   6  13  274.90    8.24   0
  -3   7  16  263.59   12.10   0
  -2   3  13  201.22    6.04   0
  -2   4  17   23.52    5.39   0
  -2   6  21   33.81    8.94   0
  -2  10 -18  272.31   10.34   0
  -1   1  12   60.81    3.78   0
  -1   2  -5  757.92    3.59   0
  -1   2  17  154.76    6.67   0
  -1   3  20   15.77    6.46   0
  -1   4  22   75.09    8.91   0
  -1   5 -14 1000.50    9.37   0
  -1   6 -16 1342.37   11.54   0
   0   3  23  140.35   10.30   0
   0   5 -17  573.04    8.50   0
   0   9 -23   96.28   10.55   0
   0  10 -24    3.90   10.24   0
   1  -1   6    4.07    1.62   0
   1  -1   7 1847.99    5.90   0
   1  -1   8  247.23    2.99   0
   1   0  16  401.83    7.46   0
   1   2  22   14.48    8.07   0
   1   3  24   37.66   10.82   0
   1   8 -23  191.00   11.20   0
   2  -1   3  505.57    2.52   0
   2   2  22  111.01   10.98   0
   2   3 -15  197.41    6.19   0
   2   5 -19   43.18    7.52   0
   3   2  20   30.35    9.31   0
   4   2  -9  290.00    5.71   0
   4   3 -12   11.74    4.84   0
  -4  10   3    7.72    3.22   0
  -4  10   5   30.09    4.57   0
  -3   8  -9   70.86    4.00   0
  -3   9 -11   38.76    4.53   0
  -3  11 -14   22.07    5.81   0
  -2   5  -9  520.78    5.13   0
  -2   5  19   47.05    6.98   0
  -2   9 -17  221.92    8.28   0
  -1   5  23   40.30   10.85   0
  -1   7 -18   34.59    6.06   0
  -1   9 -21  174.65   11.03   0
  -1  10 -22   -8.69    8.54   0
   0   0  12   88.71    3.14   0
   0   4 -15 4190.99   15.53   0
   0   4  24   15.47    9.18   0
   0   6 -19  246.51    8.08   0
   0   8 -22   10.39    8.02   0
   1   1  19   15.32    5.88   0
   1   2 -12   56.93    3.74   0
   1   4 -17  325.89    6.85   0
   1   5 -19  577.90   10.73   0
   1   7 -22  173.20    9.85   0
   2   1  19   89.07    8.11   0
   2   6 -21  244.25   10.29   0
   2   8 -24    3.63    9.68   0
   3   0  13  525.27    9.67   0
   3   1  17    3.76    6.64   0
   3   4 -17  375.86    8.38   0
   3   5 -19  324.49    9.90   0
   3   7 -22  176.01   11.71   0
   4   1  12   -2.12    5.62   0
   4   4 -15   83.50    6.27   0
   4   5 -17   15.12    7.51   0
   5   2   6   24.46    4.23   0
  -4  10   4    4.38    3.64   0
  -4  11  -4    2.92    2.77   0
  -3   6  12   88.26    5.83   0
  -3   7  15   98.28    7.59   0
  -3  10 -13   18.10    5.80   0
  -2   3  12    9.81    3.35   0
  -2   4  -6   33.03    2.53   0
  -2   4  16  213.76    7.00   0
  -2   6 -12  192.22    5.47   0
  -2   6  20   38.38    8.56   0
  -2   7 -14  209.10    5.80   0
  -2   8 -16    1.19    5.82   0
  -1   2  16  280.66    6.51   0
  -1   3  19  274.73    8.95   0
  -1   4 -12  261.68    4.59   0
  -1   4  21  102.83    8.28   0
   0   1  -6  281.91    2.74   0
   0   3 -13  138.17    3.99   0
   0   3  22  178.10    9.93   0
   1   0  15 1386.97   10.60   0
   1   2  21   31.73    6.91   0
   1   3 -15  487.48    6.60   0
   1   3  23   50.86   10.15   0
   1   6 -21   15.33    7.35   0
   1   9 -25   17.60    9.95   0
   2  -1   4  983.63    3.82   0
   2  -1   7   15.31    2.59   0
   2   0  15   16.46    4.62   0
   2   2 -13 4349.91   15.18   0
   2   2  21  237.73   12.76   0
   2   7 -23    1.80    9.47   0
   3   0  -4    2.27    1.63   0
   3   2 -12   14.77    3.30   0
   3   2  19   15.06    8.12   0
   3   3 -15    2.89    4.69   0
   3   6 -21   40.05    8.38   0
   5   2   1    4.29    1.90   0
   5   2   5   56.29    4.51   0
   5   4 -11    7.24    5.53   0
  -3   7  -7  342.40    4.90   0
  -3   8  16   -7.67    7.97   0
  -2   3  11  153.61    4.56   0
  -2   5  18   22.29    5.86   0
  -2  10 -19  218.29    9.93   0
  -2  11 -20   32.73    8.56   0
  -1   1  10  120.10    3.47   0
  -1   8 -20  430.55   11.27   0
   0   0  11  137.92    3.16   0
   0   4  23   36.11    8.38   0
   0   9 -24  145.66   12.04   0
   1   1  -9 2064.03    7.61   0
   1   8 -24  133.75   11.98   0
   2   1 -10 1915.08    8.56   0
   2   1  18  261.63    9.41   0
   2   4 -18  651.67   10.18   0
   2   5 -20   14.55    7.40   0
   3   1  16  158.51    9.08   0
   4   3 -13   73.82    5.59   0
   5   2   4   78.02    4.05   0
  -3   6  11  148.13    5.86   0
  -3   7  14  123.06    7.07   0
  -3   8 -10  124.19    4.87   0
  -3   9 -12  104.61    5.64   0
  -3  11 -15   26.37    7.03   0
  -2   4  15  109.52    5.94   0
  -2   9 -18  184.56    8.52   0
  -1   1   9   37.36    2.62   0
  -1   2  15   65.56    4.69   0
  -1   3  18   91.36    6.37   0
  -1   4  20  122.39    8.75   0
  -1   5 -15 1725.38   11.37   0
  -1   5  22   -4.57    8.27   0
  -1   6 -17  136.31    6.34   0
  -1   7 -19   42.14    6.96   0
  -1  10 -23    9.40    8.81   0
   0   0  10   18.42    2.42   0
   0   2  19  545.57   10.80   0
   0   3  21  181.87    8.84   0
   0   4 -16  800.04    8.64   0
   0   5 -18  479.52    8.39   0
   0   6 -20    0.84    6.52   0
   0   8 -23   46.68    9.28   0
   1   3  22    6.31    9.44   0
   1   7 -23  113.37    9.88   0
   2   0  14   20.48    4.25   0
   2   3 -16  302.44    7.27   0
   2   3  22   74.12   11.22   0
   2   6 -22  165.03   10.08   0
   4   2 -10  432.97    6.46   0
   4   5 -18    4.70    6.82   0
   5   2   2   66.69    3.12   0
  -3   6  10  335.67    6.53   0
  -3  10 -14   23.84    5.95   0
  -2   3  10  219.82    4.31   0
  -2   5 -10  377.97    4.75   0
  -2   5  17  227.15    8.09   0
  -2   6  19    5.30    6.86   0
  -2   7  20   21.85    9.77   0
  -1   1   8   22.31    2.56   0
   0   7 -22  182.49    8.73   0
   1   0  -5 4307.70    7.67   0
   1   1  17  235.93    7.69   0
   1   2 -13    2.97    3.69   0
   1   2  20   32.46    6.26   0
   1   4 -18  442.86    7.99   0
   1   5 -20  156.47    7.79   0
   1   6 -22   13.83    8.08   0
   2   0  -6   76.33    2.48   0
   2   1  17  242.14    8.34   0
   2   7 -24    0.11    9.01   0
   3   1  15   22.08    6.21   0
   3   2 -13  197.95    4.97   0
   3   2  18   30.95    7.63   0
   3   4 -18  113.48    6.61   0
   3   5 -20   14.81    6.44   0
   3   6 -22   -2.09    8.28   0
   4   2  14   34.66    7.68   0
   4   4 -16  104.77    6.56   0
  -3   7  13   24.55    5.99   0
  -3   8  15   16.91    6.79   0
  -2   3   9  277.51    5.07   0
  -2   4  -7  808.81    4.98   0
  -2   4  14  936.12   10.13   0
  -2   6 -13   50.01    4.28   0
  -2   8 -17    4.66    5.22   0
  -2  10 -20  103.35    9.84   0
  -1   1   2 3437.40    4.20   0
  -1   1   7 3064.12    8.09   0
  -1   2  14  151.66    4.81   0
  -1   3 -10  685.01    5.43   0
  -1   3  17   54.96    5.71   0
  -1   4 -13   68.14    3.93   0
  -1   5  21    4.08    7.92   0
  -1   8 -21  268.95    9.88   0
   0   0   9   24.01    2.24   0
   0   2  18 1600.70   14.23   0
   0   3 -14  127.62    4.57   0
   0   3  20   77.94    6.93   0
   0   4  22   49.08    8.38   0
   0   5  23    8.83    9.93   0
   0   9 -25   31.48    9.83   0
   1   3 -16  401.34    6.65   0
   1   4  23   16.94    9.19   0
   1   8 -25  106.37   11.72   0
   2   0  13   50.48    4.24   0
   2   2 -14   49.83    4.52   0
   2   2  19  192.31   10.36   0
   2   3  21   42.96    9.80   0
   2   4 -19  497.81    9.98   0
   2   5 -21   14.50    7.82   0
   3   0  10  411.01    6.64   0
   3   3 -16   70.56    4.83   0
  -4  11  -5    2.46    2.77   0
  -3   6  -4  158.53    2.55   0
  -3   6   9   51.67    4.15   0
  -3   7  -8  564.96    6.12   0
  -3  11 -16   23.58    8.28   0
  -2   5  16   49.05    6.50   0
  -2   6  18   60.35    7.42   0
  -1   1   6  413.87    3.16   0
  -1   4  19  179.98    8.47   0
  -1   5 -16    2.70    6.00   0
  -1   6 -18  239.59    6.95   0
  -1   6  22   18.09   10.05   0
  -1   7 -20    2.82    8.00   0
   0   0   8  864.38    4.55   0
   0   5 -19  659.95    9.50   0
   0   6 -21  176.78    7.96   0
   0   8 -24   54.42    9.76   0
   1   1 -10   28.81    3.10   0
   1   2  19   46.99    6.40   0
   1   3  21  122.49    9.84   0
   1   7 -24  127.13   10.59   0
   2   1 -11 2222.20    9.04   0
   2   1  16  153.70    7.79   0
   2   3 -17  301.91    7.36   0
   2   6 -23  129.44   10.17   0
   3   1 -10    9.73    2.97   0
   3   1  14   85.03    6.98   0
   3   2  17   12.01    6.70   0
   3   3  19   45.17    9.56   0
   4   2  13   13.52    6.41   0
   4   3 -14   -2.32    5.15   0
   4   5 -19    9.64    7.63   0
  -3   7  12   58.36    5.87   0
  -3   8 -11    0.71    3.72   0
  -3   8  14   -2.21    6.82   0
  -3   9 -13   33.87    5.22   0
  -3  10 -15   -1.96    5.60   0
  -2   3   8  758.02    5.83   0
  -2   4  13  119.40    5.23   0
  -2   5 -11    3.01    3.50   0
  -2   7  19    4.19    7.37   0
  -1   1   3 3136.04    4.97   0
  -1   1   4  220.36    2.11   0
  -1   1   5 2235.84    5.59   0
  -1   2  13  134.99    4.42   0
  -1   3  16  252.54    7.16   0
  -1   5  20   -1.94    7.96   0
  -1   9 -23    1.66    8.72   0
   0   0   7 3618.41    7.90   0
   0   4 -17  711.39    8.07   0
   0   4  21    7.26    7.17   0
   0   7 -23   31.43    9.40   0
   1   1  16  872.00   10.28   0
   1   2 -14   54.91    4.53   0
   1   4 -19   50.78    5.82   0
   1   4  22  149.16   11.75   0
   1   5 -21  441.82   10.27   0
   1   6 -23   31.61    8.68   0
   2   0  12  340.05    5.66   0
   2   7 -25   -1.47   10.56   0
   3   0   9   33.55    3.70   0
   3   2 -14    8.49    4.23   0
   3   4 -19   54.33    5.77   0
   3   5 -21   88.15    7.86   0
   3   6 -23   10.77    8.75   0
   4   2 -11  143.54    5.19   0
   4   4 -17  122.79    8.26   0
  -3   6   8  262.77    5.26   0
  -2   3   7   -3.05    2.64   0
  -2   5  15  860.96   11.86   0
  -2   6 -14    8.58    4.74   0
  -2   6  17   25.13    6.76   0
  -2   7 -16  162.27    5.81   0
  -2   8 -18    3.61    5.81   0
  -2  10 -21  102.69   10.36   0
  -1   3 -11 1742.97    8.51   0
  -1   4 -14  120.73    4.52   0
  -1   4  18   49.21    6.45   0
  -1   6  21    1.94    8.03   0
  -1   8 -22  152.20   10.02   0
   0   3 -15  313.23    5.68   0
   0   3  19  280.84    8.86   0
   0   5  22   43.66    9.50   0
   1   2  18   32.86    5.86   0
   1   3 -17  661.93    7.97   0
   1   3  20    5.22    7.13   0
   1   8 -26   50.82   11.03   0
   2   2 -15   17.36    4.64   0
   2   2  18  295.49   10.36   0
   2   3  20   50.18    9.61   0
   2   4 -20  199.15    8.79   0
   2   5 -22   38.14    8.15   0
   3   2  16   58.84    7.62   0
   3   3 -17   40.62    4.52   0
   3   3  18    7.22    8.78   0
   4   1   8   16.51    4.26   0
  -3   6   7    5.72    3.44   0
  -3   7  11   38.23    5.44   0
  -3   8  13   -3.73    6.03   0
  -2   3  -2  240.59    1.53   0
  -2   4  -8    9.13    2.72   0
  -2   4  12  996.16    9.35   0
  -2   7  18   15.61    8.21   0
  -2   8  19   38.11    9.83   0
  -2   9 -20  156.71    9.44   0
  -1   2  12   21.93    3.50   0
  -1   5 -17  628.44    9.13   0
  -1   6 -19  131.09    6.75   0
   0   1  -8  485.38    3.75   0
   0   2 -12 1388.98    7.15   0
   0   4  20   55.28    7.57   0
   0   5 -20   55.54    6.39   0
   0   6 -22   23.33    6.95   0
   0   8 -25   35.28    9.74   0
   1   0  -6  338.77    2.88   0
   1   1 -11 2236.68    8.68   0
   1   1  15  356.24    6.86   0
   1   4  21   17.13    9.34   0
   1   7 -25  332.52   13.55   0
   2   0  11   11.17    3.11   0
   2   1 -12 4307.63   13.16   0
   2   1  15  363.88    8.12   0
   2   3 -18 1364.84   12.09   0
   2   4  21   -9.23    9.36   0
   2   6 -24   14.68    9.55   0
   3   1 -11   39.10    3.17   0
   3   1  13    9.15    5.04   0
   4   1  -7  713.00    6.23   0
   4   2  12   -0.31    5.74   0
   4   3 -15   66.63    6.02   0
  -3   7  -9  410.93    5.69   0
  -3   8 -12   46.16    4.73   0
  -3   9 -14   35.21    6.20   0
  -3   9  14   14.57    7.50   0
  -2   3   6  492.76    4.23   0
  -1   3  15    7.48    4.25   0
  -1   4  17  146.61    7.19   0
  -1   5  19   10.62    7.23   0
  -1   6  20  117.52   10.67   0
  -1   7 -21  147.30    8.28   0
  -1   9 -24   36.27    9.50   0
   0   0   5 4753.96    7.30   0
   0   3  18  102.17    6.62   0
   0   4 -18  808.30    9.32   0
   0   5  21   -5.64    7.99   0
   0   7 -24    4.40    8.09   0
   1   4 -20  113.08    6.67   0
   1   5 -22  258.65    9.23   0
   1   5  22   -9.82    9.88   0
   1   6 -24  159.55    9.19   0
   2   2  17  305.92    9.77   0
   2   3  19   69.51    8.62   0
   3   4 -20   83.01    7.06   0
   3   5 -22   39.28    7.85   0
   4   1   7   -2.39    3.42   0
   4   3  14   12.98    8.07   0
   4   4 -18   67.46    7.05   0
  -3   6  -5    4.33    2.11   0
  -3   6   6   89.27    3.88   0
  -3   7  10   57.71    5.11   0
  -3   8  12   -0.37    5.59   0
  -2   3   5    7.11    2.02   0
  -2   4  11  455.39    6.57   0
  -2   5 -12  669.22    6.50   0
  -2   5  14  504.02    8.61   0
  -2   6 -15   52.91    5.46   0
  -2   6  16  105.51    6.64   0
  -2   7 -17   13.14    4.67   0
  -1   4 -15   11.43    3.96   0
  -1   7  21   74.66   11.77   0
  -1   8 -23  157.48   10.16   0
   0   0   4 1945.60    4.24   0
   0   3 -16 1667.37   10.44   0
   0   6  22   10.92    9.67   0
   1   1  14  318.94    6.12   0
   1   2 -15   53.09    4.36   0
   1   2  17   49.58    5.46   0
   1   3 -18   54.99    5.55   0
   1   3  19  399.51   11.05   0
   2   1  14    4.69    4.67   0
   2   2 -16   57.12    5.18   0
   2   4 -21  212.89    9.17   0
   2   4  20   -0.37    8.96   0
   2   5 -23   32.03    8.59   0
   3   0  -6   35.31    2.02   0
   3   1  12   -4.63    4.74   0
   3   2 -15  101.05    4.26   0
   3   2  15   -7.47    5.91   0
   3   3 -18    8.98    4.73   0
   3   3  17   93.18    8.44   0
   4   2  11   59.61    6.91   0
  -3   9  13   -4.33    6.83   0
  -2   7  17   -3.20    6.38   0
  -2   8  18    6.64    8.27   0
  -2   9 -21   35.52    8.63   0
  -1   3 -12   -3.07    3.09   0
  -1   3  14  528.80    7.42   0
  -1   5 -18  486.52    8.83   0
  -1   5  18   39.61    6.68   0
  -1   6 -20   19.97    6.42   0
  -1   7 -22   77.59    8.70   0
   0   2 -13 3736.98   11.65   0
   0   4  19   66.90    7.12   0
   0   5 -21   10.56    6.36   0
   0   8 -26    3.47    9.45   0
   1   1 -12  316.47    4.54   0
   1   4  20   73.98    9.52   0
   1   7 -26  132.14   10.85   0
   2   0  -8  885.71    4.96   0
   2   1 -13 1039.09    7.90   0
   2   3 -19  470.04    8.87   0
   2   6 -25   98.98   11.88   0
   3   4  18    9.90    9.13   0
   3   5 -23   21.77    8.37   0
   4   1  -8  186.69    4.35   0
   4   1   6    8.08    3.43   0
   4   3 -16  108.95    6.74   0
  -3   6   5   23.61    2.79   0
  -3   7 -10  183.48    4.78   0
  -3   7   9   72.11    4.88   0
  -3  10 -17   -0.84    6.51   0
  -2   3   4  870.14    4.29   0
  -2   4  -9   96.00    3.31   0
  -2   4  10  600.35    7.00   0
  -2   5  13  873.95   10.12   0
  -2   6  15   42.10    5.67   0
  -1   2  -8  283.12    3.14   0
  -1   2  10  505.74    5.43   0
  -1   4  16  146.78    6.06   0
  -1   6  19   14.50    7.84   0
  -1   7  20   40.75    9.31   0
  -1   8 -24  144.99   10.73   0
   0   0   3  978.14    2.62   0
   0   1  -9 4497.83    9.97   0
   0   1  11  176.66    3.51   0
   0   3  17  716.48    9.73   0
   0   4 -19 1099.60   10.48   0
   0   5  20  149.92    9.62   0
   0   6  21   14.54    8.62   0
   0   7 -25   92.36    9.58   0
   1   0  -7  250.70    2.92   0
   1   0   9  244.99    3.56   0
   1   2  16   -6.03    4.77   0
   1   3  18  189.30    8.52   0
   1   4 -21   82.87    7.30   0
   1   5 -23   12.57    7.44   0
   1   5  21    3.49    9.02   0
   2   2  16  590.88   10.36   0
   2   3  18   34.90    7.37   0
   3   2 -16  368.78    6.53   0
   3   2  14    9.34    6.19   0
   3   4 -21   19.99    6.82   0
   4   2 -13  167.21    5.84   0
   4   3  13   17.74    6.68   0
   4   4 -19  147.83    8.48   0
   5   3 -11   20.10    4.86   0
   5   3   6   -1.44    5.18   0
  -3   6  -6    3.84    2.33   0
  -3   8 -13    3.28    4.18   0
  -3   8  11   93.21    6.67   0
  -2   3  -3 1571.28    3.84   0
  -2   5 -13   82.14    4.40   0
  -2   6 -16  141.90    6.29   0
  -2   7  16   38.68    7.50   0
  -2   8 -20   12.88    6.52   0
  -2   8  17   35.73    8.60   0
  -1   4 -16   14.77    4.46   0
   0   3 -17   76.26    4.93   0
   1   2 -16 1266.15    8.98   0
   1   3 -19    6.85    5.43   0
   2   1  13  427.92    7.04   0
   2   2 -17   18.25    5.03   0
   2   4 -22  258.12   10.14   0
   2   4  19   91.76    9.88   0
   2   5 -24   44.66    8.67   0
   2   5  20   12.81   10.39   0
   2   6 -26   48.53   12.24   0
   3   0  -7 1484.57    5.48   0
   3   1  11    5.92    3.78   0
   3   3 -19   19.47    5.37   0
   3   3  16   53.07    7.48   0
   4   2  10   -0.78    5.05   0
   4   3 -17  243.79    8.55   0
  -3   9  12  101.55    8.58   0
  -2   3   3  137.47    2.18   0
  -2   9 -22   45.03    8.18   0
  -1   3 -13  254.96    4.43   0
  -1   3  13  137.53    4.73   0
  -1   4  15   51.54    5.70   0
  -1   5 -19  381.17    7.90   0
  -1   5  17  100.47    6.94   0
  -1   6 -21  215.44    8.48   0
  -1   8  20   34.72   10.19   0
   0   2 -14  383.07    5.06   0
   0   4 -20 1341.17   12.46   0
   0   4  18    7.30    5.18   0
   0   5 -22   10.86    6.75   0
   0   6 -24  188.52   10.12   0
   0   7  21   72.09   12.30   0
   1   0   8  366.98    3.66   0
   1   1 -13 1892.79    9.00   0
   1   4  19   19.49    7.23   0
   1   5  20    8.74    8.22   0
   1   6  21   15.23   11.36   0
   2   0  -9  235.46    3.54   0
   2   1 -14 1836.01    9.99   0
   2   2  15   14.36    6.02   0
   2   3 -20  721.78   10.74   0
   2   3  17   72.15    7.94   0
   3   1 -13  636.07    5.82   0
   3   4 -22  158.65    8.77   0
   3   4  17   -2.31    8.50   0
   3   5 -24    1.01    8.16   0
   4   1  -9  669.48    6.30   0
   4   1   5   15.36    3.14   0
   4   3  12  173.29    9.47   0
   4   4 -20   19.73    7.70   0
   5   3 -12   56.95    5.89   0
  -3   6   4  139.25    3.29   0
  -3   7 -11  331.21    6.11   0
  -3   7   8   31.49    4.33   0
  -3   8 -14    1.56    4.85   0
  -3   8  10   78.42    5.92   0
  -3   9 -16   28.55    6.15   0
  -3  10 -18   17.11    7.13   0
  -2   4 -10   82.39    3.11   0
  -2   4   9 2240.00   10.30   0
  -2   5  12  446.28    7.24   0
  -2   6  14  162.39    6.56   0
  -2   7 -19   50.23    6.94   0
  -2   9  17   -0.86    8.56   0
  -1   2   9  388.57    4.90   0
  -1   6  18  213.97    9.98   0
  -1   7  19  147.42   10.83   0
  -1   8 -25  185.52   11.00   0
   0   1 -10 6192.87   12.27   0
   0   1  10  642.16    4.80   0
   0   5  19   19.39    7.14   0
   0   6  20    4.59    7.88   0
   0   7 -26   53.54    9.97   0
   1   0  -8  216.88    3.07   0
   1   2 -17   43.52    4.90   0
   1   2  15    6.59    4.47   0
   1   3  17   63.12    6.19   0
   1   4 -22  117.14    7.21   0
   2   4 -23   74.72    9.19   0
   2   5 -25   46.25    9.57   0
   3   0   5  210.94    3.16   0
   3   1  10   76.86    4.59   0
   3   2 -17    1.05    4.41   0
   3   2  13   19.50    5.29   0
   3   3 -20    7.26    6.33   0
   3   3  15   55.28    8.18   0
   4   2 -14   85.43    5.37   0
   4   2   9    7.63    4.64   0
   5   3   5    5.24    4.50   0
  -4  11   0    8.51    3.41   0
  -3   6  -7  122.97    3.27   0
  -2   3   2  202.63    1.83   0
  -2   5 -14  469.75    6.64   0
  -2   6 -17    7.95    5.31   0
  -2   7  15    3.78    5.47   0
  -2   8 -21    0.88    6.58   0
  -2   8  16   78.22    8.25   0
  -1   3 -14   -1.71    3.83   0
  -1   3  12  653.46    6.88   0
  -1   4 -17   72.79    5.22   0
  -1   5  16  106.94    6.91   0
   0   3 -18  807.92    8.65   0
   0   4  17    9.06    5.43   0
   0   5 -23   16.40    7.56   0
   1   3 -20  205.72    7.22   0
   1   4  18   21.62    6.85   0
   2   0 -10  933.76    6.12   0
   2   2 -18    0.84    5.19   0
   2   3 -21  313.40   10.17   0
   2   4  18   -4.87    7.98   0
   2   5  19   -1.91    8.55   0
   3   0  -8    5.73    2.17   0
   4   3 -18  266.48   10.22   0
  -3   6   3  364.42    3.96   0
  -3   7   7   15.36    3.60   0
  -3   9 -17  143.77    7.76   0
  -3   9  11   66.56    6.69   0
  -3  10  12    0.73    6.10   0
  -2   3  -4 1626.95    4.60   0
  -2   4   8  458.60    5.70   0
  -2   5  11  351.18    6.86   0
  -2   6  13  150.25    6.50   0
  -2   9 -23   44.39    8.59   0
  -1   2 -10   70.00    3.48   0
  -1   2   8 5485.00   12.99   0
  -1   4  14    6.28    4.11   0
  -1   5 -20   94.30    6.81   0
  -1   6 -22   20.22    7.27   0
  -1   6  17  150.94    9.01   0
  -1   7 -24  103.15    9.26   0
  -1   7  18   73.99    9.64   0
  -1   8  19  -11.21    9.15   0
   0   1   9  615.78    4.39   0
   0   2 -15   50.71    3.96   0
   0   5  18  126.34    7.49   0
   0   6 -25  171.30   10.19   0
   0   7 -27   47.12   10.62   0
   0   7  20   16.70    9.99   0
   1   0  -9  167.94    3.17   0
   1   1 -14 1143.16    7.63   0
   1   2  14   84.91    4.68   0
   1   3  16    0.50    5.77   0
   1   4 -23    7.27    7.35   0
   1   5 -25   -6.70    8.48   0
   1   5  19   33.76    8.71   0
   1   6  20   55.92   11.44   0
   2   1 -15   55.20    4.41   0
   2   3  16  100.97    7.01   0
   3   1 -14  101.59    4.05   0
   3   4 -23   40.99    7.63   0
   3   4  16    2.31    6.87   0
   4   1 -10  326.09    5.33   0
   4   1   4  154.02    4.10   0
   4   2 -15   42.03    5.37   0
   4   3  11  118.76    7.74   0
   4   4  13   51.30    8.82   0
   5   2  -6  185.20    3.48   0
   5   3 -13    9.28    5.59   0
  -3   7 -12  230.65    5.89   0
  -3   8 -15    8.17    4.99   0
  -3   8   9  212.66    7.18   0
  -2   4 -11   77.62    3.01   0
  -2   5 -15  661.23    8.78   0
  -2   7 -20   76.02    7.35   0
  -2   8 -22   12.54    7.41   0
  -2   9  16    5.72    8.33   0
   0   6  19   17.99    6.80   0
   1   1  11  550.58    5.45   0
   1   2 -18  193.41    5.90   0
   1   3 -21   -2.24    6.17   0
   1   6 -27   10.11    9.13   0
   2   0   7  463.66    4.36   0
   2   1  11  544.28    6.64   0
   2   2 -19  277.17    7.80   0
   2   4 -24  106.86    9.61   0
   2   4  17  131.67    9.62   0
   2   5 -26   97.75   11.50   0
   3   0  -9  484.73    4.07   0
   3   1   9    2.38    3.50   0
   3   2 -18  350.00    6.30   0
   3   2  12   32.38    5.01   0
   3   3 -21    2.44    5.84   0
   3   3  14   23.16    6.07   0
   3   5  17   46.26    9.75   0
   5   3   4    9.03    4.46   0
  -4  11  -1    3.80    2.83   0
  -3   6  -8   55.32    3.09   0
  -3   9  10  204.17    8.70   0
  -3  10  11   41.21    7.60   0
  -2   3  -5 1865.31    5.46   0
  -2   3   1  530.77    2.18   0
  -2   7  14    0.45    5.09   0
  -2   8  15   27.39    7.00   0
  -1   3 -15  361.44    5.41   0
  -1   3  11  804.63    7.06   0
  -1   4 -18   90.46    5.44   0
  -1   5  15  248.09    6.90   0
  -1   6 -23    9.63    6.92   0
   0   2 -16  508.26    6.23   0
   0   2  12   64.93    3.49   0
   0   3 -19  614.67    8.08   0
   0   4  16  117.05    5.80   0
   0   5 -24   13.72    7.47   0
   0   6 -26  264.52   11.66   0
   0   8  20  105.97   13.34   0
   1   1 -15    1.45    3.75   0
   1   4  17  114.22    7.51   0
   2   0 -11  596.11    5.27   0
   2   3 -22  875.49   12.80   0
   2   5  18  104.97   10.60   0
   2   6  19   -3.84    9.58   0
   3   1 -15   13.67    3.85   0
   4   1 -11 1203.08    8.70   0
   4   3 -19  197.13    8.48   0
  -3   6   2   75.07    2.40   0
  -3   7 -13  459.50    7.81   0
  -3   7   6   37.97    3.59   0
  -3   9 -18   99.18    8.18   0
  -2   4 -12    3.84    3.36   0
  -2   4   7 1749.78    8.65   0
  -2   5  10  930.95    8.46   0
  -2   6  12   13.20    4.18   0
  -1   2 -11  293.65    4.12   0
  -1   2   7 1645.25    7.05   0
  -1   4  13  104.64    4.66   0
  -1   5 -21   27.13    6.47   0
  -1   6  16  328.49   10.09   0
  -1   7 -25  101.04    9.78   0
  -1   7  17   71.21    7.97   0
  -1   8  18   10.62    8.35   0
   0   0  -3 1034.09    2.77   0
   0   1 -12 5680.00   13.17   0
   0   1   8  913.21    4.74   0
   0   4 -22  799.45   11.30   0
   0   5  17  187.28    8.72   0
   0   6  18   38.64    7.00   0
   0   7  19   18.58    8.79   0
   1   0 -10 1706.75    7.26   0
   1   0   6   41.05    1.79   0
   1   2 -19  291.76    7.47   0
   1   2  13  592.12    7.33   0
   1   4 -24   -4.31    7.48   0
   1   5 -26   -3.53    8.82   0
   1   6  19   30.75    9.71   0
   2   1 -16 1171.65    9.03   0
   2   2  13   20.06    4.98   0
   2   3  15   20.66    5.70   0
   3   0 -10  376.97    4.03   0
   3   2 -19  153.78    6.14   0
   3   4 -24   26.05    7.67   0
   3   4  15   -1.77    6.81   0
   3   5  16    4.04    8.44   0
   4   1   3    9.72    2.69   0
   4   2 -16   23.08    5.21   0
   4   3  10  144.74    7.74   0
   4   4  12  109.29    8.81   0
  -3   6  -9  246.00    4.72   0
  -3   8 -16    4.61    5.59   0
  -3   8   8   23.51    4.60   0
  -2   3  -6 3134.12    7.63   0
  -2   5 -16  380.07    7.09   0
  -2   6 -19   11.49    5.40   0
  -2   7 -21   35.49    6.86   0
  -2   7  13   84.50    6.27   0
  -2   8 -23    7.82    7.46   0
  -2   9  15   20.68    7.58   0
  -1   3 -16  498.67    6.83   0
  -1   4 -19   16.30    5.02   0
  -1   9  18    8.25    8.77   0
   0   0  -4 1980.94    4.33   0
   0   3 -20 1065.81   10.21   0
   1   1  10   67.40    3.01   0
   1   3 -22  166.40    7.69   0
   2   0 -12 1000.84    6.69   0
   2   0   6  229.52    3.24   0
   2   1  10  253.77    4.74   0
   2   2 -20   -2.67    6.07   0
   2   3 -23  684.99   13.21   0
   2   4 -25   12.49    8.59   0
   2   4  16    9.32    7.20   0
   2   6  18   -3.79    9.26   0
   3   1   8  482.38    6.39   0
   3   2  11  639.83    9.17   0
   3   3 -22    3.66    5.90   0
   3   3  13    9.72    5.16   0
   4   1 -12  762.00    7.82   0
   4   3 -20  153.93    8.90   0
   5   3   3    4.73    3.82   0
  -3   9   9  174.99    8.27   0
  -3  10  10   51.82    7.38   0
  -2   4 -13  365.45    5.71   0
  -2   8  14   99.74    7.42   0
  -2  10  15   57.85    9.70   0
  -1   3  10    4.73    3.11   0
  -1   5 -22  103.70    7.48   0
  -1   5  14  150.12    6.15   0
  -1   6 -24   68.78    8.57   0
  -1   7 -26   75.94   10.06   0
  -1   8  17   50.99    8.76   0
   0   1 -13  212.67    3.98   0
   0   2 -17   36.89    4.30   0
   0   2  11  687.60    5.47   0
   0   4 -23  192.35    7.96   0
   0   5 -25  105.43    9.15   0
   0   6 -27  182.39   11.80   0
   0   8  19  125.94   12.72   0
   1   0 -11  392.67    4.72   0
   1   1 -16  225.61    5.31   0
   1   5 -27   -0.65    9.80   0
   1   6  18  317.34   14.53   0
   1   7  19  139.92   13.42   0
   2   1 -17  480.98    7.40   0
   2   5  17   22.93    8.56   0
   3   0 -11  128.72    3.41   0
   3   1 -16    3.36    3.49   0
   4   2 -17   -0.30    5.59   0
  -4  11  -2    8.32    2.68   0
  -3   6 -10   94.94    4.08   0
  -3   7 -14  206.44    6.30   0
  -3   7   5  168.91    4.42   0
  -3   8 -17   10.33    5.67   0
  -3   9 -19   64.49    7.08   0
  -2   3  -7  199.12    3.06   0
  -2   5 -17  284.48    7.38   0
  -2   5   9  138.85    4.41   0
  -2   6  11  351.43    6.70   0
  -2   7 -22    3.95    7.54   0
  -1   4 -20   28.88    5.99   0
  -1   4  12  379.09    5.66   0
  -1   6  15  597.38   10.74   0
  -1   7  16  190.27    9.34   0
   0   5  16   25.54    5.68   0
   0   6  17    9.62    6.13   0
   0   7  18   92.41    9.98   0
   1   3 -23   66.14    7.54   0
   1   3  14  380.56    7.07   0
   1   5  17  207.51    9.11   0
   2   0 -13  432.76    5.94   0
   2   2 -21  340.77    9.85   0
   2   2  12   29.56    4.46   0
   2   3  14   68.85    6.02   0
   2   4 -26    1.60    9.48   0
   3   2 -20  225.95    7.10   0
   3   3 -23    1.57    6.39   0
   3   4  14   84.74    7.83   0
   3   5  15  133.55   11.07   0
   4   3   9  252.78    8.93   0
   4   4  11   91.71    7.79   0
  -3   6   1  384.59    3.24   0
  -3   8   7  314.96    6.90   0
  -2   4   6   73.96    2.70   0
  -2   6 -20    2.80    5.41   0
  -2   7  12   39.14    5.06   0
  -2   8  13   -1.33    6.33   0
  -2   9  14    9.75    6.49   0
  -1   2 -13  410.91    4.98   0
  -1   2   6 4003.09    8.81   0
  -1   3 -17  250.60    5.73   0
  -1   6 -25   28.96    8.62   0
  -1   9  17   53.02    9.58   0
   0   0  -6  197.24    2.43   0
   0   1 -14  839.22    6.48   0
   0   2 -18  310.48    6.46   0
   0   3 -21  808.35   10.08   0
   0   5 -26   93.95    9.13   0
   0   8  18   15.82    9.27   0
   1   0 -12 5087.51   13.48   0
   1   0   5   18.18    1.43   0
   1   1 -17   44.60    4.86   0
   1   1   9    7.70    2.63   0
   2   1 -18  180.13    6.46   0
   2   3 -24  172.88   10.10   0
   2   4  15  106.91    7.84   0
   2   6  17    5.03    8.79   0
   3   1 -17   23.36    4.44   0
   3   1   7  162.67    4.47   0
   3   2  10  134.69    5.26   0
   3   3  12  167.11    6.77   0
   4   1 -13  922.83    8.72   0
   4   2 -18   97.03    7.14   0
   5   3   2   16.71    3.75   0
  -3   6 -11  140.78    4.91   0
  -3   7 -15   79.06    5.70   0
  -3   9   8  124.61    7.03   0
  -3  10   9   24.83    6.11   0
  -2   3  -8 1352.57    5.85   0
  -2   3   0  269.30    1.15   0
  -2   4 -14  315.63    5.58   0
  -2   5 -18   43.56    5.93   0
  -2  10  14   12.32    7.93   0
  -1   1  -4 7189.99    8.08   0
  -1   1  -3 1285.54    3.08   0
  -1   3   9 2209.48    9.59   0
  -1   5 -23   11.61    7.08   0
  -1   5  13    5.00    4.55   0
  -1   8  16   31.92    7.91   0
   0   0  -7 3683.15    7.86   0
   0   2  10  269.60    3.70   0
   0   4 -24  119.38    8.51   0
   1   2 -21  764.43   10.68   0
   1   4 -26    7.41    8.68   0
   1   4  15  147.30    6.82   0
   1   6  17   30.23    8.01   0
   2   0 -14    2.47    4.34   0
   3   2 -21   31.48    5.70   0
   3   3 -24   15.47    7.92   0
  -4  11  -3    2.03    2.54   0
  -3   8 -18   59.33    6.46   0
  -2   3  -9  674.86    5.16   0
  -2   5   8 1567.46    9.08   0
  -2   6 -21   31.88    7.04   0
  -2   6  10   21.59    4.34   0
  -2   7 -23   18.72    7.54   0
  -1   2 -14  291.16    4.66   0
  -1   3 -18  321.21    6.70   0
  -1   4 -21    0.76    5.93   0
  -1   4  11    4.73    3.30   0
  -1   6  14  251.57    7.20   0
  -1   7  15   33.11    6.69   0
   0   1 -15  593.45    6.18   0
   0   2 -19  272.31    6.40   0
   0   3 -22  452.80    9.23   0
   0   5  15  562.43    9.74   0
   0   6  16  127.95    8.19   0
   0   7  17   -2.35    7.10   0
   0   9  18   40.44   10.85   0
   1   0 -13 2057.16    9.69   0
   1   1 -18  215.19    6.01   0
   1   3 -24  101.39    8.95   0
   1   5  16    2.72    6.04   0
   2   1 -19  136.91    6.56   0
   2   2 -22  174.80    8.29   0
   2   2  11    4.16    3.91   0
   2   3 -25   98.49    9.85   0
   2   3  13  106.68    6.62   0
   2   7  17   27.86   11.18   0
   3   1 -18   -2.53    4.83   0
   3   4  13   28.95    6.31   0
   3   5  14   10.91    8.30   0
   3   6  15    9.40    8.39   0
   4   1 -14  349.61    6.79   0
   4   3   8  100.15    6.50   0
   4   4  10  184.29    8.70   0
  -3   6 -12  553.79    7.60   0
  -3   7 -16   14.72    5.03   0
  -3   7   4   69.70    3.48   0
  -3  11   9    0.62    6.51   0
  -2   4 -15 1040.19    8.75   0
  -2   7  11  126.98    6.00   0
  -2   8  12   40.81    6.11   0
  -2   9  13   -2.31    6.13   0
  -1   1  -6    3.76    1.49   0
  -1   1  -2  865.27    2.09   0
  -1   5 -24   44.43    7.92   0
  -1   6 -26    9.65    8.14   0
  -1   9  16    1.36    7.94   0
   0   0  -8  811.80    4.41   0
   0   4 -25    1.71    7.59   0
   0   5 -27  130.50   10.17   0
   0   8  17   66.66    9.46   0
   1   2 -22  379.42   10.18   0
   1   4 -27  129.25   10.78   0
   2   0 -15  408.06    6.60   0
   2   4  14  125.58    7.81   0
   2   6  16    1.45    7.43   0
   3   2 -22   29.05    6.36   0
   3   2   9  676.76    8.56   0
   3   3  11   15.53    4.78   0
   4   2 -19   52.98    6.29   0
  -3   8 -19   67.54    7.29   0
  -3   9   7   82.09    5.52   0
  -3  10   8   35.65    6.26   0
  -2   3 -10 1553.69    6.96   0
  -2   5 -19  340.52    7.67   0
  -2   6 -22   65.93    8.14   0
  -2   7 -24   17.78    8.36   0
  -2  10  13  103.98    9.48   0
  -1   2 -15    0.62    3.53   0
  -1   2   5 1264.85    4.65   0
  -1   3 -19   -1.56    4.71   0
  -1   5  12  874.89    8.79   0
  -1   8  15   28.59    7.19   0
  -1  10  16   29.76    8.99   0
   0   0  -9   30.67    2.49   0
   0   1 -16 1066.88    8.26   0
   0   1   6 3824.20    7.66   0
   0   2 -20  111.46    5.55   0
   0   2   9  113.05    2.79   0
   1   0 -14 1632.39    9.31   0
   1   1 -19   -0.85    4.83   0
   1   1   8  505.32    4.35   0
   1   4  14   50.42    5.26   0
   1   6  16  225.31    9.80   0
   1   7  17  130.57   10.57   0
   2   2 -23  149.52    8.54   0
   2   5  15   52.95    7.61   0
   3   0 -14 1184.54    7.93   0
   3   1 -19  111.18    5.96   0
   4   1 -15   82.93    5.30   0
   4   1   1   33.97    2.51   0
   4   2   5   34.48    3.64   0
   5   3   1   -1.18    3.38   0
  -4  10  -8    1.54    2.15   0
  -3   6 -13  279.13    6.30   0
  -3   7 -17    2.92    5.23   0
  -2   3 -11  752.89    5.80   0
  -2   4 -16  454.50    6.72   0
  -2   6   9   47.11    4.34   0
  -1   1  -8  244.29    2.89   0
  -1   3   8  576.54    5.13   0
  -1   5 -25   23.60    7.66   0
  -1   6  13 1380.90   12.93   0
  -1   7  14  325.26    9.77   0
   0   0 -10   17.30    2.50   0
   0   3  11 1444.11    8.80   0
   0   4 -26   -1.94    7.79   0
   0   5 -28   42.67   10.55   0
   0   5  14   37.48    5.05   0
   0   6  15   53.45    6.70   0
   0   7  16  185.16    8.95   0
   0   9  17    1.12    9.43   0
   1   5  15  555.56   11.95   0
   1   8  17  -12.01    9.75   0
   2  -1  -5 2633.00    6.08   0
   2  -1  -4  253.15    2.32   0
   2   0 -16   33.59    5.17   0
   2   1 -20    3.44    5.69   0
   2   2  10  145.83    5.15   0
   2   3 -26    2.99    8.57   0
   2   3  12  722.64    9.85   0
   2   7  16   49.73   10.28   0
   3   5  13  234.96   10.37   0
   3   6  14   93.15    9.94   0
   4   2 -20   15.01    6.71   0
   4   3   7  415.61    9.24   0
   4   4   9   56.60    6.72   0
  -4  10  -9    6.11    2.65   0
  -3   8 -20   66.77    7.61   0
  -3   8   5  256.52    5.67   0
  -3  11   8   28.63    6.58   0
  -2   5 -20  158.22    6.85   0
  -2   5   7  128.62    3.82   0
  -2   9  12   77.06    7.28   0
  -1   1  -9 2381.30    7.57   0
  -1   2 -16  204.65    4.97   0
  -1   3 -20  443.31    7.86   0
  -1   4 -23   -2.52    6.54   0
  -1   4  10  595.90    5.85   0
  -1   9  15   88.52    9.79   0
   0   1 -17  697.52    7.80   0
   0   2 -21  245.75    7.81   0
   0   3 -24   84.58    8.19   0
   0   8  16    9.07    7.55   0
   1   1 -20   17.56    6.18   0
   1   2 -23  822.60   11.99   0
   1   4 -28   39.93    9.86   0
   2  -1  -8 1246.43    6.02   0
   2  -1  -7  803.33    4.44   0
   2   2 -24  110.33    8.84   0
   2   4  13  319.09    8.89   0
   2   6  15   52.49    9.07   0
   3   0 -15  225.01    4.87   0
   3   1 -20    9.55    5.35   0
   3   2 -23  208.70    8.59   0
   4   1 -16  426.07    8.52   0
   4   5  10    2.75    7.10   0
  -4  10 -10   -1.96    2.95   0
  -4  11  -4    6.15    2.69   0
  -3   6 -14  496.92    8.37   0
  -3   7 -18   18.98    5.67   0
  -3   7   3  267.09    4.18   0
  -3  10   7    0.24    5.25   0
  -2   3 -12  311.01    4.23   0
  -2   4 -17  327.15    6.41   0
  -2   6 -23   14.23    7.00   0
  -2   7  10   78.59    4.89   0
  -2   8  11   14.39    4.62   0
  -2  10  12  125.95    9.08   0
  -1   1 -10  988.29    5.58   0
  -1   5 -26   12.65    8.82   0
  -1   8  14    9.23    6.60   0
  -1  10  15    0.37    8.35   0
   0   0 -11  136.62    3.08   0
   1   0 -16  734.46    8.04   0
   1   6  15  136.93    9.40   0
   1   7  16   15.97    7.08   0
   2  -1  -9  144.95    3.61   0
   2   0 -17  612.95    8.07   0
   2   1 -21   23.92    6.32   0
   2   3 -27   20.12    9.50   0
   2   5  14   -4.01    6.58   0
   3   2   8  107.83    4.10   0
   3   7  14    5.70    8.70   0
   4   1 -17   -2.03    5.49   0
   4   2 -21  107.23    8.22   0
   5   4   3   37.43    5.68   0
  -4  10 -11    2.01    3.31   0
  -3   9   6   89.92    5.11   0
  -2   3 -13  193.24    4.48   0
  -2   4   4  179.88    2.69   0
  -2   5 -21   94.12    6.75   0
  -2  11  12   24.21    8.73   0
  -1   1 -11 1239.72    6.82   0
  -1   2 -17    8.91    4.31   0
  -1   3 -21  292.09    7.85   0
  -1   4 -24    6.32    7.27   0
  -1   5  11   32.77    3.71   0
  -1   6  12   86.92    5.72   0
  -1   7  13   31.66    5.83   0
   0   0 -12   92.40    3.17   0
   0   1 -18  123.09    5.20   0
   0   4 -27   10.01    7.43   0
   0   6  14  105.32    7.10   0
   0   7  15   31.56    6.84   0
   0   9  16   -2.93    7.72   0
   0  10  16   41.18    9.74   0
   1   2 -24  317.25   10.28   0
   1   3 -27    0.36    9.04   0
   1   5  14  369.43    9.38   0
   2  -1 -10  518.24    5.12   0
   2  -1  -3 8747.69    7.55   0
   2   2 -25   42.29    8.71   0
   2   7  15    1.14    8.74   0
   3   0 -16  256.57    5.05   0
   3   0   1   19.26    1.43   0
   3   2 -24   95.06    7.81   0
   3   4  11   -2.02    4.99   0
   3   6  13   60.07    8.45   0
   4   2   4  163.15    4.59   0
   4   4   8  185.20    7.94   0
   5   3   0   81.52    4.68   0
  -3   6 -15  183.43    6.21   0
  -3   7 -19    4.99    6.08   0
  -3  11   7    3.62    6.06   0
  -2   4 -18  404.28    7.46   0
  -2   6 -24   80.62    8.20   0
  -2   6   8  252.12    5.23   0
  -2   9  11   56.06    6.41   0
  -1   2   4 1966.74    5.05   0
  -1   3   7 3486.42    9.66   0
  -1   4   9  232.26    4.13   0
  -1   9  14    7.66    7.35   0
   0   0 -13  549.23    5.22   0
   0   1   5 3103.11    6.11   0
   0   2 -22   12.37    5.38   0
   0   3 -25  160.81    8.90   0
   0   3  10   44.45    2.93   0
   0   8  15  115.73   10.70   0
   1  -1  -8   23.56    2.41   0
   1  -1  -7 3023.00    7.61   0
   1  -1  -6  405.37    2.94   0
   1  -1  -5 2353.69    5.50   0
   1   0 -17 1283.13   10.13   0
   1   9  16    5.86    9.60   0
   2  -1 -11  180.45    4.18   0
   2   0 -18  102.93    5.58   0
   2   1 -22   11.98    6.94   0
   2   2   9   36.11    4.10   0
   3   1 -21  116.54    6.25   0
   4   1 -18   21.78    5.89   0
   4   3   6  152.75    5.94   0
   4   5   9   17.84    6.89   0
   4   6  10   -3.10    7.14   0
  -3   6 -16  154.56    6.43   0
  -3   8   4  652.37    7.13   0
  -2   3 -14   48.67    3.54   0
  -2   4 -19  386.05    8.30   0
  -2   5 -22   30.91    6.63   0
  -2   5   6  160.60    3.71   0
  -2   7   9  731.87    9.01   0
  -2   8  10   26.49    4.51   0
  -2  10  11  120.38    8.96   0
  -1   1 -12 1420.96    7.36   0
  -1   1  -1 9330.38    4.20   0
  -1   2 -18   39.91    5.11   0
  -1   3 -22  471.92    9.68   0
  -1   5 -27   23.00    9.33   0
  -1   8  13   -2.01    6.81   0
  -1  10  14   15.44    8.44   0
  -1  11  14   -4.48    8.68   0
   0   1 -19  231.48    5.99   0
   0   4 -28    6.49    9.07   0
   1  -1  -9   34.53    2.46   0
   1  -1  -4  217.67    1.93   0
   1   1 -22  378.20    9.75   0
   1   2 -25  286.73   10.54   0
   1   2   9  608.59    5.67   0
   1   7  15    8.94    7.76   0
   2  -1 -12  194.31    4.73   0
   2   2 -26   30.22    9.02   0
   2   5  13  472.18   10.81   0
   2   6  14    7.37    7.29   0
   2   8  15    9.72   10.01   0
   3   0 -17  182.26    5.22   0
   3   1 -22  169.72    7.71   0
   3   2   7  403.63    6.12   0
   3   3   9   11.76    3.92   0
   3   7  13    3.88    9.11   0
   4   0 -10  241.37    4.37   0
   4   0  -9   33.78    3.07   0
   4   0  -8  172.28    3.12   0
   4   0  -7   69.54    2.42   0
   4   1   0    3.31    1.93   0
  -3   5  -9  107.60    3.34   0
  -3   5  -8   22.03    2.44   0
  -3   5  -7  511.62    4.31   0
  -3   7 -20   -5.85    6.44   0
  -3   7   2   27.34    2.72   0
  -3   9   5  322.30    6.93   0
  -2   3 -15   42.80    4.57   0
  -2   6 -25   34.77    8.55   0
  -2  11  11  141.40    9.88   0
  -1   4 -25   21.35    7.46   0
  -1   5  10  526.37    6.56   0
   0   0 -14  174.86    4.27   0
   0   2 -23    5.53    5.67   0
   0   3 -26   73.93    8.40   0
   0   9  15   17.01    8.74   0
   0  10  15  235.71   14.40   0
   1  -1 -10  131.44    3.48   0
   1   3 -28   24.70    9.85   0
   1   6  14  391.66   11.18   0
   1   8  15   -8.03    7.97   0
   2  -1 -13   97.39    4.40   0
   2   0 -19   60.15    5.45   0
   2   1 -23   11.09    7.50   0
   3   0 -18  116.82    4.96   0
   3   4  10    6.60    5.22   0
   4   0 -11   30.58    3.44   0
   4   1 -19   14.80    6.87   0
   5   4   2   17.51    5.07   0
  -3   5 -10    1.36    2.79   0
  -3   5  -6  215.29    2.85   0
  -3   6 -17  101.75    6.31   0
  -3  11   6   49.56    6.18   0
  -2   4 -20  807.81   10.79   0
  -2   5 -23    6.55    6.22   0
  -2   9  10   12.17    6.12   0
  -1   1 -14 1666.97    8.96   0
  -1   2 -19  229.21    5.74   0
  -1   3 -23  154.86    7.85   0
  -1   6  11  174.68    5.76   0
  -1   7  12  298.27    7.32   0
  -1   9  13   24.29    7.35   0
   0   0 -15  529.27    6.24   0
   1  -1 -12   60.46    3.92   0
   1  -1 -11  508.82    4.93   0
   1   0 -19  965.07   11.43   0
   1   1 -23  129.24    7.66   0
   1   2 -26   82.31    8.86   0
   2   3  10   45.52    4.42   0
   3   1 -23  134.45    8.32   0
   3   5  11  165.35    7.81   0
   4   0 -12 1015.83    7.74   0
   4   2   3   29.76    3.32   0
   4   4   7   14.76    5.06   0
   4   6   9   16.96    7.69   0
  -3   5 -12    1.90    3.29   0
  -3   5 -11   15.97    3.03   0
  -3   6  -1  215.46    2.25   0
  -3   7 -21    3.76    6.80   0
  -2   3 -16  105.75    4.52   0
  -2   6   7   64.59    3.64   0
  -2   8   9  110.78    6.00   0
  -1   2 -20  200.79    6.83   0
  -1   4 -26   13.12    7.80   0
  -1   4   8  698.54    6.20   0
  -1  10  13   63.56    8.63   0
  -1  11  13   64.52    9.72   0
   0   2 -24   43.67    6.47   0
   0   2   7   33.01    2.14   0
   0   3   9 2285.58    9.29   0
   1  -1  -3 3035.54    4.51   0
   1   1   6 1034.91    4.78   0
   2  -1 -14  189.07    5.03   0
   2   1 -24   13.18    7.61   0
   2   6  13  119.52    8.56   0
   2   8  14    8.88    9.09   0
   3  -1 -10   86.21    3.43   0
   3  -1  -9   67.64    2.92   0
   3  -1  -8  324.38    3.48   0
   3  -1  -7  310.80    3.15   0
   3   0 -19  187.55    5.95   0
   3   7  12    5.89    7.78   0
   4   0 -13  305.29    5.52   0
   4   1 -20   19.64    6.75   0
   4   5   8    0.57    5.64   0
   5   3  -1   77.11    4.51   0
  -3   5 -13  150.42    5.03   0
  -3   5  -5  406.72    2.89   0
  -3   6 -18   67.81    5.87   0
  -3  10   5   -0.30    4.51   0
  -2   3 -17   26.23    5.14   0
  -2   4 -21  312.45    8.26   0
  -2   4   3  217.04    2.50   0
  -2   5 -24    3.39    6.58   0
  -2   7   8  140.09    4.78   0
  -2  10  10  299.21   10.50   0
  -1   1 -15   20.81    3.89   0
  -1   3 -24   73.51    7.79   0
  -1   3   6 2105.39    6.81   0
  -1   8  12   30.29    6.09   0
   0   0 -16   11.93    3.89   0
   0   1 -21  127.70    6.02   0
   0   2 -25    2.77    7.32   0
   0   7  13   86.16    7.52   0
   0  10  14   11.32    9.46   0
   1  -1 -13 1726.93    9.71   0
   1   0 -20   40.64    6.09   0
   1   2 -27   96.17    9.98   0
   1   2   8 1856.16    8.40   0
   2  -1 -15  168.94    5.11   0
   2   0 -21    5.74    6.14   0
   2   9  14   38.90   11.32   0
   3  -1 -12  597.41    6.02   0
   3  -1 -11  169.75    4.08   0
   3   1 -24  151.57    9.08   0
   3   3   8  133.35    5.02   0
  -4  11  -5    5.80    2.57   0
  -3   6 -19  136.28    7.77   0
  -3   8   3   35.81    3.20   0
  -3   9   4   72.67    4.33   0
  -2   5   5   10.79    2.77   0
  -2  11  10   29.19    7.55   0
  -2  12  10    7.72    7.57   0
  -1   1 -16  671.22    7.26   0
  -1   2 -21 1027.97   11.89   0
  -1   4 -27   24.67    9.24   0
  -1   5   9   20.53    3.47   0
  -1   7  11   14.86    4.81   0
  -1   9  12  163.61    9.11   0
   0   0 -17   85.07    5.05   0
   0   1 -22   37.69    6.24   0
   0   1   4 2442.19    4.89   0
   0   3 -28   27.50    9.55   0
   0   4  10 2419.44   11.79   0
   0   6  12  135.17    5.78   0
   0  11  14  164.65   13.70   0
   1  -1 -14  123.88    4.45   0
   1   9  14   11.12    9.30   0
   2  -1 -16   -3.23    4.85   0
   2  -1  -2 1156.38    2.01   0
   2   1 -25   31.64    8.39   0
   3  -1 -13 1208.45    8.53   0
   3  -1  -6   39.65    1.99   0
   3   0 -20   10.33    4.70   0
   3   2   6 1041.64    8.42   0
   3   4   9   70.17    5.59   0
   3   5  10  205.23    8.28   0
   3   6  11  143.84    8.38   0
   3   8  12   38.75   10.23   0
   4   0 -15  256.31    6.52   0
   4   4   6   35.49    5.43   0
   5   4   1   26.71    4.69   0
  -3   5 -14   47.69    4.23   0
  -3  11   5   32.40    5.83   0
  -2   3 -18  250.69    6.24   0
  -2   4 -22  264.56    7.90   0
  -2   5 -25   36.29    7.86   0
  -2   9   9   85.89    5.70   0
  -1   1 -17   35.33    4.46   0
  -1   2   3 3005.88    5.30   0
  -1   3 -25   71.00    7.95   0
  -1   6  10    0.11    3.98   0
  -1  10  12   12.47    7.86   0
   0   0 -18    6.10    4.10   0
   0   2 -26   69.73    8.36   0
   0   8  13    3.06    6.62   0
   1  -1 -15 1094.93    9.09   0
   1   0 -21   12.69    5.70   0
   1   1 -25   64.26    8.74   0
   1   7  13    5.40    6.29   0
   1  10  14   21.08    9.49   0
   2   0 -22  142.83    8.40   0
   2   3   9 1546.49   10.53   0
   2   6  12   13.31    6.84   0
   3  -1 -14  400.14    6.42   0
   3   0 -21   18.88    5.43   0
   4   0 -16   91.95    5.79   0
   4   5   7    0.95    5.87   0
   4   6   8    8.49    6.39   0
  -3   5 -15  130.73    5.53   0
  -3   6 -20   10.07    6.57   0
  -3   7   1  127.33    2.89   0
  -3  12   5   22.94    6.53   0
  -2   2 -11 2320.64    8.76   0
  -2   2 -10 1092.34    5.68   0
  -2   2  -9 5117.22   10.69   0
  -2   2  -8 1797.75    6.29   0
  -2   2  -7 3824.03    8.23   0
  -2   3 -19  269.54    7.15   0
  -2   6   6  142.61    3.87   0
  -2   8   8   66.65    5.10   0
  -2  10   9   43.19    7.35   0
  -1   2 -22  302.27    8.92   0
  -1   8  11  308.03    8.69   0
  -1  11  12    6.12    8.51   0
   0   1 -23  205.91    8.42   0
   0   3   8 1289.47    6.80   0
   0   9  13    5.57    7.53   0
   1  -1 -16  873.02    8.76   0
   1   0 -22   44.68    6.99   0
   1   3   9  938.59    7.32   0
   2  -1 -17  118.93    5.60   0
   2   1 -26    7.46    8.43   0
   3  -1 -15  832.83    8.99   0
   3   0   0 1476.60    3.84   0
   3   7  11   20.69    7.36   0
   4   0 -17  268.91    8.05   0
   4   1  -1   25.01    2.08   0
  -4   9 -12   43.61    3.88   0
  -4   9 -11   18.57    3.00   0
  -3   5 -16    5.67    4.47   0
  -3  10   4    2.61    4.62   0
  -2   2 -13  638.82    6.31   0
  -2   2 -12  827.24    5.82   0
  -2   4 -23   39.85    6.82   0
  -2   7   7    8.72    3.80   0
  -2  11   9  151.30    8.75   0
  -2  12   9    5.92    7.79   0
  -1   1 -18  213.50    6.35   0
  -1   2 -23  366.79    9.94   0
  -1   3 -26    1.12    7.59   0
  -1   4   7  131.83    3.33   0
   0   0 -19   22.20    4.58   0
   0   2 -27    1.03    7.28   0
   0   7  12   14.36    5.40   0
   0  10  13  229.60   12.32   0
   0  11  13   -0.67    9.36   0
   1  -1 -17 1042.36   10.00   0
   1   1 -26  183.36   10.78   0
   1   8  13   15.07    7.04   0
   2  -1 -18   13.53    4.84   0
   2   0 -23   33.02    7.34   0
   2   1 -27    6.67    8.55   0
   2   7  12   87.42    8.59   0
   3  -1 -16  185.65    6.20   0
   3  -1  -5  297.86    2.19   0
   3   0 -22   10.45    5.13   0
   3   1   3 1491.64    6.52   0
   3   3   7   92.16    4.22   0
   3   6  10    0.13    5.89   0
   3   8  11    9.89    8.22   0
   5   3  -2   59.65    4.18   0
  -4   9 -13    2.00    3.44   0
  -3   5 -17   36.69    5.20   0
  -3   6 -21   14.45    7.14   0
  -3   8   2  246.02    4.62   0
  -3   9   3  308.48    5.99   0
  -3  11   4   63.52    6.58   0
  -2   2 -14  438.72    5.84   0
  -2   2  -6  997.18    4.06   0
  -2   3 -20  248.08    7.19   0
  -2   9   8    1.36    4.91   0
  -1   1 -19    1.22    4.99   0
  -1   3   5 1788.55    6.12   0
  -1   7  10   64.17    5.19   0
  -1   9  11   32.53    6.54   0
   0  -1 -11  165.76    3.34   0
   0  -1 -10  799.13    5.33   0
   0  -1  -9  643.87    4.43   0
   0   0 -20  140.29    6.04   0
   0   1 -24  189.50    8.66   0
   0   4   9 1317.34    8.21   0
   1  -1 -18  917.88   11.24   0
   1   0 -23   21.86    6.76   0
   1   1   5 3373.62    7.43   0
   1   2   7 1631.06    7.32   0
   1  10  13   -9.86    8.90   0
   2   0 -24  151.71   10.23   0
   2   0   2 1025.79    3.32   0
   2   8  12   -0.15    8.16   0
   3   2   5  832.90    7.55   0
   3   4   8   20.73    4.00   0
   4   0 -18   87.34    6.40   0
   4   4   5   67.60    5.27   0
   4   6   7   45.26    7.83   0
   5   4   0   36.78    4.77   0
  -3   5 -18  139.26    6.26   0
  -3  12   4   26.60    6.96   0
  -2   2 -15   73.62    4.66   0
  -2   3 -21  292.67    8.08   0
  -2   5   4  328.67    3.77   0
  -1   0 -10 3987.78   11.37   0
  -1   1 -20   83.65    6.56   0
  -1   2 -24  130.00    8.40   0
  -1   3 -27    3.60    8.84   0
  -1   5   8  554.77    5.44   0
  -1   6   9  212.91    4.83   0
  -1  10  11   48.63    7.60   0
  -1  11  11  128.05   10.18   0
  -1  12  11   25.02    8.69   0
   0  -1 -13  470.99    5.45   0
   0  -1 -12  669.44    5.71   0
   0  -1  -7  379.19    3.25   0
   0   1 -25   -8.08    7.42   0
   0   2 -28   11.41    8.54   0
   0   9  12  238.35   10.88   0
   1   1 -27  131.98   10.86   0
   1   7  12  233.08    9.14   0
   2   3   8  138.58    5.22   0
   2   6  11   15.33    6.53   0
   2   9  12   79.35   10.87   0
   2  10  12   13.73   10.63   0
   3   0 -23   13.52    5.73   0
   3   7  10    3.59    6.04   0
   4   0 -19  110.22    7.29   0
   4   5   6   10.48    4.71   0
  -3   6 -22    4.45    6.20   0
  -2   2 -16  636.39    7.30   0
  -2   2  -5    7.32    1.54   0
  -2   4   2  758.83    3.38   0
  -2   8   7  171.27    5.77   0
  -2  10   8  194.53    7.99   0
  -2  11   8    6.45    6.80   0
  -2  12   8    2.70    7.95   0
  -1   0 -13  706.53    6.85   0
  -1   0 -12 1700.33    9.02   0
  -1   0 -11  583.11    5.31   0
  -1   0  -9  267.58    3.61   0
  -1   0  -8  364.07    3.49   0
  -1   8  10  268.21    7.44   0
   0  -1 -14   87.34    3.89   0
   0   0 -21    1.64    5.08   0
   0  11  12  108.80   11.50   0
   1  -1 -19  124.78    6.52   0
   1   0 -24   15.66    7.11   0
   1   6  11  645.13   10.85   0
   1   8  12  139.15    9.25   0
   2   0 -25   39.14    8.66   0
   2   4   9  367.73    6.87   0
   2   5  10   49.11    5.48   0
   3  -1 -18  421.91    7.87   0
   3   0 -24   18.00    6.31   0
   3   8  10   98.87    9.92   0
   4   0 -20   13.67    6.55   0
   4   7   7   11.03    7.72   0
  -3   5 -19   96.62    6.44   0
  -3  10   3   26.80    4.67   0
  -2   2 -17   31.33    5.22   0
  -2   3 -22   36.56    5.91   0
  -2   6   5 1000.78    6.75   0
  -2   7   6  852.16    7.72   0
  -1   0 -14  941.45    8.22   0
  -1   0  -7  201.47    2.61   0
  -1   1 -21   -0.98    5.58   0
  -1   2 -25  106.05    8.80   0
  -1   9  10  634.61   12.12   0
   0  -1 -15  618.08    7.03   0
   0   1 -26   21.12    7.86   0
   0   3   7  989.06    6.02   0
   1   3   8  102.26    3.62   0
   1   9  12   -3.52    7.62   0
   1  10  12    0.85    8.31   0
   1  11  12    4.75    9.71   0
   2  -1 -21   43.54    6.56   0
   2   7  11   -4.91    6.86   0
   3  -1 -19  365.24    8.03   0
   3   3   6    3.33    3.91   0
   3   6   9   46.53    6.12   0
   4   2   1  146.27    4.08   0
   5   1 -11    2.29    2.72   0
  -3   5 -20   51.12    6.84   0
  -3   7   0   35.29    2.44   0
  -3  11   3   88.90    6.77   0
  -2   2 -18  117.18    6.00   0
  -2   3 -23   55.92    7.29   0
  -2   9   7  163.17    6.51   0
  -1   0 -15 1436.25   10.12   0
  -1   1 -22  246.99    8.57   0
  -1   4   6   87.57    3.49   0
  -1   7   9    8.33    4.45   0
  -1  10  10    2.65    6.58   0
  -1  11  10   -1.54    7.68   0
  -1  12  10   19.23    8.38   0
   0  -1 -16   -1.50    4.12   0
   0   8  11  158.46    8.14   0
   1  -1 -21   30.96    6.33   0
   2  -2 -13  930.47    8.56   0
   2  -2 -12    4.03    3.66   0
   2  -2 -11  495.00    5.66   0
   2  -2 -10    5.34    3.22   0
   2  -1 -22    5.33    6.71   0
   2   0 -26   53.23    9.33   0
   2   6  10    8.44    6.05   0
   2   8  11    7.10    7.78   0
   2   9  11   27.00    9.88   0
   3  -1 -20  193.42    7.38   0
   3   4   7  147.18    5.23   0
   3   7   9  153.80    8.92   0
   4   4   4   29.70    4.78   0
  -3   4 -14    4.28    3.61   0
  -3   4 -13   19.41    3.59   0
  -3   4 -12   26.46    3.07   0
  -3   4 -11   18.00    3.09   0
  -3   4 -10  398.59    4.90   0
  -3   9   2   27.33    3.77   0
  -2  10   7    9.82    5.92   0
  -1   0 -16  412.26    6.97   0
  -1   0  -6   43.19    1.78   0
  -1   5   7   78.30    3.73   0
  -1   6   8 1191.76    8.58   0
   0  -1 -17  547.98    7.73   0
   0   1 -27   16.24    7.89   0
   0   1   3 2463.72    4.35   0
   0   5   9    4.22    3.51   0
   0   9  11   28.09    7.24   0
   0  10  11  454.25   13.89   0
   0  12  11   22.38   10.21   0
   1   0 -26   16.34    8.35   0
   2  -2  -9   35.84    2.95   0
   2   1   4  880.96    4.38   0
   2  10  11  163.91   13.39   0
   3  -1 -21    9.45    5.65   0
   3   2   4 2171.70   10.14   0
   4   5   5  151.98    6.19   0
   5   1 -10   -0.05    2.02   0
   5   2  -6  148.48    2.97   0
   5   3  -3  145.15    4.79   0
   5   4  -1  113.14    5.82   0
  -3   4 -15  112.54    4.91   0
  -3   4  -9  520.72    4.99   0
  -3   5 -21    2.68    5.75   0
  -3   8   1   57.14    3.25   0
  -2   8   6   -0.42    4.18   0
  -2  11   7   -2.94    6.39   0
  -2  12   7   19.06    6.86   0
  -1   0 -18  313.12    8.11   0
  -1   0 -17 1486.70   11.72   0
  -1   1 -23   73.32    7.24   0
  -1   2 -27   79.29   10.39   0
  -1   8   9 1189.22   12.14   0
   0  -1 -18  391.21    7.39   0
   0   2   5   30.88    1.81   0
   0   7  10    6.80    4.95   0
   1  -2 -14  151.37    4.41   0
   1  -2 -13  133.18    4.00   0
   1  -2 -12   17.55    3.22   0
   1  -2 -11   70.40    3.35   0
   1  -2 -10  519.89    5.00   0
   1  -2  -9  399.70    4.68   0
   1   8  11   24.85    7.03   0
   1   9  11   33.09    7.77   0
   1  10  11   -6.40    8.43   0
   1  11  11   64.75   10.42   0
   2   3   7 2735.94   11.94   0
   2   5   9   15.49    4.74   0
   2   7  10    1.89    6.51   0
   3   6   8   56.59    6.38   0
   3   9   9    4.68    8.26   0
   4   7   6   -6.87    6.23   0
  -3   4 -17   46.21    5.15   0
  -3   4 -16    4.59    3.97   0
  -3   5 -22    5.51    6.81   0
  -3   6  -2   64.78    1.63   0
  -3  10   2   82.87    5.29   0
  -2   2 -20    3.22    5.02   0
  -2   2  -4  735.40    2.74   0
  -1   0 -19  115.78    6.70   0
  -1   0  -5   26.08    1.81   0
  -1   1 -24   96.64    8.57   0
  -1   9   9  232.05    8.16   0
   0  -1 -19  384.39    7.92   0
   1  -2  -8 5325.99   11.89   0
   1  -1 -23   36.35    7.18   0
   1   0 -27   31.84    9.45   0
   1   1   4   77.35    1.84   0
   2  -2 -17  182.90    6.54   0
   2  -1 -24    5.80    7.51   0
   3  -1 -22   52.75    5.89   0
   3  -1  -4  389.59    1.76   0
   4   6   5   56.09    6.76   0
  -4   8 -15    7.31    4.57   0
  -4   8 -14   18.27    3.82   0
  -4   8 -13   63.37    4.40   0
  -3   4 -18    1.21    4.92   0
  -3   4  -8 1349.16    6.57   0
  -3  11   2   44.41    6.33   0
  -2   2 -21    2.33    5.32   0
  -2   3 -25   80.62    8.66   0
  -2   5   3    5.04    2.00   0
  -2   7   5  164.14    4.71   0
  -2  13   6   18.65    9.48   0
  -1   2   2 2506.16    4.15   0
  -1   7   8  430.48    7.10   0
  -1  10   9  135.65    8.16   0
  -1  11   9   10.64    7.41   0
   0  -1 -20  208.00    7.14   0
   0   0 -25   60.68    7.13   0
   0   6   9   17.18    4.38   0
   0   8  10    8.62    5.80   0
   0  11  10   14.80    9.37   0
   0  12  10   11.67    9.46   0
   1   3   7 2280.83    9.33   0
   1   7  10   19.17    5.49   0
   2  -2 -18  946.19   10.97   0
   2  -2  -7   59.07    2.50   0
   2   6   9    3.78    5.21   0
   2   9  10  301.02   12.57   0
   2  10  10   30.82   10.59   0
   3  -1 -23    1.31    5.60   0
   3   3   5  812.30    7.47   0
   3   4   6   12.90    4.53   0
   3   5   7   -1.07    4.48   0
   3   7   8   66.72    7.12   0
   4  -1 -16    3.19    5.04   0
   4  -1 -15    7.04    4.57   0
   4  -1 -14   29.56    4.44   0
   4  -1 -13   37.90    3.84   0
   4  -1 -12    6.44    3.35   0
  -4   8 -12   56.50    3.83   0
  -3  12   2   26.68    5.47   0
  -2   1 -14  647.65    7.35   0
  -2   1 -13  179.43    4.68   0
  -2   1 -12  840.68    6.62   0
  -2   1 -11    0.48    3.06   0
  -2   2 -22    4.43    5.57   0
  -2   6   4  450.54    4.80   0
  -2  10   6  136.97    6.76   0
  -2  11   6    0.49    6.57   0
  -2  12   6  164.83    9.38   0
  -1   0 -20   31.87    5.45   0
  -1   1 -25   44.39    8.31   0
   0  -1 -21    3.83    5.10   0
   0  -1  -4 2566.11    5.07   0
   0   3   6 2696.50    8.14   0
   0  10  10  425.05   12.52   0
   1  -2 -18  217.79    6.75   0
   1  -2  -7 1523.78    6.08   0
   1   8  10  294.58   10.02   0
   1  11  10   -9.68    8.80   0
   2  -2 -19  233.28    7.83   0
   2  -1 -25   32.86    8.02   0
   3  -2 -15    7.15    5.26   0
   3  -2 -14   80.66    5.07   0
   3  -2 -13   35.60    4.24   0
   3  -2 -12    1.34    3.56   0
   3  -1 -24   12.34    5.86   0
   3   8   8  189.48    9.97   0
   3   9   8   13.81    7.82   0
   4  -1 -17   -0.49    5.43   0
   4  -1 -11   73.93    3.60   0
   4   2   0   24.18    2.95   0
   4   4   3    9.24    4.06   0
   4   5   4   25.35    4.83   0
   4   7   5   58.43    7.87   0
   5   4  -2  175.52    6.65   0
  -3   4 -20   18.33    5.91   0
  -3   9   1   -3.84    2.92   0
  -2   1 -16   60.43    5.34   0
  -2   1 -15  284.06    5.68   0
  -2   1 -10 1424.98    7.03   0
  -2   2 -23   14.33    6.49   0
  -1   1 -26   43.07    9.19   0
  -1   4   5  602.72    4.59   0
  -1   6   7    8.70    3.08   0
  -1  12   8   11.70    7.83   0
   0   4   7 3590.11   11.24   0
   0   7   9  987.07   11.23   0
   1  -2 -19   79.51    6.44   0
   1  -1 -25   57.45    8.99   0
   1  10  10   68.45    8.49   0
   2  -2 -20  503.22   10.13   0
   2  -1 -26   -8.93    7.66   0
   2   5   8   54.61    5.02   0
   3  -2 -17   31.42    5.88   0
   3  -2 -16  225.79    6.51   0
   3  -2 -11    3.52    3.09   0
   3   6   7    7.18    5.10   0
   4  -1 -19   -2.16    5.89   0
   4  -1 -18    7.93    5.44   0
   5   5  -1    6.91    5.29   0
  -4   8 -11  158.47    3.83   0
  -3   4 -21    5.57    6.43   0
  -3   4  -7  196.09    2.75   0
  -2   1 -17  282.73    6.65   0
  -2   8   5  401.85    6.58   0
  -2  13   5  163.96   11.80   0
  -1   0 -22   55.61    6.47   0
  -1   5   6    9.46    2.86   0
  -1  10   8    9.03    6.19   0
  -1  11   8   38.59    7.16   0
   0  -1 -23    1.62    5.96   0
   1  -2 -20   21.95    6.08   0
   1  -1 -26   -1.77    8.32   0
   2  -2 -21   98.43    7.24   0
   2  -2  -6 1844.03    6.05   0
   2   4   7  396.34    6.29   0
   2   9   9   73.23    9.06   0
   2  11   9    5.67    9.24   0
   3  -2 -19  117.51    7.30   0
   3  -2 -18  291.67    7.83   0
   3  -2 -10  737.51    6.05   0
   3   0  -1   75.68    1.43   0
   4  -1 -20    0.87    6.40   0
   4  -1 -10   94.95    3.14   0
   4   6   4  182.12    8.22   0
   5   3  -4   55.51    4.13   0
  -3   7  -1  193.43    3.19   0
  -3   8   0  235.00    4.30   0
  -3  10   1   66.06    4.69   0
  -3  12   1   -1.67    4.92   0
  -2   1 -19   42.94    5.46   0
  -2   1 -18   16.39    4.51   0
  -2   2 -24   -1.97    6.97   0
  -2   4   1   10.28    1.47   0
  -1  -1 -14  362.91    6.48   0
  -1  -1 -13  291.21    5.07   0
  -1   0 -23    3.15    6.54   0
  -1   0  -4  785.63    3.02   0
  -1   1 -27   81.79   10.93   0
   0  -2 -15   50.51    4.33   0
   0  -2 -14  223.55    4.99   0
   0  -2 -13  116.20    3.82   0
   0  -2 -12   82.53    3.59   0
   0  -1 -24   14.35    7.11   0
   0   8   9   15.60    5.51   0
   0   9   9  170.28    8.82   0
   0  10   9  192.57   10.30   0
   0  11   9  211.35   11.67   0
   1  -2 -21  190.99    7.96   0
   1   2   5 1391.22    5.89   0
   1  12   9    6.46    9.23   0
   2  -2 -22  173.95    8.44   0
   2   0   1 3375.61    5.06   0
   3  -2 -20   73.25    7.34   0
   3  -2  -9  154.24    3.49   0
   3   5   6  288.72    6.84   0
  -4  10  -8   -0.47    2.26   0
  -3   4 -22   26.81    6.31   0
  -3  11   1  199.72    7.41   0
  -2   1 -20   30.93    6.37   0
  -2   1  -8  712.53    4.29   0
  -2   2 -25   -5.83    7.32   0
  -2   3  -1  619.96    1.33   0
  -2   7   4 2776.59   11.60   0
  -2   9   5  112.71    5.07   0
  -2  10   5  114.22    6.24   0
  -2  11   5   26.01    6.53   0
  -2  12   5   51.61    7.59   0
  -1  -1 -17  230.25    6.97   0
  -1  -1 -12   13.98    3.03   0
  -1   0 -24   18.08    7.27   0
  -1   7   7    8.65    3.67   0
   0  -2 -17  111.30    5.38   0
   0  -2 -16 1028.03    9.81   0
   0  -2 -10  281.81    3.62   0
   0   2   4 1243.75    4.35   0
   1  -2 -22    2.60    6.34   0
   1  -1 -27   -1.53    8.89   0
   1  10   9   27.93    7.66   0
   2  -2 -23   75.25    8.57   0
   3  -2 -21   39.47    6.56   0
   3   3   4    7.77    3.53   0
   3   4   5  334.70    6.25   0
   3   9   7   15.47    7.65   0
   4   4   2   98.99    4.95   0
   4   5   3  368.14    8.62   0
   4   7   4    4.55    6.51   0
  -3   3 -17   16.07    4.87   0
  -3   3 -16  205.42    6.31   0
  -3   3 -15  135.52    5.17   0
  -3   3 -14  114.91    4.49   0
  -3   3 -13  160.36    4.53   0
  -2   1 -21   87.60    6.76   0
  -1  -1 -18  641.07    9.88   0
  -1  -1 -10   64.20    2.91   0
  -1   0 -25   20.09    8.02   0
  -1   8   7  804.87    9.81   0
  -1  12   7   16.03    7.96   0
   0  -2 -18 1652.65   13.15   0
   0  -2  -9  135.80    2.81   0
   0  -1 -25   10.30    6.93   0
   0  12   8    2.56    9.34   0
   1  -2 -23   52.67    7.89   0
   2  -2 -24    4.08    7.37   0
   2   5   7   12.13    5.16   0
   2  10   8  105.44   11.15   0
   3  -2 -22   -1.79    5.56   0
   3   6   6  105.19    6.54   0
   4   8   4    3.13    6.86   0
   5   4  -3   27.22    4.67   0
  -4   7 -16    3.74    4.40   0
  -4   7 -15    0.47    4.05   0
  -3   3 -18  118.78    6.35   0
  -3   3 -12   25.43    3.08   0
  -3   3 -11  326.44    4.67   0
  -3   9   0    1.58    3.06   0
  -2   1 -22   67.82    7.09   0
  -2   1  -7   16.12    2.17   0
  -2   5   2  792.59    4.33   0
  -2   6   3 3181.23   10.22   0
  -2  13   4   42.08    8.02   0
  -1  -1 -19   10.90    5.19   0
  -1  -1  -9    4.12    2.61   0
  -1   6   6  398.60    4.99   0
  -1   9   7  170.07    6.68   0
  -1  10   7    6.81    5.59   0
   0  -2 -20  245.46    7.80   0
   0  -2  -8  508.08    3.94   0
   0  -1 -26    5.29    7.59   0
   0  -1  -3 3363.84    5.07   0
   0   5   7    4.89    3.02   0
   0   7   8   82.12    5.23   0
   0  11   8   14.66    7.15   0
   1  -2 -24   25.58    8.10   0
   1  -2  -5 1383.23    4.78   0
   1  12   8    4.37    8.95   0
   2  -2 -25   46.50    7.88   0
   2   8   8   -1.45    6.84   0
   3  -2 -23   33.01    7.19   0
   4   6   3    8.36    5.36   0
   5   5  -2   -1.70    5.07   0
  -4   7 -14    4.95    3.50   0
  -3   3 -20  206.37    8.59   0
  -3   3 -19   59.23    5.56   0
  -3  12   0   54.37    6.32   0
  -2   1 -23    5.10    6.72   0
  -2   8   4    5.57    3.30   0
  -2  12   4  230.72   10.73   0
  -1  -1 -21   61.40    6.11   0
  -1  -1 -20   84.15    5.96   0
  -1   0 -26   -5.40    8.34   0
  -1   3   3   10.11    1.32   0
   0  -2 -21  319.93    9.09   0
   0  -1 -27   13.96    8.10   0
   0   4   6  372.18    4.32   0
   0   8   8   94.69    6.32   0
   0   9   8  100.68    7.47   0
   0  10   8  544.31   13.30   0
   0  13   7   28.17   10.31   0
   1  -3 -16  254.54    6.52   0
   1  -3 -15   14.84    3.85   0
   1  -3 -14  568.64    6.96   0
   1  -3 -13  161.88    4.66   0
   1  -2 -25   -1.36    8.07   0
   1   1   3 4175.42    7.13   0
   1  11   8    5.81    7.99   0
   2  -3 -18  212.93    7.61   0
   2  -3 -17  204.50    6.97   0
   2  -3 -16   24.82    5.08   0
   2  -3 -15   17.57    4.45   0
   2  -3 -14  247.38    5.86   0
   2  -3 -13  230.69    5.22   0
   2  -3 -12   16.18    4.00   0
   2  -2  -5  110.68    1.93   0
   2   2   4   15.91    2.31   0
   3   8   6  122.32    8.92   0
   3   9   6   87.42    9.52   0
   3  10   6   17.52    8.60   0
   4   2  -1  355.63    4.86   0
  -4   7 -13    4.60    3.54   0
  -3   3 -21  154.60    7.86   0
  -3   3 -10   -0.03    2.48   0
  -3   4  -6  759.27    3.85   0
  -3  10   0  301.46    6.34   0
  -3  11   0  118.20    6.47   0
  -2   1 -24   55.41    8.02   0
  -2   2  -3   92.69    1.24   0
  -2   9   4   16.87    4.32   0
  -2  10   4   16.18    5.56   0
  -2  11   4    0.32    6.07   0
  -1  -1 -22   97.00    7.26   0
  -1   5   5  877.13    5.85   0
  -1   7   6 1206.04    9.52   0
  -1  12   6   30.87    7.72   0
   0  -2 -22  132.63    7.74   0
   0   6   7    7.88    3.57   0
   1  -3 -18  108.90    6.01   0
   1  -3 -17   73.72    5.10   0
   1  -3 -12  674.25    6.70   0
   1  -2 -26    2.76    8.75   0
   1  10   8   48.17    7.60   0
   2  -3 -20   73.94    7.55   0
   2  -3 -19  629.03   11.01   0
   2  -3 -11  168.08    4.48   0
   2  11   7   13.06    9.22   0
   4   5   2  203.47    7.08   0
   4   7   3   17.22    6.05   0
   4   8   3   18.49    7.81   0
  -3   8  -1  322.26    4.78   0
  -2   0 -17   77.09    5.77   0
  -2   0 -16    7.25    4.33   0
  -2   0 -15   16.87    3.96   0
  -2   0 -14   24.21    3.82   0
  -2   0 -13   49.01    4.38   0
  -2   1 -25    4.22    7.97   0
  -2  13   3  100.78    8.97   0
  -1  -1 -23   94.41    8.28   0
  -1  11   6  151.54    9.08   0
   0  -2 -23  329.36   10.89   0
   0  -2  -7   17.93    2.19   0
   0   1   2 1392.11    3.00   0
   1  -3 -20   12.57    5.70   0
   1  -3 -19  296.56    8.44   0
   1  -3 -11  769.06    6.16   0
   1  12   7    2.49    7.97   0
   2  -3 -21  375.09   10.48   0
   2   8   7  122.06    8.22   0
   2   9   7   76.31    8.79   0
   3   3   3  196.10    4.67   0
   3   4   4   11.09    3.79   0
   4   1  -3   32.51    1.96   0
   4   4   1   21.43    4.03   0
   5   0 -14  100.97    4.36   0
   5   2  -7   79.25    2.88   0
   5   3  -5  234.83    5.77   0
  -3   3  -9  155.14    3.24   0
  -3  13  -1    7.00    6.45   0
  -2   0 -19   57.86    5.69   0
  -2   0 -18    8.23    4.77   0
  -2   0 -12  326.68    5.15   0
  -2   7   3 1305.37    7.94   0
  -1  -1 -24   -1.75    7.40   0
  -1  -1  -7 1593.28    6.30   0
  -1   0  -3  139.98    1.59   0
  -1   8   6  503.45    7.65   0
  -1   9   6  172.00    6.80   0
  -1  13   5  102.45    9.69   0
   0  -2 -24   51.87    7.51   0
   1  -3 -21  115.36    7.31   0
   1  -3 -10    3.45    2.93   0
   1   4   6  493.24    5.44   0
   2  -3 -22  118.71    8.18   0
   2   5   6   57.86    4.55   0
   3  -2  -7  615.06    4.07   0
   4  -2 -18   39.74    5.76   0
   4  -2 -17   28.38    5.56   0
   4  -2 -16   41.82    5.48   0
   4   6   2  154.27    7.11   0
  -3  12  -1   25.10    5.84   0
  -2   0 -21    4.96    6.21   0
  -2   0 -20   30.98    5.94   0
  -2   0 -11    2.69    2.79   0
  -2  12   3   92.18    8.31   0
  -1  -1 -25    8.56    7.50   0
  -1   6   5  638.65    6.09   0
   0  -2 -25   85.35    8.99   0
   0   8   7   19.67    5.33   0
   0   9   7  510.29   11.12   0
   0  10   7    7.91    6.67   0
   0  13   6   30.18    9.32   0
   1  -3 -22    4.59    6.74   0
   1  -3  -9 2495.59    9.17   0
   1   2   4 4793.49    9.70   0
   1  10   7   60.06    7.94   0
   2  -3 -23  102.84    8.70   0
   2  -3  -9  325.43    4.66   0
   2  11   6   45.28   10.00   0
   3  -3 -19    5.47    6.71   0
   3  -3 -18   23.59    5.69   0
   3  -3 -17   85.90    5.94   0
   3  -3 -16   54.17    5.49   0
   3  -3 -15  103.95    5.58   0
   3   9   5    1.86    7.04   0
   4  -2 -20   67.01    8.11   0
   4  -2 -19   41.34    6.77   0
   4  -2 -15  185.94    6.63   0
   5   0 -13   75.97    3.55   0
   5   4  -4   90.92    5.38   0
  -3   2 -17   18.65    5.14   0
  -3   2 -16    8.68    4.74   0
  -3   7  -2   80.21    2.56   0
  -3   9  -1   41.17    3.38   0
  -2   0 -22    9.03    6.81   0
  -2   0 -10   73.37    2.92   0
  -2   8   3  290.90    5.51   0
  -2  11   3   73.23    6.53   0
  -1  -2 -18   33.39    5.75   0
  -1  -2 -15    0.04    4.01   0
  -1  -2 -14  110.63    4.48   0
  -1  -1 -26   -3.47    8.04   0
   0  -3 -18  121.53    5.98   0
   0  -3 -17  854.76    9.49   0
   0  -3 -16   12.26    4.15   0
   0  -3 -15   61.88    4.44   0
   0  -3 -14   76.01    4.63   0
   0  -3 -13 1020.26    7.97   0
   0  -2 -26   -0.08    7.70   0
   0  -2  -6   79.58    2.00   0
   0  12   6  100.62   10.70   0
   1  -3 -23    9.72    7.40   0
   1  -2  -4 1719.31    4.47   0
   1   8   7 1219.34   13.46   0
   2  -3 -24  245.82   11.46   0
   2   4   5 1337.39    8.52   0
   2  10   6   81.83    9.92   0
   3  -3 -21   -3.42    6.90   0
   3  -3 -20    5.54    6.16   0
   3   5   4    9.49    4.19   0
   4  -2 -14   73.82    4.71   0
   4   7   2   -0.80    5.71   0
   4   8   2   35.05    7.89   0
  -4   6 -16   31.96    5.24   0
  -4   6 -15    9.47    4.48   0
  -3   2 -20   41.70    7.13   0
  -3   2 -19  137.15    6.98   0
  -3   2 -18    4.08    4.59   0
  -3   2 -14   -1.01    4.14   0
  -3   6  -3  151.47    2.15   0
  -3  10  -1  137.27    5.18   0
  -3  11  -1  227.76    7.47   0
  -2   0 -23    9.13    6.94   0
  -2   6   2  762.88    5.26   0
  -2   9   3   41.19    4.03   0
  -2  10   3   99.76    5.53   0
  -2  13   2   39.58    7.98   0
  -1  -2 -20   33.10    5.66   0
  -1  -2 -19   50.00    5.69   0
  -1  -2 -13  600.73    6.70   0
  -1  -2 -12    5.34    3.02   0
  -1  -1  -6 1027.57    4.82   0
  -1   7   5  238.14    5.09   0
  -1  11   5   23.09    6.68   0
   0  -3 -20  129.33    6.74   0
   0  -3 -19  308.06    7.99   0
   0  -3 -12    4.02    3.11   0
   0   4   5 5206.32   12.44   0
   0   6   6  729.95    7.68   0
   1  -3 -25   52.33    9.75   0
   1  -3 -24   17.57    7.27   0
   1  -3  -8  592.51    4.92   0
   1  12   6   45.70    9.47   0
   2   7   6   77.38    5.79   0
   2   8   6   11.31    6.37   0
   2   9   6   55.70    7.77   0
   2  12   5  105.48   11.93   0
   3  -3 -22   -5.23    6.43   0
   3  -3 -12   34.48    3.88   0
   4  -2 -13  183.46    5.39   0
   4   5   1  352.06    7.52   0
  -3   2 -21  115.72    8.23   0
  -3   2 -13  146.50    4.18   0
  -3   3  -8   43.88    2.22   0
  -3  13  -2    7.10    6.08   0
  -2   0 -24   14.68    7.03   0
  -2   0  -9   -0.62    2.51   0
  -1  -2 -21   38.03    6.61   0
  -1  -2 -11  866.73    7.14   0
  -1   5   4   94.90    3.15   0
  -1   8   5 1122.95   10.58   0
  -1  10   5  151.01    6.81   0
  -1  13   4   43.31    8.48   0
   0  -3 -22  145.44    8.91   0
   0  -3 -21  179.84    8.08   0
   0  -3 -11 1561.71    8.49   0
   0   2   3 1460.12    4.40   0
   0   3   4 2199.24    6.83   0
   0  11   6  175.15    9.23   0
   0  13   5  189.72   14.06   0
   1  11   6   32.59    8.05   0
   2  -2  -4 1485.24    4.04   0
   2   2   3  111.37    3.06   0
   3   4   3  437.62    6.27   0
   3   6   4    6.25    4.80   0
   3   7   4  471.33   10.67   0
   3   9   4   14.31    7.21   0
   4   4   0  486.96    7.82   0
  -4   6 -14   35.89    4.39   0
  -3   2 -22   43.86    7.20   0
  -3   2 -12    5.42    3.18   0
  -2   1  -5  100.66    1.90   0
  -2   5   1   45.70    2.10   0
  -2  12   2  190.80    9.53   0
  -1  -2 -23    2.01    7.13   0
  -1  -2 -22   14.23    6.56   0
  -1  -2 -10  129.79    3.80   0
  -1   2   1 6650.65    5.91   0
  -1   9   5  457.76    8.38   0
  -1  12   4   -3.88    7.71   0
  -1  14   3   50.33   10.46   0
   0  -3 -23  171.85    9.14   0
   0  -3 -10   42.25    2.73   0
   0   7   6  478.31    7.46   0
   0   8   6   29.08    5.04   0
   0   9   6    7.72    5.70   0
   0  10   6  212.40    8.43   0
   1  10   6    9.22    6.80   0
   2   5   5  436.78    6.32   0
   3  -3 -11  608.06    6.31   0
   3   3   2   57.60    3.58   0
   3   8   4   18.24    6.23   0
   4  -2 -12    2.49    3.47   0
   4   3  -1    6.17    3.03   0
   4   6   1  272.60    7.68   0
   4   7   1    1.66    6.05   0
   5   3  -6  143.69    5.32   0
   5   5  -4   16.57    5.08   0
  -3   2 -11  510.72    5.34   0
  -3  12  -2   20.25    5.44   0
  -2  -1 -17  261.22    7.83   0
  -2  -1 -16  152.07    6.75   0
  -2   0  -8   22.44    2.79   0
  -2   4   0  699.56    2.74   0
  -2   7   2 1655.44    8.59   0
  -2  11   2    3.82    5.67   0
  -1  -2 -24    8.11    7.47   0
  -1   4   3   85.18    2.44   0
   0  -3 -24  310.07   12.17   0
   0  -2  -5   38.10    1.87   0
   0  12   5  303.87   13.32   0
   1  -4 -19  165.61    7.33   0
   1  -4 -18   56.03    5.76   0
   1  -4 -17  172.76    6.10   0
   1  -4 -16  169.34    5.50   0
   1  -4 -15   69.55    4.66   0
   1  -3  -7 3586.14    9.57   0
   1   4   5   14.32    2.99   0
   1   9   6  377.31   10.42   0
   1  12   5    1.15    8.05   0
   2  -4 -20   62.51    6.92   0
   2  -4 -19   -1.45    5.90   0
   2  -4 -18   44.89    6.15   0
   2  -4 -17    3.87    5.40   0
   2  -4 -16  269.98    7.43   0
   2  -4 -15  157.81    6.21   0
   2  -4 -14 1222.99   11.23   0
   4   8   1   11.79    6.12   0
   5   4  -5   12.58    4.10   0
  -4   6 -13    6.42    3.09   0
  -4  10  -9   12.86    2.94   0
  -3   8  -2   23.07    2.86   0
  -3  11  -2  153.94    6.56   0
  -2  -1 -19   86.39    6.99   0
  -2  -1 -18  269.04    8.14   0
  -2  -1 -15  362.10    7.19   0
  -2  -1 -14    6.38    4.20   0
  -2   8   2  231.37    5.10   0
  -2  10   2    9.15    4.96   0
  -2  13   1   32.04    7.14   0
  -1  -2 -25   19.26    8.07   0
  -1  -2  -9  616.78    5.75   0
  -1  -1  -5 3211.65    7.34   0
  -1   6   4   61.92    3.47   0
  -1  11   4  317.52    9.94   0
  -1  13   3   -3.13    7.90   0
   0  -3 -25   32.51    8.69   0
   0  -3  -9 2288.85    9.21   0
   0   5   5  803.05    6.25   0
   0  11   5   27.55    7.56   0
   0  13   4   67.87   11.42   0
   1  -4 -21  152.71    8.40   0
   1  -4 -20  136.07    7.70   0
   1  -4 -14    1.56    3.73   0
   1  -4 -13  115.37    4.34   0
   1  13   4   36.69    9.57   0
   2  -4 -22   39.28    7.28   0
   2  -4 -21    1.99    6.05   0
   2  -4 -13  158.34    5.81   0
   2  -3  -7    2.45    2.38   0
   2   6   5  196.30    6.24   0
   2   7   5  374.97    8.13   0
   2   8   5    6.66    6.23   0
   2   9   5  163.10    9.03   0
   2  12   4   88.67   10.58   0
   3  -2  -6  962.70    4.01   0
   3   5   3    6.16    3.96   0
   3  10   3   51.11    8.69   0
   4   5   0  393.93    8.44   0
  -3   2 -10  130.75    3.80   0
  -3   9  -2    8.28    3.23   0
  -3  10  -2  319.33    6.67   0
  -3  13  -3   26.12    6.40   0
  -2  -1 -22   40.89    8.01   0
  -2  -1 -21    4.68    6.48   0
  -2  -1 -13  416.49    6.62   0
  -2   9   2   80.32    4.26   0
  -1  14   2   -0.55    8.95   0
   0  10   5   10.99    6.63   0
   0  14   3    8.77   10.60   0
   1  -4 -23   26.58    8.39   0
   1  -4 -22   65.50    8.10   0
   1  -4 -12  382.42    5.18   0
   1  11   5    3.07    6.58   0
   2  -4 -23   39.59    7.95   0
   2  -4 -12 1282.29    9.99   0
   2  11   4  170.87   12.20   0
   3   6   3  240.15    6.97   0
   3   9   3   30.79    7.15   0
   4  -2 -11   36.85    3.27   0
  -4   5 -17   82.12    6.04   0
  -4   5 -16   53.33    6.02   0
  -3   1 -20    6.29    6.83   0
  -3   1 -19   19.78    6.54   0
  -3   1 -18   20.33    6.04   0
  -3   1 -17  117.24    6.85   0
  -3   3  -7  310.65    3.06   0
  -2  -1 -12   12.47    3.72   0
  -2   0  -7  507.87    4.27   0
  -2  12   1  232.86    9.41   0
  -1  -3 -17   48.91    5.90   0
  -1  -2  -8 1901.24    8.12   0
  -1   7   4 1382.54    8.81   0
  -1   8   4 1099.77    9.58   0
  -1   9   4   21.80    5.03   0
  -1  12   3    8.64    6.80   0
   0  -3  -8 1448.63    6.66   0
   0   6   5  725.41    7.18   0
   0   9   5  328.90    8.67   0
   0  12   4  521.68   15.67   0
   1  -4 -24  255.54   12.49   0
   1  -4 -11    6.72    2.88   0
   1   1   2 1308.78    3.90   0
   1   2   3 1679.61    5.92   0
   1   5   5  346.38    5.17   0
   1  10   5   39.45    7.05   0
   1  12   4   33.31    8.18   0
   2  -4 -24   42.90    9.45   0
   3  -4 -19  149.61    8.82   0
   3  -4 -18    3.44    6.52   0
   3   4   2  233.12    5.67   0
   3   8   3  164.22    8.04   0
   3  11   2   41.93    9.66   0
   4   6   0  239.32    8.08   0
   4   7   0   27.29    6.53   0
   4   8   0   80.20    7.84   0
   4   9   0   -2.42    7.24   0
  -4   5 -15  114.86    5.89   0
  -4   6 -12   -0.42    2.73   0
  -3   1 -22    1.94    6.95   0
  -3   1 -21   -5.83    6.10   0
  -3   1 -15  178.88    6.10   0
  -3   1 -14  465.66    8.54   0
  -3  12  -3   14.77    5.58   0
  -2  -1 -24    9.79    7.31   0
  -2   6   1 1395.38    6.73   0
  -2  11   1  237.30    8.17   0
  -2  13   0  124.84    9.21   0
  -1  -3 -21  106.94    8.38   0
  -1  -3 -20    9.00    6.00   0
  -1  -3 -19  389.68    9.31   0
  -1  -3 -16    0.46    4.71   0
  -1  -3 -15   -7.44    4.28   0
  -1  -3 -14  429.69    6.60   0
   0  -4 -21    8.79    6.46   0
   0  -4 -20   35.92    6.25   0
   0  -4 -19   81.08    6.09   0
   0  -4 -18    6.81    5.04   0
   0  -4 -17    6.06    4.65   0
   0  -4 -16  116.24    5.20   0
   0  -4 -15 1029.67    9.89   0
   0   4   4  208.74    3.42   0
   0   7   5  292.52    6.28   0
   0   8   5  156.95    6.03   0
   0  13   3  186.87   12.78   0
   1  -4 -25   55.77   10.59   0
   1  -3  -6 1960.93    6.51   0
   1  -2  -3 3004.30    5.43   0
   1   9   5    5.50    5.71   0
   1  13   3   35.17   10.65   0
   2  -4 -11  529.06    5.82   0
   2   0   0 7202.43    6.87   0
   2   5   4   20.41    4.05   0
   2  10   4   12.78    7.80   0
   2  12   3  149.58   12.41   0
   3  -4 -22   35.14    8.60   0
   3  -4 -21  116.55    8.74   0
   3  -4 -20   39.87    7.16   0
   3  -4 -17   59.46    5.82   0
   3  -4 -16    8.06    5.86   0
   3  -3  -9 1293.32    7.36   0
   3  10   2   40.89    8.86   0
   4  -3 -19   90.41    7.65   0
   4  -3 -18   78.41    7.03   0
   4  -3 -17    3.81    5.45   0
   5   2  -8   95.16    3.60   0
   5   5  -5    2.14    4.71   0
  -3   2  -9  127.25    3.23   0
  -2  14  -1   -1.09    8.29   0
  -1  -3 -23   54.26    8.33   0
  -1  -3 -22   25.51    7.17   0
  -1  -3 -13    9.45    3.51   0
  -1   5   3 1702.80    7.39   0
  -1  13   2   74.53    9.05   0
  -1  14   1   40.47   10.06   0
   0  -4 -22   67.01    7.46   0
   0  -4 -14 1181.32   10.10   0
   0  -4 -13  248.81    5.35   0
   0  -2  -4 1236.89    4.19   0
   0  11   4  145.53    8.99   0
   0  14   2   -3.88    9.29   0
   1  -4 -10  584.47    5.29   0
   1  11   4  245.08   10.99   0
   2   6   4  853.45    9.29   0
   2   8   4  160.93    7.81   0
   3  -4 -15   96.70    6.34   0
   3   0  -2 1024.93    3.07   0
   4  -3 -16   74.72    5.86   0
   4   1  -4   43.37    2.21   0
   5   4  -6   54.69    5.04   0
  -4   5 -14   74.99    4.68   0
  -3   1 -13   80.35    4.52   0
  -3   7  -3    2.11    2.26   0
  -3  11  -3  155.08    6.78   0
  -3  13  -4   15.13    6.17   0
  -2  10   1   29.02    4.86   0
  -1  -3 -24   52.32    8.87   0
  -1  -3 -12 1482.45   10.00   0
  -1  -2  -7 1613.53    7.11   0
   0  -4 -24   13.94    7.72   0
   0  -4 -23   41.12    6.94   0
   0  -4 -12 2967.10   13.05   0
   0  -3  -7  845.90    5.42   0
   0  10   4  151.47    8.88   0
   2  -4 -10  660.98    6.17   0
   2  -3  -6  549.09    3.87   0
   2   2   2   64.59    2.90   0
   2   7   4   97.56    6.53   0
   2  11   3  101.98   10.10   0
   3  -4 -14  213.69    6.71   0
   3   3   1   70.58    3.39   0
   3   5   2    2.41    3.89   0
   3   8   2   40.52    6.55   0
   3   9   2    9.37    6.29   0
   3  11   1    4.78    8.22   0
   4  -3 -15    1.98    4.50   0
   4  -2 -10  103.83    3.19   0
   4   3  -2  135.09    4.08   0
   4   5  -1  692.08   10.55   0
   4   9  -1    5.30    7.29   0
   5   3  -7  235.15    5.67   0
  -3   1 -12  636.28    7.31   0
  -2  -2 -20   10.87    6.89   0
  -2  -2 -19  223.87    8.81   0
  -2  -2 -18  311.74    8.86   0
  -2  -2 -17  318.00    8.84   0
  -2   1  -4  986.31    3.43   0
  -2   7   1  675.81    5.76   0
  -2   8   1   20.77    3.69   0
  -2   9   1   18.17    4.27   0
  -2  12   0  232.06    9.28   0
  -1  -3 -11  213.84    4.52   0
  -1  -1  -4   65.59    1.74   0
  -1  10   3  313.09    7.96   0
  -1  12   2   20.06    6.53   0
   0  -4 -11  504.74    6.20   0
   0   3   3   50.70    2.08   0
   0   5   4  163.41    3.78   0
   0  12   3  156.37   10.59   0
   1  -4  -9  308.84    4.14   0
   1  10   4   30.05    6.82   0
   1  12   3    4.61    7.86   0
   2  10   3   50.23    7.84   0
   2  12   2  181.50   13.18   0
   3  -4 -13    6.04    4.41   0
   3   6   2   19.62    4.42   0
   3   7   2  981.89   12.29   0
   4   6  -1  448.32    9.65   0
   4   7  -1   16.49    5.97   0
   4   8  -1    4.14    6.63   0
  -4   4 -18  130.22    7.31   0
  -4   4 -17   50.55    6.06   0
  -3  10  -3  164.42    5.34   0
  -2  -2 -22  109.01    9.08   0
  -2  -2 -16  577.12    9.18   0
  -2  -1  -9   29.38    2.76   0
  -2   0  -6  227.70    2.84   0
  -2  13  -1   26.01    7.78   0
  -1   6   3   -2.79    3.07   0
  -1   7   3 1067.27    8.21   0
  -1  13   1    9.82    7.51   0
   0   6   4 1749.98   10.08   0
   0   9   4    9.75    5.43   0
   0  13   2   21.97    9.44   0
   0  14   1    8.58   10.59   0
   1  -5 -22    4.35    6.48   0
   1  -5 -21   10.10    6.94   0
   1  -5 -20   28.50    6.82   0
   1  -5 -19   15.97    6.35   0
   1  -5 -18   39.31    5.99   0
   1  -5 -17  106.74    6.33   0
   1  -5 -16  123.92    5.79   0
   1  -5 -15  235.83    6.45   0
   1  -3  -5 1834.89    6.33   0
   1   5   4   47.22    3.59   0
   1   9   4    4.86    5.32   0
   1  13   2   34.15   10.01   0
   2  -5 -22   25.39    9.04   0
   2  -5 -21    3.67    7.39   0
   2  -5 -20   58.16    7.16   0
   2  -5 -19   70.47    7.01   0
   2  -5 -18   19.67    6.04   0
   2  -5 -17  314.72    8.72   0
   2  -5 -16   67.90    6.60   0
   2  -4  -9 2847.00   10.81   0
   3  10   1  171.44   10.96   0
   4  -3 -14   53.51    4.46   0
   5   5  -6    3.71    4.99   0
  -4   4 -16   60.43    5.82   0
  -4   6 -11   25.28    2.36   0
  -3   0 -21    7.16    6.99   0
  -3   0 -20   18.87    7.05   0
  -3   0 -19   25.57    6.34   0
  -3   0 -18  108.88    8.06   0
  -3   1 -11  481.32    6.06   0
  -3   8  -3  289.43    4.40   0
  -3   9  -3  178.50    4.36   0
  -3  12  -4   21.69    5.33   0
  -2  -2 -14  224.62    6.26   0
  -2  11   0  137.05    6.57   0
  -2  14  -2    7.01    8.20   0
  -1  -3 -10  568.76    6.13   0
  -1  11   2  109.52    7.09   0
  -1  14   0    8.24    8.23   0
   0  -4 -10 2399.37   10.75   0
   0  -3  -6 2643.69    7.68   0
   0   7   4 2432.01   13.36   0
   0   8   4  250.44    6.60   0
   0  11   3  223.11    9.70   0
   1  -5 -24   45.70    9.51   0
   1  -5 -23   44.85    9.76   0
   1  -5 -14  156.70    5.48   0
   1  -4  -8  668.65    5.94   0
   1  11   3    9.73    7.23   0
   2  -5 -23   10.93    8.60   0
   2  -5 -15 1061.79   11.60   0
   2   5   3 1857.14   10.59   0
   2   9   3  340.92   10.11   0
   3  -4 -12  382.73    6.38   0
   3  -3  -8  906.63    5.49   0
   3   4   1  140.24    4.87   0
   3   9   1   14.50    6.78   0
  -3   0 -16  134.42    6.60   0
  -3   0 -15  472.51    9.91   0
  -3   2  -8   22.35    2.04   0
  -3  13  -5   36.41    6.83   0
  -2  -2 -13   20.61    4.25   0
  -2   5   0  625.54    3.67   0
  -1  -4 -19   13.18    5.98   0
  -1  -4 -18   10.64    5.56   0
  -1  -2  -6 6865.57   12.60   0
   0   2   2  517.33    2.85   0
   0  12   2  502.96   13.57   0
   1  -5 -13    7.42    4.01   0
   1   3   3  304.29    3.66   0
   1  12   2   14.93    7.40   0
   2  -5 -14  625.88    8.63   0
   2   7   3   14.45    5.30   0
   2   8   3    6.25    5.70   0
   2  12   1    7.20    8.25   0
   3   8   1   85.04    7.35   0
   3  11   0   27.50    8.55   0
   4  -3 -13   -0.22    3.76   0
   4   9  -2   -6.36    6.98   0
  -4   4 -15   86.41    5.33   0
  -3   0 -14  210.79    7.01   0
  -3   1 -10  684.88    6.40   0
  -3  11  -4  123.61    5.95   0
  -2  -2 -12   26.48    4.07   0
  -2  -1  -8  247.78    3.71   0
  -2  10   0   -1.94    4.10   0
  -2  12  -1  200.36    8.47   0
  -1  -4 -23   24.62    8.48   0
  -1  -4 -22  139.08    9.75   0
  -1  -4 -21   23.61    6.38   0
  -1  -4 -16   15.75    5.22   0
  -1  -4 -15  164.37    6.03   0
  -1  -3  -9 1001.73    6.82   0
  -1  10   2   30.97    5.40   0
  -1  12   1   19.17    6.77   0
   0  -5 -22   51.52    7.80   0
   0  -5 -21   -4.08    6.43   0
   0  -5 -20  154.29    8.56   0
   0  -5 -19   23.50    6.02   0
   0  -5 -18  138.38    6.89   0
   0  -5 -17  170.38    7.50   0
   0  -5 -16   30.01    5.02   0
   0  -4  -9 1343.87    7.50   0
   0  10   3  112.15    7.37   0
   0  13   1   79.54   10.16   0
   1  -5 -12 1032.40    8.31   0
   1  10   3  332.32   10.07   0
   1  13   1    6.19    9.12   0
   2  -5 -13  976.90    9.48   0
   2  -4  -8  610.25    5.63   0
   2   3   2 1652.78    7.72   0
   2  10   2   18.05    7.25   0
   2  13   0   -2.53    9.25   0
   3  -5 -20   45.30    8.71   0
   3  -4 -11   39.00    3.75   0
   3   6   1  601.65    8.84   0
   3   7   1  351.89    8.14   0
   3  10   0   19.96    8.32   0
   4   5  -2  359.43    8.05   0
   4   7  -2    6.83    5.83   0
   4   8  -2   42.06    6.46   0
   5   4  -7   72.83    5.09   0
  -4   5 -12  147.19    4.31   0
  -4  10 -10   -1.51    3.20   0
  -3   3  -6  516.46    3.06   0
  -2  -2 -11    4.44    3.94   0
  -2   9   0  512.37    7.28   0
  -2  14  -3   26.47    9.10   0
  -1  14  -1   30.14    9.03   0
   0  -5 -23    7.75    7.81   0
   0  -5 -15  549.40    8.47   0
   0   4   3   40.97    2.68   0
   0   9   3  562.41    9.73   0
   0  14   0   49.50   10.98   0
   1   9   3   58.72    5.71   0
   1  11   2  244.91   10.43   0
   2  -5 -12  593.25    7.60   0
   3  -5 -19   -1.24    6.62   0
   3  -5 -18    0.97    5.94   0
   3  -5 -17   43.33    6.17   0
   4   3  -3    7.63    3.17   0
   4   6  -2   24.26    5.05   0
  -4   3 -18   11.64    5.89   0
  -4   4 -14   33.84    4.06   0
  -4   9 -10   54.18    2.89   0
  -3   0 -13  457.86    7.78   0
  -3  10  -4  287.43    6.60   0
  -3  12  -5    2.68    5.54   0
  -2  -3 -21   41.29    8.20   0
  -2  -3 -20   61.50    8.18   0
  -2  -3 -19   58.23    7.50   0
  -2   6   0  870.61    5.47   0
  -2   8   0   40.93    3.69   0
  -2  11  -1  165.91    7.49   0
  -1  -4 -13   77.12    4.42   0
  -1  -3  -8   89.99    3.23   0
  -1   5   2 1400.93    6.43   0
  -1   9   2   23.95    4.71   0
  -1  11   1  204.65    8.41   0
   0  -5 -13 1211.80   10.52   0
   0  -2  -3 1345.95    4.20   0
   0   8   3   81.00    5.74   0
   0  11   2   40.55    7.49   0
   1  -5 -11   24.22    3.56   0
   1  -4  -7  135.43    3.29   0
   1   4   3  424.15    4.77   0
   2  -3  -5    4.32    1.85   0
   2  -2  -3    1.74    1.19   0
   2   9   2   40.08    6.74   0
   2  11   1  227.21   11.58   0
   3  -5 -16   68.24    6.17   0
   3   3   0  129.60    3.70   0
   3   9   0  146.74    8.38   0
   3  11  -1   10.21    7.82   0
   4  -4 -18    1.80    5.52   0
   4   9  -3   -2.16    6.94   0
   5   3  -8  136.90    5.14   0
   5   5  -7   20.76    5.47   0
  -4   3 -17   -0.03    4.89   0
  -3   0 -12   70.70    4.60   0
  -3  13  -6   32.55    6.93   0
  -2  -3 -22   62.34    9.12   0
  -2  -2 -10  127.31    4.18   0
  -2  -1  -7   98.44    3.25   0
  -2   0  -5 3085.81    7.54   0
  -2   7   0  342.96    4.64   0
  -1  -4 -12  200.35    5.34   0
  -1  -2  -5 1249.10    5.54   0
  -1   6   2  254.90    4.77   0
  -1   7   2   -9.30    3.88   0
  -1   8   2 1607.09   10.50   0
   0  -4  -8 2230.24    9.16   0
   0  -3  -5  110.08    2.52   0
   0   5   3 3202.01   10.93   0
   0   7   3  309.52    6.22   0
   0  12   1  140.67    9.53   0
   1   2   2 1340.71    5.02   0
   1   5   3  868.62    6.71   0
   1  12   1   22.73    7.55   0
   1  13   0  110.68   11.34   0
   1  14  -1   -3.46    9.89   0
   2  -5 -11  392.34    6.36   0
   2   8   2  219.02    7.14   0
   2  12   0  115.06   10.77   0
   2  13  -1   -3.01    9.16   0
   3  -5 -15    3.59    5.59   0
   3  -4 -10  282.16    4.79   0
   3  -2  -5 1889.17    4.15   0
   3   8   0   73.74    7.22   0
   4  -4 -17    3.67    5.23   0
   4  -3 -12    1.67    3.34   0
   5   2  -9   58.62    3.57   0
  -4   3 -16   -3.19    5.20   0
  -4   4 -13   22.24    3.76   0
  -3  -1 -21   41.33    7.87   0
  -3  -1 -20   41.48    7.20   0
  -3  -1 -19   17.25    6.33   0
  -3  -1 -18   26.47    6.31   0
  -3  -1 -17   -4.51    6.42   0
  -3   1  -9  960.36    6.86   0
  -3   6  -4  165.22    2.36   0
  -3   9  -4   36.25    3.50   0
  -2  -3 -15   12.39    5.00   0
  -2  12  -2   33.07    6.66   0
  -1  -4 -11  138.65    4.46   0
  -1   3   1  101.44    1.69   0
  -1  10   1  172.76    7.62   0
  -1  13  -1   19.70    7.54   0
  -1  14  -2   10.49    8.94   0
   0  -5 -12 1115.98    9.34   0
   0   6   3 5878.97   16.72   0
   0  10   2    7.18    6.02   0
   0  13   0   -8.84    8.95   0
   0  14  -1    5.39   10.39   0
   1  -6 -22   20.18    8.97   0
   1  -6 -21    0.91    7.39   0
   1  -6 -20  105.82    8.82   0
   1  -6 -19   17.54    7.12   0
   1  -6 -18  243.68    9.13   0
   1  -6 -17  154.47    8.04   0
   1  -5 -10  492.82    5.68   0
   1  -3  -4 1340.95    4.88   0
   1  10   2   17.89    6.00   0
   2  -6 -21   27.26    8.82   0
   2  -6 -20   69.00    8.93   0
   2  -6 -19    0.46    7.01   0
   2  -6 -18   81.77    8.45   0
   2   5   2  943.46    7.77   0
   2   6   2 1741.78   11.97   0
   2   7   2  357.90    7.49   0
   2  10   1   10.18    6.97   0
   3  -5 -14   42.35    5.33   0
   3  -3  -7 1664.64    6.40   0
   3   4   0 1748.67   10.30   0
   3  10  -1  169.17   11.25   0
   4  -4 -16   40.34    6.23   0
   4   0  -6   44.61    1.60   0
   4   2  -4   77.88    3.41   0
   4   8  -3    9.08    6.47   0
  -3   2  -7   37.58    2.03   0
  -3  11  -5   28.36    5.23   0
  -2  -3 -14   62.76    5.44   0
  -2  10  -1   78.13    4.96   0
  -2  13  -3   -1.11    6.72   0
  -2  14  -4   38.25    9.15   0
   0  -5 -11 2197.87   12.13   0
   0  -4  -7 3591.84   10.84   0
   1  -6 -16  330.99    8.67   0
   1  -6 -15  661.91   10.33   0
   1  11   1   18.45    6.64   0
   2  -6 -17   22.24    6.06   0
   2  -6 -16  108.71    7.16   0
   2  -5 -10 1166.43    8.49   0
   2  -4  -7 1887.70    7.68   0
   2  11   0   57.23    9.36   0
   3   5   0    7.28    4.48   0
   3   6   0  158.81    6.13   0
   3   7   0  236.23    7.45   0
   3  11  -2    8.80    7.96   0
   4   5  -3   62.39    5.71   0
   4   6  -3   54.30    6.02   0
   4   7  -3   91.72    6.36   0
  -4   3 -15   25.55    4.73   0
  -3  -1 -15   17.10    4.92   0
  -3   0 -11  215.74    5.08   0
  -3   7  -4  175.05    3.27   0
  -3   8  -4    8.36    2.96   0
  -3  12  -6   16.25    5.53   0
  -2  -3 -13  106.87    6.02   0
  -2  -2  -9   26.72    3.37   0
  -2   4  -1  309.60    2.11   0
  -1  -5 -22    0.05    7.50   0
  -1  -5 -21   -2.05    7.38   0
  -1  -5 -20    6.76    6.12   0
  -1  -5 -19   30.89    6.42   0
  -1  -5 -18   13.56    5.84   0
  -1  -5 -17  212.04    8.30   0
  -1  -5 -16    8.59    6.28   0
  -1  -4 -10  134.89    4.21   0
  -1   9   1    1.78    5.35   0
  -1  11   0  156.11    8.07   0
   0  -6 -22   -9.31    8.41   0
   0  -6 -21   -0.92    7.34   0
   0  -6 -20    2.29    6.76   0
   0  -6 -19   10.98    6.42   0
   0  -6 -18   18.47    6.74   0
   0   9   2  113.95    6.50   0
   0  11   1  494.13   12.17   0
   1  -6 -14  277.24    6.89   0
   1  -5  -9   25.08    3.12   0
   1  -4  -6  103.06    3.21   0
   1  12   0    1.52    7.81   0
   1  13  -1   13.13    9.99   0
   1  14  -2   -3.24    9.92   0
   2  -6 -15   65.32    5.60   0
   2   9   1  119.76    7.86   0
   2  12  -1   33.61    9.48   0
   2  13  -2    0.48    9.42   0
   3  -5 -13   44.29    5.34   0
   3   9  -1   17.83    6.54   0
   4  -4 -15    8.54    4.86   0
   4   1  -5   97.57    2.71   0
   4   9  -4   18.55    7.25   0
   5   4  -8   27.82    5.08   0
  -4   5 -11   11.20    2.36   0
  -3  -1 -14   68.06    6.09   0
  -3  13  -7   35.29    7.33   0
  -2  -3 -12  740.01    9.19   0
  -2   9  -1   66.20    4.33   0
  -2  11  -2   98.05    6.14   0
  -1  -5 -15  547.04   10.14   0
  -1  12  -1    0.98    7.16   0
   0  -6 -17    3.99    5.30   0
   0  -6 -16  122.84    7.21   0
   0  -5 -10  426.17    5.75   0
   0   3   2 1552.91    5.58   0
   0   8   2    1.43    5.25   0
   0  12   0  612.00   14.73   0
   0  13  -1    5.25    8.98   0
   0  14  -2   39.74   11.69   0
   1  -6 -13 1510.73   12.33   0
   1  -2  -2 2676.68    4.84   0
   1   3   2  176.21    3.47   0
   1  10   1  350.31   10.60   0
   2  -6 -14  203.38    7.26   0
   2   8   1   48.69    5.79   0
   2  10   0   75.81    8.33   0
   3  -4  -9  156.99    4.07   0
   3  10  -2   75.42    9.54   0
   4  -3 -11   10.25    2.94   0
   4   8  -4   65.65    7.92   0
  -4   2 -18    0.97    5.92   0
  -4   3 -14    1.96    4.23   0
  -4   4 -12    3.24    3.31   0
  -3  -1 -13   10.91    5.10   0
  -3   0 -10  344.04    5.63   0
  -3   1  -8  165.97    3.59   0
  -3  10  -5  197.15    6.03   0
  -2  -4 -21   -1.65    7.81   0
  -2  -4 -20    1.63    7.00   0
  -2  -4 -19   81.65    8.32   0
  -2  -4 -18    6.50    6.79   0
  -2  -1  -6  927.31    5.32   0
  -2  12  -3  123.18    7.46   0
  -2  13  -4    9.12    7.25   0
  -2  14  -5  121.26   10.52   0
  -1  -5 -14  352.85    7.96   0
  -1  -4  -9  512.16    5.87   0
  -1  13  -2   45.23    7.57   0
  -1  14  -3   12.00    8.56   0
   0  -6 -15   62.41    5.76   0
   0  -3  -4 2231.48    6.71   0
   0  10   1   32.84    6.52   0
   2  -5  -9  201.65    4.77   0
   2   3   1   26.11    3.81   0
   3  -6 -19   12.21    8.06   0
   3  -5 -12   99.06    4.99   0
   3   8  -1   -6.56    5.47   0
   3  11  -3    4.03    8.34   0
   4  -4 -14   27.63    4.86   0
   4   3  -4   -2.01    3.23   0
  -4   2 -17    5.92    5.41   0
  -3  -2 -20   22.80    7.97   0
  -3  -2 -19   15.84    7.16   0
  -2  -4 -17  140.08    8.09   0
  -2  -4 -16    8.63    6.49   0
  -2  -3 -11  680.32    8.36   0
  -2   1  -3  523.83    2.48   0
  -2   8  -1  289.39    4.88   0
  -1  -5 -13  512.82    8.37   0
  -1  -3  -6   48.15    2.67   0
  -1  -2  -4 4248.56    9.14   0
  -1   4   1  377.22    3.19   0
  -1  10   0  534.39    9.75   0
   0  -5  -9    2.12    3.14   0
   0  -4  -6  349.27    4.03   0
   0   4   2    7.02    2.48   0
   0   7   2 3539.52   14.96   0
   0  11   0  158.38   10.14   0
   1  -6 -12   77.01    4.74   0
   1  -5  -8  538.64    5.40   0
   1   4   2 4664.72   12.33   0
   1   6   2   -0.44    3.53   0
   1  11   0   86.79    8.19   0
   1  12  -1   91.85    9.67   0
   1  14  -3   -2.87   10.36   0
   2  -6 -13  170.20    5.89   0
   2   7   1   -0.93    5.31   0
   2  11  -1  333.52   12.03   0
   2  12  -2  216.64   12.75   0
   2  13  -3   17.85    9.78   0
   3  -6 -18   45.94    7.67   0
   3   3  -1  942.80    6.57   0
   3   7  -1   55.28    5.58   0
   4   7  -4   63.03    6.24   0
   4   9  -5    9.01    7.08   0
   5   3  -9   49.61    4.60   0
  -4   2 -16   41.27    6.11   0
  -3  -2 -18   23.33    6.88   0
  -3  -2 -17   14.70    6.68   0
  -3  -1 -12   -5.69    4.50   0
  -3  11  -6   97.56    6.54   0
  -2  -4 -15  111.27    6.89   0
  -2   5  -1  376.39    3.30   0
  -2   7  -1 1241.20    7.39   0
  -1  -5 -12  598.96    8.85   0
  -1   7   1  919.51    7.15   0
  -1  11  -1  948.01   13.46   0
   0  -6 -13   -4.54    4.34   0
   0   5   2 1745.87    8.12   0
   0   6   2 2653.74   11.25   0
   0   9   1    7.11    5.28   0
   0  12  -1  300.40   11.60   0
   0  13  -2   81.82   10.36   0
   0  14  -3   29.68   10.83   0
   1  -7 -21   79.42   11.15   0
   1  -7 -20   38.77    8.46   0
   1  -7 -19  159.35   10.02   0
   1  -6 -11  187.99    5.45   0
   1   5   2   57.38    3.46   0
   1  13  -2   97.53   10.67   0
   2  -6 -12   13.23    4.80   0
   2  -4  -6  105.05    3.09   0
   2   5   1 1761.46    9.47   0
   2   6   1 3186.54   14.60   0
   2   9   0   13.81    6.35   0
   3  -6 -17  164.17    8.60   0
   3  -6 -16  105.87    7.37   0
   3   4  -1  317.68    5.73   0
   3   6  -1  154.52    5.48   0
   3   9  -2  343.87   10.09   0
   4   5  -4  550.43    9.40   0
   4   6  -4   -0.14    4.76   0
  -4   2 -15   46.81    5.77   0
  -4   3 -13   85.56    4.83   0
  -3  -2 -16   62.29    7.06   0
  -3  12  -7    1.20    5.30   0
  -2  -4 -14  155.20    7.18   0
  -2   0  -4  737.71    3.78   0
  -2   6  -1 1533.30    7.06   0
  -2  11  -3   -2.61    5.86   0
  -1  -6 -21    8.62    9.20   0
  -1  -6 -20   47.80    9.29   0
  -1  -4  -8  197.64    4.19   0
  -1   6   1  296.57    4.51   0
  -1  12  -2   33.88    7.09   0
  -1  13  -3   41.33    8.04   0
  -1  14  -4   -4.39    8.64   0
   0  -5  -8 1144.34    7.46   0
   1  -7 -18   81.74    7.79   0
   1  -7 -17   62.35    7.27   0
   1  -4  -5  538.82    4.40   0
   1  10   0  133.87    8.59   0
   2  -7 -20   42.69    9.25   0
   2  -7 -19   -2.10    7.76   0
   2  -7 -18   20.03    8.15   0
   2  -3  -4 1026.64    4.27   0
   2  10  -1   10.36    7.06   0
   3  -5 -11    6.66    4.07   0
   3   5  -1  747.06    7.89   0
   3  10  -3  275.75   12.04   0
   4   8  -5  159.14    9.43   0
   5   2 -10   44.67    3.90   0
   5   4  -9   33.18    5.41   0
  -3  -2 -15    5.75    5.31   0
  -3  -1 -11    5.76    3.96   0
  -3   0  -9   19.91    3.25   0
  -2  -4 -13  329.15    7.69   0
  -2  -2  -7   14.25    2.89   0
  -2   9  -2  614.57    7.82   0
  -2  12  -4   16.27    6.11   0
  -2  13  -5   26.47    7.66   0
  -1  -6 -19   33.09    7.23   0
  -1  -6 -17   37.27    7.42   0
  -1  -5 -11    2.74    3.85   0
  -1   9   0  359.18    6.97   0
   0  -7 -21   59.94    9.31   0
   0  -7 -20   27.49    7.60   0
   0  -7 -19   24.16    7.61   0
   0  -2  -2  567.48    2.99   0
   0  10   0  443.59   10.20   0
   1  -7 -16  126.80    8.42   0
   1  -7 -15   32.70    6.53   0
   1  -6 -10   -4.01    3.74   0
   1  -5  -7   75.87    3.41   0
   1  11  -1  125.46    9.37   0
   1  14  -4   17.14    8.94   0
   2  -7 -17   -4.20    6.87   0
   2  -6 -11  528.97    7.64   0
   2  -5  -8 1829.51    8.81   0
   2   8   0  111.66    6.57   0
   2  11  -2  162.41   10.08   0
   2  12  -3   45.21    8.68   0
   2  13  -4    8.21    9.30   0
   3  -6 -15  438.21    9.54   0
   3   8  -2    2.26    5.52   0
   3  11  -4   -0.07    8.31   0
   4  -5 -17   93.98    7.50   0
   4  -4 -13   37.77    4.24   0
   4   2  -5  136.36    4.02   0
  -4   1 -17   21.05    6.86   0
  -4   2 -14  164.96    6.90   0
  -3  -2 -14    9.14    5.04   0
  -2  -3  -9 1458.92   10.13   0
  -2  -1  -5  198.39    3.40   0
  -1  -6 -16  223.87    8.82   0
   0  -7 -18   93.34    8.36   0
   0  -7 -17   -4.50    6.54   0
   0  -6 -11   68.51    4.54   0
   0   8   1  136.57    5.84   0
   0  11  -1  735.39   15.27   0
   0  14  -4  176.60   15.10   0
   1  -7 -14  285.89    9.31   0
   1  -3  -3   12.61    1.81   0
   1  12  -2  -11.06    7.31   0
   1  13  -3   13.80    8.55   0
   2  -7 -16   51.58    7.05   0
   2   7   0 1216.41   11.56   0
   3  -6 -14   79.61    6.37   0
   3   9  -3  218.04   10.08   0
   4   7  -5   99.25    6.91   0
   4   9  -6    2.49    7.11   0
  -4   3 -12   19.32    4.02   0
  -4   4 -11    0.56    2.74   0
  -4   9 -11   24.79    3.22   0
  -3   1  -7  518.80    4.57   0
  -3   2  -6  342.14    2.86   0
  -3   8  -5   74.00    3.80   0
  -3  10  -6  182.97    6.08   0
  -2  -5 -20   22.91    8.55   0
  -2  -5 -19    2.61    7.51   0
  -2  -5 -18  101.06    9.10   0
  -2  -4 -12 1549.66   13.16   0
  -1  -6 -14  296.09    9.81   0
  -1  -5 -10  291.38    5.83   0
  -1  -4  -7  599.46    5.66   0
  -1  -3  -5 2652.15    8.92   0
  -1   8   0  909.42    8.26   0
  -1  10  -1  655.61   10.19   0
  -1  14  -5    1.53    9.85   0
   0  -7 -16  183.29    8.06   0
   0  -6 -10  290.16    6.42   0
   0  -4  -5 4633.42   11.43   0
   0  12  -2  245.99   11.18   0
   0  13  -3   13.78    9.36   0
   2  -7 -15    0.79    5.67   0
   2   9  -1   -3.98    6.38   0
   3  -5 -10   99.78    4.55   0
   3  -3  -6 1379.75    5.06   0
   3   0  -3  238.50    2.05   0
   3  10  -4  229.42   11.35   0
   4  -5 -16   85.52    6.63   0
   4  -3 -10   24.50    2.68   0
   4   6  -5   41.63    6.08   0
   5   1 -11    4.58    2.68   0
  -4   1 -16    6.74    5.09   0
  -3  -3 -19   47.68    8.60   0
  -3  -3 -18    8.21    7.00   0
  -3  -2 -13   11.96    4.97   0
  -3  -1 -10   75.26    4.24   0
  -3  11  -7   32.66    5.81   0
  -3  12  -8   36.76    6.19   0
  -2  -5 -17   35.20    7.62   0
  -2  -5 -16   71.88    7.88   0
  -2  -4 -11  653.40    9.44   0
  -2   8  -2    3.01    3.85   0
  -2  10  -3    9.24    4.75   0
  -2  14  -7   88.80   10.64   0
  -1   2   0  530.79    1.88   0
  -1  11  -2  288.37    8.47   0
  -1  13  -4   19.38    7.28   0
   0  -7 -15   35.94    5.58   0
   0  -7 -14  209.61    8.77   0
   0   2   1  137.71    1.98   0
   0   7   1  309.91    5.96   0
   0   9   0  214.41    7.18   0
   1  -7 -13   42.41    5.43   0
   1  -6  -9  208.54    4.81   0
   1   2   1 1887.99    5.78   0
   1   6   1   68.21    4.30   0
   1  10  -1  723.42   13.39   0
   1  14  -5   31.84   10.63   0
   2  -7 -14    7.21    5.18   0
   2  -6 -10   23.20    3.94   0
   2   2   0   42.41    2.40   0
   2   6   0  468.62    6.90   0
   2  10  -2  255.80   10.03   0
   2  11  -3  375.41   12.52   0
   2  12  -4   13.35    8.80   0
   2  13  -5   42.23   10.67   0
   3  -6 -13  275.31    8.16   0
   3   6  -2    7.38    4.39   0
   3  11  -5   41.34    8.96   0
   4   5  -5  205.41    7.26   0
   4   8  -6   98.25    7.73   0
   5   3 -10   71.45    5.44   0
  -4   1 -15   22.85    5.87   0
  -4   2 -13   81.80    5.28   0
  -3  -3 -16   60.09    7.70   0
  -3  -2 -12   20.13    5.28   0
  -3   0  -8  319.83    5.00   0
  -2  -3  -8  141.02    4.93   0
  -2  -2  -6  571.92    5.63   0
  -2  11  -4   62.83    6.15   0
  -2  12  -5  112.01    8.57   0
  -2  13  -6   29.90    7.61   0
  -1  -6 -13  675.19   11.14   0
  -1  -5  -9   49.94    4.20   0
  -1   7   0    9.41    4.14   0
   0  -3  -3   31.50    2.08   0
   0   6   1 8960.53   20.16   0
   0  14  -5  170.69   14.28   0
   1  -8 -20   26.35    9.56   0
   1  -7 -12  273.80    7.16   0
   1  -5  -6    8.71    3.25   0
   1  11  -2   64.37    7.57   0
   1  12  -3   30.45    7.55   0
   1  13  -4    4.79    9.18   0
   2  -7 -13   87.63    6.36   0
   2  -5  -7  154.68    4.07   0
   2   0  -1 2188.50    4.08   0
   2   8  -1   40.46    6.39   0
   3  -7 -18   39.91    9.47   0
   3   3  -2   77.76    3.57   0
   3   5  -2  118.08    5.19   0
   3   8  -3  208.11    7.58   0
   4  -5 -15  197.40    7.98   0
   4  -4 -12   57.60    4.27   0
   4   9  -7    4.70    7.10   0
   5   4 -10    5.57    5.21   0
  -3  -3 -15   71.15    7.64   0
  -3   7  -5   18.98    2.82   0
  -2  -5 -14    0.84    5.92   0
  -2  -4 -10  995.24   10.60   0
  -1  -7 -20    3.85    8.58   0
  -1  -6 -12   92.46    5.68   0
  -1  -2  -3 1215.46    4.99   0
  -1   9  -1  131.16    5.69   0
  -1  14  -6   15.43    9.25   0
   0  -7 -13   45.60    6.16   0
   0  10  -1   11.54    6.04   0
   0  11  -2  212.31   10.21   0
   0  13  -4   15.59    9.40   0
   1  -8 -19    7.01    8.28   0
   1  -8 -18    9.74    7.58   0
   1  -6  -8 1301.06    9.10   0
   1  -4  -4  587.42    4.40   0
   1   3   1  740.65    4.69   0
   1   4   1    5.54    2.91   0
   1   5   1 2785.89   10.82   0
   2  -6  -9   60.39    4.68   0
   2   3   0  843.24    5.48   0
   3  -7 -17   41.70    9.07   0
   3   4  -2 1607.83    9.45   0
   3   9  -4  404.05   11.17   0
   4   7  -6  181.49    8.38   0
  -4   0 -17    9.01    7.39   0
  -4   1 -14   -0.14    5.39   0
  -3  -1  -9    0.67    3.63   0
  -3   9  -6  130.25    4.38   0
  -2  -5 -13  376.60   10.16   0
  -2   7  -2   10.26    3.40   0
  -2   9  -3  453.19    7.23   0
  -1  -7 -18   15.88    7.83   0
  -1  -5  -8 1072.77    8.69   0
  -1   6   0  293.44    4.96   0
  -1  10  -2 1396.59   14.31   0
  -1  13  -5  117.13    9.12   0
   0  -8 -20   64.51   10.87   0
   0  -8 -19   72.36   10.84   0
   0  -7 -12   17.74    4.78   0
   0  -5  -6  856.37    6.43   0
   0   3   1 1115.25    4.82   0
   0   5   1   40.77    3.47   0
   0   8   0   42.33    4.89   0
   0  12  -3  268.87   10.57   0
   1  -8 -17   34.32    7.43   0
   1  -8 -16   33.53    7.52   0
   1  -7 -11   23.49    4.86   0
   1  14  -6   10.77   10.22   0
   2  -8 -19   39.95   10.22   0
   2  -8 -18    5.11    9.77   0
   2  -7 -12   34.00    5.76   0
   2   7  -1  180.92    6.59   0
   2   9  -2   65.77    7.04   0
   2  13  -6   41.67   11.00   0
   3  -7 -16  279.50   11.89   0
   3  -6 -12   99.41    5.26   0
   3   7  -3  319.47    7.94   0
   3  10  -5   54.67    8.73   0
   3  11  -6   -5.01    8.40   0
   4   1  -6  627.40    5.22   0
   4   8  -7  171.42    9.93   0
  -4   3 -11  138.30    4.94   0
  -3  -3 -14   27.61    5.85   0
  -3   6  -5    0.23    2.23   0
  -3  12  -9   97.57    7.25   0
  -2  -6 -19   -2.38    9.00   0
  -2  -3  -7 2721.53   13.09   0
  -2  13  -7   -7.20    8.19   0
  -1  -7 -16   26.45    6.91   0
  -1  -3  -4 1016.95    5.52   0
  -1   0  -1   35.30    1.03   0
  -1  11  -3  516.09    9.94   0
  -1  12  -4    0.33    6.53   0
   0  -8 -18   -3.21    7.44   0
   0  -8 -17   82.36    8.24   0
   0  -6  -8  864.94    8.03   0
   0  -4  -4  247.85    3.63   0
   0   4   1   22.71    2.67   0
   0  14  -6  172.68   14.72   0
   1  -8 -15   26.61    6.85   0
   1  13  -5   22.67    9.31   0
   2  -8 -17   59.72    9.11   0
   2  10  -3   12.12    7.14   0
   2  11  -4   69.66    8.84   0
   2  12  -5   12.30    8.64   0
   3  -5  -9  101.13    4.00   0
   3  -4  -7  555.23    4.77   0
   4  -5 -14  192.05    7.06   0
   4   6  -6    4.44    4.86   0
   4   9  -8   -1.76    7.50   0
  -4   0 -16    7.32    6.35   0
  -4   8 -11  200.86    4.30   0
  -3  -4 -18   20.16    8.60   0
  -3  -3 -13   12.14    5.67   0
  -3   3  -5  150.70    1.32   0
  -3  10  -7  400.73    7.59   0
  -3  11  -8   32.58    6.08   0
  -2  -6 -17   -1.36    7.50   0
  -2  -5 -12   34.14    5.94   0
  -2  -4  -9  316.71    6.85   0
  -2  10  -4  133.09    5.56   0
  -2  11  -5   44.85    6.87   0
  -2  12  -6   50.01    7.99   0
  -1  -7 -15    9.47    5.88   0
  -1  -7 -14   87.00    7.86   0
  -1  -6 -10   35.41    4.97   0
  -1   8  -1    1.13    4.07   0
   0  -8 -16   -0.14    6.81   0
   0  -7 -11   67.92    4.90   0
   0   9  -1   48.59    6.05   0
   0  13  -5  245.61   13.28   0
   1  -8 -14    5.13    6.35   0
   1  -7 -10   63.78    5.21   0
   1  10  -2  923.27   12.87   0
   1  11  -3  353.89   11.65   0
   1  12  -4    2.99    7.92   0
   2  -8 -16   71.47    8.77   0
   2  -7 -11  132.71    6.48   0
   3  -7 -15  113.44    7.78   0
   3  -6 -11  163.67    6.08   0
   3   6  -3    7.04    4.46   0
   3   8  -4   10.70    5.63   0
   4   5  -6  490.73    9.00   0
   5   2 -11   64.15    4.47   0
  -4   0 -15   21.27    6.14   0
  -4   1 -13   33.17    5.63   0
  -3  -4 -17   -3.21    7.20   0
  -3  -2 -10  103.00    5.68   0
  -3   0  -7  115.55    3.43   0
  -3   5  -5  502.45    2.97   0
  -2  -6 -16   -8.78    7.35   0
  -2  -5 -11  749.85   10.49   0
  -2  -2  -5   69.98    3.49   0
  -2   6  -2 2817.22    9.27   0
  -2  14  -9   86.88   10.83   0
  -1  -5  -7  138.01    4.45   0
  -1   4   0 1199.07    5.05   0
  -1  14  -7    4.05    9.10   0
   0  -8 -15  106.12    8.67   0
   0  -7 -10    6.66    4.25   0
   0   7   0 1478.55   10.14   0
   0  10  -2   24.89    6.47   0
   0  11  -3   99.77    8.33   0
   0  12  -4   22.43    7.72   0
   1  -8 -13    1.79    6.41   0
   1  -6  -7    5.55    3.49   0
   1  14  -7   33.93   11.29   0
   2  -8 -15   30.90    7.00   0
   2  -6  -8  278.94    5.30   0
   2   6  -1 1966.12   11.44   0
   2   8  -2  440.46    9.23   0
   2  13  -7  187.93   13.93   0
   3  -7 -14  153.96    7.78   0
   3   9  -5  289.70   10.18   0
   3  10  -6  115.81   10.53   0
   3  11  -7   -3.51    8.89   0
   4  -4 -11  311.75    5.85   0
   4   2  -6  494.45    5.81   0
   4   4  -6   69.47    4.85   0
   4   7  -7   77.16    7.52   0
   5   3 -11   11.19    4.87   0
   5   4 -11    5.10    5.41   0
  -3  -4 -16    1.77    6.94   0
  -3  -3 -12  164.50    6.83   0
  -3   1  -6    3.12    2.13   0
  -3   8  -6    3.59    3.47   0
  -2  -6 -15   48.86    8.03   0
  -2  -4  -8 1446.61   10.87   0
  -2   8  -3  329.99    5.79   0
  -1  -7 -13   -2.37    5.66   0
  -1  -6  -9  230.42    6.07   0
  -1  -4  -5   13.95    3.06   0
  -1   9  -2  247.89    6.48   0
  -1  13  -6  101.82    8.95   0
   0  -8 -14   76.38    7.20   0
   0  -6  -7   13.31    3.67   0
   0  -5  -5  759.22    6.10   0
   0  14  -7  210.01   15.64   0
   1  -7  -9    0.51    4.62   0
   1   6   0    1.88    3.59   0
   1  13  -6   16.87    9.40   0
   2  -8 -14   96.91    8.14   0
   2   9  -3   30.20    6.76   0
   2  10  -4   78.34    7.57   0
   2  11  -5   27.58    8.50   0
   2  12  -6   44.93    9.33   0
   3   5  -3   69.14    4.32   0
   3   7  -4   27.60    6.36   0
   4  -5 -13  154.52    6.02   0
   4   8  -8    3.12    7.98   0
  -4   4 -10   22.02    2.46   0
  -4   9 -12   63.98    4.81   0
  -3  -4 -15    6.62    6.67   0
  -3  12 -10   67.14    7.85   0
  -2  -6 -14   -0.20    6.98   0
  -2  -3  -6 1898.91   10.22   0
  -2   5  -2  969.79    4.91   0
  -2  13  -8   66.64    8.49   0
  -1  -8 -18    3.43    7.39   0
  -1   7  -1 1019.70    7.73   0
  -1  10  -3  553.73    9.74   0
  -1  11  -4   68.32    6.91   0
  -1  12  -5   41.93    7.29   0
   0  -8 -13    3.12    5.64   0
   0  -7  -9 1018.51   11.10   0
   0   6   0 1331.48    8.32   0
   0   8  -1  273.45    6.55   0
   1  -9 -18   -0.36    8.55   0
   1  -8 -12   27.94    6.20   0
   1  12  -5   60.16    9.08   0
   2  -7 -10  102.91    5.37   0
   2   7  -2   63.91    6.16   0
   3  -7 -13   31.97    5.96   0
   3   4  -3  254.81    5.53   0
   4   6  -7   49.57    6.71   0
   4   9  -9   -0.64    7.94   0
  -4  -1 -16   67.90    8.45   0
  -4   1 -12    7.56    4.70   0
  -4   2 -11  182.17    5.76   0
  -3  -4 -14  101.39    7.70   0
  -3  -2  -9  681.57    8.99   0
  -3   9  -7   12.05    3.89   0
  -2  -6 -13  120.37    8.24   0
  -2   9  -4  569.34    7.98   0
  -2  12  -7   15.90    7.73   0
  -1  -8 -17   -4.60    8.21   0
  -1  -8 -16   -1.01    7.74   0
  -1  -7 -11   24.64    6.26   0
  -1  -5  -6  410.46    5.63   0
  -1  14  -8   -3.04    8.98   0
   0  -8 -12   73.34    6.86   0
   0  -3  -2 1607.36    5.85   0
   0  13  -6  154.11   11.50   0
   1  -9 -17   36.09    9.29   0
   1  -9 -16   -0.29    8.22   0
   1  -6  -6  411.34    5.87   0
   1  -3  -2 2260.96    6.01   0
   1   5   0  128.04    4.03   0
   1  10  -3  515.53   10.76   0
   1  11  -4   32.57    6.96   0
   1  14  -8   -9.12   10.31   0
   2  -8 -13    9.19    6.09   0
   2  13  -8  116.46   12.35   0
   3  -6 -10  462.31    7.19   0
   3  -5  -8   16.70    3.31   0
   3   3  -3 1697.61    8.49   0
   3   8  -5  163.33    7.45   0
   3   9  -6  186.64   10.01   0
   3  11  -8   83.36   10.81   0
  -3  10  -8  101.64    6.14   0
  -2  -7 -17   21.60   10.20   0
  -2  -6 -12   23.00    6.87   0
  -2   3  -2  227.29    1.56   0
  -2   4  -2  253.91    2.40   0
  -2  10  -5   -1.17    4.66   0
  -2  11  -6  160.97    7.48   0
  -1  -8 -15    7.06    6.85   0
  -1  -6  -8   11.06    4.28   0
  -1  13  -7  190.12   10.41   0
   0  -9 -18   11.57    9.12   0
   0  -9 -17    2.28    8.19   0
   0  -6  -6  671.93    6.96   0
   0  -4  -3   55.63    2.93   0
   0   9  -2  799.30   10.30   0
   0  10  -3   23.12    6.23   0
   0  11  -4  293.37   10.49   0
   0  12  -5   26.04    8.18   0
   0  14  -8   80.24   13.47   0
   1  -9 -15   71.11    9.65   0
   1  -8 -11  259.41    8.30   0
   1  -7  -8  426.36    7.28   0
   1  -4  -3   79.79    2.66   0
   1  13  -7   99.82   11.31   0
   2  -9 -17    7.36    8.77   0
   2  -8 -12   61.83    6.53   0
   2  -7  -9  863.14   10.15   0
   2  -6  -7   83.65    4.21   0
   2  -4  -4  189.83    2.99   0
   2  -3  -3  146.01    2.12   0
   2   3  -1  315.55    4.47   0
   2   8  -3  983.60   12.55   0
   2  12  -7    0.04    8.77   0
   3   6  -4  709.71    8.86   0
   3  10  -7   15.23    7.76   0
   4  -6 -15  115.31    7.42   0
   4   0  -7   67.18    2.27   0
   4   5  -7   85.89    5.99   0
   4   7  -8  267.31    9.46   0
   5   1 -12    9.74    3.48   0
  -4  -1 -15   82.32    8.03   0
  -4   0 -13    9.62    5.30   0
  -3  -5 -17   24.86    9.34   0
  -3  -3 -10  226.44    7.44   0
  -2  -7 -16   38.57    9.23   0
  -2  -4  -7  373.09    6.25   0
  -2   7  -3  403.23    5.30   0
  -2  13  -9   40.78    8.50   0
  -1  -8 -14   81.35    8.51   0
  -1  -7 -10   15.07    4.93   0
  -1  -4  -4   46.83    2.96   0
  -1  -2  -2 1328.87    5.18   0
  -1   6  -1  966.91    7.26   0
  -1   8  -2   30.25    4.36   0
  -1  12  -6  137.18    9.19   0
   0  -9 -16   -3.46    7.72   0
   0  -8 -11  132.96    7.21   0
   0  -7  -8   79.66    5.08   0
   0   5   0 5890.22   14.39   0
   1  -9 -14   10.37    8.01   0
   1   4   0 3313.88   10.45   0
   1  12  -6   58.16    8.69   0
   1  14  -9    0.52   11.01   0
   2  -9 -16    5.53    8.21   0
   2   6  -2  306.89    6.41   0
   2   9  -4  526.83   10.32   0
   2  10  -5  -10.81    7.43   0
   2  11  -6   89.03    9.08   0
   2  13  -9   72.02   12.53   0
   3  -8 -16    4.52    7.48   0
   3  -7 -12   64.82    6.30   0
   3  -1  -4  367.72    1.77   0
   4  -5 -12  302.66    6.91   0
   4   8  -9   90.97    8.26   0
   4   9 -10    3.63    7.92   0
  -4   3 -10  314.93    4.90   0
  -3  -4 -12  188.43    7.81   0
  -3  -1  -7  168.52    4.63   0
  -3   7  -6  461.52    5.33   0
  -3  12 -11  104.30    9.19   0
  -2  -7 -15   -8.31    7.93   0
  -2  -6 -11   17.75    6.28   0
  -1  -6  -7   21.86    4.97   0
  -1   9  -3 1063.91   10.52   0
  -1  10  -4  766.14   11.91   0
  -1  11  -5   61.92    6.90   0
  -1  14  -9   -8.04    9.33   0
   0  -9 -15   11.67    7.47   0
   0  -5  -4  144.70    3.87   0
   0  -2  -1  130.57    2.10   0
   0   7  -1  379.23    6.44   0
   0  13  -7  143.82   11.87   0
   1  -8 -10  249.35    7.98   0
   1   3   0  365.85    3.80   0
   1  10  -4 1025.41   15.16   0
   1  11  -5  140.60    8.98   0
   2  -9 -15   32.25    9.10   0
   2  -8 -11   16.41    5.79   0
   3  -8 -15    9.30    7.98   0
   3   5  -4    2.44    4.75   0
   3   7  -5  230.64    7.49   0
   3  11  -9   55.29    9.95   0
   4   4  -7  323.28    7.12   0
   4   6  -8   18.43    6.20   0
   5   2 -12   41.08    4.85   0
   5   3 -12   58.17    5.74   0
  -4  -1 -14   66.77    7.26   0
  -4   0 -12   38.21    6.02   0
  -4   1 -11    1.89    4.26   0
  -4   7 -11   35.12    3.06   0
  -3  -5 -15  139.01   10.32   0
  -3  -2  -8   92.35    4.30   0
  -3   0  -6    4.49    2.61   0
  -3   2  -5   58.10    1.72   0
  -2  -7 -14  150.73   10.42   0
  -2  -5  -8   42.62    5.00   0
  -2  -3  -5  787.38    6.54   0
  -2  -2  -4    9.53    2.67   0
  -2  12  -8   30.05    6.94   0
  -1  -7  -9  241.03    7.36   0
  -1  -5  -5  342.06    5.31   0
  -1  13  -8   53.55    8.91   0
   0  -9 -14   60.14    8.50   0
   0  12  -6   20.59    8.51   0
   0  14  -9  203.01   15.16   0
   1  -9 -13   14.17    7.49   0
   1  -7  -7   14.14    4.49   0
   1   2   0  394.91    3.27   0
   1   6  -1   64.26    4.14   0
   1  13  -8   22.50   10.25   0
   2   7  -3  311.72    7.04   0
   2  12  -8   46.20    9.81   0
   3  -6  -9   59.11    4.49   0
   3   8  -6   77.61    6.66   0
   3   9  -7  259.27    9.85   0
   3  10  -8   56.67    8.76   0
   4  -6 -14   43.82    6.07   0
  -3  -5 -14   42.39    7.71   0
  -3  -4 -11    2.04    5.01   0
  -3  -3  -9   15.52    4.99   0
  -3  11 -10   28.16    6.39   0
  -2  -7 -13    5.20    7.41   0
  -2  -6 -10   13.25    5.50   0
  -2  -4  -6  561.62    6.71   0
  -2  -1  -3 1188.74    5.41   0
  -2   8  -4  172.11    4.68   0
  -2  11  -7   45.63    7.20   0
  -1  14 -10   -9.25   10.85   0
   0  -9 -13   12.68    6.77   0
   0  -7  -7  753.60    9.21   0
   0  -6  -5  713.53    7.20   0
   0   4   0 1088.20    5.78   0
   0   8  -2   99.21    5.66   0
   0   9  -3  758.33   10.30   0
   0  10  -4   15.01    6.89   0
   0  11  -5   57.78    8.06   0
   1  -9 -12  132.26    9.34   0
   1  -8  -9 1100.18   12.75   0
   1  -6  -5  638.03    6.29   0
   1  -2  -1 6053.99    6.89   0
   1  14 -10   10.33   10.99   0
   2  -9 -14   10.86    7.15   0
   2  -7  -8  156.03    5.69   0
   2   8  -4  131.95    8.29   0
   2  11  -7    1.09    7.99   0
   2  13 -10   86.53   12.42   0
   3  -8 -14   14.32    7.49   0
   3  -7 -11   53.12    5.94   0
   3  -4  -6   63.72    2.65   0
   4   1  -7  664.52    5.57   0
   4   2  -7  286.33    5.24   0
   4   7  -9  161.04    8.42   0
   4   8 -10   54.06    8.06   0
   4   9 -11    0.78    8.08   0
  -4  -2 -15   30.46    7.66   0
  -4  -1 -13   51.74    7.19   0
  -3  -5 -13  220.72   10.70   0
  -3  10  -9   84.70    6.50   0
  -2   9  -5  641.51    8.14   0
  -2  10  -6   17.72    5.06   0
  -2  13 -10   67.54    8.94   0
  -1  -9 -16    2.42    8.81   0
  -1  -8 -11   20.55    6.58   0
  -1   7  -2  256.92    5.03   0
  -1  12  -7   28.33    7.80   0
   0  -9 -12  205.78    9.56   0
   0  -8  -9    9.31    5.21   0
   0   6  -1 4110.61   13.85   0
   0  13  -8  246.99   13.85   0
   1 -10 -16    3.93    9.57   0
   1  12  -7   61.37    8.87   0
   2  -9 -13   -4.87    7.18   0
   2  -8 -10   33.94    5.42   0
   2  -6  -6  146.15    4.10   0
   2   9  -5   79.03    7.96   0
   2  10  -6   19.75    6.96   0
   3   4  -4 1106.91    8.20   0
   3   6  -5   81.61    5.17   0
   3  11 -10   44.03    9.46   0
   4   5  -8   37.47    5.69   0
   5   0 -13   58.44    3.88   0
  -4   9 -13   10.11    4.54   0
  -3  -4 -10    7.06    5.28   0
  -3   9  -8  101.20    4.82   0
  -2  -8 -16   -1.79    9.97   0
  -2  -6  -9    6.59    5.38   0
  -2  -5  -7    6.56    4.82   0
  -2   6  -3  731.08    5.75   0
  -1  -9 -15   51.56    9.81   0
  -1  -7  -8  320.90    7.93   0
  -1  -6  -6   30.39    4.25   0
  -1  -1  -1 6164.39    8.55   0
  -1  11  -6   55.23    7.11   0
   0 -10 -16   32.55    9.80   0
   0   3   0  397.18    3.47   0
   0  12  -7   27.48    9.31   0
   0  14 -10   63.80   13.24   0
   1 -10 -15    7.42    8.80   0
   1  -9 -11   32.71    7.32   0
   1  -7  -6 1318.33   10.69   0
   1   5  -1 2221.68    9.98   0
   1  10  -5   90.73    7.50   0
   1  11  -6   11.73    7.25   0
   1  13  -9  106.10   11.34   0
   2  12  -9    1.40    8.94   0
   3  -8 -13   -1.53    6.63   0
   3   7  -6   -0.03    5.44   0
   3   9  -8   47.69    8.55   0
   3  10  -9    7.00    8.73   0
   4  -6 -13  118.18    6.85   0
  -4  -2 -14   35.62    7.75   0
  -4  -1 -12    0.33    6.19   0
  -3  -6 -15    2.51    8.97   0
  -3  -5 -12  122.71    8.91   0
  -3  -2  -7  386.91    6.26   0
  -3  -1  -6  911.40    7.53   0
  -3   1  -5  530.12    4.03   0
  -2  -7 -11    0.46    6.85   0
  -2  12  -9    1.47    7.09   0
  -1  -9 -14    7.02    8.02   0
  -1  -8 -10  252.12    9.65   0
  -1  -4  -3  411.82    4.97   0
  -1   8  -3  138.41    5.32   0
  -1   9  -4   26.69    5.29   0
  -1  10  -5  260.51    8.18   0
  -1  13  -9  123.41   10.09   0
   0 -10 -15  150.75   11.61   0
   0  -9 -11   22.87    6.57   0
   0  -8  -8   87.81    6.33   0
   0  -7  -6  454.01    7.34   0
   0  -5  -3 3260.97   11.22   0
   0  -4  -2    8.84    2.74   0
   1 -10 -14   12.08    8.99   0
   1  -8  -8   80.15    6.29   0
   1  14 -11   11.26    9.88   0
   2  -9 -12   74.26    8.07   0
   2   6  -3  588.18    7.23   0
   2  11  -8   88.01    9.31   0
   2  13 -11   30.51   11.57   0
   3  -7 -10   67.89    5.90   0
   3   3  -4  852.54    6.67   0
   3   8  -7   97.68    6.86   0
   4  -5 -11  106.50    4.74   0
   4   4  -8   21.55    4.97   0
   4   7 -10  385.06   11.58   0
   4   8 -11   89.37    8.58   0
  -4   1 -10   48.54    4.81   0
  -3   6  -6    2.68    2.78   0
  -3  11 -11   21.32    7.50   0
  -2  -8 -14   -0.78    8.73   0
  -2  -6  -8  440.76    9.72   0
  -2  -4  -5 1236.38    8.81   0
  -2  -3  -4  624.10    5.80   0
  -2  11  -8    3.05    6.96   0
  -2  13 -11    4.84    8.65   0
  -1  -9 -13  104.35    9.82   0
  -1  -7  -7  122.01    6.17   0
  -1  -5  -4   37.09    3.49   0
  -1  -3  -2  144.06    3.13   0
   0 -10 -14   20.60    7.73   0
   0  -9 -10  413.47   11.89   0
   0  -6  -4 1709.79    9.94   0
   0   7  -2   29.02    4.35   0
   0  11  -6  458.78   12.17   0
   0  13  -9  125.32   12.46   0
   0  14 -11  108.67   14.60   0
   1  -9 -10  536.81   12.24   0
   1  -5  -3 2345.48    9.25   0
   1  12  -8  308.79   12.28   0
   2  -8  -9  107.78    6.20   0
   2  -7  -7    9.56    4.44   0
   2   7  -4  752.72    9.38   0
   2  10  -7  135.83    9.56   0
   2  12 -10   19.76    9.96   0
   3  -8 -12    2.13    6.39   0
   3  -6  -8  333.57    5.92   0
   3   5  -5   11.50    4.22   0
   3  11 -11   68.95   10.34   0
   5   1 -13    1.60    4.27   0
   5   2 -13   99.54    6.32   0
  -4  -2 -13   18.69    6.75   0
  -3  -6 -14   85.23   10.09   0
  -3  -5 -11  170.38    8.01   0
  -3  -4  -9   64.69    5.61   0
  -2  -8 -13   31.51    8.49   0
  -2  -7 -10   -8.30    7.15   0
  -2  -5  -6   50.20    5.26   0
  -2   7  -4   21.63    3.62   0
  -2  10  -7    0.97    5.82   0
  -1  -9 -12   -5.24    7.64   0
  -1  -8  -9  485.28   11.17   0
  -1  -6  -5  636.82    7.56   0
  -1   4  -1 1373.04    5.56   0
  -1  12  -8  219.86   10.27   0
   0 -10 -13  178.71   11.46   0
   0   2   0  891.36    3.55   0
   0   5  -1 1142.18    7.17   0
   0   8  -3 3006.65   15.73   0
   0   9  -4 2054.48   15.33   0
   0  10  -5    7.28    6.40   0
   1 -10 -13   25.15    9.34   0
   1  -6  -4   90.37    4.24   0
   1  -4  -2 1380.62    5.89   0
   1   4  -1  956.33    6.25   0
   1   6  -2  284.88    5.45   0
   1  11  -7   16.08    7.74   0
   1  13 -10    3.90    9.99   0
   1  14 -12   50.45   12.30   0
   2 -10 -15   32.04   10.18   0
   2  -9 -11   54.68    7.29   0
   2   3  -2   46.47    3.58   0
   2   8  -5  574.19   10.34   0
   2   9  -6  174.51    8.35   0
   2  13 -12   55.57   12.69   0
   3   0  -4    2.70    1.84   0
   3  10 -10    9.01    9.01   0
  -3  -6 -13   54.82    9.09   0
  -3  10 -10   21.48    6.16   0
  -3  12 -13  106.73   10.06   0
  -2  -2  -3   98.39    3.05   0
  -2   8  -5  585.81    7.59   0
  -2   9  -6  188.85    6.94   0
  -1  -9 -11   24.81    8.18   0
  -1   6  -2   27.92    3.65   0
  -1  11  -7   -3.43    6.45   0
  -1  13 -10   95.50   10.11   0
  -1  14 -12    8.51   10.21   0
   0  -9  -9  160.44    8.20   0
   0  -8  -7   26.86    4.99   0
   0  -7  -5  321.97    6.70   0
   0  -3  -1 1189.08    5.17   0
   0  12  -8    5.16    8.56   0
   1 -10 -12    8.77    7.82   0
   1  -9  -9  235.40    9.22   0
   1  -7  -5  258.68    6.16   0
   1  10  -6  274.31    8.99   0
   2 -10 -14    7.05    8.83   0
   2  11  -9   -3.47    8.56   0
   3  -9 -14   10.68    8.67   0
   3   6  -6  197.87    6.19   0
   3   7  -7   26.85    6.66   0
   3   8  -8  227.11    9.29   0
   3   9  -9  249.60   10.42   0
   3  11 -12   26.67   10.76   0
   4   8 -12   63.96    9.46   0
  -4  -3 -14   21.54    7.30   0
  -4  -2 -12    2.05    6.25   0
  -4  -1 -11   46.27    5.90   0
  -4   0 -10  100.64    5.83   0
  -3  -6 -12   91.70    9.74   0
  -3  -5 -10  184.26    8.47   0
  -3  -2  -6  997.14    9.52   0
  -3   0  -5  212.45    3.53   0
  -2  -7  -9  161.37    8.85   0
  -2  -6  -7   17.12    5.43   0
  -2   5  -3  753.57    4.76   0
  -1  -8  -8  160.62    7.84   0
  -1  -7  -6 1081.97   11.49   0
  -1  10  -6 1095.54   14.41   0
   0 -10 -12   26.17    8.63   0
   0  11  -7  143.65   10.68   0
   0  13 -10  167.81   13.16   0
   0  14 -12   93.83   14.48   0
   1  12  -9  188.76   11.03   0
   1  13 -11    7.54   10.25   0
   2 -10 -13   96.36   11.65   0
   2  -9 -10   12.39    6.83   0
   2  -8  -8   71.67    5.59   0
   2  10  -8    2.08    8.57   0
   2  12 -11   44.89   11.06   0
   3  -8 -11  111.79    7.44   0
   3  -7  -9   92.15    5.91   0
   3   4  -5 1330.13    9.42   0
   4  -7 -14    2.55    6.54   0
   4  -6 -12    7.08    4.58   0
   4   6 -10  116.36    6.68   0
   4   7 -11  371.90   11.63   0
  -3  -4  -8   24.41    5.01   0
  -3   7  -7  395.95    5.50   0
  -3   8  -8  195.24    5.48   0
  -3   9  -9    4.38    4.86   0
  -2  -8 -11   11.52    7.97   0
  -2  11  -9   80.16    8.05   0
  -1 -10 -14    9.08    8.96   0
  -1  -9 -10  121.12    9.00   0
  -1  -5  -3  914.79    7.16   0
  -1  -2  -1 2212.79    6.74   0
  -1   7  -3  887.97    7.64   0
  -1   8  -4   36.99    5.76   0
  -1   9  -5  615.41    9.74   0
  -1  12  -9  102.93    9.78   0
   0 -10 -11  413.52   13.94   0
   0  -8  -6   18.03    5.08   0
   0   6  -2 1339.43    8.46   0
   1 -10 -11   28.74    8.27   0
   1  -9  -8  470.55   11.68   0
   1  11  -8   -3.80    8.29   0
   2  -7  -6  921.99    8.69   0
   2   2  -2  200.19    3.39   0
   2   6  -4  237.26    5.92   0
   2   9  -7   35.55    7.85   0
   3  -9 -13    1.30    8.08   0
   3  10 -11   23.30    9.13   0
   4  -1  -8  326.99    3.01   0
   4   2  -8  886.43    7.67   0
  -4  -3 -13   10.09    7.65   0
  -4   2  -9  567.23    6.55   0
  -3  -7 -14    5.64    9.35   0
  -3  -5  -9    0.40    6.35   0
  -3  11 -12   29.12    7.32   0
  -2  -9 -14   20.35   11.30   0
  -2  -7  -8    7.93    6.29   0
  -2  -5  -5  400.40    6.88   0
  -2  -4  -4  191.19    4.94   0
  -1 -10 -13   -1.55    8.67   0
  -1  -8  -7  974.06   13.10   0
  -1  -6  -4   41.11    4.47   0
  -1  -4  -2 5357.68   13.69   0
  -1  13 -11   32.89   10.02   0
  -1  14 -13    9.68   10.77   0
   0  -6  -3 6975.66   19.22   0
   0  -5  -2 1866.27    8.79   0
   0  10  -6   36.19    6.85   0
   0  12  -9    9.11    8.82   0
   0  14 -13   14.37   13.16   0
   1 -11 -14    2.99    9.14   0
   1  -8  -6  548.71    8.98   0
   1   3  -1 1462.21    6.36   0
   1   5  -2 1145.23    7.56   0
   2 -10 -12  140.89   11.44   0
   2   7  -5    3.87    5.06   0
   2   8  -6  261.16    9.20   0
   2  11 -10   74.88    9.83   0
   3   5  -6  327.96    6.95   0
   3   9 -10  179.39    9.84   0
   3  11 -13  210.88   13.63   0
   4   1  -8  174.68    4.46   0
   4   4  -9   43.78    5.50   0
   4   8 -13   -2.48    8.90   0
  -4  -2 -11   44.70    7.24   0
  -4  -1 -10   17.81    5.22   0
  -4   1  -9    1.87    4.07   0
  -3  -7 -13   -5.10    9.31   0
  -3  -1  -5 1432.31    8.85   0
  -2  -9 -13   -0.52   10.03   0
  -2  -8 -10    8.98    7.38   0
  -2  -6  -6 1038.18   12.12   0
  -2  -3  -3  101.44    3.96   0
  -2  10  -8  154.60    7.59   0
  -2  12 -11   14.21    8.03   0
  -2  13 -13   28.39    9.74   0
  -1 -10 -12   -1.46    8.33   0
  -1  -9  -9   15.91    7.39   0
  -1  -7  -5   47.84    5.53   0
  -1  11  -8   18.06    6.90   0
   0 -10 -10  354.38   12.16   0
   0  -7  -4 2596.47   14.49   0
   0   4  -1 1176.72    6.20   0
   0   7  -3  488.25    6.92   0
   0   8  -4  552.26    8.58   0
   0   9  -5   19.71    6.10   0
   0  13 -11  144.74   13.41   0
   1 -11 -13   57.36   10.61   0
   1 -10 -10    1.75    7.79   0
   1  -6  -3   -1.25    4.58   0
   1  10  -7  214.50    9.11   0
   1  12 -10  262.87   12.98   0
   1  13 -12   12.15   11.13   0
   2  -9  -9   92.05    7.41   0
   2  -8  -7  195.81    7.08   0
   2  12 -12   71.90   10.83   0
   3  -8 -10   99.05    7.56   0
   3  -6  -7    4.03    4.25   0
   3  -5  -6   17.55    3.10   0
   3   3  -5 2222.18   10.17   0
   3   6  -7   -2.53    5.35   0
   3   7  -8   42.70    6.92   0
   3   8  -9  101.64    7.79   0
   4   0  -8  176.91    3.59   0
   4   5 -10   23.59    6.55   0
   4   6 -11  330.33    9.63   0
   4   7 -12  254.88   11.46   0
  -3  -6 -10    7.86    6.91   0
  -3  -4  -7  150.75    6.22   0
  -3  10 -11   22.70    6.63   0
  -2  -9 -12   59.42   11.62   0
  -2  -1  -2  359.67    3.55   0
  -2   6  -4 1227.71    7.12   0
  -1 -10 -11   -0.62    8.12   0
  -1   3  -1 1199.64    4.33   0
  -1   5  -2 3271.16   10.15   0
  -1  12 -10  405.38   13.91   0
  -1  14 -14  -10.76   10.90   0
   0 -11 -13    2.46    9.12   0
   0  -9  -7  493.26   11.46   0
   0  11  -8  245.13   11.14   0
   1  -9  -7  175.34    8.13   0
   1   6  -3  152.12    4.91   0
   2 -10 -11  100.13   10.85   0
   2  10  -9  194.39   10.03   0
   3  -9 -12  109.58   10.22   0
   3  10 -12   19.60    9.99   0
   3  11 -14   78.37   12.08   0
   4  -7 -13    1.42    6.22   0
   5   1 -14   10.94    4.67   0
  -4  -4 -13   62.58   10.42   0
  -4   0  -9   -1.66    4.27   0
  -3  -7 -12   -1.89    8.51   0
  -3  -5  -8  374.50    9.16   0
  -3  11 -13    4.59    7.50   0
  -2  -8  -9  207.18   10.34   0
  -2  -7  -7  359.17    9.82   0
  -2   9  -7 1098.24   10.70   0
  -2  11 -10   75.65    8.80   0
  -1  -9  -8  522.03   13.23   0
  -1  -8  -6  319.99    8.55   0
  -1  10  -7 1343.01   14.23   0
  -1  13 -12  125.74   11.05   0
   0 -11 -12   77.01   11.35   0
   0  -8  -5  125.80    6.25   0
   0  -4  -1   30.89    3.03   0
   0  12 -10    3.08    9.43   0
   0  13 -12  375.18   16.82   0
   0  14 -14    1.75   13.03   0
   1 -11 -12    6.03    9.51   0
   1 -10  -9  120.73    9.19   0
   1  -8  -5 1214.71   11.83   0
   1  11  -9  129.99    9.31   0
   1  12 -11   66.30   11.20   0
   1  13 -13   56.43   12.08   0
   2   9  -8   81.82    7.87   0
   2  11 -11    4.83    9.25   0
   2  12 -13   76.85   11.86   0
   3  -7  -8   40.75    5.03   0
   3   9 -11  123.91    9.38   0
   4   8 -14    2.76    9.48   0
  -4  -3 -11  124.42    9.14   0
  -4  -2 -10    4.83    6.54   0
  -3  -7 -11    8.48    8.66   0
  -3  -6  -9   37.39    8.14   0
  -3  -2  -5  881.78    9.10   0
  -2  -9 -11   14.07   10.29   0
  -2  -6  -5  185.11    7.08   0
  -2  -5  -4   41.99    4.67   0
  -2   7  -5   12.23    3.47   0
  -2   8  -6 1817.13   11.33   0
  -2  12 -12   11.73    8.62   0
  -2  13 -14    7.17    9.95   0
  -1 -10 -10   61.28    8.89   0
  -1  -6  -3  920.64    8.70   0
  -1  -3  -1  740.17    5.16   0
  -1   9  -6  271.00    7.74   0
   0 -11 -11   34.65   10.39   0
   0  10  -7   28.49    7.33   0
   1 -11 -11   87.99   11.15   0
   1  10  -8  289.93   10.82   0
   2 -10 -10  248.42   12.42   0
   2  -9  -8    2.50    5.79   0
   2  -7  -5  190.57    5.43   0
   2  -6  -4  508.01    5.63   0
   2   6  -5  637.10    8.20   0
   2   8  -7 1416.01   14.65   0
   3  -9 -11   89.23    8.93   0
   3   4  -6  898.67    8.61   0
   3  10 -13   55.97   10.73   0
   4   7 -13  181.87   10.16   0
  -2  -8  -8    5.19    7.53   0
  -2  -4  -3  263.41    5.25   0
  -1  -9  -7   40.77    7.55   0
  -1  -7  -4 1544.41   12.89   0
  -1  -5  -2   56.62    4.03   0
  -1   6  -3  378.33    5.57   0
  -1   8  -5  221.53    6.20   0
  -1  11  -9   16.06    7.01   0
   0 -10  -8  507.96   13.60   0
   0  -9  -6    3.89    6.48   0
   0  -7  -3  329.34    7.07   0
   0  -6  -2 2863.70   12.61   0
   0   5  -2 5257.78   14.15   0
   0   9  -6   60.79    7.01   0
   1 -10  -8   13.06    7.37   0
   1   2  -1 3594.74    8.02   0
   1   4  -2 2411.14    9.41   0
   2   7  -6  625.66    9.13   0
   2  10 -10   58.07    8.41   0
   3   8 -10  250.57    9.51   0
   0   0   6  196.94    1.60   0
   0   4 -12   81.38    3.34   0
   0   8 -16    1.69    4.71   0
   0  12 -16    1.51    6.98   0
   0  13 -15   10.13    7.83   0
   0  14 -14   -0.12    8.72   0
   1  -1  16  657.87    6.61   0
   1   1  19   15.69    3.79   0
   1   3 -18   44.23    4.11   0
   1   4 -19   28.91    3.86   0
   1   5  21    5.36    4.42   0
   1   6 -21   12.13    4.89   0
   1   6  21   10.70    4.68   0
   2  -4  15  989.44   10.25   0
   2  -3  18  252.32    6.34   0
   2  -2 -14   94.09    1.93   0
   2  -1  21   88.92    6.74   0
   2   0  22   20.39    6.25   0
   2   1  23   10.07    5.76   0
   3  -6  13  260.57    8.79   0
   3  -5  17   34.64    6.12   0
   4  -7  -4  536.22    8.03   0
   4  -7  12   37.95    6.82   0
   4  -6  -9   47.07    3.67   0
   0   5 -14  648.27    7.93   0
   0   6 -15   20.65    4.15   0
   0  10 -17  192.16    9.31   0
   0  11 -17   24.66    6.94   0
   0  13 -16   -4.20    8.00   0
   1  -3   9 1458.56    6.93   0
   1   9 -23    2.87    7.69   0
   1  10 -23    4.28    8.22   0
   2   1 -20   -1.84    3.60   0
   3  -4  19   22.26    6.75   0
   3  -3  21  143.80    8.60   0
   3   1 -23  138.04    6.23   0
   4  -7  11   29.59    6.64   0
  -1   8  -2   28.79    4.34   0
  -1   8  -1    0.49    4.24   0
  -1   8   1   -5.91    4.65   0
  -1   9  -3  979.94   12.38   0
  -1   9  -2  202.19    7.84   0
  -1   9  -1   85.56    6.91   0
  -1   9   1    3.54    4.75   0
  -1  10  -1  495.35   10.75   0
   0   0   5 4843.71    5.55   0
   0   1  10  624.89    3.36   0
   0   2  12   62.73    2.63   0
   0   3 -11  635.46    4.88   0
   0   5  15  564.69    4.42   0
   0   9 -17  224.55    8.54   0
   0  12 -17   -8.48    7.36   0
   1  -3   8 2210.37    8.17   0
   1   0 -13 2074.72    6.54   0
   1   2 -17   44.23    3.39   0
   1   3  20   16.16    4.09   0
   2  -4  14  362.68    6.73   0
   2  -3  17   37.55    4.70   0
   2  -2  19   11.15    4.91   0
   3  -6  12  616.16   10.41   0
   3  -5  -9   88.25    2.85   0
   3  -2  22   48.67    7.62   0
   4  -7  -3  429.80    7.82   0
   4  -7  10    6.09    5.79   0
   4  -6  15    9.84    7.27   0
  -1   7  -1  889.15    7.31   0
  -1   8  -3  123.75    4.67   0
  -1   9  -4   26.18    5.10   0
  -1   9   2   22.53    3.98   0
  -1  10  -3  437.41   10.22   0
   0   4 -13  373.93    5.08   0
   0  13 -17   17.57    8.55   0
   1  -3   7  749.60    5.16   0
   1  -1  15   23.80    3.36   0
   1   1  18  595.27    7.76   0
   1   2  19   47.82    5.08   0
   1   4 -20   66.83    5.19   0
   1   5 -21  304.42    7.74   0
   1   6 -22    2.43    5.47   0
   1   8 -23   66.40    8.49   0
   2  -1  20   40.69    5.46   0
   2   1  22   51.65    6.68   0
   2   5 -25   37.67    6.30   0
   2   6 -26   35.21    8.33   0
   3  -5  15  128.13    7.27   0
   3  -4  18   -7.80    5.99   0
   3  -3  20  197.56    9.18   0
   4  -7  -2  267.33    7.31   0
   4  -7   9   11.70    6.08   0
  -1   7  -2  210.80    4.50   0
  -1   7   2   -8.86    3.22   0
  -1   8  -4   32.16    4.17   0
  -1   8   3  563.54    6.55   0
  -1   9   3  317.46    5.50   0
  -1  11  -5   57.39    7.42   0
  -1  11  -4   55.25    6.18   0
  -1  11   0  129.80    7.66   0
  -1  11   1  209.90    6.98   0
   0   0   4 1895.42    3.18   0
   0   5 -15  180.16    5.34   0
   0   6 -16    5.05    4.23   0
   0   6  15   57.27    2.29   0
   0   7 -17    3.90    4.80   0
   0  12 -18   24.47    7.44   0
   0  13 -18   17.06    8.36   0
   1  -2  12   11.21    2.84   0
   1   3 -19   13.78    4.40   0
   1   4  20   82.54    4.97   0
   1   9 -24    2.92    7.61   0
   2  -3  16  116.72    5.23   0
   2  -2  18  111.97    5.72   0
   2   0  21    1.81    5.56   0
   2   2 -22  140.93    5.25   0
   3  -6  -3  448.95    5.17   0
   3  -6  10   89.84    5.69   0
   3  -2  21  120.01    9.59   0
   3   0 -22   13.15    3.66   0
   4  -7  -1  412.47    8.31   0
   4  -7   7   27.66    6.00   0
   4  -7   8   -4.17    5.64   0
   4  -6  -8   11.64    3.81   0
   4  -6  14   50.65    7.10   0
   4  -5  17   87.82    9.21   0
   5  -7  -4    4.00    6.30   0
  -1   7  -4  362.49    5.42   0
  -1   7   3  851.19    6.02   0
  -1   8   4 1079.97    7.56   0
  -1   9   4   22.63    4.01   0
  -1  10   3  305.84    6.35   0
  -1  11  -6   44.19    6.29   0
  -1  12  -4    8.13    6.28   0
  -1  12  -3   16.12    6.03   0
  -1  12  -2   39.23    6.41   0
   0   3 -12 1443.05    7.38   0
   0   3  13  887.40    4.85   0
   0   4  14 1224.61    5.55   0
   0   7  15   28.63    2.17   0
   0  11 -19   -3.89    7.77   0
   0  12 -19    6.82    7.36   0
   1  -3   0  830.19    3.65   0
   1   0  16  430.45    6.83   0
   1   5  20    3.05    4.17   0
   1   7  20   -0.00    4.35   0
   1   8 -24   99.57    9.70   0
   2  -4  -7 1819.51    5.43   0
   3  -6   9  315.63    7.41   0
   3  -5  14   36.64    5.40   0
   3  -4  17   38.97    6.06   0
   3  -3  19   67.45    7.51   0
   3  -1  22    6.40    7.67   0
   4  -7   0  156.06    6.16   0
   4  -7   1  419.32    8.85   0
   4  -7   2  140.14    6.58   0
   4  -7   3  140.15    6.56   0
   4  -7   4   18.50    5.11   0
   4  -7   5   11.15    4.82   0
   4  -7   6   -4.26    4.96   0
   4  -6  13   10.07    6.59   0
   5  -7  -3   -0.30    6.02   0
  -1   6  -1  838.18    6.50   0
  -1   7  -5    7.89    3.73   0
  -1   8  -7   12.27    4.93   0
  -1  10  -8  165.64    7.84   0
  -1  10   4   -1.19    3.78   0
  -1  11  -7    7.19    5.39   0
  -1  11   3   38.12    5.17   0
  -1  12  -6  101.03    7.75   0
  -1  12   0   14.63    5.69   0
  -1  12   1   12.19    5.30   0
   0   0   3  978.07    2.01   0
   0   2 -10 2719.38    7.71   0
   0   4 -14  326.80    5.33   0
   0   6 -17   12.05    5.21   0
   0   7 -18   54.08    6.80   0
   1  -3   2 1753.54    6.62   0
   1  -3   3  448.03    3.71   0
   1  -3   4 3320.98    9.18   0
   1  -2  11  349.87    4.14   0
   1  -1  14 1574.10    8.50   0
   1   1 -16  235.63    4.01   0
   1   5 -22  146.10    7.13   0
   1   6 -23   22.25    6.36   0
   1   6  20   64.96    5.92   0
   2  -1  19   43.36    5.08   0
   2   0 -19   36.28    3.39   0
   2   2  22  109.08    7.84   0
   3  -6  -2   92.91    4.16   0
   3  -6   8   61.77    4.99   0
   3  -5  13  132.83    6.11   0
   3  -2  20   61.35    8.45   0
   4  -6  12    1.99    6.41   0
   4  -5  16   70.23    7.70   0
   4  -4  18  143.41    9.93   0
   5  -7  -2    6.93    6.80   0
  -1   6   1  255.97    3.56   0
  -1   6   2  213.27    3.28   0
  -1   7  -6  817.42    7.72   0
  -1   7   4 1375.32    6.81   0
  -1   8  -8   14.09    5.19   0
  -1   9   5  423.02    6.04   0
  -1  11  -9    2.94    7.04   0
  -1  12  -7   15.77    6.83   0
  -1  12   2   18.45    5.64   0
  -1  13  -3   42.85    7.72   0
  -1  13  -2   35.04    6.89   0
   0   1  -7 2495.19    5.60   0
   0   5 -16 1160.78   10.28   0
   0  12 -20   -1.88    8.39   0
   1  -1 -11  496.40    2.70   0
   1   1  17  236.85    5.34   0
   1   2 -18  153.06    3.99   0
   1   2  18   41.51    4.68   0
   1   4 -21   74.25    4.89   0
   2  -2  17   25.62    4.64   0
   2  -1 -17  114.32    2.91   0
   2   0  20   22.46    5.42   0
   2   1  21    3.22    5.92   0
   2   4 -25    5.09    5.68   0
   2   5 -26   34.36    7.43   0
   3  -6  -1  462.50    6.08   0
   3  -6   0   21.20    3.95   0
   3  -6   5    4.10    4.73   0
   3  -6   6    3.61    4.25   0
   3  -4  16    7.22    5.57   0
   3  -3  18  126.15    7.98   0
   3  -1  21    2.40    7.46   0
   3   1 -24  151.43    6.75   0
   4  -5  15  150.96    9.48   0
   4  -4 -15   14.17    2.55   0
   5  -7  -1    6.26    6.48   0
   5  -7   0   10.56    7.62   0
   5  -7   1   -9.88    7.16   0
   5  -7   2    3.34    7.18   0
   5  -7   3   -0.04    6.95   0
   5  -7   4   23.87    7.86   0
   5  -7   5   15.01    8.29   0
  -1   6  -4    9.83    3.19   0
  -1   7  -7   90.94    4.53   0
  -1  10 -10   25.55    6.16   0
  -1  10   5  115.63    4.81   0
  -1  11 -10    1.23    7.50   0
  -1  13  -7  141.99    9.97   0
  -1  13  -1    7.03    5.37   0
  -1  13   0   96.69    7.39   0
   0   2  11  726.42    4.13   0
   0   3 -13  138.15    3.89   0
   0   4 -15 4053.41   15.89   0
   0   9 -20  411.73   12.38   0
   1  -2  10   66.06    2.94   0
   1  -1  13 1284.88    7.94   0
   1   0 -14 1713.84    6.68   0
   1   3 -20  200.22    5.60   0
   1   8 -25   72.22    9.88   0
   2  -3  14   44.53    4.64   0
   2   3  22   74.62    7.65   0
   3  -6   1  253.52    5.57   0
   3  -6   2   80.73    4.30   0
   3  -6   3  153.56    5.27   0
   3  -6   4  160.53    5.45   0
   3  -5  -8   15.33    2.78   0
   3  -5  12    6.62    4.90   0
   3  -4  15   99.05    7.11   0
   4  -6  10    6.36    6.48   0
   4  -4  17   60.82    9.17   0
  -1   6  -5   24.22    3.34   0
  -1  13  -8   36.45    7.68   0
  -1  13   1    4.99    6.36   0
  -1  14  -6    8.51    8.45   0
  -1  14  -5    2.92    7.69   0
  -1  14  -4    2.07    7.32   0
  -1  14  -3    6.82    7.51   0
   0   7 -19   32.93    6.49   0
   0   8 -20   37.78    7.54   0
   0  10 -21  139.68   11.02   0
   0  11 -21   14.31    9.11   0
   0  12 -21    8.81    9.59   0
   1   0  15 1358.28    8.79   0
   1   4  19   14.13    4.22   0
   2  -2  16  655.68    8.62   0
   2  -1  18    6.56    4.72   0
   2   2  21  247.93    9.88   0
   3  -3  17   20.47    5.87   0
   3  -2  19  134.08    9.11   0
   4  -6   9  120.94    7.70   0
   4  -5  14  121.43    8.87   0
  -1   7   5  205.48    3.24   0
  -1   8 -10  218.57    6.53   0
  -1   9 -11    3.66    5.52   0
  -1   9   6  172.58    4.87   0
  -1  11   5   11.38    4.02   0
  -1  12 -11  284.01   12.78   0
  -1  13 -10   69.18    9.62   0
  -1  13   2   63.05    6.68   0
  -1  14  -8   -3.02    8.99   0
  -1  14  -7    5.25    7.99   0
  -1  14  -2    7.49    6.76   0
  -1  14  -1   21.40    7.48   0
   0   1   8  940.40    3.68   0
   0   2 -11 8619.48   14.16   0
   0   5 -17  480.37    8.09   0
   0   5  14   34.16    2.53   0
   1  -2   9  349.19    3.94   0
   2  -3  13  185.64    5.36   0
   2   0  19   50.60    5.52   0
   2   1  20  221.40    8.79   0
   3  -4  14    9.14    5.13   0
   3  -1  20   30.26    8.13   0
   3   0  21    6.31    8.25   0
   4  -6   8   15.39    5.59   0
   4  -5 -11  129.54    4.78   0
   4  -5  13  150.05    9.51   0
   4  -4  16   93.95    9.23   0
   4  -3  18   10.03    8.99   0
   5  -6  -7    9.07    5.88   0
  -1   5  -2 3025.43   11.05   0
  -1   5  -1  197.51    4.50   0
  -1   5   0 1336.20    6.80   0
  -1   6  -7  902.54    8.02   0
  -1   6   4   76.62    2.50   0
  -1   8   6  442.85    4.73   0
  -1  10 -12   -1.55    6.37   0
  -1  10   6   24.83    3.60   0
  -1  11 -12  154.91   10.33   0
  -1  12 -12  191.14   11.95   0
  -1  12   4    6.70    4.82   0
  -1  13 -11   21.97    9.31   0
  -1  14  -9    1.21    8.20   0
  -1  14   0    2.70    7.25   0
   0   1  -8  508.75    3.15   0
   0   3 -14  121.68    3.94   0
   0   3  12   -1.08    2.12   0
   0   4 -16  564.97    8.22   0
   0  11 -22    0.27    9.24   0
   1   1 -17   49.34    3.62   0
   1   1  16  859.01    8.05   0
   1   2 -19  295.32    5.31   0
   1   2  17   52.67    4.39   0
   1   3  18  190.09    5.78   0
   1   5  19   39.99    5.26   0
   2  -4  -6   87.98    2.28   0
   2  -1  17  286.25    7.78   0
   2   3  21   53.26    7.81   0
   2   4 -26   14.15    6.61   0
   3  -5  10    1.42    3.95   0
   3  -4 -12  336.74    3.40   0
   3  -3  16  205.31    8.36   0
   3  -2  18    3.10    6.21   0
   4  -6  -5  297.55    7.13   0
   4  -6   7   93.49    7.05   0
  -1   5  -4 3500.42   12.34   0
  -1   5  -3 1191.97    7.87   0
  -1   5   1 2828.25    9.45   0
  -1   6  -8  250.63    5.72   0
  -1   7 -10 1213.55   11.39   0
  -1  13   3    1.31    5.62   0
  -1  14 -11   -4.58    8.66   0
  -1  14   1   39.12    7.64   0
   0   4  13  231.61    3.19   0
   0   5 -18  332.74    8.73   0
   0   8 -21    9.80    7.17   0
   0  10 -22   22.43    9.20   0
   1  -2   8  302.15    3.86   0
   1   0  14  917.67    7.58   0
   1   3 -21   -6.59    5.14   0
   1   6  19   32.30    5.73   0
   1   7  19  145.09    7.30   0
   2  -3  12  356.38    6.32   0
   2  -2  15   69.34    5.08   0
   2   3 -25   65.02    7.13   0
   3  -5  -7  101.47    3.24   0
   3  -5   9  117.57    5.48   0
   3  -4  13   22.34    5.08   0
   4  -6  -4  101.31    5.98   0
   4  -6   6   94.07    7.07   0
   4  -5  12  212.58    9.42   0
   4  -4  15   91.53    8.87   0
   4  -3  17   -5.41    8.54   0
   5  -6  -6   16.69    6.82   0
   5  -6   7    1.88    7.98   0
  -1   5  -5  955.91    7.61   0
  -1  10 -14   10.93    7.07   0
  -1  11   6  144.10    5.63   0
  -1  12   5   40.41    5.15   0
  -1  13 -13   69.77   10.72   0
  -1  14 -12   -6.47    9.52   0
  -1  14   2    3.81    6.79   0
   0   2 -12 1458.99    6.95   0
   0   2  10  276.49    2.99   0
   0  11 -23   11.51   10.38   0
   1   0 -15  907.56    5.93   0
   1   5 -24   27.20    7.23   0
   1   6 -25   19.04    7.38   0
   2  -4   7  749.23    7.39   0
   2   0 -20    2.34    3.26   0
   2   0  18   14.19    5.22   0
   2   1 -22   14.20    4.27   0
   2   2  20   15.59    6.37   0
   2   4  21   -5.04    7.08   0
   3  -5   8   21.51    4.77   0
   3  -1  19   24.35    8.04   0
   3   0  20   27.24    8.62   0
   3   1  21   36.01    9.69   0
   4  -6  -3  276.13    8.05   0
   4  -6   4  104.37    6.68   0
   4  -6   5   39.77    5.86   0
   4  -5  11   14.80    6.84   0
   4  -4  14   38.69    8.13   0
   5  -6  -5   29.70    7.63   0
   5  -6   5   15.43    9.62   0
   5  -6   6    3.97    8.05   0
  -1   5  -6 1861.24   10.21   0
  -1   5   2 1631.88    6.50   0
  -1   6  -9 1276.92   10.43   0
  -1  13 -14   21.89   10.42   0
  -1  13   4   14.19    5.78   0
  -1  14 -13    5.66    9.40   0
   0   3 -15  312.50    5.68   0
   0   4 -17  732.65    8.56   0
   0   6 -20   10.09    5.61   0
   0   7 -21   85.15    8.21   0
   0   8 -22    2.18    7.26   0
   0  10 -23    3.00    9.76   0
   1  -1 -12   60.31    2.08   0
   1   1  15  360.40    6.31   0
   1   4 -23    3.20    6.09   0
   1   4  18   16.45    4.41   0
   2  -4  -5  323.19    3.73   0
   2  -4   6   43.14    3.69   0
   2  -2 -15  193.44    2.46   0
   2  -2  14  452.48    6.90   0
   2  -1  16   58.83    5.57   0
   3  -5   7  560.25    8.71   0
   3  -4  12   27.37    4.77   0
   3  -3  15  123.84    6.61   0
   3  -2  17   24.84    7.09   0
   4  -6  -2  182.20    6.85   0
   4  -6  -1  243.15    7.66   0
   4  -6   0  520.75    9.94   0
   4  -6   1  240.32    7.34   0
   4  -6   2  367.53    8.71   0
   4  -6   3   74.45    6.05   0
   4  -5 -10  363.87    7.13   0
   4  -5  10   36.53    6.73   0
   4  -3  16    7.84    8.49   0
   4  -2  18   -3.31   10.36   0
   5  -6  -4   44.94    7.85   0
   5  -6  -3   89.45   10.38   0
   5  -6   3   28.76    9.69   0
   5  -6   4   39.28    8.97   0
  -1   6 -10  398.32    7.25   0
  -1  10   7    4.28    3.29   0
  -1  13 -15   -3.94   10.30   0
  -1  14   3   46.77    7.78   0
   0   6  14  107.85    3.23   0
   1  -2   7  241.43    3.31   0
   1   0  13  726.29    6.95   0
   1   2 -20  257.38    5.91   0
   1   2  16    1.95    3.93   0
   1   3  17   58.60    4.61   0
   2  -4   5  381.58    5.50   0
   2  -1 -18    9.32    2.84   0
   2   3  20   73.96    7.65   0
   2   4 -27    8.88    8.01   0
   3  -5   6  233.94    6.67   0
   3  -4  11   18.72    5.17   0
   3  -1  18   16.95    7.81   0
   4  -4  13   33.17    7.53   0
   5  -6  -2   36.80    8.07   0
   5  -6  -1   61.98    8.59   0
   5  -6   0   28.22    8.88   0
   5  -6   1   81.38    9.60   0
   5  -6   2   59.42    9.53   0
   5  -5   9    5.40    9.95   0
  -1   5  -8  384.68    5.71   0
  -1   5   3 2040.35    6.75   0
  -1   8 -14   -1.68    5.27   0
  -1   8   7  773.18    5.62   0
  -1  10 -16    7.40    7.25   0
  -1  12   6   11.31    4.65   0
  -1  13 -16    0.87   10.42   0
  -1  13   5   61.48    7.46   0
   0   1   7  349.21    2.42   0
   0   2 -13 3880.76   11.35   0
   0  10 -24    6.40   10.82   0
   1   1 -18  210.66    4.48   0
   1   5  18   11.43    4.54   0
   1   6 -26   29.23    9.04   0
   2   0  17   71.97    5.64   0
   2   2  19  213.80    9.41   0
   3  -5   5  436.26    8.38   0
   3  -3  14   90.93    6.16   0
   3  -2  16   12.71    6.71   0
   3   0  19   19.99    8.41   0
   3   1  20   34.00    8.95   0
   4  -5   9   -3.09    5.72   0
   4  -3  15   11.33    8.67   0
   4  -2  17   -2.62    9.83   0
  -1   8 -15   27.36    6.56   0
  -1  11 -17   58.57    9.83   0
  -1  11   7    0.01    4.12   0
  -1  12 -17   14.74   10.02   0
  -1  13 -17    9.10   10.27   0
   0   3 -16 1533.48   10.16   0
   0   4 -18  767.37    9.24   0
   0   9 -24   92.26   10.05   0
   1  -2   6  894.14    5.03   0
   1  -1  10 1088.12    6.53   0
   1   5 -25    3.36    6.84   0
   2  -4   3  118.00    4.95   0
   2  -1  15  301.22    7.50   0
   2   3 -26   -1.56    5.99   0
   3  -5  -4  217.28    4.88   0
   3  -5   4  868.46   10.44   0
   4  -5  -9  184.11    6.30   0
   4  -5   8   67.16    7.24   0
   4  -4 -14   30.60    3.68   0
   4  -4  12   -1.42    6.99   0
   5  -5   8   44.69    9.92   0
  -1   5  -9   94.31    3.87   0
  -1   7 -14  260.66    8.20   0
  -1  10 -17   16.79    7.47   0
  -1  12 -18   21.38   11.11   0
  -1  13 -18    7.80   11.04   0
   0   1 -10 6396.08   11.22   0
   1   1  14  362.75    5.90   0
   1   4 -24   -1.73    5.87   0
   1   6  18  310.18    9.46   0
   2  -4   2  252.19    4.85   0
   2   1 -23   18.61    5.16   0
   2   4  20   -3.83    6.95   0
   3  -5  -3  573.29    7.37   0
   3  -5   2 1639.66   12.62   0
   3  -5   3  867.71    9.56   0
   3  -3  13  124.58    6.61   0
   3  -2  15   31.71    6.48   0
   3  -1  17  147.28    9.60   0
   4  -5   7   10.46    6.22   0
   4  -4  11    3.50    7.59   0
   4  -3  14    3.82    7.99   0
   4  -2  16   62.22   10.99   0
   5  -5   7   78.47   10.98   0
  -1   4  -5 7228.41   18.27   0
  -1   4  -4 1034.75    7.82   0
  -1   4  -3 8212.82   16.85   0
  -1   4  -2 2760.24   10.15   0
  -1   4  -1 1374.37    6.72   0
  -1   5 -10   69.42    4.00   0
  -1  10 -18    4.72    8.92   0
  -1  11 -18   69.41   10.74   0
   0   2 -14  403.53    4.92   0
   0   6 -22   19.07    7.88   0
   0   7 -23   10.27    8.35   0
   0   7  14  199.57    3.76   0
   1   0 -16  753.59    6.07   0
   1   0  12 1741.23    9.61   0
   1   2 -21  735.91    9.34   0
   1   4  17  112.16    5.37   0
   1   6 -27    0.98    9.62   0
   1   7  18   17.30    5.69   0
   1   8  18    1.44    5.43   0
   2  -4  -2  651.07    5.43   0
   2  -4  -1   15.64    3.12   0
   2  -4   0  719.16    6.12   0
   2  -4   1  357.53    4.89   0
   2  -2  12  869.52    8.56   0
   2   0 -21    5.90    3.85   0
   2   0  16    0.02    5.13   0
   2   3  19   65.98    8.14   0
   2   5  20    6.58    8.02   0
   3  -5  -2  416.64    6.24   0
   3  -5  -1  216.99    5.75   0
   3  -5   0 1014.15    9.67   0
   3  -5   1  363.79    6.90   0
   3  -4 -11   42.13    2.74   0
   3   0  18  121.37   10.04   0
   3   1  19   19.66    8.75   0
   3   2  20   13.50    9.47   0
   4  -5   6   18.04    6.67   0
   5  -5   5  140.71   11.55   0
   5  -5   6   61.47   10.50   0
   5  -4  10   15.04   10.35   0
  -1   4  -6 1822.62   10.31   0
  -1   4   0 1360.88    6.62   0
  -1   5   4  109.21    2.26   0
  -1   7   7    2.81    1.87   0
  -1  12 -19   14.16   11.11   0
  -1  13   6   23.35    5.33   0
   0   2   9  135.95    2.40   0
   0   3 -17   64.26    4.50   0
   0   4 -19 1169.75   11.96   0
   0   5  13 1185.48    6.15   0
   0   9  14   58.42    3.12   0
   1   2  15    3.85    3.68   0
   1   3 -23   64.41    6.78   0
   1   3  16   11.48    4.02   0
   1   5 -26    4.02    7.92   0
   2  -1  14  591.34    8.61   0
   3  -3  12   28.23    5.28   0
   3  -1  16  172.76   10.20   0
   4  -5   5   90.82    6.72   0
   4  -4  10   33.37    7.18   0
   4  -3  13  129.44    9.75   0
   4  -1  17   27.23   10.49   0
   5  -5  -8   -1.06    7.01   0
   5  -5   4   46.68   10.27   0
  -1   4  -7 1446.80    9.14   0
  -1   5 -11   17.32    4.18   0
  -1   8 -17   63.91    7.76   0
  -1   9 -18   71.83    9.12   0
  -1  10 -19   21.40    9.04   0
  -1  12 -20    2.71    9.85   0
  -1  12   7   11.85    4.31   0
   0   0  -4 1920.82    3.73   0
   0   1 -11 1396.31    6.15   0
   0   4  12 2699.83    8.77   0
   0   5 -21    9.55    5.46   0
   0   8  14   76.64    3.53   0
   1  -2   4   64.13    2.37   0
   1  -1 -13 1800.51    6.57   0
   1   4 -25    4.89    7.08   0
   2  -2  11 2100.02   12.18   0
   2   3 -27   12.48    7.14   0
   3  -2  14    3.99    6.34   0
   4  -5  -7  148.27    6.30   0
   4  -5   4   21.23    5.84   0
   4  -4   9   13.63    7.10   0
   5  -5  -7   -3.17    7.46   0
   5  -5   3  161.94   12.68   0
   5  -4   9   36.80    9.93   0
  -1   4  -8 1268.31    9.13   0
  -1   4   1  328.76    3.30   0
  -1   5 -12  656.89    8.75   0
  -1   9   8  475.42    5.22   0
  -1  10   8   13.62    3.10   0
  -1  11 -20    3.89    9.65   0
   0   1   6 4183.54    6.56   0
   0   2 -15   57.82    3.63   0
   0   6 -23   20.77    7.37   0
   2  -3   7  209.95    4.79   0
   2   0  15   17.01    5.27   0
   2   4  19   76.35    7.91   0
   3  -4   7  199.26    6.51   0
   3  -3  11  283.95    7.37   0
   3   0  17  246.19   11.59   0
   3   1  18   29.85    8.66   0
   3   2  19   14.36    9.27   0
   4  -5  -6   16.53    5.63   0
   4  -5   2   10.89    6.37   0
   4  -5   3   69.68    6.30   0
   4  -4 -13   44.99    4.50   0
   4  -3  12   15.13    8.02   0
   4  -2  14  192.59   12.88   0
   4  -1  16  -10.19   10.90   0
   5  -5  -6    7.18    7.43   0
   5  -5  -5   33.63    8.86   0
   5  -5   1  150.62   13.77   0
   5  -5   2  181.50   12.99   0
   5  -4   8  116.83   11.99   0
  -1   6 -15  639.64   10.95   0
  -1   7 -17   40.10    7.32   0
  -1  10 -20    3.84    8.46   0
  -1  11 -21   23.28   11.17   0
  -1  11   8   16.80    3.88   0
   0   0  -5 4426.01    6.34   0
   0   3 -18  745.94    8.48   0
   0   4 -20 1278.34   13.16   0
   0   5 -22   20.37    6.97   0
   1  -2   3    8.32    2.18   0
   1  -1   8  291.69    3.88   0
   1   0  11  637.93    6.10   0
   1   5 -27   -5.25    8.90   0
   2   1  16  155.98    8.37   0
   2   3  18   38.52    7.10   0
   3  -4   6  753.00   10.05   0
   3  -2  13  148.57    8.07   0
   3  -1 -22   38.28    3.84   0
   3  -1  15  167.56   10.00   0
   4  -5  -5   40.11    5.77   0
   4  -5  -4    0.61    5.98   0
   4  -5   0   35.28    6.13   0
   4  -5   1   52.92    6.09   0
   4  -4   8   44.27    7.41   0
   4   0  17   26.07   12.19   0
   5  -5  -4   51.87    9.43   0
   5  -5  -3   42.77   10.02   0
   5  -5  -2  105.34   11.08   0
   5  -5  -1   78.05   10.45   0
   5  -5   0  242.68   13.62   0
   5  -4   7   72.07   11.60   0
  -1   5 -13  485.24    8.19   0
  -1   8   8   84.77    2.78   0
  -1   9 -20  105.95   10.78   0
  -1  10 -21   -4.54    9.91   0
   0   1 -12 5871.32   13.02   0
   0   7 -25   41.23    9.73   0
   0   8 -26    1.48    9.99   0
   1   0 -17 1055.77    7.33   0
   1   2  14  112.67    4.65   0
   1   3 -24   92.08    6.86   0
   1   4  16   19.29    4.92   0
   1   6  17   35.58    6.01   0
   2  -2  10 1130.99    9.22   0
   2  -1 -19  111.19    3.87   0
   2   1 -24    3.77    5.57   0
   2   5  19    1.45    7.56   0
   3  -4 -10  264.79    4.43   0
   3   3  19   34.91   11.04   0
   4  -5  -3   51.55    5.93   0
   4  -5  -2   14.91    5.44   0
   4  -5  -1   -0.33    4.79   0
   4  -4   7  116.70    8.26   0
   4  -3 -17   10.52    3.63   0
   4  -3  11  179.71   10.13   0
   4  -2  13   83.63   10.83   0
   4  -1  15   41.18   11.29   0
   5  -4   6  169.25   11.71   0
   5  -3  10   10.63   10.57   0
  -1   4   2 1426.73    5.76   0
  -1   6 -16 1078.39   13.61   0
  -1   7 -18   25.50    7.30   0
  -1  11 -22   16.99   11.74   0
  -1  13   7   36.30    5.59   0
   0   2 -16  446.34    5.85   0
   0   4 -21  513.84   11.09   0
   1   1 -20   14.19    4.35   0
   1   3  15    1.52    4.04   0
   1   4 -26   14.25    8.21   0
   2  -1  12  783.48    9.74   0
   2   0  14   20.78    5.41   0
   2   6  19    0.72    9.15   0
   3  -4   5  669.52    8.95   0
   3  -1  14  473.64   12.93   0
   3   1  17   11.35    8.39   0
   4  -3  10  309.01   11.77   0
   4   0  16    7.95   12.23   0
   5  -4   5   63.88   11.29   0
   5  -3   9   11.80   10.37   0
  -1   4 -11    9.93    4.12   0
  -1   5   5  858.93    3.95   0
  -1   9 -21  153.34   12.62   0
  -1  10 -22   -8.54   10.61   0
   0   1 -13  205.91    4.53   0
   0   3 -19  571.88    8.57   0
   0   5 -23   17.95    6.89   0
   0   6  13   -3.52    2.97   0
   1  -2   2  234.79    2.94   0
   1   0  10 3906.66   14.01   0
   1   7  17  125.47    8.20   0
   1   8  17    0.13    6.44   0
   1   9  17    8.54    6.40   0
   2  -3   5 1975.55   10.61   0
   2   4  18    5.51    7.56   0
   3  -4   4  309.52    7.45   0
   3  -3 -15   70.89    2.23   0
   4  -4 -12   66.48    5.36   0
   4  -4   6   86.40    7.83   0
   4  -1  14   13.83   10.41   0
   5  -4   4   80.03   11.51   0
  -1   7 -19   24.94    7.96   0
  -1  12   8    2.14    4.17   0
   0   3  10   42.05    2.31   0
   0   7 -26   19.15   10.30   0
   1  -1 -14  119.43    2.98   0
   1   3 -25   48.30    7.17   0
   2   1  15  374.21    9.10   0
   2   3  17   70.17    7.42   0
   3  -4  -9  148.73    4.03   0
   3  -4   3 1581.26   12.66   0
   3   0  15  539.49   14.40   0
   4  -4   5  163.21    9.16   0
   4  -3   9  611.12   13.81   0
   4  -2  12  169.89   10.32   0
   5  -4   3   97.93   11.44   0
   5  -3   8    6.92   10.98   0
  -2  11  -8    9.74   10.80   0
  -2  11  -6  113.06   13.19   0
  -2  11  -5   61.77   10.49   0
  -2  12 -10  -11.81   13.44   0
  -2  12  -9    6.89   13.44   0
  -2  12  -8   35.40   16.97   0
  -2  12  -6   28.73   12.13   0
  -2  13  -7    8.91   11.88   0
  -2  13  -6   17.90   12.22   0
  -1   3  -6 2991.12   11.22   0
  -1   3  -5   59.27    3.48   0
  -1   3  -4 3196.18   11.45   0
  -1   3  -3  392.27    4.71   0
  -1   4 -12  221.57    5.46   0
  -1   9 -22   33.28   11.33   0
  -1  10 -23   13.36   11.43   0
   0   2 -17   24.54    4.10   0
   0   2   8  529.31    3.47   0
   1  -2   1 2252.15    6.58   0
   1   0 -18  347.12    6.30   0
   1   5  16    0.79    5.16   0
   2  -2 -16  145.97    2.54   0
   2  -1  11    9.22    4.04   0
   2   0  13   56.32    6.23   0
   2   2  16  601.79   11.85   0
   2   5  18  113.94   10.79   0
   3  -4   2  486.83    8.39   0
   3  -2  11  448.89    8.63   0
   3  -1  13   83.47    8.23   0
   3   1  16  169.63   11.52   0
   3   2  17    7.26    8.86   0
   3   3  18    9.54   10.45   0
   4  -4   4   26.96    6.89   0
   4   1  16   65.70   14.90   0
   5  -4 -10   76.73    8.08   0
   5  -4   2  124.73   13.02   0
   5  -3   7   29.14   10.24   0
   5  -2  10   33.04   12.74   0
  -2  10  -9   -1.31    8.72   0
  -2  10  -7   -7.71    8.23   0
  -2  11 -11  220.68   14.29   0
  -2  11 -10   45.34   12.02   0
  -2  11  -4   63.56    9.11   0
  -2  12 -12    3.79   12.58   0
  -2  12 -11    8.01   12.94   0
  -2  12  -4    4.01    9.07   0
  -2  13 -12   30.66   14.37   0
  -2  13 -11   12.10   13.32   0
  -2  13  -5   19.73   10.63   0
  -2  13  -4   -1.09   10.37   0
  -2  14  -8   28.07   12.91   0
  -2  14  -7   93.81   14.93   0
  -2  14  -6   53.55   14.10   0
  -1   3  -2 1456.24    7.23   0
  -1   4 -13   66.56    5.08   0
  -1   4   3   89.43    2.25   0
  -1   5 -16    7.24    6.06   0
   0   1 -14  959.28    7.19   0
   0   5 -24   14.90    7.55   0
   1   1 -21  292.98    7.20   0
   2  -3 -10  189.39    2.03   0
   2  -2   8 1783.40   10.15   0
   2   2 -27    3.60    7.85   0
   3  -4  -8  221.24    4.91   0
   3  -4   1 1131.83   10.94   0
   4  -4 -11  375.74    8.18   0
   4  -4   3  564.29   12.46   0
   4  -3   8  915.39   15.73   0
   4  -2  11  201.85   10.27   0
   5  -4   1  108.57   11.44   0
  -2   9  -8  373.79   12.19   0
  -2  10  -4  110.34    8.14   0
  -2  10  -3   15.85    7.58   0
  -2  11  -3    3.08    7.68   0
  -2  12 -14   14.40   12.86   0
  -2  12 -13   31.82   12.37   0
  -2  12  -3   93.32    9.49   0
  -2  13 -13   27.37   14.33   0
  -2  13  -3   -2.70    9.11   0
  -2  14  -5  128.26   14.28   0
  -1   6 -19   76.74    8.74   0
  -1   8 -22  131.71   12.66   0
  -1   9 -23   -6.55   10.69   0
   0   4  11  401.44    4.19   0
   0   5  12 1130.08    6.18   0
   0   6 -26  137.57   14.38   0
   1  -2   0  904.85    4.16   0
   1  -1   6    1.14    2.29   0
   1   3  14  392.85    7.25   0
   1   4  15  132.77    5.26   0
   1   6  16  235.07    8.15   0
   2  -3   3 1579.83    9.38   0
   2   1 -25   18.07    6.71   0
   2   1  14    2.95    6.20   0
   2   4  17  125.42    9.86   0
   2   6  18   -0.86    9.11   0
   3  -4   0  149.37    5.79   0
   3   0  14  231.38   11.18   0
   3   4  18    3.66   10.76   0
   4  -4   2   95.08    7.65   0
   4  -3   7  262.58   10.94   0
   4   0  14   -2.73   11.64   0
   5  -4  -9   85.52    8.85   0
   5  -4  -8   39.59    8.65   0
   5  -4  -1   58.33   10.27   0
   5  -4   0   -9.55    9.31   0
   5  -3   6   14.75    9.79   0
   5  -2   9   53.82   13.28   0
  -2   9 -10  197.52   10.07   0
  -2   9  -5  528.89   12.10   0
  -2  10  -2   30.15    7.40   0
  -2  11 -14   61.79   13.22   0
  -2  11  -2   91.53    8.42   0
  -2  12 -15   -0.71   13.53   0
  -2  12  -2   43.22    8.05   0
  -2  13 -15   25.55   15.00   0
  -2  13  -2   21.44    9.46   0
  -2  14  -4   41.61   10.89   0
  -2  14  -3   37.39   10.83   0
  -1   3  -9 1376.89    8.87   0
  -1   3  -1 1379.98    6.44   0
  -1   4 -14  111.37    5.89   0
  -1   5 -17  527.05   10.73   0
  -1   7 -21  103.92   10.94   0
  -1   9 -24   33.93   13.25   0
  -1  13   8    1.07    4.48   0
   0   1   5 3535.01    5.64   0
   0   2 -18  290.75    6.36   0
   1   1  11  533.08    6.25   0
   1   2 -24  208.44    8.62   0
   1   3 -26   -7.95    7.85   0
   2  -3   2  236.71    4.92   0
   2  -2   7 2980.95   13.01   0
   2  -1  10 1271.52   10.53   0
   2   2  15   13.72    6.89   0
   2   3  16   92.95    7.86   0
   2   7  18   17.64   10.12   0
   3  -4  -2  109.96    4.98   0
   3  -4  -1  157.52    5.02   0
   3  -1  12  654.23   12.70   0
   3   1  15   18.49    9.16   0
   3   2  16   61.08   10.33   0
   3   3  17  100.33   11.52   0
   4  -4   1   27.56    6.51   0
   4  -3 -16   46.63    5.52   0
   4  -2  10  185.12   10.36   0
   4  -1  12   10.80    9.51   0
   4   1  15   94.11   15.37   0
   5  -4  -7  118.43   10.91   0
   5  -4  -6   11.55   10.16   0
   5  -4  -5   42.30   10.85   0
   5  -4  -4   -1.38    9.23   0
   5  -4  -3    7.22   10.93   0
   5  -4  -2    6.76    9.56   0
   5  -3   5   -1.71   10.19   0
   5  -2   8    3.36   12.85   0
  -2   9 -12   61.89    9.53   0
  -2  10  -1   83.76    7.69   0
  -2  12 -16    9.02   14.18   0
  -2  12  -1  179.37   10.42   0
  -1   3 -10  677.42    6.83   0
  -1   4 -15   17.41    5.42   0
  -1   6 -20   20.04    8.42   0
  -1   6   7    3.89    1.52   0
  -1  10   9   78.65    3.20   0
   0   0  -9   15.88    2.21   0
   0   1 -15  650.11    6.87   0
   0   3 -21  762.44   10.56   0
   0   7  13   65.67    3.97   0
   1  -2  -1 5257.86    7.85   0
   1   4 -28   40.36    9.72   0
   1   7  16    6.93    7.14   0
   2  -1 -20   35.30    3.74   0
   2   0  12  336.47    7.45   0
   3  -4  -5  208.43    5.02   0
   3  -4  -3   55.92    3.78   0
   4  -4   0   62.63    7.06   0
   4  -3   6  509.18   12.53   0
   4  -2   9  566.90   15.08   0
   5  -3   4    5.56   10.11   0
   5  -1  10  119.53   14.77   0
  -2   8 -10  795.71   14.11   0
  -2   8  -8 1600.24   17.19   0
  -2   8  -6 1612.94   16.28   0
  -2   8  -4  153.50    8.23   0
  -2  11   0  111.42    8.76   0
  -2  12 -17    4.56   13.05   0
  -2  14  -2   12.79    9.12   0
  -1   3 -11 1726.85   10.60   0
  -1   3   0  866.21    5.05   0
  -1   7   8  337.54    2.76   0
  -1  11   9    8.36    3.03   0
   0   6 -27   27.69   12.24   0
   1  -1 -15  937.30    6.17   0
   1   0 -19  797.20    8.66   0
   2  -3   1  629.71    6.45   0
   2   5  17   32.09    8.05   0
   3  -3   5  152.87    5.90   0
   3  -1  11  476.88   11.34   0
   3   0  13  526.44   13.62   0
   3   4  17   -3.81   11.34   0
   4  -4  -8   96.99    7.48   0
   4  -4  -2  217.62    9.77   0
   4  -4  -1    3.20    6.40   0
   4   0  13   -6.22   11.39   0
   5  -3   3   23.89   11.21   0
   5  -2   7   29.33   12.42   0
  -2   8  -3  278.82    7.93   0
  -2   9  -1   74.93    7.20   0
  -2  10 -16  164.78   13.43   0
  -2  10   0   -6.21    6.82   0
  -2  11 -17   36.38   12.72   0
  -2  12   0  203.94    9.67   0
  -2  13   0  108.35   10.06   0
  -2  14  -1   10.56    9.75   0
  -1   3 -12    2.34    4.40   0
  -1   5 -19  239.15   10.25   0
  -1   6 -21  136.46   10.96   0
  -1   9   9  166.64    2.81   0
   0   0 -10   16.78    2.33   0
   0   2 -19  238.59    6.55   0
   0   4 -24   96.74    8.97   0
   0  11  13    3.33    3.80   0
   1  -1   5 1096.70    5.46   0
   1   2  12    1.78    3.49   0
   1   8  16   -7.62    6.98   0
   1   9  16    6.03    7.40   0
   2  -3   0  305.46    5.24   0
   2  -2   6  948.70    7.39   0
   2  -1   9  463.06    7.02   0
   2   4  16    9.43    8.47   0
   2   6  17   -4.57    9.34   0
   3   1  14   79.41   10.14   0
   4  -4  -7  252.18    8.04   0
   4  -4  -6   40.75    7.55   0
   4  -4  -5   58.41    8.09   0
   4  -4  -4  367.51   10.77   0
   4  -4  -3   84.07    7.22   0
   4  -3   5  162.57    9.55   0
   4  -2   8  232.21   10.77   0
   4   2  15   26.54   13.51   0
   5  -3   2   -1.13   11.40   0
   5  -1   9   43.01   14.38   0
  -2   7  -7  486.55   10.36   0
  -2   8  -2   -3.97    5.91   0
  -2   9 -15   14.41    8.42   0
  -2  10 -17  208.27   15.07   0
  -1   7 -23   65.51   11.93   0
   0   1 -16 1120.63    8.80   0
   1   0   8  348.47    4.38   0
   1   3  13    0.18    4.32   0
   1   4  14   50.29    5.00   0
   2  -3  -9  244.77    2.81   0
   2   0  11    0.72    4.87   0
   2   2  14  234.70    9.59   0
   2   3  15   13.17    7.58   0
   3  -3 -14  121.70    3.42   0
   3  -3   4  262.15    6.76   0
   3   2  15   -1.35    8.73   0
   3   5  17   35.21   13.19   0
   4  -3   4  526.19   12.97   0
   4   0  12   38.18   12.21   0
   5  -3   1   12.28   10.15   0
   5  -2   6   27.06   12.98   0
  -2   7 -10  135.17    8.15   0
  -2   7  -6  162.20    7.04   0
  -2   7  -5   30.35    6.00   0
  -2  10   1   16.45    6.64   0
  -2  11 -19   18.27   14.03   0
  -2  13   1   24.75    9.20   0
  -2  14   0    5.10    9.95   0
  -1   3 -13  276.00    6.18   0
  -1   4 -17   59.71    6.86   0
  -1   4   4  589.50    3.46   0
  -1   6 -22   11.50    9.78   0
   0   2 -20  114.13    6.80   0
   0   8  13    5.19    3.50   0
   1   1  10   68.36    4.05   0
   1   2 -25  190.22    9.49   0
   2  -3  -1  570.36    6.09   0
   2   1 -26    6.34    6.75   0
   2   7  17   25.64   10.50   0
   3  -3   3   51.78    5.30   0
   3  -1  10  738.28   12.13   0
   3   0  12   76.12    8.79   0
   4  -3 -15    4.28    4.48   0
   4  -3   3  405.32   11.35   0
   4  -2   7  643.59   14.77   0
   4   1  13   57.55   14.01   0
   5  -3   0   22.05    9.75   0
   5  -2   5   -6.47   12.95   0
   5  -1   8   37.12   13.91   0
  -2   7  -4   11.91    5.43   0
  -2   7  -3  340.06    8.14   0
  -2   8 -15  124.77   10.40   0
  -2   8  -1  292.74    6.99   0
  -2  10 -19  152.67   14.60   0
  -1   3 -14    3.82    4.80   0
  -1   3   1   99.84    2.19   0
  -1   7 -24   25.00   12.00   0
  -1  12   9   19.04    3.57   0
   0   3 -23  483.36   11.75   0
   0   4 -25    7.09    8.50   0
   1   6  15  120.28    7.45   0
   2  -3  -8  784.19    4.65   0
   2  -3  -2  194.36    3.87   0
   2  -2   5    3.59    3.03   0
   2  -1   8  729.73    7.85   0
   2   5  16   73.87   11.04   0
   3   1  13   10.38    8.95   0
   3   4  16   -4.37   10.55   0
   4  -1   9   12.54    8.94   0
   4   0  11   30.93   11.48   0
   5  -3  -1   93.24   12.40   0
   5  -2   4  101.83   13.56   0
  -2   8 -16   10.72    8.66   0
  -2   9 -18   89.96   12.42   0
  -2  11   2   -4.68    6.19   0
  -1   4 -18   90.11    7.32   0
  -1   5 -21   26.23    9.07   0
  -1   6 -23    6.91    9.67   0
   0   1 -17  647.38    7.33   0
   0   2   7   22.88    1.93   0
   0   6  12  124.73    4.06   0
   0   9  13    1.53    3.56   0
   0  10  13  115.67    5.86   0
   1  -2  -4 1853.66    4.03   0
   1  -1 -16  773.68    5.99   0
   1  -1   4 8279.94   13.06   0
   1   0 -20   33.01    4.86   0
   1   1 -23  120.53    6.70   0
   2  -3  -3  142.27    3.82   0
   2   0  10   77.99    5.92   0
   2   1  12   24.23    6.24   0
   3  -3   2  725.58    9.09   0
   3   0  11  203.60    9.96   0
   3   2  14   12.56    9.28   0
   4  -3   2  326.85   10.26   0
   4  -2   6   47.73    8.63   0
   5  -3 -11  111.35   10.74   0
   5  -3  -2   68.41   11.42   0
   5  -1   7   31.64   12.42   0
   5   0   9   21.66   12.71   0
  -2   6  -8   48.76    7.44   0
  -2   6  -7   12.97    6.58   0
  -2   7  -2    6.02    4.42   0
  -2   8 -17   -0.07    8.86   0
  -2   9 -19   60.24   11.96   0
  -2  10   2   -4.05    5.94   0
  -2  13   2   42.27    9.36   0
  -1   2  -7  269.25    4.52   0
  -1   2  -6  939.27    6.33   0
  -1   3 -15  365.75    7.63   0
  -1   7 -25   82.65   13.71   0
   0   2 -21  180.79    7.84   0
   1  -2  -6 3712.15    4.02   0
   1  -2  -5 1193.40    3.15   0
   1   0   7  202.74    3.88   0
   1   2  11  847.09    8.67   0
   1   3 -28   14.26    9.67   0
   1   7  15   16.55    6.52   0
   2  -3  -7    6.05    2.26   0
   2  -3  -6  526.61    4.39   0
   2  -2   4  752.50    6.55   0
   2   0 -24   95.70    6.71   0
   2   2  13   21.30    6.37   0
   2   3  14   58.56    8.25   0
   2   6  16    5.58    8.89   0
   3  -3   1   17.02    5.02   0
   3   5  16    7.20   12.17   0
   4  -3 -14   48.33    5.50   0
   4  -3   1  104.04    8.28   0
   4   1  12    5.52   11.72   0
   4   2  13    7.22   13.24   0
   4   3  14    3.48   12.44   0
   5  -3 -10  110.63   11.90   0
   5  -3  -9  136.33   12.92   0
   5  -3  -5  142.48   13.83   0
   5  -3  -4  276.35   15.08   0
   5  -3  -3  148.70   12.64   0
   5  -2   3   24.02   11.62   0
   5  -1   6   12.69   12.20   0
  -2   6 -10    2.68    6.55   0
  -2   6  -9  229.69    8.32   0
  -2   6  -6  112.03    6.33   0
  -2   6  -5   10.09    5.65   0
  -2   7 -15   62.04    8.76   0
  -2   7  -1 1170.16   10.48   0
  -2   8 -18    3.82   10.13   0
  -2  10 -21   76.19   14.56   0
  -1   2  -9  326.84    5.14   0
  -1   2  -8  330.98    4.78   0
  -1   2  -5  753.24    5.57   0
  -1   2  -4   55.90    3.07   0
  -1   3 -16  462.33    9.56   0
  -1   4 -19   20.25    7.05   0
  -1   5 -22   67.31   10.58   0
   0   1 -18   87.18    6.02   0
   0   3 -24   81.66    9.08   0
   0   4 -26   -1.23    9.15   0
   1   5  14  328.38    7.53   0
   2  -1   7   10.36    3.52   0
   3  -3 -13  231.28    4.98   0
   3   1  12    6.40    8.25   0
   3   4  15   10.96   10.79   0
   4  -3   0   -6.00    6.94   0
   4  -2 -19   27.09    4.94   0
   4  -2   5  110.85    9.41   0
   4  -1   8   67.98    9.05   0
   4   0  10  114.91   11.65   0
   5  -3  -8  233.89   14.14   0
   5  -3  -7  125.55   12.71   0
   5  -3  -6  329.13   15.44   0
   5  -2   2  121.02   14.02   0
   5   0   8   14.17   12.90   0
  -2   8 -19    9.87   10.25   0
  -2   8   1   16.44    5.17   0
  -1   4 -20   23.89    8.07   0
  -1   7 -26   30.16   13.02   0
   0   0 -13  543.78    5.44   0
   0   5  11 1993.60    8.69   0
   1   1   9    7.84    3.61   0
   1   3  12 1069.65    9.60   0
   1   4  13   73.98    5.63   0
   1   8  15    1.53    7.17   0
   1   9  15   57.61    9.16   0
   1  10  15    3.42    8.24   0
   2   1  11  519.95    9.43   0
   2   7  16   43.96   10.94   0
   3  -3   0   41.83    4.95   0
   3   0  10  384.47   11.17   0
   3   2  13    5.07    9.69   0
   3   3  14   16.72    9.94   0
   3   6  16   87.36   14.87   0
   4  -3 -13   -1.97    5.77   0
   4  -3  -1  184.40   10.71   0
   4   1  11   79.71   12.98   0
   5  -2   1   58.92   13.25   0
   5  -1   5   14.48   12.20   0
  -2   6 -14    3.65    7.05   0
  -2   6  -3  599.28    9.50   0
  -2   7 -17    6.44    8.92   0
  -2   7   0  321.16    7.13   0
  -1   2 -11  313.35    5.62   0
  -1   3 -17  248.30    8.00   0
  -1   3   2 2467.18    6.64   0
  -1   5 -23    2.25    9.43   0
  -1   6 -25   31.11   12.08   0
   0   2 -22   13.46    8.10   0
   1  -1   3 1517.22    5.84   0
   1   0 -21    6.43    4.84   0
   1   1 -24  297.16    9.59   0
   2  -2   3  105.97    3.84   0
   2   0   9    2.70    4.70   0
   2   5  15   56.52    8.46   0
   2   8  16   -0.03   10.02   0
   3  -3  -1  531.44    8.81   0
   4  -3  -2   11.23    8.33   0
   4  -2   4   63.56    8.12   0
   4  -1   7   -0.83    8.04   0
   4   0   9    2.42    9.51   0
   4   3  13   29.86   13.59   0
   5  -2   0   72.15   12.76   0
   5  -1   4   13.02   12.94   0
   5   0   7   14.10   11.72   0
  -2   6  -2 2434.67   16.02   0
  -2   7 -18   56.76   10.04   0
  -2   8 -20   11.14   10.69   0
  -2  13   3   57.92    9.25   0
  -1   2 -12    9.75    4.55   0
  -1   4 -21   -4.62    8.14   0
   0   0 -14  202.71    4.78   0
   0   1 -19  214.62    7.12   0
   1   6  14  337.33    9.74   0
   2   2  12   26.75    6.18   0
   2   4  14  137.97    8.87   0
   3  -3 -12   12.37    4.26   0
   3  -3  -2  873.19   10.08   0
   3  -2   4 1356.60   12.16   0
   3   1  11   -3.29    8.78   0
   4  -3 -12    5.62    5.62   0
   4  -3  -3   77.47    8.75   0
   4  -2   3   25.54    8.49   0
   5   0   6   -8.78   14.12   0
   5   1   8   17.98   14.79   0
  -2   5  -9  443.86   10.44   0
  -2   5  -8   84.23    6.72   0
  -2   5  -7  222.08    7.87   0
  -2   6 -16   99.12   10.33   0
  -2   9   3   34.60    5.47   0
  -1   2 -13  419.36    6.97   0
  -1   2  -2  224.44    3.64   0
  -1   3 -18  306.63    8.93   0
  -1   6 -26   28.46   13.67   0
   0   1   4 2135.92    4.00   0
   1   2 -27   41.02    8.75   0
   1   2  10  144.77    5.32   0
   2  -2   2 2660.53   10.55   0
   2  -1   6   78.00    3.80   0
   2   6  15   58.29    9.47   0
   3   0   9   41.73    7.69   0
   3   2  12    4.77   10.00   0
   3   3  13   14.89   10.48   0
   3   6  15   18.22   13.59   0
   4  -3  -5    6.03    7.58   0
   4  -3  -4   10.71    7.23   0
   4  -1   6   -5.71    8.24   0
   4   1  10   12.46   11.75   0
   5  -2  -2   91.82   12.58   0
   5  -2  -1   87.23   11.35   0
   5  -1   3   26.44   12.72   0
  -2   5 -11    0.79    6.83   0
  -2   5  -6   -0.02    5.13   0
  -2   5  -5  565.42   10.42   0
  -2   6 -17   -2.68    9.44   0
  -2   6  -1 1363.38   12.64   0
  -2   7   1  651.39    8.55   0
  -2   8 -22    4.45   11.29   0
  -2  11   4    1.20    5.97   0
  -1   2 -14  285.11    6.53   0
  -1   4 -22   -3.73    8.86   0
   0   0 -15  502.44    6.88   0
   0   2 -23    9.63    7.89   0
   1   5  13  476.81    9.00   0
   2   0   8   28.29    4.90   0
   2   7  15    7.55   10.55   0
   3  -3 -11  522.87    7.30   0
   3  -3  -3   93.63    4.84   0
   3  -2   3   58.21    5.73   0
   4  -3  -9   24.19    7.45   0
   4  -3  -8   85.47    8.53   0
   4  -3  -7   14.57    8.90   0
   4  -3  -6   18.46    8.11   0
   4  -2   2   86.23    8.35   0
   4   2  11   53.81   11.73   0
   4   3  12  182.66   16.79   0
   5  -2  -3  303.43   14.96   0
   5  -1   2    6.83   12.46   0
   5   0   5   79.47   14.29   0
  -2   5 -13   72.65    8.39   0
  -2   5  -4   -6.97    5.75   0
  -2   6 -18   -6.21   10.52   0
  -2  10   4   10.78    5.70   0
  -1   2 -15    7.04    5.85   0
  -1   3 -19   -5.04    7.33   0
   0   1 -20   58.22    6.33   0
   0   3 -26   46.46    9.93   0
   0   4 -28   -6.84   10.55   0
   1   1 -25   36.76    8.09   0
   1   1   8  524.53    5.79   0
   1   3  11  204.39    6.09   0
   1   7  14  111.32    8.32   0
   2   5  14    6.05    9.50   0
   2   8  15   12.51   11.76   0
   3  -3  -5  131.95    5.66   0
   3  -3  -4 1144.80    9.95   0
   3   5  14   22.69   13.42   0
   4  -2   1  151.19    9.41   0
   4  -1   5   26.71    8.66   0
   4   1   9   73.66   11.75   0
   5  -2  -4  168.03   15.30   0
  -3  12 -12   17.43   19.26   0
  -3  12 -10   44.15   18.87   0
  -2   5 -14  352.57   11.71   0
  -2   8 -23    5.36   13.96   0
  -1   2  -1 2084.81    7.41   0
  -1   4 -23    0.08    9.27   0
   1  -1   2 1011.06    4.85   0
   1   0 -22   13.27    5.05   0
   1   4  12  153.82    5.70   0
   2  -2   1  930.96    6.74   0
   2  -1   5   97.80    4.03   0
   2   2  11    0.83    6.04   0
   3  -3 -10  206.90    5.47   0
   3  -3  -7 1558.53   11.85   0
   3  -3  -6 1300.42   11.57   0
   3  -2   2   97.57    5.61   0
   3   2  11  617.23   16.52   0
   3   4  13   23.78   11.36   0
   4  -1   4  263.35   12.37   0
   4   2  10   13.46   12.28   0
   4   3  11  117.81   16.23   0
   4   4  12   97.43   16.56   0
   5  -2 -13   27.73   12.03   0
   5  -2  -6   22.21   13.42   0
   5  -2  -5  363.98   15.77   0
   5  -1   1   -9.28   12.11   0
   5   0   4   22.55   13.32   0
   5   1   6  115.49   17.22   0
  -3  11 -14   20.65   17.05   0
  -3  11 -13   14.29   15.11   0
  -3  11 -11    3.22   15.61   0
  -3  11 -10   14.41   14.54   0
  -3  11  -9   -8.54   12.96   0
  -3  13  -7    6.98   15.81   0
  -2   6 -19    3.22   10.00   0
  -2   6   0  711.09    8.70   0
  -2   7 -22   10.14   13.17   0
  -2   7   2 1453.01   11.07   0
  -2   8   3  208.48    6.10   0
   0   0 -16   -2.73    3.92   0
   0   3   8 1123.86    5.14   0
   1   2 -28   21.68    9.60   0
   1   8  14   72.81    9.11   0
   1   9  14   15.54    9.39   0
   1  10  14   19.74    9.64   0
   2   3  12  763.57   13.44   0
   2   6  14    0.01   10.28   0
   3   6  14  100.80   14.86   0
   4  -2   0   37.60    7.92   0
   4   1   8   17.68   11.65   0
   5  -2 -12    9.43   10.52   0
   5  -2 -11    1.69   11.58   0
   5  -2 -10   46.79   12.38   0
   5  -2  -9   21.74   12.08   0
   5  -2  -8   26.89   12.58   0
   5  -2  -7   19.64   11.80   0
   5  -1   0   -3.19   12.49   0
   5   2   7   57.36   16.26   0
  -3  10 -12   44.26   15.14   0
  -3  10 -11   25.74   13.71   0
  -3  10 -10   -2.34   13.02   0
  -3  11  -8   28.30   12.30   0
  -3  12  -7    1.57   13.07   0
  -3  12  -6   11.00   13.03   0
  -3  13  -6   30.94   16.39   0
  -2   5 -17  218.42   12.43   0
  -2   6 -20   -3.04   10.75   0
  -2   9   4    9.88    4.90   0
  -1   2 -17    5.93    6.75   0
  -1   4 -24   -4.80   11.22   0
  -1   5 -26   21.72   12.30   0
   0   1 -21  113.10    7.29   0
   0   3 -27   62.14   11.75   0
   0   6  11   69.61    3.85   0
   0   8  12   80.80    5.25   0
   1   0   5   23.54    2.98   0
   1   6  13  769.82   13.11   0
   2  -2   0  316.00    5.18   0
   2   0   7  476.55    7.38   0
   2   1   9   22.52    5.58   0
   3  -2   1  282.54    7.00   0
   3   7  14    5.21   13.51   0
   4  -2  -1  628.54   12.54   0
   4  -1   3  117.90   11.00   0
   4   0   6   63.73    9.92   0
   5  -1  -1   10.59   12.87   0
   5   0   3   77.43   13.59   0
   5   1   5  112.93   17.12   0
  -3  10 -15    7.19   13.47   0
  -3  10 -14   24.98   15.15   0
  -3  10 -13   13.35   14.07   0
  -3  12  -5    5.31   11.93   0
  -3  13  -5   33.94   15.18   0
  -2   4 -11   68.09    6.88   0
  -2   4  -9   77.42    6.78   0
  -2   4  -8    1.74    5.96   0
  -1   4   5  462.12    2.70   0
   0   0 -17   81.74    5.51   0
   1  -2 -10  490.22    2.18   0
   2  -1   4  957.73    7.26   0
   2   7  14  168.14   13.05   0
   3   5  13  228.77   14.53   0
   4  -2 -17   23.75    5.52   0
   4   2   9   15.44   11.96   0
   4   3  10  117.78   16.12   0
   4   4  11   89.06   15.88   0
   5   0   2   93.15   15.67   0
   5   2   6    0.97   15.76   0
  -3   9 -13   23.63   14.34   0
  -3   9 -12   76.15   12.67   0
  -3   9 -11   27.86   12.27   0
  -3   9 -10   80.69   12.29   0
  -3   9  -9    6.32   12.60   0
  -3  10 -16   -7.21   15.56   0
  -3  10  -6  147.82   12.93   0
  -3  11  -5   33.11   11.70   0
  -3  13  -4   10.60   13.53   0
  -2   4 -12    7.49    6.74   0
  -2   4  -6   20.93    5.93   0
  -2   6   1 1218.02   10.46   0
  -2   7 -24   10.75   15.33   0
  -1   1 -10 1061.11    8.59   0
  -1   1  -9 2618.30   11.03   0
  -1   2 -18   32.91    7.02   0
   0   1 -22   43.83    8.00   0
   0   2 -25    6.11    7.32   0
   0   2   6   78.78    1.83   0
   0   9  12  180.16    7.22   0
   0  11  12   55.57    6.77   0
   1   0 -23   14.08    5.54   0
   1   1   7 1720.76    8.72   0
   2   2  10  148.32    7.42   0
   2   5  13  434.84   12.84   0
   2   8  14   24.11   12.59   0
   3  -2   0  295.62    6.93   0
   3   2  10  117.37   10.24   0
   3   3  11   15.45   10.25   0
   3   4  12  186.92   13.49   0
   4  -2  -2  221.64   10.47   0
   4  -1   2  886.55   16.54   0
   4   1   7   -2.66    9.96   0
   5  -1  -2   14.66   10.98   0
   5   1   4  195.86   17.70   0
  -3   9 -15   80.25   13.98   0
  -3  10  -5  150.49   13.88   0
  -2   5 -19  206.42   14.00   0
  -1   1 -12 1396.02   11.50   0
  -1   1 -11 1244.40    9.37   0
  -1   1  -7 1821.99    8.51   0
  -1   2   0  896.80    4.69   0
  -1   4 -25   10.27   10.74   0
   0   0 -18    1.05    5.28   0
   0   3 -28   12.34   12.03   0
   0   4   9 1258.12    6.51   0
   0   5  10  381.73    4.89   0
   0  10  12   29.94    5.92   0
   1  -1 -19  118.63    5.36   0
   1  -1   1 8864.35   12.23   0
   1   3  10  540.56    8.09   0
   1   5  12  664.16    9.81   0
   1   7  13    2.71    6.94   0
   2  -2  -1  673.42    5.82   0
   2   0   6  227.78    6.43   0
   2   3  11  701.92   13.09   0
   2   4  12 1589.04   20.03   0
   2   9  14    8.99   13.36   0
   3   1   8  497.08   13.17   0
   4  -2  -3  417.14   11.94   0
   4   2   8   64.34   13.10   0
   4   5  11   31.45   16.09   0
   5  -1  -3   29.78   10.83   0
   5   0   1   33.47   13.92   0
   5   2   5   68.60   16.71   0
  -3   9 -16    0.91   13.74   0
  -3  12  -3   14.29   12.30   0
  -3  13  -3   31.27   12.58   0
  -2   4 -16  397.08   12.88   0
  -2   4 -15  852.81   14.50   0
  -2   4  -4   47.98    5.82   0
  -2   5 -20  113.49   12.82   0
  -2   6 -23    0.00   13.45   0
  -2   8   4    8.12    4.33   0
  -1   1 -13 1297.82   10.95   0
  -1   1  -6   -0.02    3.09   0
  -1   2 -19  208.78    8.77   0
  -1   3 -23   75.28   11.43   0
   1   4  11  123.90    5.40   0
   2  -1   3  530.50    6.08   0
   2   1   8  259.37    7.07   0
   3  -2  -1 2311.50   14.25   0
   3   5  12  116.78   13.96   0
   3   7  13   -2.93   13.09   0
   4  -2  -4  463.51   11.63   0
   4  -1   1  302.25   11.48   0
   4   0   4  182.58   12.29   0
   4   1   6    3.96    9.94   0
   4   3   9  283.32   18.04   0
   5  -1  -4  -11.63   10.80   0
   5   0   0  158.59   16.64   0
   5   1   3  116.32   16.60   0
  -3   8 -14   16.60   11.95   0
  -3   8 -13   19.75   11.18   0
  -3   8 -12   40.75   12.02   0
  -3   8 -11    7.92   11.74   0
  -3   8 -10   65.50   12.82   0
  -3   8  -9   24.72   11.66   0
  -3   8  -8  121.22   11.88   0
  -3   9 -18   61.50   16.91   0
  -3   9  -5  118.99   10.33   0
  -2   4 -17  271.04   12.50   0
  -2   5 -21   68.46   13.00   0
  -2   5   0  563.40    8.74   0
  -2   6   2  677.33    8.19   0
  -1   1 -14 1736.46   13.13   0
  -1   1  -5 1033.54    6.19   0
  -1   2 -20  153.99   10.21   0
  -1   4 -26    1.81   11.91   0
   0   1 -23  111.92   10.76   0
   0   2 -26   37.18   10.88   0
   1  -2 -11   70.37    1.70   0
   1   8  13   10.35    7.87   0
   3   2   9  705.70   15.95   0
   3   3  10  225.87   13.00   0
   3   4  11    1.22   10.17   0
   4  -2  -5  100.19    8.45   0
   5  -1  -6   -6.71   11.38   0
   5  -1  -5   28.18   11.55   0
   5   1   2   68.99   16.82   0
   5   2   4   71.87   16.88   0
  -3   8 -16   10.14   13.05   0
  -3   8  -7   51.79    8.91   0
  -3   9 -19   44.78   16.75   0
  -3   9  -4   31.30    9.00   0
  -3  10  -3  137.19   10.93   0
  -3  11  -2  128.75   12.15   0
  -3  12  -2   17.65   10.95   0
  -3  13  -2    7.28   11.92   0
  -2   4 -18  296.76   13.98   0
  -2   4  -3  115.79    6.56   0
  -1   1 -15   26.05    6.76   0
  -1   3 -24   37.63   12.20   0
   0   0 -19   23.43    5.58   0
   1   0   4  762.97    5.06   0
   1   9  13  115.62   11.69   0
   2  -2  -2   18.85    3.04   0
   2   2   9   38.61    6.56   0
   2   5  12   30.25   10.07   0
   2   7  13    8.13   11.30   0
   3  -2  -2  406.36    7.95   0
   3   1   7  170.32   10.26   0
   3   6  12   84.78   14.32   0
   4  -2  -6  500.73   12.25   0
   4  -1   0 1306.39   17.21   0
   4   0   3  710.35   17.48   0
   4   2   7   21.67   11.97   0
   4   5  10   -9.49   14.70   0
   5  -1  -7   -1.87   11.20   0
   5   0  -1   52.40   14.38   0
   5   3   5   -3.68   14.84   0
  -3   8 -18   43.45   13.16   0
  -3   8 -17   -0.09   13.53   0
  -3   8  -6    2.88    8.24   0
  -2   3 -10 1342.09   15.22   0
  -2   6 -25   29.41   15.19   0
  -1   1  -4 7721.80   14.28   0
  -1   2 -21  772.88   14.45   0
  -1   4 -27   17.17   14.42   0
   0  -1 -11  156.41    3.84   0
   0  -1 -10  763.43    5.75   0
   0  -1  -9  593.61    4.61   0
   0  -1  -8  902.01    4.81   0
   0   7  11   69.07    5.03   0
   1  -1 -20  363.51    7.07   0
   1   6  12   90.00    7.49   0
   2   0   5 3325.58   14.88   0
   2   3  10   47.26    7.96   0
   2   4  11  676.00   14.00   0
   2   8  13   25.38   12.42   0
   3  -2  -3 2838.96   16.30   0
   4  -2  -8  485.47   13.66   0
   4  -2  -7   68.73    8.17   0
   4  -1  -1  750.30   14.81   0
   4   3   8   91.79   13.74   0
   5  -1 -13  126.39   14.02   0
   5  -1 -12  104.39   14.39   0
   5  -1 -11   17.53   13.11   0
   5  -1 -10   80.59   14.26   0
   5  -1  -9   12.82   12.74   0
   5  -1  -8   45.96   12.26   0
   5   0  -2  241.81   17.68   0
   5   1   1  174.20   17.82   0
   5   2   3   36.02   15.71   0
  -3   7 -15   85.07   13.78   0
  -3   7 -13  342.41   16.60   0
  -3   7 -12  190.38   14.07   0
  -3   7 -11  249.32   13.49   0
  -3   7 -10  126.33   12.80   0
  -3   7  -8  438.10   14.61   0
  -3  11  -1  193.14   12.75   0
  -3  12  -1   19.51   10.76   0
  -2   3 -13  183.35    8.50   0
  -2   3 -11  591.73   10.99   0
  -2   3  -9  558.23   10.07   0
  -2   3  -8 1354.13   13.39   0
   0  -1 -12  639.72    6.34   0
   0   0 -20  133.00    7.37   0
   0   2 -27   -9.95   10.67   0
   1   1   6  998.10    6.85   0
   2  -2  -3    2.68    3.65   0
   2  -1   2 1965.36    9.61   0
   2   9  13   -0.06   13.57   0
   3   2   8  124.85    9.83   0
   3   5  11  154.57   14.02   0
   3   7  12    1.81   13.18   0
   4  -2 -12   -2.59    7.24   0
   4  -2 -10   97.73   10.30   0
   4  -2  -9   63.36    8.80   0
   4   0   2  185.88   11.81   0
   4   2   6  298.18   16.05   0
   4   6  10   10.69   14.80   0
   5   0  -3   60.90   14.45   0
   5   3   4   12.41   15.45   0
  -3   7 -16   23.36   12.65   0
  -3   7  -7  278.86   11.41   0
  -3   8 -20   48.84   16.80   0
  -2   3 -15   44.08    9.00   0
  -2   3  -6 3086.63   18.13   0
  -2   4 -20  743.59   18.60   0
  -2   5   1   54.48    4.18   0
  -2   7   4 2470.80   12.73   0
  -2  11   6   -3.26    5.03   0
  -2  12   6   88.23    7.63   0
  -1   2 -22  251.26   12.18   0
   0  -1 -13  440.06    5.93   0
   0  -1  -7  328.80    3.39   0
   1  -2 -12   15.79    1.71   0
   1  -1   0 5957.75    9.67   0
   1   3   9 1079.34    9.83   0
   1   5  11    7.42    6.33   0
   2  -1 -23   20.42    4.24   0
   2   6  12    2.27    9.49   0
   3  -2  -4  882.19   10.36   0
   3   3   9    9.44    9.42   0
   3   8  12   24.82   15.16   0
   4  -1  -2 1400.70   17.17   0
   4   1   4  165.15   12.14   0
   4   3   7  433.92   19.48   0
   5   0  -4   53.02   12.75   0
   5   1   0   12.92   14.38   0
  -3   7 -18   -8.43   13.65   0
  -3   7 -17   -5.79   11.17   0
  -3  12   0   50.93   10.76   0
  -2   4 -21  271.78   15.10   0
  -2   4  -1  307.88    7.63   0
  -2   5 -24   -1.90   13.53   0
  -1   1 -18  171.34    9.04   0
  -1   1  -3 1374.65    6.39   0
   1   0 -25   19.54    7.89   0
   1   4  10  107.12    5.31   0
   1   7  12  215.12   10.46   0
   2   2   8  625.81   10.40   0
   3   6  11  131.04   13.50   0
   4  -1  -3 1883.23   20.13   0
   4   0   1  434.25   13.99   0
   5   0  -5   -1.26   11.45   0
   5   1  -1  163.30   16.92   0
   5   3   3   20.79   14.25   0
  -3   6 -14  377.50   17.61   0
  -3   6 -11  129.88   12.69   0
  -3   6 -10   78.31   10.90   0
  -3  11   0   75.82   11.96   0
  -2   3  -5 1804.31   13.63   0
  -2   5 -25   26.47   15.11   0
  -2  13   6   26.31    6.88   0
  -1   3 -26   -8.85   11.04   0
   0  -1 -14   93.20    4.82   0
   0  -1  -6 4002.29    8.05   0
   0   1 -25   -0.19    9.30   0
   2  -1   1 4874.41   14.27   0
   2   0   4  754.92    7.98   0
   2   4  10 1039.43   16.54   0
   2   5  11  672.32   14.94   0
   2   7  12   82.38   11.30   0
   3  -2  -5 1950.79   13.30   0
   3   2   7  375.51   13.17   0
   3   5  10  169.43   15.17   0
   3   7  11   15.55   14.95   0
   4  -1 -20    4.03    6.58   0
   4   1   3   -3.71   10.26   0
   4   6   9   19.16   14.74   0
   5   0  -6   32.94   12.46   0
  -3   6 -16  122.87   12.84   0
  -3   6 -15  129.88   12.95   0
  -3   6  -9  242.36   12.81   0
  -3   8  -2   22.10    8.42   0
  -3  10   0  236.95   12.63   0
  -2   3  -4 1657.61   13.78   0
  -1   1 -19   -0.46    6.88   0
   0  -1 -15  532.35    7.13   0
   0   3   7  613.92    4.20   0
   0   6  10  283.14    5.15   0
   0   8  11  112.95    6.65   0
   1  -2 -13  126.84    2.39   0
   1   0   3  126.59    3.20   0
   1   8  12  134.33   10.26   0
   2   1   6  933.76    9.98   0
   2   8  12   -0.72   11.82   0
   3   3   8  135.60   11.08   0
   3   4   9   66.32   11.41   0
   3   8  11   11.32   16.27   0
   4  -1  -4  408.35   11.87   0
   4   0   0  465.48   13.71   0
   4   3   6  158.64   14.17   0
   4   4   7    7.94   13.61   0
   4   5   8    2.05   12.93   0
   5   0  -7  188.72   16.51   0
   5   1  -2   70.74   15.14   0
   5   2   0   32.77   15.88   0
   5   3   2   42.90   15.22   0
  -3   6  -7  128.58   10.07   0
  -3   7 -21   -5.77   15.81   0
  -3  12   1    7.85   10.22   0
  -2   3 -19  261.08   12.58   0
  -2   4 -23   24.07   14.21   0
  -2   5   2  763.52    8.41   0
  -1   1  -2 1137.57    5.85   0
  -1   3 -27   -1.83   14.09   0
   0   0 -22   93.34    8.48   0
   0  12  11   15.19    7.47   0
   1   2   7 1444.02    9.68   0
   1   6  11  643.38   11.42   0
   1   9  12    0.26    8.85   0
   1  10  12    7.78   10.70   0
   1  11  12    8.49   11.80   0
   2   9  12   46.82   15.84   0
   2  10  12   39.16   14.14   0
   3  -2  -7  634.07    9.53   0
   3   6  10   -2.61   13.16   0
   4  -1 -19    6.68    8.33   0
   4  -1  -5  942.76   15.23   0
   4   1   2  103.80   12.16   0
   5   0  -8   35.84   13.50   0
   5   1  -3   77.42   15.37   0
   5   4   3   27.34   16.34   0
  -3   6 -19   97.90   14.67   0
  -3   6 -18   68.28   13.32   0
  -3   6  -6    2.84    8.27   0
  -3   8  -1  279.57   10.29   0
  -3   9   0    5.84    9.31   0
  -3  11   1  161.78   13.16   0
  -2   3  -3 1493.51   12.60   0
  -2   4   0  669.96    8.27   0
  -2   9   6   57.08    5.16   0
  -1   1 -20   76.02    7.79   0
   0  -1 -16    0.59    4.75   0
   0   1 -26   23.28    9.68   0
   0   9  11   15.72    6.62   0
   1   1   5 3419.90   11.24   0
   2  -1   0 4925.20   14.55   0
   2   2   7   42.57    6.89   0
   3  -2 -15    6.15    4.68   0
   3  -2  -8 1428.49   12.48   0
   3  -1  -1    7.86    5.53   0
   4  -1  -6   95.39    9.43   0
   4   0  -1  557.02   13.66   0
   4   3   5  326.32   18.02   0
   5   0 -10   19.05   12.25   0
   5   0  -9  152.06   14.80   0
   5   1  -4   27.10   14.95   0
   5   2  -1   11.25   15.45   0
   5   3   1  -10.88   15.82   0
  -3   5 -12    4.13   10.19   0
  -3   5 -11   13.18    9.71   0
  -3   6 -20   11.53   14.49   0
  -3  10   1   31.96   10.16   0
  -2   2 -13  649.82   11.33   0
  -2   2 -12  749.10   11.44   0
  -2   2 -11 2006.85   15.77   0
  -2   2 -10 1082.19   11.87   0
  -2   2  -9 5293.52   23.00   0
  -2   4 -24   23.12   13.49   0
  -1   0 -13  693.67    9.37   0
  -1   0 -12 1668.29   12.20   0
  -1   0 -11  605.45    8.04   0
  -1   0 -10 3663.96   15.40   0
  -1   0  -9  260.75    5.96   0
  -1   1 -21   10.02    9.40   0
   0   1   3 2049.72    3.58   0
   0   4   8 2191.46    8.71   0
   0   5   9   -1.08    3.40   0
   0  10  11  359.97   11.96   0
   0  11  11   25.83    8.13   0
   1  -1  -1 3399.51    7.37   0
   1   5  10  370.19    8.96   0
   2   0   3 3570.52   14.67   0
   2   5  10   47.60    9.10   0
   3   3   7   88.81   10.43   0
   3   5   9    2.25   10.82   0
   3   7  10   -2.05   12.44   0
   4  -1 -18   -3.97    9.13   0
   4  -1  -7  704.79   14.75   0
   4   0  -2  827.01   15.72   0
   4   1   1   14.76   10.95   0
   4   2   3   29.78   10.97   0
   4   7   8   -2.55   16.11   0
   5   0 -14   -4.83   13.58   0
   5   0 -12   37.79   14.25   0
   5   0 -11   12.79   12.58   0
   5   1  -5    3.41   13.48   0
  -3   5 -16   -6.83   11.81   0
  -3   6 -21    4.19   15.48   0
  -2   2  -8 1706.53   12.71   0
  -2   4 -25   19.44   15.09   0
  -2   6   4  416.13    6.77   0
  -2   7   5  126.42    4.78   0
  -1   0 -14  894.40   10.46   0
  -1   0  -8  374.30    5.58   0
   0  -1 -17  529.15    8.34   0
   0  -1  -5 3424.95    6.90   0
   0   0 -23   70.74    8.64   0
   1  -1 -22   99.03    6.77   0
   1   3   8   81.04    5.23   0
   1   4   9  592.15    8.86   0
   1   7  11   30.29    8.17   0
   2   4   9  338.23   10.96   0
   3  -2 -13   34.54    5.63   0
   3  -2 -12    0.25    5.98   0
   3  -1  -2 1071.74   10.48   0
   3   8  10   21.55   16.19   0
   4  -1  -8  361.03   11.96   0
   4   6   7   34.90   16.63   0
   5   2  -2   21.68   14.29   0
   5   3   0   62.55   17.77   0
  -3   5 -17   29.54   13.90   0
  -3   6 -22    6.00   16.68   0
  -3   8   0  215.35   10.14   0
  -3   9   1   -4.19    7.84   0
  -3  11   2   19.35   10.30   0
  -2   2 -17   13.05    9.22   0
  -2   2  -7 3416.45   16.33   0
  -1   0 -15 1327.68   12.68   0
  -1   1 -22  197.56   12.39   0
  -1   2 -26   82.44   14.89   0
  -1   3   4 1245.27    4.09   0
   0   1 -27   16.08   10.87   0
   0   2   5   20.15    1.92   0
   2   8  11   10.87   11.19   0
   2   9  11   27.61   13.75   0
   3  -1 -22   25.42    4.11   0
   3   6   9   34.98   12.28   0
   4  -1 -17    4.48    8.78   0
   4  -1  -9  183.30   12.22   0
   4   0  -3  281.13   12.04   0
   4   3   4   55.16   11.74   0
   4   5   6   11.75   14.73   0
   4   7   7    8.33   17.50   0
   5   1  -6   14.99   12.23   0
   5   2  -3    8.36   14.12   0
   5   3  -1  100.09   18.37   0
  -3   5 -19   87.90   15.59   0
  -3   7  -1  165.77    8.66   0
  -2   2  -6  951.20    9.43   0
  -2   3 -23   56.12   12.88   0
  -2   4   1   -1.80    4.47   0
  -1   1  -1 9337.88   14.11   0
   0  -1 -18  389.68    8.16   0
   1  -2 -15   64.25    2.79   0
   1   0   2 4410.74   10.22   0
   2  -1  -1 6454.96   16.10   0
   2  10  11  118.58   16.41   0
   3  -1  -3  277.34    7.45   0
   3   3   6    3.29    8.34   0
   3   5   8  366.92   16.40   0
   4  -1 -11   68.73   10.29   0
   4  -1 -10   71.77   10.36   0
   4   2   2   64.04   11.05   0
   5   1  -7    0.34   12.39   0
   5   2  -4   35.67   16.02   0
  -4   9 -13   -8.12   18.55   0
  -4   9 -12   24.76   19.26   0
  -4  10  -9   -1.74   16.89   0
  -3   5 -20   56.37   16.21   0
  -3   5  -5  344.09   12.42   0
  -2   2 -19   12.87   10.60   0
  -2   3  -1  680.27    8.98   0
  -2   5   3    5.15    3.99   0
  -2   8   6   -4.36    4.48   0
  -1   0 -17 1445.25   15.24   0
  -1   0  -6   35.29    3.84   0
  -1   2   2 2840.26    6.80   0
   0   0 -24   68.32    9.88   0
   0   7  10    3.79    4.80   0
   1   8  11   17.98    8.85   0
   1  11  11   26.82   13.97   0
   2   0   2 1006.97    8.53   0
   2   2   6  551.13    9.74   0
   3   4   7  153.84   11.84   0
   3   7   9   70.89   14.42   0
   4  -1 -14   24.03    8.67   0
   4  -1 -13   36.41    9.29   0
   4  -1 -12    5.07    9.49   0
   4   0  -4  957.03   15.97   0
   4   1  -1   29.17   10.57   0
   4   3   3   85.12   13.11   0
   4   6   6  144.27   19.81   0
   5   1  -9    5.60   13.62   0
   5   1  -8    5.94   12.89   0
   5   3  -2   59.10   17.96   0
   5   4   0   37.04   15.50   0
  -4   9 -11   14.77   16.94   0
  -4   9 -10   49.69   16.98   0
  -4  10  -7    6.54   15.56   0
  -3   4 -15  103.41   12.19   0
  -3   4 -14    3.45   10.72   0
  -3   4 -11   17.55    8.90   0
  -3   4 -10  350.30   12.26   0
  -3   5 -21   16.26   16.51   0
  -3   8   1   50.55    8.86   0
  -2   3 -24   18.76   13.74   0
  -2  11   7    2.16    4.53   0
   1  -1 -23   26.69    6.79   0
   1   2   6 6340.61   17.33   0
   1   6  10   29.24    7.09   0
   1   9  11   45.89    9.87   0
   1  10  11   -3.43   11.14   0
   2  -2  -8   11.32    3.64   0
   2   1   4  943.06    9.71   0
   2   3   7 2767.71   19.56   0
   2   4   8 1397.60   17.99   0
   2   5   9   19.73    8.59   0
   2   7  10   -1.10   10.69   0
   3  -1  -4  409.40    8.05   0
   3   6   8   35.01   13.92   0
   3   8   9   18.07   14.52   0
   3   9   9   -0.25   17.52   0
   4   0  -5  -16.00    9.71   0
   4   2   1  172.31   13.62   0
   4   4   4   36.22   12.96   0
   5   1 -10   -0.30   14.33   0
   5   2  -5   36.96   15.29   0
   5   4  -1   96.05   19.23   0
  -4   8 -15    5.62   19.07   0
  -4   8 -13   70.36   20.07   0
  -4   9  -9   56.51   17.32   0
  -4   9  -8   53.89   18.00   0
  -4  10  -6   10.27   16.28   0
  -4  11  -5   10.77   17.03   0
  -3   4  -9  451.28   13.23   0
  -3   4  -8 1077.99   18.02   0
  -3   5 -22   -1.47   17.37   0
  -3   5  -4  716.01   15.54   0
  -3   7   0   33.16    7.15   0
  -3  12   3   -3.57   10.46   0
  -2   2  -4  748.08    8.68   0
  -2  12   7   15.61    4.80   0
  -1   1 -24   90.04   12.17   0
   1  -2 -16  284.67    4.39   0
   2  -1  -2 1183.69    8.41   0
   2   8  10    4.19   12.27   0
   4   1  -2   87.22   11.04   0
   4   3   2   88.51   12.70   0
   4   6   5   64.12   17.21   0
   5   1 -12   10.40   13.44   0
   5   1 -11   -1.17   12.60   0
   5   2  -6  124.75   18.44   0
   5   3  -3  171.80   20.09   0
   5   5   0  -15.06   17.40   0
  -4   8 -12   60.03   16.29   0
  -4   8 -11  122.90   18.78   0
  -4   8 -10   83.37   17.70   0
  -4   9  -7  219.00   17.90   0
  -3   6  -1  191.48    9.96   0
  -2   2 -21    2.63   10.67   0
  -2  10   7    8.92    4.39   0
  -1   9   9  167.30    3.80   0
  -1  12   9    6.22    4.90   0
   0  -1 -20  201.07    8.16   0
   0   0 -25   48.99   10.27   0
   1   3   7 2356.08   13.65   0
   1   5   9   60.44    6.74   0
   2  -2  -9   42.21    3.67   0
   2   9  10  235.86   17.33   0
   2  10  10   26.47   16.37   0
   3  -1  -5  295.44    7.29   0
   3   3   5  802.10   16.02   0
   3   4   6   25.94   10.25   0
   3   5   7   22.55   11.26   0
   3   7   8   88.71   13.58   0
   4   0  -6   61.28    9.74   0
   4   5   4    8.22   14.59   0
   5   1 -14   -2.55   13.09   0
   5   1 -13    4.36   12.98   0
   5   2  -7   74.64   17.92   0
   5   3  -4   52.08   17.35   0
   5   4  -2  147.37   20.87   0
  -4   8  -9   87.42   17.03   0
  -4   9  -6  200.03   16.80   0
  -4  10  -5   14.68   13.81   0
  -4  11  -4    1.64   16.45   0
  -3   4 -20   18.65   15.78   0
  -3   4 -19   28.08   13.13   0
  -3   5  -3  676.95   14.36   0
  -3  10   3   22.89    8.62   0
  -2   1 -15  253.10   12.03   0
  -2   1 -14  584.28   12.88   0
  -2   1 -13  194.13    8.83   0
  -2   1 -12  760.95   11.93   0
  -2   1 -11    0.26    6.50   0
  -2   1 -10 1354.50   13.39   0
  -2   2 -22    2.64   11.07   0
  -2   2  -3  104.91    5.33   0
  -2   3   0  272.02    6.16   0
  -2   4   2  682.61    6.88   0
   0   8  10    7.44    6.02   0
   1   4   8  213.56    6.27   0
   1   7  10   22.73    8.28   0
   2   0   1 3441.26   14.01   0
   2   2   5  107.80    6.82   0
   2   6   9   -2.90    9.26   0
   3   8   8  192.41   18.79   0
   4   1  -3   37.73   10.27   0
   4   7   5   52.74   18.13   0
   5   2  -8   83.66   17.03   0
   5   5  -1   -2.36   18.20   0
  -4   7 -16    3.93   16.39   0
  -4   7 -14    2.86   17.75   0
  -4   7 -13    8.36   16.43   0
  -4   7 -12   39.87   16.55   0
  -4   8  -8  175.53   18.30   0
  -4   8  -7   92.14   14.92   0
  -4  10  -4   25.23   14.90   0
  -3   7   1  103.88    6.82   0
  -3   8   2  194.95    9.46   0
  -2   1  -9  446.01    8.66   0
  -2   6   5  855.85    8.06   0
  -1   0 -21   13.29    9.94   0
   0  -1 -21    6.78    7.32   0
   0   6   9   16.16    4.39   0
   0  12  10    0.82    8.51   0
   2  -2 -10    2.25    3.64   0
   2   1   3 1150.84   10.17   0
   3  -1 -21    8.65    5.82   0
   3  -1  -6   36.85    5.63   0
   3   6   7   -8.83   12.04   0
   3   9   8    3.56   15.35   0
   4   0  -8  165.82   11.05   0
   4   2  -1  348.04   15.67   0
   4   3   1   17.15   11.32   0
   5   2  -9   61.65   15.80   0
   5   3  -5  251.81   20.76   0
   5   4  -3   25.90   18.04   0
   5   5  -2    8.46   17.58   0
  -4   7 -11   33.10   14.72   0
  -4   7 -10   11.82   14.35   0
  -4   9  -5  192.15   16.55   0
  -3   3 -15   95.74   12.71   0
  -3   3 -14   82.84   12.09   0
  -3   3 -12   26.09    9.38   0
  -3   3 -11  237.01   11.98   0
  -3   4  -5  551.48   13.31   0
  -3   5  -2 1364.82   18.24   0
  -3   6   0   20.69    6.89   0
  -1   1 -26   57.92   14.13   0
  -1   1   0 5781.74   10.73   0
   0  -1  -4 2193.83    4.73   0
   0   0 -26   26.41   10.83   0
   1  -2 -17  144.46    4.31   0
   1  -1 -24   19.05    6.53   0
   1   8  10  324.82   13.54   0
   2  -1  -3 8511.78   18.23   0
   2   3   6 1845.33   15.93   0
   2   4   7  377.74   11.08   0
   2   7   9  148.13   11.45   0
   3   4   5  271.05   12.70   0
   3   5   6  284.51   14.28   0
   4   0  -9   34.76   10.13   0
   4   1  -4   46.87   10.16   0
   5   2 -10   48.18   16.70   0
   5   3  -6  147.51   19.49   0
   5   4  -4  107.36   20.19   0
  -4   7  -9  -14.89   14.65   0
  -4   7  -8    0.81   14.35   0
  -4   8  -6  180.16   15.21   0
  -4   9  -4   51.68   15.87   0
  -4  10  -3   -9.36   14.30   0
  -3   3 -17   26.43   13.13   0
  -3   3  -9  124.37   10.08   0
  -3   4  -4  304.10   11.37   0
  -2   1  -7   10.84    4.80   0
  -2   2 -24   -3.37   13.55   0
  -2   2  -2 2708.64   13.83   0
  -2   5   4  308.90    5.47   0
  -2   9   7  128.31    4.53   0
  -1   0 -22   43.38   10.36   0
  -1  11   9   10.54    4.72   0
   0   3   6 2554.26    7.64   0
   0   9  10  431.08   10.84   0
   0  10  10  276.22   11.84   0
   0  11  10   16.69    8.45   0
   1   0   1   32.43    3.26   0
   1   2   5 1462.42    9.71   0
   1   6   9  243.47    9.46   0
   1   9  10  121.92   11.44   0
   1  11  10   -3.98   11.19   0
   2   8   9  195.95   15.38   0
   2  11   9  -24.77   15.78   0
   3  -1  -7  301.90    7.01   0
   3   7   7  209.07   17.35   0
   4   0 -20    9.61   11.01   0
   4   0 -10  214.50   13.05   0
   4   2  -2   34.31   11.84   0
   4   3   0  133.53   13.39   0
   4   7   4    6.24   15.02   0
   5   2 -11   20.15   15.79   0
   5   3  -7  151.67   21.47   0
   5   5  -3    4.32   17.23   0
  -4   6 -16   31.14   18.07   0
  -4   6 -15   -1.51   17.47   0
  -4   6 -14   13.59   16.11   0
  -4   6 -13    4.70   15.97   0
  -4   7  -7   41.62   13.66   0
  -4   8  -5   67.96   13.59   0
  -3   3 -18  121.39   14.70   0
  -3   3  -8   41.39    8.57   0
  -3   5  -1  355.89   11.92   0
  -2   1  -6   74.75    5.50   0
  -2   2 -25    6.34   15.33   0
  -1  10   9   91.27    5.06   0
   0  -1 -22   50.53    7.79   0
   2   0   0 7821.85   19.77   0
   2   2   4    4.01    5.98   0
   2   6   8  417.34   14.38   0
   2   9   9   31.48   14.24   0
   2  10   9  120.89   16.61   0
   3  -1  -8  334.81    8.04   0
   3   0  -3  271.57    7.99   0
   3   6   6   49.00   13.43   0
   3   8   7  189.95   17.22   0
   3   9   7    7.69   17.18   0
   3  10   7   -0.31   15.58   0
   4   0 -11   30.48   10.68   0
   4   1  -5   98.13   10.77   0
   4   5   2  162.87   16.04   0
   4   8   4    2.11   15.97   0
   5   2 -13   28.43   18.64   0
   5   2 -12   13.87   15.75   0
   5   3  -8  119.19   18.54   0
   5   4  -5   24.10   17.96   0
  -4   6 -17   -5.30   17.12   0
  -4   6 -11   23.52   15.63   0
  -4   6 -10    2.68   14.44   0
  -4   7  -6  -11.87   12.49   0
  -4   8  -4   95.10   15.27   0
  -4   9  -3  167.20   15.66   0
  -4  10  -2   40.47   15.79   0
  -3   3 -20  191.65   17.48   0
  -3   3  -7  264.25   10.68   0
  -3   4  -3 1327.71   17.78   0
  -3   6   1  383.89   11.05   0
  -3   7   2   21.98    6.38   0
  -3   8   3   31.06    7.37   0
  -2   1 -21   71.69   12.65   0
  -2   3   1  598.10    7.04   0
  -1  -1 -15  370.46    9.43   0
  -1  -1 -13  274.47    6.91   0
  -1  -1 -12   14.31    4.77   0
  -1  -1 -11  572.38    7.83   0
  -1   0  -3  153.35    3.99   0
   0   0 -27   57.59   13.10   0
   0   5   8 1109.21    8.03   0
   1  -2 -18  219.01    5.18   0
   2   1   2  354.80    7.01   0
   3  -1 -20  192.14    7.84   0
   3   5   5  108.67   12.11   0
   4   1  -6  598.22   15.19   0
   4   2  -3  225.12   13.96   0
   4   7   3   25.84   16.59   0
   5   3  -9   33.12   17.18   0
   5   5  -4   19.89   17.98   0
  -4   6  -9   85.25   15.24   0
  -3   3  -6  440.41   12.03   0
  -2   4   3  219.94    5.37   0
  -1  -1 -10   67.32    5.12   0
   0  -1 -23   10.70    8.42   0
   1   3   6   49.35    5.24   0
   1   5   8 1118.08   11.43   0
   1   7   9  267.81   10.29   0
   2  -1  -4  228.95    4.81   0
   2   3   5  790.35   11.98   0
   2   4   6  548.29   12.91   0
   2   5   7   14.85    8.69   0
   2   7   8    2.93   11.46   0
   3  -1  -9   70.31    7.10   0
   3   4   4    6.94    9.74   0
   3   7   6  222.65   17.47   0
   4   0 -15  219.47   12.45   0
   4   0 -14  156.51   11.51   0
   4   4   0  515.57   19.27   0
   4   8   3   25.33   19.39   0
   5   3 -10   68.78   17.43   0
   5   4  -7   60.93   18.12   0
   5   5  -5    8.93   16.10   0
  -4   6  -8    1.81   12.71   0
  -4   6  -7   79.27   15.15   0
  -4   7  -5    2.74   11.43   0
  -4   8  -3   40.65   13.24   0
  -4   9  -2   42.77   13.87   0
  -3   3 -22   54.57   18.20   0
  -3   4  -2  379.64   12.77   0
  -3   5   0  802.48   14.91   0
  -2   1 -22   57.87   13.20   0
  -2   2  -1 1018.96    8.86   0
  -1  -1  -9    2.61    4.79   0
  -1   0 -24   17.69    9.52   0
   0   7   9 1053.57   11.33   0
   1   4   7  606.12    8.45   0
   1  12   9    3.98   14.41   0
   3  -1 -19  381.27   10.69   0
   3   8   6   96.77   16.03   0
   5   3 -11    1.69   16.10   0
  -4   5 -15  114.08   18.65   0
  -4   5 -14   86.07   17.11   0
  -4   5 -13  150.64   18.17   0
  -4   5 -12  115.68   18.63   0
  -4   7  -4    8.00   12.62   0
  -4  10  -1   56.33   13.43   0
  -3   2 -16    6.53   12.05   0
  -3   2 -15   41.81   11.71   0
  -3   2 -14    4.64   11.01   0
  -3   2 -12    7.52    9.66   0
  -3   2 -11  477.20   13.46   0
  -3   2 -10   97.68   10.52   0
  -2   0 -14   19.19    8.52   0
  -2   0 -12  333.84    9.91   0
  -2   0 -11   14.28    7.79   0
  -2   1 -23   11.46   12.87   0
  -2   1  -4  940.63    8.84   0
  -1  -1 -18  560.54   11.74   0
  -1  -1  -8  495.16    7.05   0
   0  -2 -14  221.54    5.88   0
   0  -2 -13  110.47    4.34   0
   0  -2 -12   78.71    4.54   0
   1   8   9  494.87   15.49   0
   2   0  -1 2327.08   11.56   0
   2   8   8    0.16    9.77   0
   2   9   8  258.72   18.70   0
   2  10   8   92.66   17.19   0
   2  11   8   -2.06   14.57   0
   3  -1 -11  162.90    7.20   0
   3   6   5   61.75   12.79   0
   3   9   6   88.45   15.96   0
   3  10   6   30.28   16.74   0
   4   1  -8  160.16   11.47   0
   4   4  -1   53.07   13.59   0
   4   7   2   21.13   16.24   0
   5   4  -8   17.61   17.70   0
   5   5  -6    8.71   19.45   0
  -4   5 -10   32.58   14.14   0
  -4   5  -9    7.94   13.77   0
  -4   6  -6   77.22   14.62   0
  -4   8  -2    7.96   12.16   0
  -4   9  -1   50.57   13.28   0
  -4  11   0    6.60   14.03   0
  -3   2 -18   -8.41   13.13   0
  -3   2  -9  122.30   10.14   0
  -3   3  -4  231.63   10.27   0
  -3   6   2   83.04    7.95   0
  -3   7   3  257.13    8.98   0
  -2   0 -17   62.30   10.70   0
  -2   0 -16    3.19    8.44   0
  -2   0 -10   69.40    7.08   0
  -2   1 -24   29.21   15.76   0
  -1  -1 -19   13.71    7.81   0
  -1   0 -25    6.45   12.65   0
   0  -2 -16 1168.84   10.51   0
   0  -2 -15   44.88    4.66   0
   0  -2 -11  781.89    6.29   0
   0  -1 -24   10.48   10.46   0
   1   9   9   22.64   10.83   0
   1  10   9   31.00   11.33   0
   1  11   9  123.21   14.50   0
   2  -1  -5 2832.15   11.45   0
   2   1   1 1199.84    9.99   0
   2   2   3  131.34    6.64   0
   2   6   7   17.69    9.61   0
   3  -1 -18  397.69   10.87   0
   3   0  -5  545.30    9.61   0
   3   7   5   57.74   14.66   0
   4   2  -5  127.08   12.40   0
   4   3  -3    7.53   11.97   0
   4   5   0  384.49   17.80   0
   4   8   2   26.34   19.47   0
   5   3 -13   10.27   15.29   0
  -4   5  -8   55.41   14.00   0
  -4   6  -5   56.30   12.45   0
  -4   7  -3   98.09   12.23   0
  -4  10   0   15.95   13.61   0
  -3   2  -8   11.00    8.65   0
  -3   4  -1 1044.01   15.94   0
  -3   8   4  546.91   11.88   0
  -2   0 -18    6.08    9.57   0
  -2   0  -9   -5.35    6.31   0
  -2   1  -3  537.38    7.53   0
  -2   8   7  131.02    4.56   0
  -1  -1 -20   85.88   11.29   0
  -1  -1  -7 1620.54   10.36   0
  -1   0  -2 4461.11   10.90   0
   0  12   9   33.15   11.85   0
   1   6   8   11.17    6.00   0
   2   3   4  613.07   10.22   0
   3  -1 -17  503.78   10.75   0
   3   8   5  240.54   19.53   0
   4   1 -10  281.33   13.19   0
   4   2  -6  416.98   15.44   0
   4   7   1   -3.16   16.05   0
   5   5  -8   10.93   18.64   0
  -4   5  -7   12.54   12.93   0
  -4   6  -4   69.21   13.42   0
  -3   2  -7   39.85    8.46   0
  -3   3  -3   50.08    7.81   0
  -3   5   1  213.41    8.83   0
  -3  11   5   22.11    8.12   0
  -2   1 -25   14.20   14.69   0
  -2   2   0  341.30    6.32   0
  -1   0 -26   -3.79   12.80   0
  -1   1   1 3483.78    8.47   0
   0  -2 -17   90.82    5.95   0
   0   8   9    4.57    6.51   0
   1   0   0   37.71    3.12   0
   1   2   4 4552.23   14.49   0
   2   4   5 1288.57   14.08   0
   2   7   7  324.90   14.08   0
   3  -1 -16  177.68    7.74   0
   3  -1 -15  766.38   11.72   0
   3   1  -3  140.07    8.63   0
   3   9   5    8.55   15.33   0
   3  10   5    5.27   16.30   0
   4   1 -11 1043.81   19.44   0
   4   3  -4   -9.95   12.18   0
   4   4  -2   86.03   13.02   0
   4   5  -1  632.05   21.89   0
   5   4 -11    3.91   17.72   0
  -4   4 -17   34.69   18.91   0
  -4   4 -16   45.74   18.13   0
  -4   4 -13   27.62   14.44   0
  -4   4 -12   11.55   14.84   0
  -4   5  -6    3.44   12.00   0
  -4   7  -2  109.34   12.39   0
  -4   8  -1   -7.72   11.11   0
  -4   9   0   50.56   13.98   0
  -3   2  -6  300.25   11.04   0
  -3  10   5   -0.01    7.46   0
  -3  12   5    7.42    8.46   0
  -2   0 -20   19.62   10.32   0
  -2   0  -7  496.23    8.99   0
  -2   5   5   14.18    3.58   0
  -1  -1 -21   32.09    9.46   0
  -1  -1  -6  998.70    8.41   0
  -1   7   8  342.34    3.83   0
   0  -1 -25    4.36    9.49   0
   0  11   9   97.64   11.26   0
   1   5   7  144.59    7.83   0
   2   0  -2 7498.30   19.11   0
   2   8   7   97.17   11.48   0
   4   1 -12  689.54   17.78   0
   4   2  -7  239.02   14.11   0
   5   5  -9   37.18   19.04   0
  -4   4 -10   18.30   13.73   0
  -4   4  -9   29.20   13.16   0
  -4   6  -3   34.20   13.06   0
  -3   3  -2  581.07   12.93   0
  -3   4   0  159.03    8.69   0
  -1  -1 -22   87.64   11.68   0
   0   6   8  836.06    8.50   0
   0  10   9  195.90   10.16   0
   1  -2 -20   10.66    3.95   0
   1   1   2 1372.50    7.43   0
   1   3   5 2488.44   13.05   0
   1   4   6  469.94    8.70   0
   1   7   8  315.24   10.40   0
   2  -1  -6 1507.17    8.81   0
   2   2   2   58.17    5.95   0
   2   6   6  990.88   17.17   0
   2  10   7   38.22   14.78   0
   3   0  -7 1751.89   13.59   0
   3   7   4  329.46   17.40   0
   4   1 -13  811.50   19.04   0
   4   3  -5  -13.22   12.02   0
   4   4  -3  201.47   15.00   0
   4   5  -2  332.27   18.58   0
   4   8   0   54.20   18.98   0
  -4   4  -8   62.13   12.67   0
  -4   5  -5   61.22   12.44   0
  -4   7  -1  267.92   15.90   0
  -4   8   0    8.84   11.68   0
  -4  10   1   25.82   12.03   0
  -3   1 -16  166.83   14.86   0
  -3   1 -15  155.58   14.03   0
  -3   1 -14  463.28   17.20   0
  -3   1 -13   76.89   11.85   0
  -3   1 -12  608.50   17.02   0
  -3   1 -11  456.35   14.88   0
  -3   2  -5   40.31    8.13   0
  -3   5   2  377.94   10.68   0
  -3   6   3  351.33    9.13   0
  -3   7   4   59.30    7.67   0
  -2   0 -22   11.38   12.33   0
  -2   1  -2 1947.97   11.26   0
  -1  13   8    4.28    7.88   0
   0  -2 -19  564.08   10.98   0
   0  -2  -9  116.22    3.18   0
   1   8   8  146.56   10.84   0
   2   1   0   21.42    5.12   0
   3   1  -4  514.64   10.46   0
   3   6   3  232.88   15.06   0
   3   8   4   14.48   14.30   0
   3  10   4    9.88   17.62   0
   4   1 -19   14.29   11.31   0
   4   1 -18   11.30   11.36   0
   4   1 -16  327.09   14.42   0
   4   1 -15   66.35   11.47   0
   4   1 -14  321.60   13.34   0
  -4   4  -7   82.18   13.99   0
  -4   5  -4    4.67   11.35   0
  -4   6  -2  222.36   14.74   0
  -4   9   1   18.73   11.64   0
  -3   1 -10  609.54   15.02   0
  -3   1  -9  763.95   17.42   0
  -3   2  -4 1136.02   16.08   0
  -2   0 -23  -18.14   13.22   0
  -2   2   1  760.17    8.13   0
   0  -2 -20  264.79    9.23   0
   0  -1 -26   -6.56   11.56   0
   1   9   8  504.37   17.08   0
   1  10   8   31.91   11.05   0
   1  11   8   -1.98   10.93   0
   2   3   3  115.75    7.46   0
   2   4   4  165.80    8.60   0
   2   5   5  344.62   10.42   0
   2   7   6   49.13   11.14   0
   3   0 -24   15.34    8.05   0
   3   5   2    6.90    9.70   0
   4   2  -9  231.13   13.45   0
   4   3  -6   38.98   12.36   0
   4   4  -4   91.38   14.06   0
   4   5  -3   51.65   12.82   0
  -4   3 -16    1.36   16.29   0
  -4   3 -14   -2.38   15.66   0
  -4   3 -13  114.90   16.35   0
  -4   3 -12    9.90   13.82   0
  -4   4  -6   44.27   13.98   0
  -3   1 -20    1.39   15.50   0
  -3   1  -8  102.22   11.44   0
  -3   3  -1   -5.81    6.90   0
  -3   4   1  135.85    8.50   0
  -2   0  -5 2813.30   15.18   0
   1   6   7   21.52    7.35   0
   2   0  -3  905.08    8.07   0
   2   8   6    3.40   12.74   0
   2  11   6   42.98   16.31   0
   3   1  -5  232.88    9.62   0
   3   7   3  131.34   15.11   0
   4   3  -7   96.13   14.39   0
   4   4  -5  513.87   20.09   0
   4   8  -1   -0.30   17.02   0
   4   9  -1   -5.39   19.00   0
  -4   3 -18    3.77   18.76   0
  -4   3 -11  120.62   15.65   0
  -4   3 -10  297.37   17.49   0
  -4   5  -3   48.73   11.26   0
  -4   7   0  144.56   13.37   0
  -3   1 -21    4.70   15.09   0
  -2  -1 -16  154.87   12.74   0
  -2  -1 -14   -2.89    8.52   0
  -2  -1 -13  410.51   11.63   0
  -2  -1 -12   15.31    8.31   0
  -2   0 -24   -2.81   14.02   0
  -2   1  -1 4899.92   16.39   0
  -1  -1 -24    1.58   11.22   0
  -1   0  -1   30.65    3.13   0
   0  -2  -8  550.10    4.64   0
   0  -1  -3 3046.32    5.12   0
   0   5   7    8.93    4.29   0
   1  -1 -27    7.11    6.45   0
   2   2   1 1255.61   10.94   0
   2   6   5  174.46   12.56   0
   2   9   6   39.41   12.17   0
   2  10   6   65.47   14.52   0
   3   0  -9  532.06    9.34   0
   3   8   3  154.01   16.75   0
   4   5  -4  495.82   19.06   0
   4   7  -2   -2.96   14.70   0
  -4   3  -9  555.35   20.12   0
  -4   4  -5  107.88   14.50   0
  -4   6  -1  145.47   12.28   0
  -4   8   1  -10.40    9.75   0
  -4  10   2    1.84   10.92   0
  -3   1 -22    4.43   17.38   0
  -3   1  -7  385.51   12.28   0
  -3   2  -3   53.77    8.11   0
  -2  -1 -17  213.84   13.17   0
  -2  -1 -11  547.45   11.22   0
  -2  -1 -10  255.29    8.73   0
  -2   0  -4  722.49    8.87   0
  -1  -2 -16    0.08    7.28   0
  -1  -2 -15    1.93    5.99   0
  -1  -2 -14   88.72    5.90   0
  -1  -2 -13  577.72    8.71   0
   0  -1 -27   22.44   11.56   0
   0  12   8   11.05   11.42   0
   1   2   3 1479.39    8.76   0
   2   1  -1 3338.18   14.79   0
   3   0 -23    3.54    7.72   0
   3   0 -10  448.20   10.13   0
   3   2  -3  264.26   10.22   0
   3   5   1  394.78   13.62   0
   4   2 -12   73.77   12.44   0
   4   3  -8   15.94   11.09   0
   4   4  -6   52.10   12.96   0
   4   9  -2    6.02   17.16   0
  -4   3  -8  710.42   21.87   0
  -4   4  -4   14.63   12.20   0
  -4   5  -2    9.27   10.37   0
  -4   9   2   49.97   13.47   0
  -3   1  -6   -6.86    7.80   0
  -3   3   0   39.10    6.99   0
  -3   5   3  510.62   11.59   0
  -3   6   4  147.63    7.59   0
  -2  -1  -9   26.67    6.59   0
  -2   7   7   10.82    3.60   0
  -1  -2 -18   36.94    8.87   0
  -1  -2 -17   60.58    7.02   0
  -1  -1 -25    3.19   12.69   0
  -1  -1  -4   66.38    4.01   0
  -1  12   8    3.94    7.93   0
   1   0  -1 1630.76    6.57   0
   1   5   6  454.05    8.29   0
   1   7   7  111.25    8.68   0
   1  12   7    2.45   11.92   0
   2   3   2 1586.54   13.59   0
   2   5   4   54.81    8.76   0
   2   7   5  298.45   14.62   0
   2  12   5   86.11   19.26   0
   3   1  -6  260.57    9.36   0
  -4   3  -7  272.08   16.50   0
  -4   6   0  390.81   16.51   0
  -4   7   1  227.22   14.64   0
  -3   0 -16  119.47   16.28   0
  -3   0 -15  481.10   19.84   0
  -3   0 -14  192.05   14.99   0
  -3   0 -13  470.96   17.29   0
  -3   1  -5  403.98   11.64   0
  -3   2  -2   61.86    7.81   0
  -3   4   2   99.03    7.87   0
  -2  -1 -20  206.38   14.34   0
  -2  -1  -8  269.02    8.67   0
  -1  -2 -10  132.49    5.65   0
   0  -2 -22  140.76    9.01   0
   0   3   5  104.96    2.96   0
   0  11   8    0.55   10.13   0
   1   3   4  963.26    8.52   0
   1   4   5   15.42    6.56   0
   1   8   7 1073.35   17.12   0
   1  11   7   -1.36   12.00   0
   2   0  -4 4376.14   15.04   0
   2   4   3  254.25    8.98   0
   2   8   5    5.61   11.23   0
   2  11   5   -8.98   14.11   0
   3   0 -11  142.94    9.00   0
   3   2  -4  753.12   13.10   0
   3   6   1  583.40   17.46   0
   3   8   2   40.05   14.84   0
   3   9   2    3.71   15.72   0
   3  10   2   25.85   17.33   0
   3  11   2   25.01   19.77   0
   4   3  -9   33.22   11.76   0
   4   8  -3    3.69   17.50   0
   4   9  -3    6.78   19.91   0
  -4   2 -17    8.02   17.96   0
  -4   2 -16   13.78   18.20   0
  -4   2 -15   42.69   15.00   0
  -4   2 -12  140.12   16.65   0
  -4   2 -11  163.85   15.39   0
  -4   3  -6  437.76   17.86   0
  -4   4  -3  509.71   17.58   0
  -4   5  -1   32.92   11.00   0
  -4   8   2  157.62   12.81   0
  -3   0 -18   96.43   15.64   0
  -3   0 -17  254.79   16.62   0
  -3   0 -12   60.26   10.69   0
  -3   0 -11  206.98   12.69   0
  -3   7   5  180.42    8.00   0
  -3  10   6   10.03    6.69   0
  -2   0  -3 3550.78   15.52   0
  -2   1   0 5105.82   16.42   0
  -2   2   2   17.35    4.37   0
  -1  -1 -26   -0.17   13.14   0
   0   8   8   83.41    7.02   0
   1   1   1 6182.86   13.98   0
   1   9   7   24.34   11.86   0
   1  10   7   51.73   12.30   0
   2   9   5  144.57   13.72   0
   2  10   5   22.93   13.44   0
   3   0 -22   11.40    7.66   0
   3   0 -12 2292.40   16.28   0
   3   1  -7   65.01    7.69   0
   3   5   0    9.98   10.08   0
   4   2 -20    2.05   12.73   0
   4   2 -17   -2.57   12.06   0
   4   2 -16   16.01   12.56   0
   4   2 -15   27.04   11.89   0
   4   5  -6  489.46   20.07   0
   4   6  -5   28.23   14.23   0
  -5   6  -7    3.43   17.33   0
  -5   7  -5   13.94   18.52   0
  -4   2 -10  193.47   15.69   0
  -4   3  -5  156.44   13.65   0
  -3   0 -20   22.11   16.21   0
  -3   0 -19   17.11   15.29   0
  -3   0 -10  321.25   12.47   0
  -3   0  -9   14.67    9.35   0
  -3   1  -4   58.46    8.40   0
  -2  -1  -7  102.13    6.67   0
  -1  -2  -9  546.29    7.96   0
  -1   8   8   80.92    5.01   0
   0  -2 -23  309.07   11.98   0
   0   9   8  106.84    8.85   0
   1  13   6   11.47   14.89   0
   2   1  -2  186.90    6.14   0
   2   2   0   31.86    6.02   0
   2   6   4  719.09   15.23   0
   3   0 -21   16.30    7.94   0
   3   0 -13  830.35   11.40   0
   3   7   1  230.35   16.56   0
   3  11   1   15.41   17.58   0
  -4   2  -8  191.07   15.89   0
  -4   4  -2   77.39   11.65   0
  -4   6   1  210.65   13.95   0
  -4   9   3  -17.29   11.21   0
  -3   0 -21   14.03   16.15   0
  -3   0  -8  301.02   12.64   0
  -3   2  -1  246.38    8.87   0
  -3   3   1  542.47   11.26   0
  -3   9   6   85.81    8.06   0
  -3  12   6   17.21    7.25   0
  -2  -1 -23   -5.37   14.51   0
  -2   4   5  323.10    5.38   0
  -1  -2 -21   42.60    9.85   0
  -1  -2  -8 1934.54   12.30   0
  -1   1   2 3335.80    8.33   0
  -1  11   8   18.41    7.47   0
   1   6   6   31.66    6.20   0
   2   5   3 1582.98   16.69   0
   2   7   4   99.85   12.26   0
   3   0 -14 1415.32   13.86   0
   3   1  -8  503.32   10.57   0
   3   2  -5  322.35   10.56   0
   3   8   1   64.87   14.84   0
   3   9   1   15.10   15.47   0
   4   3 -12    4.30   11.17   0
   4   6  -6   21.96   14.47   0
   4   7  -5  103.57   17.41   0
  -5   5  -9   12.37   19.64   0
  -5   5  -8   31.73   19.91   0
  -5   6  -6   -1.49   17.16   0
  -5   7  -4   -2.48   17.14   0
  -4   2  -7  504.57   18.78   0
  -4   3  -4  399.45   17.11   0
  -4   5   0   30.14    9.52   0
  -4   7   2  162.70   12.15   0
  -3   0  -7   82.57    9.62   0
  -3   1  -3  379.92   10.26   0
  -3   5   4  220.91    8.43   0
  -2   0  -2 1066.57    9.44   0
  -2   3   4  961.52    7.61   0
  -2   5   6  164.10    4.37   0
  -1  -1  -3 4185.40   12.26   0
   0   1   2 1200.94    2.89   0
   1  12   6   50.42   15.37   0
   2   0  -5  147.58    5.50   0
   2   3   1    2.61    6.25   0
   2   4   2  497.24   10.04   0
   2   8   4   96.22   13.49   0
   2  11   4  137.59   18.10   0
   3   0 -19  159.16    9.73   0
   4   4 -10  127.21   15.45   0
   4   5  -8   28.70   15.05   0
   4   9  -5   -2.52   15.76   0
  -5   5  -7   69.56   20.27   0
  -5   6  -5   27.95   17.16   0
  -4   1 -15    4.24   18.07   0
  -4   1 -14    2.97   16.48   0
  -4   4  -1    8.35   10.66   0
  -4   8   3   89.88   13.15   0
  -3   4   3   69.38    6.08   0
  -3   6   5   27.45    6.78   0
  -3   8   6  691.39   12.38   0
  -2  -1 -24   16.11   14.14   0
  -1   0   0   43.15    3.25   0
  -1   9   8  513.47    8.70   0
  -1  10   8   11.65    6.30   0
   0  -2 -24   63.34    9.60   0
   1   7   6 1018.57   14.63   0
   1  11   6   26.77   12.39   0
   2   9   4    6.98   11.72   0
   2  10   4    5.72   12.42   0
   3   0 -18  110.38    8.33   0
   3   1  -9   87.15    7.80   0
   3   2  -6  791.86   13.08   0
   3   3  -4  852.55   15.43   0
   3   7   0  181.22   14.82   0
   3  11   0    8.74   16.74   0
   4   3 -14   -1.07   12.30   0
   4   6  -7   32.86   15.32   0
  -5   6  -4   15.21   19.16   0
  -5   7  -3   11.00   14.95   0
  -4   1 -17   20.80   19.55   0
  -4   1 -16   19.13   16.11   0
  -4   1 -13   35.48   15.99   0
  -4   1 -12   19.75   14.21   0
  -4   1 -11    5.05   12.29   0
  -4   2  -6   38.86   12.82   0
  -4   3  -3  301.34   14.54   0
  -3   0  -6    7.19    8.56   0
  -3   2   0  251.34    8.88   0
  -2  -2 -17  328.31   14.11   0
  -2  -2 -16  556.06   15.77   0
  -2  -2 -15   19.51    9.35   0
  -2  -2 -14  226.09   10.70   0
  -2  -2 -13   14.79    8.54   0
  -2  -2 -12   34.19    9.11   0
  -2  -1  -5  204.63    7.28   0
  -2   1   1 6729.29   18.45   0
  -1  -2 -23   -0.27   10.94   0
  -1  -2  -7 1448.23   10.45   0
   0  12   7   92.62   13.00   0
   1   8   6  266.44   12.37   0
   1  10   6    9.63   11.86   0
   1  13   5   84.69   17.86   0
   2   1  -3  776.64    9.21   0
   2   2  -1  374.69    7.48   0
   2   6   3 1045.80   17.49   0
   2  12   3   45.51   19.51   0
   3   6  -1  139.35   11.98   0
   3   9   0  107.62   17.37   0
   3  10   0   23.47   16.75   0
   4   4 -11   59.15   13.59   0
   4   5  -9  -13.36   13.82   0
   4   7  -7   71.11   18.33   0
  -5   4  -9   33.65   20.84   0
  -5   5  -6   49.76   18.89   0
  -4   1 -10   45.83   13.63   0
  -4   2  -5   96.39   12.87   0
  -4   5   1    5.41    8.95   0
  -4   6   2  127.82   12.12   0
  -4  10   4    3.03   11.01   0
  -3  -1 -17    6.48   13.33   0
  -3  -1 -16  174.06   15.63   0
  -3  -1 -15   13.99   12.85   0
  -3  -1 -14   75.97   13.32   0
  -3  -1 -12   -0.24    9.79   0
  -3   1  -2   54.11    7.48   0
  -3   3   2 1010.66   12.47   0
  -2  -2 -18  292.47   13.86   0
  -2  -2 -11   10.15    7.41   0
  -1  13   7   21.27   10.43   0
   1   4   4   40.15    6.06   0
   1   9   6  311.20   13.47   0
   3   1 -10   15.23    6.86   0
   3   2  -7  244.68   11.01   0
   4   5 -10    9.42   15.26   0
   4   6  -8   19.01   13.57   0
  -5   4  -8   70.15   20.90   0
  -5   5  -5  104.73   19.31   0
  -5   6  -3   36.58   17.34   0
  -5   7  -2   21.12   15.84   0
  -4   3  -2  266.40   13.38   0
  -4   4   0   50.49   10.74   0
  -4   7   3  281.60   13.29   0
  -3  -1 -19   17.82   14.08   0
  -3  -1 -11   -6.83   10.58   0
  -3  -1 -10   78.83   11.58   0
  -2  -2 -20    1.47   13.65   0
  -2  -2 -19  203.46   13.48   0
  -2  -2 -10  120.05    7.78   0
  -2  -1  -4  926.99    9.86   0
  -2   0  -1 3602.44   14.92   0
  -1  -2 -24   -7.45   11.27   0
   0  -2 -25   83.94   10.40   0
   0   7   7  776.19   10.26   0
   0  11   7   30.61   10.17   0
   1   3   3  287.69    6.18   0
   2   0  -6   82.64    4.94   0
   2   4   1   47.72    7.64   0
   2   5   2  934.12   14.77   0
   2   7   3    8.51   10.11   0
   2   8   3   -3.20   11.89   0
   2  10   3   30.28   14.24   0
   2  11   3  105.58   16.10   0
   3   3  -5 2117.27   22.18   0
   3   8  -1   -1.83   11.89   0
   3  11  -1    8.02   17.43   0
   4   4 -13    7.29   12.48   0
   4   6  -9  174.92   18.80   0
   4   7  -8  282.42   21.87   0
  -5   4  -7   73.00   19.84   0
  -5   5  -4    4.40   17.09   0
  -4   2  -4   44.51   11.30   0
  -3  -1 -21   53.08   18.64   0
  -3  -1  -9   -0.54    9.35   0
  -3   0  -4  305.11   10.81   0
  -3   1  -1   59.62    8.17   0
  -3   2   1 2061.03   17.28   0
  -3   7   6   44.75    7.00   0
  -2  -2 -21  191.58   16.05   0
  -2  -2  -9   29.46    6.96   0
  -1  -2  -6 6602.31   18.88   0
   1   0  -2  113.67    3.40   0
   1   1   0 5093.14   12.60   0
   1   6   5  624.78    9.88   0
   1  12   5   -9.98   12.39   0
   2   9   3  363.25   16.14   0
   3   1 -11   59.72    7.98   0
   3   6  -2    1.89   10.27   0
   3   9  -1   29.77   15.41   0
   4   5 -11   32.70   15.65   0
   4   6 -10  112.02   17.85   0
   4   8  -8   16.69   17.74   0
  -5   3 -10    4.00   19.20   0
  -5   3  -9   25.72   18.70   0
  -5   4  -6  181.09   19.92   0
  -5   6  -2   31.26   18.64   0
  -5   7  -1  -15.01   17.79   0
  -4   2  -3   17.94   10.44   0
  -4   3  -1   71.29   11.28   0
  -4   5   2    3.46   10.93   0
  -4   8   4  114.19   13.23   0
  -3  -1  -8  475.22   14.61   0
  -3   4   4  102.01    7.78   0
  -2  -2  -8  627.19   10.53   0
  -1  -1  -2 1486.31    7.63   0
   0  -2  -6  107.90    3.02   0
   0   5   6  877.11    7.43   0
   0   8   7   24.83    6.37   0
   0  10   7    4.43    8.58   0
   0  13   6   20.53   13.19   0
   2   6   2 1642.82   19.05   0
   3   1 -12  444.18   11.42   0
   3   3  -6 1661.55   20.24   0
   3   7  -2  -12.46   12.61   0
   3  11  -2   -4.00   18.18   0
   4   4 -16   86.56   15.47   0
   4   5 -12   -5.60   14.62   0
   4   9  -8  -12.16   16.41   0
  -5   3  -8  -12.80   16.29   0
  -5   4  -5   49.11   17.96   0
  -5   5  -3  141.98   19.69   0
  -4   0 -17   14.90   20.08   0
  -4   0 -16    7.75   18.55   0
  -4   0 -15   24.09   18.42   0
  -4   0 -14  -12.60   16.86   0
  -4   0 -13    3.79   15.53   0
  -4   0 -12   37.86   15.80   0
  -4   1  -6  -13.58   12.11   0
  -4   4   1    6.18   10.02   0
  -4   6   3  185.74   12.62   0
  -3   0  -3   59.06    8.10   0
  -3   3   3   94.12    7.73   0
  -3   5   5  285.57    8.78   0
  -2  -1  -3 1096.02   10.59   0
  -1  -3 -17   52.77    8.74   0
  -1  -3 -16   13.56    7.10   0
  -1  -3 -15   -9.86    6.79   0
  -1  -3 -14  451.15    9.76   0
  -1  -3 -13   -6.76    6.22   0
   1   7   5   36.69    7.12   0
   2   0  -7 1775.45   10.45   0
   2   1  -4   19.21    5.68   0
   2  11   2  151.23   16.94   0
   3   1 -13  706.81   12.69   0
   3   6  -3   20.01    9.75   0
   3   9  -2  246.71   19.12   0
   4   4 -18   46.91   15.35   0
   4   5 -13   27.95   14.64   0
   4   6 -11  292.68   20.38   0
   4   7 -10  292.59   24.67   0
   4   8  -9   69.49   17.61   0
  -5   3  -7   29.87   18.52   0
  -4   0 -11   32.36   15.04   0
  -4   0 -10  106.74   15.49   0
  -4   1  -5   -5.23   12.37   0
  -4   2  -2   75.51   11.17   0
  -2  -2 -23  122.16   17.40   0
  -2  -2  -7   24.94    7.14   0
  -2   1   2 1269.75    9.29   0
  -1  -2  -5 1187.36    8.98   0
   1   5   4   41.26    6.13   0
   1   8   5  767.50   15.00   0
   1  10   5   30.29   10.38   0
   2   3  -1  315.09    7.77   0
   2   4   0  411.19    9.49   0
   2   5   1 1770.64   16.73   0
   2   7   2  241.95   13.02   0
   2  10   2   19.85   12.24   0
   3   2  -9  860.54   14.78   0
   4   4 -20    7.31   15.22   0
   4   6 -12   76.44   17.90   0
   4   8 -10   54.21   19.85   0
;
_shelx_hkl_checksum              7752
_shelx_res_file
;
TITL
    g74cuia.res
    created by SHELXL-2017/1 at 19:09:49 on 25-Oct-2018
CELL 0.71073 4.0594 10.8684 20.7336 102.079 94.047 94.299
ZERR 2 0.0003 0.0008 0.0015 0.006 0.006 0.006
LATT 1
SFAC C H Br Cu I N O S
UNIT 31 28 2 2 2 4 3 2
EQIV $1 2-X,1-Y,1-Z
DFIX 2.59 C2S C1S
SADI C2S C3S C3S C1S
SADI 0.04 C2S O1S C1S O1S
SIMU 0.01 0.02 2 O1S C2S C3S C1S
RIGU 0.01 0.01 O1S C2S C3S C1S
SUMP 1 0 1 2 1 3 1 4
L.S. 20
PLAN  3
SIZE 0.022 0.023 0.436
TEMP -153.15
HTAB N2 O1
HTAB N1 I1_$1
MORE -1
BOND $H
CONF
fmap 2 53 53
acta
OMIT -2 52
REM <olex2.extras>
REM <HklSrc "%.\\G74CuIA.hkl">
REM </olex2.extras>
WGHT    0.120900    2.353800
FVAR       0.67548   0.89953   0.04533   0.05514
PART 1
CU1   4    0.735261    0.509673    0.450147    21.00000    0.03814    0.03824 =
         0.03685    0.01389    0.00885    0.00222
I1    5    0.722447    0.329637    0.518990    21.00000    0.02968    0.03627 =
         0.03740    0.01561    0.00804    0.00253
BR1   3    0.321654   -0.096390    0.071591    21.00000    0.05536    0.05197 =
         0.05985   -0.00204    0.00799   -0.00237
S1    8    0.641472    0.395251    0.343751    21.00000    0.04714    0.03867 =
         0.03527    0.01318    0.01163   -0.00269
PART 0
PART 2
CU1A  4    0.785270    0.668513    0.474661    31.00000    0.02889
I1A   5    0.775506    0.487215    0.540007    31.00000    0.03801
BR1A  3    0.338326    0.040579    0.078436    31.00000    0.15062
S1A   8    0.679150    0.558465    0.364076    31.00000    0.09993
PART 0
PART 3
CU1B  4    0.678498    0.351020    0.429383    41.00000    0.06045
I1B   5    0.666263    0.172072    0.498429    41.00000    0.06206
BR1B  3    0.249656   -0.253262    0.051743    41.00000    0.03791
S1B   8    0.583065    0.240936    0.324328    41.00000    0.04681
PART 0
PART 1
N1    6    0.858174    0.609657    0.312238    11.00000    0.05629    0.04636 =
         0.03839    0.01497    0.00730   -0.00080
AFIX  43
H1    2    0.860628    0.638312    0.355249    11.00000   -1.20000
AFIX   0
N2    6    0.766863    0.436696    0.224331    11.00000    0.06326    0.05187 =
         0.04328    0.01454    0.01460   -0.00376
AFIX  43
H2    2    0.832923    0.490828    0.200671    11.00000   -1.20000
AFIX   0
O1    7    0.966673    0.668480    0.215621    11.00000    0.10741    0.05850 =
         0.04536    0.02080    0.01708   -0.00741
C1    1    0.763391    0.479788    0.289895    11.00000    0.04506    0.05136 =
         0.03571    0.01338    0.00632   -0.00226
C16   1    0.890129    0.873686    0.375245    11.00000    0.04631    0.04546 =
         0.04643    0.01917    0.00650   -0.00037
AFIX  43
H16   2    0.775127    0.815977    0.396345    11.00000   -1.20000
AFIX   0
C23   1    0.684903    0.086657    0.174627    11.00000    0.05634    0.06288 =
         0.04063    0.00932    0.01801    0.00086
AFIX  43
H23   2    0.762630    0.015384    0.188674    11.00000   -1.20000
AFIX   0
C10   1    0.948492    0.699314    0.276332    11.00000    0.05899    0.06128 =
         0.03787    0.01152    0.00901    0.00236
C15   1    0.943635    1.002324    0.406053    11.00000    0.04843    0.04975 =
         0.04630    0.01940    0.00460    0.00891
AFIX  43
H15   2    0.858246    1.032465    0.447361    11.00000   -1.20000
AFIX   0
C25   1    0.362032    0.170812    0.096015    11.00000    0.05432    0.06967 =
         0.04458    0.01064    0.00845   -0.00489
AFIX  43
H25   2    0.220284    0.157117    0.056229    11.00000   -1.20000
AFIX   0
C21   1    0.670381    0.308527    0.190130    11.00000    0.04983    0.05202 =
         0.04189    0.00826    0.01539   -0.00026
C11   1    1.007620    0.830537    0.312933    11.00000    0.04513    0.04705 =
         0.04809    0.01792    0.00258    0.00000
C22   1    0.785979    0.207231    0.210920    11.00000    0.04888    0.06095 =
         0.03880    0.01678    0.01083    0.00237
AFIX  43
H22   2    0.933850    0.219393    0.249789    11.00000   -1.20000
AFIX   0
C24   1    0.474082    0.070079    0.118788    11.00000    0.05356    0.05763 =
         0.04422    0.00698    0.01546   -0.00197
C12   1    1.182668    0.916108    0.283994    11.00000    0.04650    0.05505 =
         0.04339    0.01620    0.01033    0.00085
AFIX  43
H12   2    1.264643    0.887651    0.242164    11.00000   -1.20000
AFIX   0
C13   1    1.239485    1.042353    0.315234    11.00000    0.04203    0.05378 =
         0.05926    0.02526    0.00894    0.00284
AFIX  43
H13   2    1.360063    1.099932    0.294903    11.00000   -1.20000
AFIX   0
C14   1    1.120313    1.084693    0.376204    11.00000    0.04786    0.04753 =
         0.05268    0.01830    0.00462    0.00230
AFIX  43
H14   2    1.160847    1.171341    0.397616    11.00000   -1.20000
AFIX   0
C26   1    0.459537    0.294771    0.132293    11.00000    0.06063    0.05945 =
         0.04706    0.01160    0.00965    0.00341
AFIX  43
H26   2    0.384693    0.366188    0.117945    11.00000   -1.20000
AFIX   6
PART 0
PART -1
O1S   7   -0.072086    0.384610    0.005774    10.50000    0.17291    0.12403 =
         0.12736    0.02319    0.02171   -0.00120
C2S   1    0.030388    0.488539   -0.000027    10.50000    0.14426    0.08595 =
         0.15848    0.07844    0.02745    0.03361
C3S   1    0.059712    0.520778   -0.066617    10.50000    0.15011    0.06914 =
         0.15081    0.04874    0.03975    0.02017
AFIX 137
H3SA  2   -0.156737    0.502748   -0.092409    10.50000   -1.50000
H3SB  2    0.221112    0.469917   -0.090205    10.50000   -1.50000
H3SC  2    0.133864    0.610672   -0.060622    10.50000   -1.50000
AFIX   5
C1S   1    0.128229    0.595011    0.058943    10.50000    0.15434    0.09803 =
         0.14122    0.09520    0.01997    0.02753
AFIX 137
H1SA  2    0.329045    0.577161    0.083131    10.50000   -1.50000
H1SB  2   -0.052060    0.603279    0.088163    10.50000   -1.50000
H1SC  2    0.171456    0.673967    0.043958    10.50000   -1.50000
AFIX   0
HKLF 4
REM
REM R1 =  0.0632 for    3069 Fo > 4sig(Fo)  and  0.0687 for all    3446 data
REM    257 parameters refined using     40 restraints
END
WGHT      0.1209      2.3539
REM Highest difference peak  1.885,  deepest hole -2.957,  1-sigma level  0.220
Q1    1   0.6037  0.6770  0.4824  11.00000  0.05    1.88
Q2    1   0.9475  0.6646  0.4808  11.00000  0.05    1.87
Q3    1   0.0793  0.5343  0.0416  11.00000  0.05    1.17
;
_shelx_res_checksum              48565
loop_
_space_group_symop_operation_xyz
'x, y, z'
'-x, -y, -z'
loop_
_atom_site_type_symbol
_atom_site_label
_atom_site_fract_x
_atom_site_fract_y
_atom_site_fract_z
_atom_site_U_iso_or_equiv
_atom_site_adp_type
_atom_site_calc_flag
_atom_site_occupancy
_atom_site_disorder_assembly
_atom_site_disorder_group
Cu Cu1 0.7353(2) 0.50967(9) 0.45015(4) 0.0367(3) Uani d 0.900(2) A 1
I I1 0.72245(10) 0.32964(4) 0.51899(2) 0.0331(2) Uani d 0.900(2) A 1
Br Br1 0.3217(2) -0.09639(9) 0.07159(5) 0.0580(3) Uani d 0.900(2) A 1
S S1 0.6415(5) 0.39525(19) 0.34375(9) 0.0395(4) Uani d 0.900(2) A 1
Cu Cu1A 0.785(4) 0.6685(15) 0.4747(8) 0.029(4) Uiso d 0.0453(18) B 2
I I1A 0.776(3) 0.4872(10) 0.5400(5) 0.038(3) Uiso d 0.0453(18) B 2
Br Br1A 0.338(15) 0.041(6) 0.078(3) 0.151(18) Uiso d 0.0453(18) B 2
S S1A 0.68(2) 0.558(9) 0.364(5) 0.10(2) Uiso d 0.0453(18) B 2
Cu Cu1B 0.678(5) 0.351(2) 0.4294(10) 0.060(5) Uiso d 0.0551(18) C 3
I I1B 0.666(3) 0.1721(12) 0.4984(6) 0.062(3) Uiso d 0.0551(18) C 3
Br Br1B 0.250(3) -0.2533(12) 0.0517(6) 0.038(3) Uiso d 0.0551(18) C 3
S S1B 0.583(9) 0.241(3) 0.3243(18) 0.047(8) Uiso d 0.0551(18) C 3
N N1 0.8582(17) 0.6097(6) 0.3122(3) 0.0463(14) Uani d 1 A 1
H H1 0.860628 0.638312 0.355249 0.056 Uiso calc 1 A 1
N N2 0.7669(19) 0.4367(7) 0.2243(3) 0.0522(16) Uani d 1 A 1
H H2 0.832923 0.490828 0.200671 0.063 Uiso calc 1 A 1
O O1 0.967(2) 0.6685(6) 0.2156(3) 0.0693(19) Uani d 1 A 1
C C1 0.7634(19) 0.4798(8) 0.2899(3) 0.0437(16) Uani d 1 A 1
C C16 0.8901(19) 0.8737(7) 0.3752(4) 0.0448(16) Uani d 1 A 1
H H16 0.775127 0.815977 0.396345 0.054 Uiso calc 1 A 1
C C23 0.685(2) 0.0867(9) 0.1746(4) 0.0531(19) Uani d 1 A 1
H H23 0.762630 0.015384 0.188674 0.064 Uiso calc 1 A 1
C C10 0.948(2) 0.6993(9) 0.2763(4) 0.0525(19) Uani d 1 A 1
C C15 0.944(2) 1.0023(8) 0.4061(4) 0.0466(17) Uani d 1 A 1
H H15 0.858246 1.032465 0.447361 0.056 Uiso calc 1 A 1
C C25 0.362(2) 0.1708(9) 0.0960(4) 0.057(2) Uani d 1 A 1
H H25 0.220284 0.157117 0.056229 0.068 Uiso calc 1 A 1
C C21 0.670(2) 0.3085(8) 0.1901(4) 0.0479(18) Uani d 1 A 1
C C11 1.0076(19) 0.8305(8) 0.3129(4) 0.0459(16) Uani d 1 A 1
C C22 0.786(2) 0.2072(8) 0.2109(4) 0.0485(18) Uani d 1 A 1
H H22 0.933850 0.219393 0.249789 0.058 Uiso calc 1 A 1
C C24 0.474(2) 0.0701(9) 0.1188(4) 0.0522(19) Uani d 1 A 1
C C12 1.183(2) 0.9161(8) 0.2840(4) 0.0474(17) Uani d 1 A 1
H H12 1.264643 0.887651 0.242164 0.057 Uiso calc 1 A 1
C C13 1.239(2) 1.0424(8) 0.3152(4) 0.0496(18) Uani d 1 A 1
H H13 1.360063 1.099932 0.294903 0.060 Uiso calc 1 A 1
C C14 1.120(2) 1.0847(8) 0.3762(4) 0.0484(17) Uani d 1 A 1
H H14 1.160847 1.171341 0.397616 0.058 Uiso calc 1 A 1
C C26 0.460(2) 0.2948(9) 0.1323(4) 0.056(2) Uani d 1 A 1
H H26 0.384693 0.366188 0.117945 0.067 Uiso calc 1 A 1
O O1S -0.072(7) 0.3846(16) 0.0058(12) 0.142(7) Uani d 0.5 D -1
C C2S 0.030(5) 0.4885(15) 0.0000(8) 0.120(7) Uani d 0.5 D -1
C C3S 0.060(9) 0.521(2) -0.0666(9) 0.118(8) Uani d 0.5 D -1
H H3SA -0.156737 0.502748 -0.092409 0.177 Uiso calc 0.5 D -1
H H3SB 0.221112 0.469917 -0.090205 0.177 Uiso calc 0.5 D -1
H H3SC 0.133864 0.610672 -0.060622 0.177 Uiso calc 0.5 D -1
C C1S 0.128(9) 0.5950(18) 0.0589(10) 0.120(8) Uani d 0.5 D -1
H H1SA 0.329045 0.577161 0.083131 0.180 Uiso calc 0.5 D -1
H H1SB -0.052060 0.603279 0.088163 0.180 Uiso calc 0.5 D -1
H H1SC 0.171456 0.673967 0.043958 0.180 Uiso calc 0.5 D -1
loop_
_atom_site_aniso_label
_atom_site_aniso_U_11
_atom_site_aniso_U_22
_atom_site_aniso_U_33
_atom_site_aniso_U_12
_atom_site_aniso_U_13
_atom_site_aniso_U_23
Cu1 0.0381(5) 0.0382(5) 0.0369(5) 0.0022(4) 0.0088(4) 0.0139(4)
I1 0.0297(3) 0.0363(3) 0.0374(3) 0.00253(18) 0.00804(18) 0.0156(2)
Br1 0.0554(6) 0.0520(6) 0.0599(6) -0.0024(4) 0.0080(4) -0.0020(4)
S1 0.0471(11) 0.0387(10) 0.0353(9) -0.0027(8) 0.0116(7) 0.0132(7)
N1 0.056(4) 0.046(4) 0.038(3) -0.001(3) 0.007(3) 0.015(3)
N2 0.063(4) 0.052(4) 0.043(3) -0.004(3) 0.015(3) 0.015(3)
O1 0.107(6) 0.058(4) 0.045(3) -0.007(4) 0.017(3) 0.021(3)
C1 0.045(4) 0.051(4) 0.036(3) -0.002(3) 0.006(3) 0.013(3)
C16 0.046(4) 0.045(4) 0.046(4) 0.000(3) 0.006(3) 0.019(3)
C23 0.056(5) 0.063(5) 0.041(4) 0.001(4) 0.018(3) 0.009(4)
C10 0.059(5) 0.061(5) 0.038(4) 0.002(4) 0.009(3) 0.012(3)
C15 0.048(4) 0.050(4) 0.046(4) 0.009(3) 0.005(3) 0.019(3)
C25 0.054(5) 0.070(6) 0.045(4) -0.005(4) 0.008(3) 0.011(4)
C21 0.050(4) 0.052(5) 0.042(4) 0.000(3) 0.015(3) 0.008(3)
C11 0.045(4) 0.047(4) 0.048(4) 0.000(3) 0.003(3) 0.018(3)
C22 0.049(4) 0.061(5) 0.039(4) 0.002(4) 0.011(3) 0.017(3)
C24 0.054(5) 0.058(5) 0.044(4) -0.002(4) 0.015(3) 0.007(4)
C12 0.046(4) 0.055(5) 0.043(4) 0.001(3) 0.010(3) 0.016(3)
C13 0.042(4) 0.054(5) 0.059(5) 0.003(3) 0.009(3) 0.025(4)
C14 0.048(4) 0.048(4) 0.053(4) 0.002(3) 0.005(3) 0.018(3)
C26 0.061(5) 0.059(5) 0.047(4) 0.003(4) 0.010(4) 0.012(4)
O1S 0.173(18) 0.124(14) 0.127(15) -0.001(15) 0.022(14) 0.023(12)
C2S 0.144(16) 0.086(12) 0.158(15) 0.034(12) 0.027(13) 0.078(11)
C3S 0.15(2) 0.069(13) 0.151(18) 0.020(14) 0.040(17) 0.049(13)
C1S 0.15(2) 0.098(14) 0.141(17) 0.028(15) 0.020(16) 0.095(12)
loop_
_atom_type_symbol
_atom_type_description
_atom_type_scat_dispersion_real
_atom_type_scat_dispersion_imag
_atom_type_scat_source
C C 0.0033 0.0016 'International Tables Vol C Tables 4.2.6.8 and 6.1.1.4'
H H 0.0000 0.0000 'International Tables Vol C Tables 4.2.6.8 and 6.1.1.4'
Br Br -0.2901 2.4595 'International Tables Vol C Tables 4.2.6.8 and 6.1.1.4'
Cu Cu 0.3201 1.2651 'International Tables Vol C Tables 4.2.6.8 and 6.1.1.4'
I I -0.4742 1.8119 'International Tables Vol C Tables 4.2.6.8 and 6.1.1.4'
N N 0.0061 0.0033 'International Tables Vol C Tables 4.2.6.8 and 6.1.1.4'
O O 0.0106 0.0060 'International Tables Vol C Tables 4.2.6.8 and 6.1.1.4'
S S 0.1246 0.1234 'International Tables Vol C Tables 4.2.6.8 and 6.1.1.4'
loop_
_geom_angle_atom_site_label_1
_geom_angle_atom_site_label_2
_geom_angle_atom_site_label_3
_geom_angle_site_symmetry_1
_geom_angle_site_symmetry_3
_geom_angle
Cu1 Cu1 Cu1 2_766 2_666 87.58(5)
I1 Cu1 Cu1 . 2_766 56.65(3)
I1 Cu1 Cu1 2_766 2_666 120.17(5)
I1 Cu1 Cu1 2_666 2_666 56.22(3)
I1 Cu1 Cu1 2_766 2_766 56.47(3)
I1 Cu1 Cu1 2_666 2_766 120.04(5)
I1 Cu1 Cu1 . 2_666 56.62(3)
I1 Cu1 I1 . 2_766 113.12(4)
I1 Cu1 I1 . 2_666 112.84(3)
I1 Cu1 I1 2_766 2_666 99.42(3)
S1 Cu1 Cu1 . 2_666 121.97(7)
S1 Cu1 Cu1 . 2_766 127.74(8)
S1 Cu1 I1 . 2_766 117.82(6)
S1 Cu1 I1 . 2_666 112.19(7)
S1 Cu1 I1 . . 101.98(6)
Cu1 I1 Cu1 2_766 2_666 99.42(3)
Cu1 I1 Cu1 . 2_766 66.88(4)
Cu1 I1 Cu1 . 2_666 67.15(3)
C1 S1 Cu1 . . 111.3(3)
I1A Cu1A I1A 2_766 . 60.3(5)
S1A Cu1A I1A . 2_766 76(2)
S1A Cu1A I1A . . 103(2)
Cu1A I1A Cu1A 2_766 . 119.7(5)
Cu1A I1A I1A 2_766 2_766 61.3(6)
I1A I1A Cu1A 2_766 . 58.4(5)
S1B Cu1B I1B . . 102.9(13)
C1 N1 H1 . . 115.3
C10 N1 H1 . . 115.3
C10 N1 C1 . . 129.4(6)
C1 N2 H2 . . 117.7
C1 N2 C21 . . 124.6(7)
C21 N2 H2 . . 117.7
N1 C1 S1 . . 119.3(5)
N2 C1 S1 . . 125.9(6)
N2 C1 N1 . . 114.7(7)
C15 C16 H16 . . 120.1
C15 C16 C11 . . 119.7(7)
C11 C16 H16 . . 120.1
C22 C23 H23 . . 120.0
C24 C23 H23 . . 120.0
C24 C23 C22 . . 120.1(9)
N1 C10 C11 . . 116.8(7)
O1 C10 N1 . . 120.8(8)
O1 C10 C11 . . 122.3(8)
C16 C15 H15 . . 120.1
C14 C15 C16 . . 119.8(7)
C14 C15 H15 . . 120.1
C24 C25 H25 . . 120.3
C24 C25 C26 . . 119.4(8)
C26 C25 H25 . . 120.3
C22 C21 N2 . . 122.7(7)
C22 C21 C26 . . 122.2(8)
C26 C21 N2 . . 115.1(8)
C16 C11 C10 . . 123.0(7)
C12 C11 C16 . . 119.0(7)
C12 C11 C10 . . 118.0(7)
C23 C22 H22 . . 120.4
C21 C22 C23 . . 119.1(8)
C21 C22 H22 . . 120.4
C23 C24 Br1 . . 119.6(7)
C23 C24 C25 . . 121.7(9)
C25 C24 Br1 . . 118.7(7)
C11 C12 H12 . . 119.6
C13 C12 C11 . . 120.9(7)
C13 C12 H12 . . 119.6
C12 C13 H13 . . 120.0
C12 C13 C14 . . 119.9(8)
C14 C13 H13 . . 120.0
C15 C14 C13 . . 120.6(8)
C15 C14 H14 . . 119.7
C13 C14 H14 . . 119.7
C25 C26 H26 . . 121.3
C21 C26 C25 . . 117.5(9)
C21 C26 H26 . . 121.3
O1S C2S C3S . . 122.2
O1S C2S C1S . . 122.0
C1S C2S C3S . . 115.8
C2S C3S H3SA . . 109.5
C2S C3S H3SB . . 109.5
C2S C3S H3SC . . 109.5
H3SA C3S H3SB . . 109.5
H3SA C3S H3SC . . 109.5
H3SB C3S H3SC . . 109.5
C2S C1S H1SA . . 109.5
C2S C1S H1SB . . 109.5
C2S C1S H1SC . . 109.5
H1SA C1S H1SB . . 109.5
H1SA C1S H1SC . . 109.5
H1SB C1S H1SC . . 109.5
loop_
_geom_bond_atom_site_label_1
_geom_bond_atom_site_label_2
_geom_bond_site_symmetry_2
_geom_bond_distance
Cu1 Cu1 2_766 2.9257(19)
Cu1 Cu1 2_666 2.9402(18)
Cu1 I1 2_666 2.6643(10)
Cu1 I1 . 2.6520(10)
Cu1 I1 2_766 2.6576(11)
Cu1 S1 . 2.285(2)
Br1 C24 . 1.903(9)
S1 C1 . 1.666(7)
Cu1A I1A 2_666 2.69(2)
Cu1A I1A . 2.614(18)
Cu1A I1A 2_766 2.540(19)
Cu1A S1A . 2.35(9)
I1A I1A 2_766 2.59(2)
I1A I1A 2_666 2.76(2)
Cu1B I1B . 2.64(2)
Cu1B S1B . 2.25(4)
N1 H1 . 0.8800
N1 C1 . 1.405(10)
N1 C10 . 1.388(11)
N2 H2 . 0.8800
N2 C1 . 1.343(10)
N2 C21 . 1.436(10)
O1 C10 . 1.242(10)
C16 H16 . 0.9500
C16 C15 . 1.404(11)
C16 C11 . 1.408(11)
C23 H23 . 0.9500
C23 C22 . 1.384(12)
C23 C24 . 1.362(13)
C10 C11 . 1.462(12)
C15 H15 . 0.9500
C15 C14 . 1.377(11)
C25 H25 . 0.9500
C25 C24 . 1.374(14)
C25 C26 . 1.411(13)
C21 C22 . 1.366(12)
C21 C26 . 1.398(12)
C11 C12 . 1.387(11)
C22 H22 . 0.9500
C12 H12 . 0.9500
C12 C13 . 1.384(12)
C13 H13 . 0.9500
C13 C14 . 1.386(12)
C14 H14 . 0.9500
C26 H26 . 0.9500
O1S C2S . 1.2070
C2S C3S . 1.5042
C2S C1S . 1.5040
C3S H3SA . 0.9800
C3S H3SB . 0.9800
C3S H3SC . 0.9800
C1S H1SA . 0.9800
C1S H1SB . 0.9800
C1S H1SC . 0.9800
loop_
_geom_hbond_atom_site_label_D
_geom_hbond_atom_site_label_H
_geom_hbond_atom_site_label_A
_geom_hbond_site_symmetry_A
_geom_hbond_distance_DH
_geom_hbond_distance_HA
_geom_hbond_distance_DA
_geom_hbond_angle_DHA
_geom_hbond_publ_flag
N1 H1 I1 2_766 0.88 2.95 3.688(6) 142.8 yes
N2 H2 O1 . 0.88 1.92 2.635(10) 137.2 yes
loop_
_geom_torsion_atom_site_label_1
_geom_torsion_atom_site_label_2
_geom_torsion_atom_site_label_3
_geom_torsion_atom_site_label_4
_geom_torsion
Cu1 S1 C1 N1 -9.1(7)
Cu1 S1 C1 N2 174.3(6)
N1 C10 C11 C16 -18.5(12)
N1 C10 C11 C12 162.6(8)
N2 C21 C22 C23 -179.0(7)
N2 C21 C26 C25 178.8(7)
O1 C10 C11 C16 159.2(9)
O1 C10 C11 C12 -19.6(13)
C1 N1 C10 O1 -2.9(15)
C1 N1 C10 C11 174.8(8)
C1 N2 C21 C22 -48.9(12)
C1 N2 C21 C26 133.6(9)
C16 C15 C14 C13 1.5(12)
C16 C11 C12 C13 -0.6(12)
C10 N1 C1 S1 -175.8(7)
C10 N1 C1 N2 1.2(12)
C10 C11 C12 C13 178.3(8)
C15 C16 C11 C10 -177.1(8)
C15 C16 C11 C12 1.7(11)
C21 N2 C1 S1 -1.2(12)
C21 N2 C1 N1 -178.1(7)
C11 C16 C15 C14 -2.2(12)
C11 C12 C13 C14 -0.1(12)
C22 C23 C24 Br1 -177.2(6)
C22 C23 C24 C25 1.5(13)
C22 C21 C26 C25 1.3(12)
C24 C23 C22 C21 0.3(12)
C24 C25 C26 C21 0.5(12)
C12 C13 C14 C15 -0.3(12)
C26 C25 C24 Br1 176.8(6)
C26 C25 C24 C23 -1.9(13)
C26 C21 C22 C23 -1.7(12)

_cod_database_fobs_code 2021352
