#------------------------------------------------------------------------------
#$Date: 2019-02-14 05:36:51 +0200 (Thu, 14 Feb 2019) $
#$Revision: 213640 $
#$URL: file:///home/coder/svn-repositories/cod/cif/2/02/14/2021497.cif $
#------------------------------------------------------------------------------
#
# This file is available in the Crystallography Open Database (COD),
# http://www.crystallography.net/. The original data for this entry
# were provided by IUCr Journals, http://journals.iucr.org/.
#
# The file may be used within the scientific community so long as
# proper attribution is given to the journal article from which the
# data were obtained.
#
data_2021497
loop_
_publ_author_name
'Losev, Evgeniy A.'
'Boldyreva, Elena'
_publ_section_title
;
 Concomitant cocrystal and salt: no interconversion in the solid state
;
_journal_coeditor_code           KU3233
_journal_issue                   3
_journal_name_full               'Acta Crystallographica Section C'
_journal_page_first
;
;
_journal_paper_doi               10.1107/S2053229619001372
_journal_volume                  75
_journal_year                    2019
_chemical_formula_iupac          'C3 H7.5 N O2 +, C4 H5.5 O6 -'
_chemical_formula_moiety         'C3 H7.5 N O2 +, C4 H5.5 O6 -'
_chemical_formula_sum            'C7 H13 N O8'
_chemical_formula_weight         239.18
_chemical_name_common            '\b-Alanine--<i>DL</i>-tartaric acid (1/1)'
_chemical_name_systematic        '\b-Alaninium <i>DL</i>-tartarate'
_space_group_crystal_system      triclinic
_space_group_IT_number           2
_space_group_name_Hall           '-P 1'
_space_group_name_H-M_alt        'P -1'
_symmetry_space_group_name_Hall  '-P 1'
_symmetry_space_group_name_H-M   'P -1'
_atom_sites_solution_hydrogens   mixed
_audit_creation_method
;
Olex2 1.2
(compiled 2018.05.29 svn.r3508 for OlexSys, GUI svn.r5506)
;
_cell_angle_alpha                108.584(8)
_cell_angle_beta                 97.257(8)
_cell_angle_gamma                92.666(8)
_cell_formula_units_Z            2
_cell_length_a                   4.9248(5)
_cell_length_b                   8.6012(7)
_cell_length_c                   12.1074(10)
_cell_measurement_reflns_used    2351
_cell_measurement_temperature    275
_cell_measurement_theta_max      29.4750
_cell_measurement_theta_min      2.5190
_cell_volume                     480.17(8)
_computing_cell_refinement
;
CrysAlis PRO (Agilent, 2014)
;
_computing_data_collection
;
CrysAlis PRO (Agilent, 2014)
;
_computing_data_reduction
;
CrysAlis PRO (Agilent, 2014)
;
_computing_molecular_graphics
;
OLEX2 (Dolomanov <i>et al.</i>,  2009)
;
_computing_publication_material
;
OLEX2 (Dolomanov <i>et al.</i>,  2009)
;
_computing_structure_refinement
;
SHELXL2018 (Sheldrick, 2015b)
;
_computing_structure_solution
;
olex2.solve (Bourhis <i>et al.</i>,  2015)
;
_diffrn_ambient_temperature      275
_diffrn_detector                 'CCD plate'
_diffrn_measured_fraction_theta_full 0.999
_diffrn_measured_fraction_theta_max 0.999
_diffrn_measurement_device_type  'Stoe IPDS'
_diffrn_measurement_method       '\w scans'
_diffrn_radiation_monochromator  graphite
_diffrn_radiation_probe          x-ray
_diffrn_radiation_type           MoK\a
_diffrn_radiation_wavelength     0.71073
_diffrn_reflns_av_R_equivalents  0.0492
_diffrn_reflns_av_unetI/netI     0.0538
_diffrn_reflns_limit_h_max       5
_diffrn_reflns_limit_h_min       -6
_diffrn_reflns_limit_k_max       10
_diffrn_reflns_limit_k_min       -10
_diffrn_reflns_limit_l_max       15
_diffrn_reflns_limit_l_min       -15
_diffrn_reflns_number            5976
_diffrn_reflns_theta_full        25.242
_diffrn_reflns_theta_max         26.364
_diffrn_reflns_theta_min         2.509
_diffrn_source                   'Enhance (Mo) X-ray Source'
_exptl_absorpt_coefficient_mu    0.153
_exptl_absorpt_correction_T_max  0.995
_exptl_absorpt_correction_T_min  0.963
_exptl_absorpt_correction_type   gaussian
_exptl_absorpt_process_details
;
(CrysAlis PRO; Agilent, 2014)
;
_exptl_crystal_density_diffrn    1.654
_exptl_crystal_description       ' '
_exptl_crystal_F_000             252
_exptl_crystal_size_max          0.4344
_exptl_crystal_size_mid          0.071
_exptl_crystal_size_min          0.034
_refine_diff_density_max         0.222
_refine_diff_density_min         -0.217
_refine_ls_extinction_method     none
_refine_ls_goodness_of_fit_ref   1.022
_refine_ls_hydrogen_treatment    mixed
_refine_ls_matrix_type           full
_refine_ls_number_parameters     154
_refine_ls_number_reflns         1960
_refine_ls_number_restraints     0
_refine_ls_restrained_S_all      1.022
_refine_ls_R_factor_all          0.0825
_refine_ls_R_factor_gt           0.0463
_refine_ls_shift/su_max          0.000
_refine_ls_shift/su_mean         0.000
_refine_ls_structure_factor_coef Fsqd
_refine_ls_weighting_details
'w=1/[\s^2^(Fo^2^)+(0.0363P)^2^+0.1917P] where P=(Fo^2^+2Fc^2^)/3'
_refine_ls_weighting_scheme      calc
_refine_ls_wR_factor_gt          0.0869
_refine_ls_wR_factor_ref         0.0982
_reflns_number_gt                1348
_reflns_number_total             1960
_reflns_threshold_expression     'I > 2\s(I)'
_cod_data_source_file            ku3233sup1.cif
_cod_data_source_block           275_salt_heating
_cod_original_cell_volume        480.16(8)
_cod_database_code               2021497
_shelx_space_group_comment
;
The symmetry employed for this shelxl refinement is uniquely defined
by the following loop, which should always be used as a source of
symmetry information in preference to the above space-group names.
They are only intended as comments.
;
_shelx_estimated_absorpt_t_min   0.936
_shelx_estimated_absorpt_t_max   0.995
_shelx_hkl_file
;
   0   0   2 72.9649 2.34785   1
   0   0  -2 68.2108 2.29712   1
   0   0   3 115.787 3.56671   1
   0   0  -3 107.727 3.48142   1
   0   0   4 57.3696 3.01802   1
   0   0  -4 62.8672 3.19640   1
   0   0   5 307.766 7.34702   1
   0   0  -5 303.557 7.44114   1
   0   0   6 112.104 5.06859   1
   0   0  -6 102.384 4.98359   1
   0   0   7 33.4152 3.51597   1
   0   0  -7 36.5836 3.65668   1
   0   0  -8 39.3883 4.12225   1
   0   0   8 42.6354 4.21534   1
   0   0  -9 89.6814 6.09057   1
   0   0   9 89.3359 5.99770   1
   0   0  10 5.20663 3.30117   1
   0   0 -10 1.58093 3.26801   1
   0   0  11 42.0062 5.43744   1
   0   0 -11 39.7910 5.52380   1
   0   0  12 5.28379 4.38312   1
   0   0 -12 1.20407 4.20623   1
   0   0 -12-5.12413 4.90293   2
   0   0 -13-0.88411 5.11079   1
   0   0  13-0.75305 5.11030   1
   0   0 -14 7.72120 6.39254   1
   0   0  14 18.9240 6.54469   1
   0   0 -14 0.06023 6.97982   2
   0   0 -15-2.30934 8.69187   2
   0   0  15 10.2045 7.08416   1
   0   0 -15-10.1792 7.54966   1
   0  -1  16 13.0848 7.62123   1
   0  -1  16-9.34405 7.12329   1
   0   1 -16-2.70410 8.70558   2
   0   1 -15 5.88606 7.37633   2
   0  -1  15 7.43811 6.76468   1
   0   1 -14 9.80216 5.64697   1
   0   1 -14 11.3649 6.31188   2
   0  -1  14 1.46987 5.13278   1
   0   1 -13 55.9204 7.79090   2
   0  -1  13 51.0285 6.13805   1
   0   1 -13 66.8470 7.05500   1
   0   1 -12 16.0447 4.57365   1
   0   1 -12 33.7519 5.83866   2
   0  -1  12 31.0724 5.01436   1
   0   1 -11 11.1018 3.73587   1
   0  -1  11 15.9041 3.82784   1
   0   1 -11 8.48676 4.04411   2
   0  -1  10 31.9199 4.11613   1
   0   1 -10 29.5796 4.13999   1
   0   1 -10 36.5455 4.99198   2
   0  -1   9 3.87648 2.34990   1
   0   1  -9 1.45538 2.56096   1
   0   1  -9 8.80248 3.46276   2
   0   1  -8 24.5776 3.77718   2
   0  -1   8 14.0447 2.55579   1
   0   1  -8 18.2708 2.90702   1
   0   1  -7 18.7696 2.67908   1
   0   1  -7 23.4154 3.26216   2
   0  -1   7 21.9082 2.65982   1
   0  -1   6 7.35581 1.80139   1
   0   1  -6 6.51282 2.27180   2
   0   1  -6 4.12690 1.71236   1
   0  -1   5 18.9292 1.98223   1
   0   1  -5 25.0089 2.20919   1
   0   1  -5 21.6928 2.61633   2
   0   1  -4 0.58876 1.48768   2
   0   1  -4 1.00147 1.05839   1
   0  -1   4 3.45479 1.22665   1
   0  -1   3 2225.13 15.7648   2
   0  -1   3 2204.88 12.5130   1
   0   1  -3 2199.57 15.5168   2
   0   1  -3 2193.75 12.7609   1
   0   1  -2 296.426 3.72676   1
   0  -1   2 286.650 4.92243   2
   0  -1   2 277.728 3.56838   1
   0   1  -2 281.271 4.84348   2
   0   1  -1 7.29363 0.86916   1
   0  -1   1 9.52368 0.89753   1
   0   1  -1 9.06409 1.02480   2
   0  -1   1 8.30520 1.19858   2
   0   1   0 206.571 3.63844   2
   0  -1   0 204.964 3.63288   1
   0   1   0 211.989 3.73107   1
   0  -1   0 212.211 3.69512   2
   0   1   1 98.0713 3.19743   1
   0   1   1 98.8993 3.03657   2
   0  -1  -1 100.232 3.24006   1
   0  -1  -1 96.8369 3.04974   2
   0   1   2 44.4833 2.64800   1
   0  -1  -2 42.0709 2.41494   2
   0  -1  -2 40.8426 2.62748   1
   0  -1  -3 226.132 6.02405   1
   0   1   3 232.410 6.09475   1
   0  -1  -4 117.481 4.91340   1
   0   1   4 121.939 5.09543   1
   0   1   5 16.5527 2.63124   1
   0  -1  -5 19.2648 2.79497   1
   0  -1  -6 237.364 8.13199   1
   0   1   6 225.537 7.94312   1
   0  -1  -7 910.226 16.8673   1
   0   1   7 886.698 16.4759   1
   0  -1  -8 4.66405 2.93024   1
   0   1   8 0.03180 2.63921   1
   0  -1  -9 6.87317 3.65405   1
   0   1   9 3.70542 3.30242   1
   0   1  10 0.36291 3.46576   1
   0  -1 -10 5.07181 4.10050   1
   0   1  11 3.54129 4.19441   1
   0  -1 -11 6.29002 4.62763   1
   0   1  12 4.95248 4.91293   1
   0  -1 -12 4.44319 5.26353   1
   0  -1 -13 12.9980 6.10181   1
   0  -1 -13 16.9288 6.44604   2
   0   1  13 6.56837 6.21286   1
   0  -1 -14 13.5557 7.75811   2
   0  -1 -14-7.21445 6.95906   1
   0   1  14 12.8461 7.42649   1
   0  -1 -15 3.47126 8.99625   1
   0   1  15 5.41256 8.00924   1
   0  -1 -15 1.89387 9.35371   2
   0  -1 -15 19.0422 9.81705   2
   0   2 -16 72.0856 10.9561   2
   0  -2  16 65.2740 7.96466   1
   0  -2  16 51.8856 7.88397   1
   0  -2  15 14.5991 5.62954   1
   0  -2  15 9.76215 5.16752   1
   0   2 -15 18.0452 8.02654   2
   0  -2  14 2.74329 4.29234   1
   0   2 -14 20.1783 6.73493   2
   0  -2  14 15.4615 4.86073   1
   0   2 -13 34.4442 6.44963   2
   0  -2  13 32.7771 5.00023   1
   0  -2  13 40.7965 5.29493   1
   0  -2  12 3.26371 3.35778   1
   0   2 -12 4.52160 4.40173   2
   0  -2  12 3.38452 3.39781   1
   0   2 -11 126.180 8.37858   2
   0  -2  11 131.557 6.79648   1
   0  -2  11 135.965 6.84687   1
   0   2 -10 57.9469 5.63785   2
   0  -2  10 56.1867 4.38647   1
   0  -2   9 3.19820 2.17092   1
   0   2  -9 0.41710 2.63898   2
   0  -2   8 85.0180 4.41064   1
   0   2  -8 83.0223 5.58830   2
   0  -2   8 78.7678 4.27620   1
   0   2  -7 26.7788 3.26016   2
   0  -2   7 28.2268 2.56912   1
   0  -2   7 29.0178 2.62266   1
   0   2  -6 134.615 5.84378   2
   0  -2   6 135.207 4.53355   1
   0  -2   6 136.485 4.45353   1
   0  -2   5 109.712 4.94851   2
   0  -2   5 112.004 3.77953   1
   0  -2   5 107.686 3.57047   1
   0   2  -5 115.011 5.00805   2
   0   2  -4 38.6927 2.96243   2
   0  -2   4 37.7049 2.07617   1
   0  -2   4 36.3865 2.93311   2
   0   2  -3 88.9959 2.81891   1
   0  -2   3 88.9280 2.85149   1
   0   2  -3 86.8610 3.65481   2
   0  -2   3 87.0232 3.68795   2
   0   2  -2 2773.66 18.4947   2
   0   2  -2 2764.53 15.4234   1
   0  -2   2 2811.63 18.4604   2
   0  -2   2 2805.12 15.3636   1
   0  -2   1 7.96611 1.51775   2
   0   2  -1 8.75575 1.39798   1
   0   2  -1 8.48509 1.76818   2
   0  -2   1 8.21040 1.49129   1
   0  -2   0 18.3000 2.07584   2
   0  -2   0 21.8664 2.21202   1
   0   2   0 20.3244 2.20425   2
   0   2   0 19.7843 1.95690   1
   0   2   1 176.553 5.32136   1
   0  -2  -1 175.113 5.10050   2
   0   2   1 179.230 5.23704   2
   0  -2  -1 176.984 5.36299   1
   0   2   2 81.9699 3.93973   2
   0   2   2 87.8152 4.38866   1
   0  -2  -2 81.7983 4.01300   2
   0  -2  -2 85.2945 4.15683   1
   0  -2  -3 392.854 9.30224   1
   0  -2  -3 408.202 9.03310   2
   0   2   3 397.072 9.40831   1
   0  -2  -4 983.829 15.6992   1
   0  -2  -4 996.331 15.1902   2
   0   2   4 969.967 15.7232   1
   0  -2  -5 3.07517 2.52361   1
   0   2   5 2.51326 2.50092   1
   0  -2  -5-1.98116 2.38095   2
   0  -2  -6 103.158 6.35500   1
   0   2   6 112.832 6.63754   1
   0  -2  -6 105.904 6.11147   2
   0  -2  -7 1.94846 2.91561   1
   0   2   7-2.19253 2.93179   1
   0  -2  -7 3.45646 3.19191   2
   0  -2  -8 45.0566 5.18268   1
   0  -2  -8 42.8823 5.32791   2
   0   2   8 36.8607 5.06103   1
   0  -2  -9 52.5099 6.11248   2
   0  -2  -9 49.8335 6.11178   1
   0   2   9 48.5210 5.84680   1
   0   2  10 51.5629 6.71104   1
   0  -2 -10 44.7470 6.17621   1
   0  -2 -10 46.6954 6.29493   2
   0  -2 -11 37.0299 6.72453   1
   0   2  11 34.5914 6.64889   1
   0  -2 -11 33.7819 6.39405   2
   0   2  12 19.3240 6.72463   1
   0  -2 -12 10.4164 6.47929   1
   0  -2 -12 23.1044 6.34347   2
   0  -2 -13-6.07004 7.24931   2
   0   2  13 2.14910 6.92962   1
   0  -2 -13-3.56090 6.86091   1
   0   2  14 8.55876 7.85603   1
   0  -2 -14 9.24707 9.18577   1
   0  -2 -14 23.2438 9.05361   2
   0  -3  16 4.54798 5.25627   1
   0  -3  16-0.54691 5.60472   1
   0   3 -16-10.9936 9.09824   2
   0   3 -15 30.2722 7.92891   2
   0  -3  15 39.0095 5.67435   1
   0  -3  15 36.1453 5.82819   1
   0  -3  14 10.1922 4.30836   1
   0  -3  14 4.08101 3.97041   1
   0   3 -14 15.5867 6.46000   2
   0  -3  13 69.0798 5.62050   1
   0   3 -13 70.9091 7.83977   2
   0  -3  13 73.0677 5.78601   1
   0  -3  12 17.8364 3.48923   1
   0   3 -12 17.0820 4.99118   2
   0  -3  12 20.6438 3.66514   1
   0  -3  11 4.53809 2.62005   1
   0   3 -11-1.15143 3.36392   2
   0  -3  11 1.83355 2.49844   1
   0  -3  10 17.0144 2.84828   1
   0   3 -10 18.9603 4.43655   2
   0  -3  10 20.6140 2.99910   1
   0   3  -9 37.2560 4.68627   2
   0  -3   9 35.2554 3.22090   1
   0  -3   9 31.4955 3.06661   1
   0  -3   8 12.8442 2.09841   1
   0   3  -8 10.5921 3.16692   2
   0  -3   8 12.3196 2.21605   1
   0   3  -7 459.016 11.4816   2
   0  -3   7 440.222 8.26111   1
   0  -3   7 451.255 11.6594   2
   0  -3   7 426.260 8.39715   1
   0   3  -6 12.6000 2.72214   2
   0  -3   6 14.9095 1.90221   1
   0  -3   6 14.6100 1.94696   1
   0  -3   6 13.9331 2.81710   2
   0  -3   5 86.4147 3.51619   1
   0   3  -5 80.8762 3.36578   1
   0  -3   5 84.7714 4.61900   2
   0   3  -5 81.6270 4.50896   2
   0   3  -4 157.208 4.49794   1
   0  -3   4 148.995 4.38837   1
   0  -3   4 162.744 5.85847   2
   0   3  -4 148.204 5.70083   2
   0  -3   3 235.843 6.83006   2
   0   3  -3 238.003 6.90025   2
   0   3  -3 234.146 5.62881   1
   0  -3   3 242.044 5.69789   1
   0  -3   2 2.23530 1.50165   1
   0   3  -2 2.48636 1.40307   1
   0   3  -2 3.66125 1.76556   2
   0  -3   2 0.43269 1.84151   2
   0   3  -1 66.5994 3.68457   2
   0  -3   1 74.5904 3.84982   1
   0  -3   1 67.0559 3.89028   2
   0   3  -1 61.6659 3.51620   1
   0  -3   0 15.2902 2.44775   2
   0   3   0 18.3660 2.33029   2
   0   3   0 15.7884 2.51572   1
   0  -3   0 14.3565 2.42910   1
   0   3   1 1173.00 15.9576   1
   0  -3  -1 1187.34 16.1101   1
   0   3   1 1161.01 15.4959   2
   0  -3  -1 1172.89 15.5684   2
   0   3   2 626.795 12.0940   2
   0  -3  -2 620.759 12.6266   1
   0   3   2 662.812 12.9837   1
   0  -3  -2 651.435 12.3251   2
   0   3   3 5.22603 2.11346   2
   0  -3  -3 5.93491 2.41858   2
   0   3   3-0.71291 1.86052   1
   0  -3  -3 0.78330 2.41295   1
   0  -3  -4 22.8660 3.53420   1
   0  -3  -4 25.9166 3.58400   2
   0   3   4 32.1130 4.10343   1
   0  -3  -5 24.7494 4.07889   1
   0  -3  -5 26.1376 3.96881   2
   0   3   5 27.7859 4.07404   1
   0  -3  -6 33.4642 4.77627   1
   0  -3  -6 32.7136 4.46287   2
   0   3   6 41.9227 5.00242   1
   0  -3  -7 59.4818 5.88180   1
   0   3   7 57.8687 6.10078   1
   0  -3  -7 48.5564 5.52603   2
   0  -3  -8 135.250 8.51810   2
   0   3   8 123.127 8.78393   1
   0  -3  -8 137.102 8.93697   1
   0  -3  -9-7.03269 4.70354   2
   0  -3  -9-3.86059 4.95543   1
   0   3   9-3.80336 4.91107   1
   0  -3 -10 10.8640 5.44821   1
   0  -3 -10 2.67926 5.18694   2
   0   3  10 13.1311 5.45364   1
   0   3  11 23.3910 7.30133   1
   0  -3 -11 17.3172 6.44107   2
   0  -3 -11 8.31464 6.23264   1
   0  -3 -12-2.86734 6.85875   2
   0  -3 -12 1.94820 7.27392   1
   0   3  12 8.42879 6.91443   1
   0   3  13-9.48561 8.66157   1
   0  -3 -13-3.45673 8.80286   1
   0  -3 -13 4.90388 8.57217   2
   0  -4  16-0.12092 4.80113   1
   0  -4  16 3.26582 4.50426   1
   0   4 -16 1.07581 8.59112   2
   0   4 -15 16.6753 7.61407   2
   0  -4  15 29.4695 5.01950   1
   0  -4  15 21.5251 4.75614   1
   0  -4  14 0.74113 3.53757   1
   0  -4  14 0.72056 3.45856   1
   0   4 -14 3.33507 5.86276   2
   0  -4  13-0.68977 2.93377   1
   0   4 -13-2.52819 5.44273   2
   0  -4  13 7.82780 3.12264   1
   0  -4  12 11.2478 3.11927   1
   0   4 -12 8.78726 4.73657   2
   0  -4  12 5.83734 2.72150   1
   0   4 -11 31.8716 5.44720   2
   0  -4  11 36.8889 3.64864   1
   0  -4  11 33.2316 3.60496   1
   0  -4  10 7.44763 2.36445   1
   0   4 -10 5.35096 3.76786   2
   0  -4  10 8.65061 2.27704   1
   0  -4   9 28.2809 2.92102   1
   0   4  -9 27.3061 4.45599   2
   0  -4   9 26.9355 2.95201   1
   0  -4   8 0.96731 1.64470   1
   0   4  -8 4.36183 2.75830   2
   0  -4   8 4.17136 1.92220   1
   0  -4   8 4.39356 2.86317   2
   0   4  -7 10.8888 3.14574   2
   0  -4   7 10.5786 1.99458   1
   0  -4   7 11.1357 2.18026   1
   0  -4   7 13.8312 3.03901   2
   0   4  -6 447.443 11.5391   2
   0   4  -6 440.279 8.61549   1
   0  -4   6 435.021 11.4910   2
   0  -4   6 440.174 8.54789   1
   0   4  -5 157.037 6.86042   2
   0  -4   5 182.982 7.27521   2
   0   4  -5 163.338 5.33772   1
   0  -4   5 162.480 5.32387   1
   0  -4   4-0.19327 1.54938   1
   0  -4   4 3.99043 2.41057   2
   0   4  -4 0.23683 1.67312   2
   0   4  -4-1.26632 1.56696   1
   0   4  -3 86.9683 5.04667   2
   0   4  -3 88.3754 4.34131   1
   0  -4   3 82.6863 4.70930   2
   0  -4   3 85.4492 4.30899   1
   0   4  -2 35.6654 3.70432   2
   0   4  -2 38.4370 3.20927   1
   0  -4   2 37.3255 3.20798   1
   0  -4   2 33.9517 3.58263   2
   0  -4   1 272.443 8.22357   1
   0   4  -1 292.349 8.30222   1
   0   4  -1 266.750 8.41881   2
   0  -4   1 275.302 8.48049   2
   0   4   0 13.8860 2.74383   1
   0  -4   0 17.0003 2.87119   2
   0  -4   0 19.5515 2.86543   1
   0   4   0 14.0189 2.96872   2
   0  -4  -1 405.212 10.6493   2
   0   4   1 391.563 10.6990   1
   0  -4  -1 409.911 10.9639   1
   0   4   1 395.800 10.6362   2
   0  -4  -2 80.9381 5.61065   1
   0  -4  -2 85.5558 5.49506   2
   0   4   2 74.0267 5.29769   2
   0   4   2 78.4194 5.33437   1
   0  -4  -3 184.988 8.42501   1
   0  -4  -3 173.293 7.91769   2
   0   4   3 188.427 8.39758   1
   0   4   3 179.320 7.93389   2
   0  -4  -4 198.995 8.71928   2
   0  -4  -4 192.455 9.09318   1
   0   4   4 189.088 9.05753   1
   0  -4  -5 254.738 10.8585   1
   0   4   5 257.640 10.8716   1
   0  -4  -5 254.875 10.4752   2
   0   4   6-0.21942 3.16916   1
   0  -4  -6 5.64332 3.85337   2
   0  -4  -6 9.15211 4.04125   1
   0  -4  -7 127.852 9.16526   1
   0  -4  -7 111.618 8.23857   2
   0   4   7 109.544 8.49665   1
   0  -4  -8 12.8401 4.86779   1
   0  -4  -8 12.3954 4.81846   2
   0   4   8 10.7757 5.05827   1
   0   4   9 13.4536 5.79583   1
   0  -4  -9 4.16122 5.24558   2
   0  -4  -9 2.03443 5.68861   1
   0  -4 -10 2.75125 5.80978   1
   0  -4 -10 2.02213 6.03217   2
   0   4  10-0.74785 5.58381   1
   0  -4 -11-1.61762 7.50532   1
   0   4  11 3.45273 7.58683   1
   0  -4 -11 2.52563 6.87286   2
   0  -4 -12 1.76096 8.70275   1
   0  -4 -12 1.44501 7.80427   2
   0   4  12-4.76242 8.29047   1
   0  -4 -13 13.6049 9.11711   2
   0  -4 -13 17.9359 9.31473   1
   0   4  13 5.76062 8.93729   1
   0   5 -16 0.83117 8.27946   2
   0  -5  16 2.10111 3.72700   1
   0  -5  16 5.43888 3.58376   1
   0  -5  15 2.06901 3.47102   1
   0   5 -15 1.66269 7.19783   2
   0  -5  15 8.23775 3.74029   1
   0  -5  14 2.54412 3.00979   1
   0   5 -14-0.82316 6.66049   2
   0  -5  14 3.66853 3.25161   1
   0  -5  13 2.21509 3.02782   1
   0  -5  13 4.76250 3.01507   1
   0   5 -13 0.27101 5.20682   2
   0  -5  12 25.3805 3.60202   1
   0   5 -12 21.6281 5.79309   2
   0  -5  12 28.0660 3.65242   1
   0  -5  11 2.19107 2.35036   1
   0  -5  11 2.20790 2.43361   1
   0   5 -11-4.72772 4.49515   2
   0  -5  10 4.66320 2.31140   1
   0  -5  10 3.74418 2.25714   1
   0   5 -10 5.84979 3.86094   2
   0  -5   9 55.2083 4.02432   1
   0   5  -9 60.1892 6.12772   2
   0  -5   9 56.6205 3.91087   1
   0  -5   9 62.1483 6.28670   2
   0  -5   8 229.741 9.89074   2
   0   5  -8 235.129 10.0288   2
   0  -5   8 226.500 6.98099   1
   0   5  -7 48.8529 4.78476   2
   0  -5   7 44.0348 5.10403   2
   0   5  -7 43.1765 3.42490   1
   0  -5   7 43.6167 3.37633   1
   0  -5   6 65.8714 5.50015   2
   0  -5   6 63.9278 4.06221   1
   0   5  -6 69.6627 4.20832   1
   0   5  -6 63.9088 5.52219   2
   0  -5   5 13.0069 2.85781   2
   0   5  -5 14.5048 3.40421   2
   0  -5   5 13.9222 2.49229   1
   0   5  -5 16.7599 2.65657   1
   0   5  -4 154.757 6.32244   1
   0  -5   4 153.336 6.30929   1
   0   5  -4 171.670 7.85384   2
   0  -5   4 149.780 7.31549   2
   0  -5   3 44.4408 4.36212   2
   0  -5   3 47.3389 4.07022   1
   0   5  -3 44.7985 4.55859   2
   0   5  -3 47.2637 4.01968   1
   0  -5   2 30.8856 4.07292   2
   0   5  -2 29.7836 4.04162   2
   0   5  -2 32.0262 3.63307   1
   0  -5   2 35.7734 3.89948   1
   0   5  -1 74.8806 5.40954   2
   0  -5   1 72.5725 5.50067   2
   0   5  -1 82.2502 5.52453   1
   0  -5   1 75.6897 5.29732   1
   0  -5   0 596.181 14.2393   1
   0  -5   0 582.657 14.1621   2
   0   5   0 627.161 14.5883   2
   0   5   0 614.557 14.2996   1
   0   5   1 240.697 9.71298   1
   0   5   1 240.432 9.55498   2
   0  -5  -1 239.061 9.58587   1
   0  -5  -1 247.378 9.51773   2
   0  -5  -2 15.9922 3.88677   2
   0  -5  -2 18.3354 3.91720   1
   0   5   2 17.7949 3.97050   2
   0   5   2 16.5149 3.55011   1
   0  -5  -3 3.42184 3.49594   2
   0   5   3 4.65377 3.43502   1
   0   5   3-2.25850 2.86434   2
   0  -5  -3-1.47621 3.27630   1
   0   5   4 2.99568 3.04432   1
   0  -5  -4 4.96332 3.87819   2
   0  -5  -4 4.08006 3.82790   1
   0  -5  -5 350.677 13.7331   1
   0   5   5 343.106 13.8403   1
   0  -5  -5 359.345 13.3287   2
   0  -5  -6 49.5798 6.61617   2
   0  -5  -6 67.8709 7.61176   1
   0   5   6 60.1785 7.22200   1
   0  -5  -7 6.06547 4.87933   1
   0  -5  -7 7.59679 4.64924   2
   0   5   7 5.99551 5.66252   1
   0   5   8 45.5273 7.17190   1
   0  -5  -8 52.8028 7.76466   2
   0  -5  -8 47.1461 7.65896   1
   0   5   9 24.6116 7.44431   1
   0  -5  -9 28.0386 7.82136   1
   0  -5  -9 31.5975 7.31124   2
   0  -5 -10 19.6874 7.29748   2
   0   5  10 19.4854 8.22348   1
   0  -5 -10 11.3545 7.34891   1
   0   5  11 3.54317 8.30132   1
   0  -5 -11 4.43663 8.62026   2
   0  -5 -11 6.24485 9.05579   1
   0  -5 -12 50.1813 11.6932   1
   0  -5 -12 47.1319 10.5079   2
   0  -6  16 0.10550 2.42114   1
   0   6 -16 0.35803 8.89859   2
   0  -6  16-0.25873 2.55943   1
   0   6 -15 1.53055 7.33402   2
   0  -6  15 3.19274 2.73523   1
   0  -6  15-0.24642 2.74943   1
   0  -6  14 2.81974 2.79523   1
   0   6 -14 8.15429 6.26842   2
   0  -6  14 6.68784 2.95184   1
   0  -6  13 2.59524 2.85111   1
   0  -6  13 6.47475 2.89790   1
   0   6 -13-3.95339 5.93123   2
   0   6 -12 38.1729 6.90126   2
   0  -6  12 32.1614 3.94219   1
   0  -6  12 33.1166 3.74103   1
   0   6 -11 79.2828 7.74310   2
   0  -6  11 67.6853 4.77048   1
   0  -6  11 72.5056 4.78585   1
   0  -6  11 81.6925 8.33584   2
   0   6 -10 1.58427 3.63710   2
   0  -6  10-1.14769 2.54752   1
   0  -6  10 1.08498 3.77889   2
   0  -6  10 1.92881 2.47949   1
   0  -6   9 115.272 8.41505   2
   0   6  -9 116.914 8.42883   2
   0  -6   9 122.425 5.86090   1
   0  -6   8 37.3876 5.44749   2
   0   6  -8 41.3244 3.93693   1
   0   6  -8 35.5576 5.46915   2
   0  -6   8 40.8449 3.92163   1
   0  -6   7 144.782 8.34391   2
   0  -6   7 165.186 6.85957   1
   0   6  -7 154.984 6.65691   1
   0   6  -7 163.555 8.88017   2
   0   6  -6-0.60642 3.36515   2
   0  -6   6 5.46315 3.54329   2
   0  -6   6 3.74402 2.38186   1
   0   6  -6 0.02502 2.38263   1
   0  -6   5 121.845 6.31375   1
   0   6  -5 119.918 7.51775   2
   0  -6   5 138.941 7.97501   2
   0   6  -5 132.323 6.54033   1
   0   6  -4 2.00336 2.43961   1
   0   6  -4 3.62546 3.52723   2
   0  -6   4-0.31707 2.73324   2
   0  -6   4 2.47016 2.52375   1
   0  -6   3 51.2243 4.73297   1
   0   6  -3 49.5754 5.27166   2
   0   6  -3 40.3943 4.38491   1
   0  -6   3 43.0820 5.09340   2
   0  -6   2 78.4746 5.81107   1
   0   6  -2 78.9527 5.69652   1
   0   6  -2 68.0599 6.07626   2
   0  -6   2 82.0596 6.52725   2
   0   6  -1 246.587 10.4197   2
   0  -6   1 237.732 9.92786   1
   0   6  -1 250.268 10.0812   1
   0  -6   1 261.863 10.4607   2
   0  -6   0 61.2756 5.53620   2
   0  -6   0 61.9691 5.94250   1
   0   6   0 57.9651 5.78364   1
   0   6   0 57.9022 5.79982   2
   0   6   1 15.4233 3.86171   2
   0  -6  -1 15.4146 3.92438   1
   0   6   1 13.0253 4.01705   1
   0  -6  -1 12.0927 4.28234   2
   0   6   2 2.47435 3.22200   2
   0  -6  -2 4.55809 3.75353   2
   0   6   2 3.63475 4.09723   1
   0  -6  -2 9.06774 4.38931   1
   0   6   3 63.7799 6.44255   2
   0   6   3 71.7829 6.74373   1
   0  -6  -3 73.9606 7.13368   1
   0  -6  -3 61.6076 6.64373   2
   0   6   4 58.6643 6.70979   1
   0  -6  -4 55.9734 6.43626   2
   0  -6  -4 47.3611 6.44559   1
   0   6   5 70.7917 8.06350   1
   0  -6  -5 70.3791 7.52806   2
   0  -6  -5 63.5809 7.84094   1
   0  -6  -6 21.4198 6.30439   2
   0   6   6 17.6580 6.48470   1
   0  -6  -6 35.3935 7.20200   1
   0  -6  -7 87.7436 9.46003   1
   0  -6  -7 78.7698 8.91271   2
   0   6   7 76.7586 9.60291   1
   0   6   8 9.02408 6.59390   1
   0  -6  -8 7.01531 6.90606   2
   0  -6  -8 5.29413 6.81195   1
   0  -6  -9 1.90700 7.33085   2
   0   6   9 17.4237 9.06814   1
   0  -6  -9 0.99723 8.80565   1
   0  -6 -10-3.08040 8.68993   2
   0  -6 -10 4.81287 9.97567   1
   0   6  10-12.4930 10.6073   1
   0  -6 -11 3.26885 5.19203   1
   0   6  11 9.31468 6.14644   1
   0  -6 -11 7.72827 5.24224   2
   0   7 -16-12.7051 8.85262   2
   0   7 -15-7.43582 9.38507   2
   0  -7  15 0.13483 2.36407   1
   0   7 -14-1.60568 7.33140   2
   0  -7  14 3.29473 3.01732   1
   0  -7  14 3.43414 2.84909   1
   0  -7  13 14.7974 3.30528   1
   0   7 -13 10.4321 6.27684   2
   0  -7  13 10.9027 3.28353   1
   0  -7  12 14.5065 3.47966   1
   0  -7  12 11.8136 3.54882   1
   0  -7  12 18.3625 7.15265   2
   0   7 -12 10.4046 6.63442   2
   0   7 -11 83.7669 8.30320   2
   0  -7  11 81.1022 5.52065   1
   0  -7  11 88.1586 9.00811   2
   0  -7  11 78.9026 5.31278   1
   0   7 -10 331.680 14.4381   2
   0  -7  10 343.234 14.5615   2
   0  -7  10 345.894 10.7393   1
   0  -7  10 351.597 10.2946   1
   0  -7   9 7.82226 3.05273   1
   0  -7   9 1.43837 4.84769   2
   0   7  -9 4.89875 2.98413   1
   0   7  -9 9.74656 4.79228   2
   0   7  -8 3.43687 4.43997   2
   0  -7   8 2.07093 3.67438   2
   0   7  -8 4.17292 2.90386   1
   0  -7   8 1.36858 2.89648   1
   0  -7   7-0.35855 2.78224   1
   0   7  -7 7.73084 4.16901   2
   0  -7   7 4.22889 4.17951   2
   0   7  -7-2.73985 2.72504   1
   0  -7   6 9.11921 4.05489   2
   0   7  -6 11.9555 3.38231   1
   0  -7   6 12.8548 3.53340   1
   0   7  -6 12.5554 4.23545   2
   0  -7   5 64.9651 5.60402   1
   0  -7   5 70.3760 6.79617   2
   0   7  -5 67.6087 6.95520   2
   0   7  -5 70.7163 5.81463   1
   0   7  -4 47.0526 5.83601   2
   0  -7   4 47.5602 5.39828   1
   0  -7   4 44.1916 5.69515   2
   0   7  -4 47.4729 5.12359   1
   0  -7   3 7.56415 4.28938   2
   0  -7   3 5.97524 3.57845   1
   0   7  -3 6.01291 4.05459   2
   0   7  -3 7.99577 3.41480   1
   0   7  -2 40.7978 5.31847   1
   0  -7   2 42.8517 5.87951   2
   0   7  -2 52.5820 6.29052   2
   0  -7   2 52.4736 5.69718   1
   0  -7   1 5.62506 3.76752   2
   0   7  -1-1.93926 3.68758   1
   0   7  -1 4.33060 3.42391   2
   0  -7   1-1.19483 3.00541   1
   0   7   0 3.56695 4.22024   1
   0  -7   0-3.48497 3.63125   1
   0   7   0 3.08186 4.29716   2
   0  -7   0 5.00793 4.31066   2
   0  -7  -1 21.0246 4.78580   2
   0   7   1 19.1056 4.83175   1
   0  -7  -1 25.5398 5.39776   1
   0   7   1 14.6662 4.54812   2
   0  -7  -2-0.10517 4.52290   1
   0  -7  -2 5.98519 4.70471   2
   0   7   2 6.95860 3.98698   1
   0   7   2 2.55672 4.81792   2
   0  -7  -3 32.3049 6.54875   1
   0  -7  -3 30.6092 5.71631   2
   0   7   3 25.0014 6.41757   1
   0   7   3 34.9233 6.53459   2
   0  -7  -4 10.9645 6.29019   1
   0   7   4 3.72159 5.54299   1
   0  -7  -4 6.94047 5.23651   2
   0   7   5 23.4174 6.89496   1
   0  -7  -5 6.70524 5.18772   2
   0  -7  -5 13.6294 6.97050   1
   0  -7  -6 16.2548 7.50309   2
   0   7   6 10.3986 6.26482   1
   0  -7  -6 22.0032 8.13019   1
   0  -7  -7 44.9523 9.74728   1
   0  -7  -7 39.8166 8.67198   2
   0   7   7 35.8994 8.31558   1
   0  -7  -8 4.29736 8.71755   1
   0   7   8 14.3150 9.42136   1
   0  -7  -8 18.5925 8.51708   2
   0  -7  -9 11.8350 10.6808   1
   0  -7  -9 32.9120 11.1492   2
   0   7   9 18.6996 10.7991   1
   0   8 -15 22.5788 10.8614   2
   0  -8  15 1.85968 2.05900   1
   0  -8  14 11.7798 3.38589   1
   0   8 -14 3.77862 8.42867   2
   0  -8  14 10.7933 3.22944   1
   0  -8  13 81.6370 5.61666   1
   0   8 -13 66.1901 10.2992   2
   0  -8  13 73.5636 5.68919   1
   0  -8  12 12.2286 7.28737   2
   0  -8  12 18.0448 4.20513   1
   0  -8  12 8.49907 3.80665   1
   0   8 -12 15.9808 7.69588   2
   0  -8  11 6.88316 3.74085   1
   0   8 -11 0.24728 6.18507   2
   0  -8  11 12.3636 6.66901   2
   0  -8  11 2.94540 3.68801   1
   0  -8  10 31.0415 7.46684   2
   0   8 -10 20.8878 4.20303   1
   0   8 -10 29.1746 7.38408   2
   0  -8  10 22.5739 4.18504   1
   0   8  -9 27.7677 4.43418   1
   0   8  -9 38.7279 6.62071   2
   0  -8   9 25.1393 6.69914   2
   0  -8   9 30.9205 4.76224   1
   0   8  -8-1.21034 4.30740   2
   0   8  -8 2.23356 3.51944   1
   0  -8   8-4.19355 5.55499   2
   0  -8   8-3.14434 3.74884   1
   0  -8   7 20.6961 4.40172   1
   0   8  -7 21.8031 4.46008   1
   0  -8   7 10.5270 5.02814   2
   0   8  -7 19.3666 5.73138   2
   0   8  -6-1.29745 3.95187   2
   0   8  -6-0.95698 3.48690   1
   0  -8   6-1.83369 3.57794   1
   0  -8   6 2.69548 4.51375   2
   0   8  -5 70.3145 6.67675   1
   0   8  -5 69.3320 7.27047   2
   0  -8   5 79.0816 6.97413   1
   0  -8   5 77.0121 7.96433   2
   0  -8   4 10.9447 5.35142   2
   0   8  -4 6.61000 4.92720   2
   0  -8   4 7.07788 4.09927   1
   0   8  -4 3.61976 3.82772   1
   0   8  -3 189.139 10.1337   1
   0   8  -3 169.735 10.6300   2
   0  -8   3 170.535 10.2280   2
   0  -8   3 168.287 9.88110   1
   0  -8   2 54.4606 6.75288   1
   0  -8   2 66.1914 7.53228   2
   0   8  -2 64.8737 6.89862   1
   0   8  -2 63.3229 7.83169   2
   0   8  -1 9.85592 4.94468   2
   0   8  -1 13.2287 5.02499   1
   0  -8   1 0.42216 4.16089   2
   0  -8   1 2.50996 4.12600   1
   0  -8   0 23.9418 5.81283   1
   0   8   0 27.0935 5.73757   2
   0   8   0 14.8013 4.79264   1
   0  -8   0 18.2616 5.94448   2
   0  -8  -1 3.96762 5.48069   2
   0  -8  -1 5.09668 5.59772   1
   0   8   1 7.85011 4.83021   2
   0   8   1-1.08732 4.76032   1
   0   8   2 11.4571 6.34356   1
   0  -8  -2 1.00665 5.98873   2
   0   8   2 1.47803 4.73994   2
   0  -8  -2 4.00069 6.04885   1
   0   8   3 6.83393 5.52406   1
   0   8   3 4.05505 6.05384   2
   0  -8  -3 6.03399 6.11464   2
   0  -8  -3 0.19674 6.20266   1
   0   8   4 6.74834 7.14529   1
   0  -8  -4 2.31567 5.89372   1
   0  -8  -4 3.20638 6.26730   2
   0   8   5-3.79322 7.57627   1
   0  -8  -5-4.96255 7.08481   1
   0  -8  -5 12.1797 8.27673   2
   0  -8  -6-14.0652 9.19948   1
   0   8   6-3.10165 8.49243   1
   0  -8  -6 5.17482 8.27748   2
   0   8   7-12.8390 9.89927   1
   0  -8  -7-2.23156 9.46287   2
   0  -8  -7-10.5013 10.7039   1
   0  -8  -8 15.9325 9.04235   2
   0   8   8 23.1673 10.5129   1
   0  -8  -8 25.8488 11.2867   1
   0  -9  14 1.17824 3.70594   1
   0  -9  14 2.33974 3.77193   1
   0   9 -14-9.95115 9.01004   2
   0   9 -13 7.81639 8.03905   2
   0  -9  13 0.96204 4.39540   1
   0  -9  13 4.16800 4.40473   1
   0  -9  12-6.69025 8.37624   2
   0   9 -12 3.55259 8.71499   2
   0  -9  12-0.96877 4.79259   1
   0  -9  12 1.07379 4.65413   1
   0  -9  11-6.06963 4.41890   1
   0   9 -11 1.42210 4.33749   1
   0   9 -11 6.39440 7.49401   2
   0  -9  11 5.77624 8.18773   2
   0  -9  10 15.0831 4.96006   1
   0   9 -10 0.06703 7.10024   2
   0   9 -10 14.9685 4.91084   1
   0  -9  10 18.8428 7.49737   2
   0  -9   9 5.83961 4.61302   1
   0  -9   9-1.39812 6.12219   2
   0   9  -9 18.2610 5.08375   1
   0   9  -9 4.54189 6.12156   2
   0   9  -8 8.70097 4.59636   1
   0  -9   8 2.94715 6.63552   2
   0  -9   8 6.48798 4.43392   1
   0   9  -8-3.58143 6.70712   2
   0   9  -7 40.7488 7.47714   2
   0  -9   7 34.1073 5.90463   1
   0   9  -7 33.7500 5.98317   1
   0  -9   7 35.9708 6.56207   2
   0  -9   6 122.291 9.03136   1
   0  -9   6 133.436 10.7526   2
   0   9  -6 117.894 8.80564   1
   0   9  -6 135.762 10.8661   2
   0   9  -5 5.83767 5.14756   2
   0  -9   5 15.9716 5.97148   2
   0  -9   5 0.19498 4.52927   1
   0   9  -5 5.24572 4.77126   1
   0  -9   4 27.6942 6.23906   2
   0   9  -4 24.3553 6.88482   2
   0  -9   4 34.3412 6.39845   1
   0   9  -4 39.9246 6.63685   1
   0  -9   3 15.7100 5.71631   1
   0   9  -3 2.11676 5.50002   2
   0   9  -3 14.5702 6.04409   1
   0  -9   3 5.63560 5.21974   2
   0   9  -2 83.8233 8.63755   1
   0  -9   2 78.4259 9.42910   2
   0  -9   2 75.0468 8.18703   1
   0   9  -2 72.0463 8.41371   2
   0   9  -1-6.06386 6.93594   2
   0   9  -1 8.64279 5.77340   1
   0  -9   1 2.06504 5.50618   1
   0  -9   1-5.90834 5.88789   2
   0   9   0 13.9002 5.97340   1
   0  -9   0 5.23198 5.77520   2
   0   9   0 6.06669 5.75152   2
   0  -9   0 11.6182 6.72208   1
   0   9   1-11.9222 5.75386   1
   0   9   1-1.40102 6.75648   2
   0  -9  -1-12.5872 7.40364   2
   0  -9  -1 0.87698 6.52005   1
   0   9   2 21.1998 8.23510   1
   0  -9  -2 16.8406 6.77418   2
   0   9   2 16.3232 7.01619   2
   0  -9  -2 9.65110 7.40851   1
   0   9   3-11.1139 8.95426   2
   0  -9  -3-4.32624 6.67604   2
   0  -9  -3 12.1636 8.43618   1
   0   9   3 6.87268 8.25846   1
   0  -9  -4-2.04287 8.75601   2
   0   9   4-13.0957 8.73301   1
   0  -9  -4-10.7047 7.40560   1
   0  -9  -5-0.87507 8.57024   2
   0  -9  -5 25.6435 10.6622   1
   0   9   5-3.07502 10.0689   1
   0  -9  -6 26.0082 12.6208   1
   0   9   6 17.0930 11.9865   1
   0  -9  -6 0.92288 9.57895   2
   0 -10  13-0.06471 5.02528   1
   0  10 -13-7.23055 10.6099   2
   0 -10  13 16.2731 10.8989   2
   0 -10  13-5.63929 5.23086   1
   0 -10  12 0.95650 9.46463   2
   0 -10  12-7.48409 5.60557   1
   0 -10  12-4.06800 5.34922   1
   0  10 -12 12.7228 8.62984   2
   0  10 -11 18.6151 9.78009   2
   0 -10  11 9.53100 5.67140   1
   0 -10  11 21.8497 10.4506   2
   0  10 -11 9.18371 5.80012   1
   0 -10  10-1.41383 5.23318   1
   0 -10  10-7.52073 7.91010   2
   0  10 -10-0.90866 5.37967   1
   0  10 -10 11.0799 8.67424   2
   0 -10   9 14.3006 5.78933   1
   0  10  -9 13.1753 5.82067   1
   0 -10   9 20.4703 7.88236   2
   0  10  -9 14.1902 7.64873   2
   0 -10   8-2.07938 5.66383   1
   0  10  -8-4.78038 7.03602   2
   0  10  -8-8.73605 5.86102   1
   0 -10   7 12.9146 5.44574   1
   0 -10   7 11.2698 7.29872   2
   0  10  -7 1.83479 6.59159   2
   0  10  -7 2.99036 5.69657   1
   0  10  -6 0.98075 6.00252   2
   0  10  -6-1.52115 5.55088   1
   0 -10   6 1.36178 5.48279   1
   0 -10   6 19.4280 7.88748   2
   0 -10   5 14.4712 7.43615   2
   0  10  -5 4.69623 5.88056   1
   0 -10   5 7.16837 5.82424   1
   0  10  -5 10.8163 7.97896   2
   0 -10   4 110.146 10.6292   2
   0  10  -4 108.874 10.0586   1
   0  10  -4 93.9912 10.4297   2
   0 -10   4 97.0232 9.90994   1
   0 -10   3 24.7515 7.03836   1
   0 -10   3 19.7022 7.95488   2
   0  10  -3 11.3057 7.81349   2
   0  10  -3 15.9972 7.52807   1
   0 -10   2 21.8520 7.37298   1
   0 -10   2 18.3156 7.91411   2
   0  10  -2 28.5206 8.57207   1
   0  10  -2 16.1775 8.35696   2
   0 -10   1 3.09427 7.39263   1
   0  10  -1-0.80558 8.21944   2
   0 -10   1 2.32371 8.11902   2
   0  10  -1 1.17376 6.87892   1
   0 -10   0 0.96154 8.14794   1
   0 -10   0-2.75408 7.28633   2
   0  10   0 25.3138 8.50973   1
   0  10   0 5.72410 8.54469   2
   0  10   1 16.5647 8.05969   1
   0 -10  -1 1.76281 9.17230   2
   0 -10  -1 29.1769 9.32673   1
   0  10   1 33.1805 9.63159   2
   0 -10  -2 24.2783 9.65421   2
   0  10   2 14.5177 8.60460   2
   0 -10  -2 21.1374 9.16313   1
   0  10   2 26.8706 9.69211   1
   0 -10  -3-19.0255 11.5129   1
   0  10   3 13.2802 9.04055   1
   0 -10  -3-8.78871 9.87096   2
   0 -10  -4 20.4676 10.3139   2
   0  11 -11 3.19862 9.73534   2
   0  11 -11-3.95160 6.32528   1
   0 -11  11 0.90209 6.86688   1
   0 -11  11-2.67213 9.47866   2
   0  11 -10 6.07668 9.59589   2
   0  11 -10-4.93409 6.62105   1
   0 -11  10 9.89023 9.02879   2
   0 -11  10 2.60914 6.99894   1
   0  11  -9 13.1752 6.48276   1
   0 -11   9 20.8285 7.20106   1
   0  11  -9 8.78843 9.97974   2
   0 -11   9 8.98003 9.18944   2
   0 -11   8 34.0027 10.6883   2
   0  11  -8 12.1239 7.19811   1
   0 -11   8 17.6914 7.05276   1
   0  11  -8 18.5949 9.72435   2
   0 -11   7 10.8478 9.55008   2
   0  11  -7-10.2478 6.90369   1
   0 -11   7 1.58018 6.92371   1
   0  11  -7 11.3388 10.1231   2
   0  11  -6 25.2047 8.03450   1
   0 -11   6 26.8375 8.98840   2
   0 -11   6 28.9143 8.24837   1
   0  11  -6 48.3294 11.4087   2
   0  11  -5 32.4014 9.06449   1
   0 -11   5 19.1044 10.0233   2
   0 -11   5 39.8664 9.02764   1
   0  11  -5 14.8653 10.2752   2
   0  11  -4 7.68567 8.54384   2
   0  11  -4 12.7921 7.97366   1
   0 -11   4-0.23703 9.36211   2
   0 -11   4 15.2870 8.08800   1
   0  11  -3 1.98203 8.47021   1
   0 -11   3-10.0250 9.38415   2
   0 -11   3 6.47585 7.81627   1
   0  11  -3-3.75223 9.74561   2
   0  11  -2 46.5087 10.1721   2
   0 -11   2 26.2684 9.42891   1
   0 -11   2 31.6930 10.5713   2
   0  11  -2 44.5041 10.0744   1
   0  11  -1 2.96654 10.2824   2
   0 -11   1 20.9589 10.1665   1
   0  11  -1 13.5720 10.6208   1
   0 -11   1 4.00687 8.68304   2
   0 -11   0 6.02442 10.5262   2
   0  11   0-11.9725 11.7666   2
   0  11   0 1.17786 10.3435   1
   0 -11   0-9.61604 11.0664   1
   0 -11  -1 35.1539 11.5142   2
   0  11   1 10.5705 11.3173   2
   0  11   1-0.44286 9.98600   1
   0 -11  -1 34.3884 11.6418   1
   0 -12   6 10.8964 5.75119   1
   0  12  -6 18.6152 6.38836   1
   0 -12   5 25.0406 6.97426   1
   0  12  -5 42.7509 7.84081   1
   1 -11  -1 11.2691 11.3766   1
  -1  11   1 6.85434 10.7973   2
  -1  11   1-11.1063 9.35744   1
   1 -11  -1-7.04064 10.0161   2
   1 -11   0 16.4528 10.8588   2
  -1  11   0 23.3260 11.6964   2
  -1  11   0 31.4240 10.8399   1
   1 -11   0-6.45992 9.75587   1
   1 -11   1-3.77353 10.6233   2
  -1  11  -1 18.4366 9.79982   1
  -1  11  -1 19.6325 10.2020   2
   1 -11   2 3.10484 8.74555   2
  -1  11  -2 16.2660 9.98130   2
   1 -11   2 8.87635 7.66126   1
  -1  11  -2 16.6698 8.93879   1
  -1  11  -3 13.3058 9.51834   2
   1 -11   3-9.02902 7.82241   2
  -1  11  -3 15.4087 8.64613   1
   1 -11   3-5.95927 7.84019   1
  -1  11  -4 4.90490 8.78804   2
   1 -11   4 12.7186 8.42678   2
  -1  11  -4-2.61920 7.16658   1
   1 -11   4-7.91193 7.35157   1
  -1  11  -5 20.7633 10.0548   2
  -1  11  -5 4.90083 6.80676   1
   1 -11   5 14.6963 8.21459   2
   1 -11   5 2.59190 6.89359   1
   1 -11   6 0.95562 9.08364   2
  -1  11  -6 10.7542 7.22709   1
   1 -11   6 12.8257 6.83711   1
  -1  11  -6 22.2195 10.6744   2
   1 -11   7 1.61539 6.59656   1
   1 -11   7 7.11966 10.1254   2
  -1  11  -7-3.49094 6.42530   1
  -1  11  -7-4.18657 10.2005   2
  -1  11  -8 2.08551 6.23091   1
   1 -11   8-1.33509 6.67247   1
  -1  11  -8-7.50885 10.3811   2
   1 -11   8-7.85865 9.48284   2
   1 -11   9-0.55567 5.72231   1
  -1  11  -9-1.96211 6.39578   1
   1 -11   9-0.34066 10.2759   2
  -1  11  -9 17.5540 10.6165   2
  -1  11 -10 5.66405 5.88772   1
  -1  11 -10-6.92202 9.36360   2
   1 -11  10-5.68299 5.35410   1
   1 -10  -4 5.94298 10.5572   1
   1 -10  -4-9.37000 9.48273   2
  -1  10   4-2.33729 11.0168   1
  -1  10   3 6.48933 10.1878   2
   1 -10  -3-1.71559 10.7018   2
   1 -10  -3 2.56630 9.78832   1
  -1  10   3 13.0055 8.51710   1
  -1  10   2 55.1415 11.0864   1
   1 -10  -2 38.1289 10.2669   1
   1 -10  -2 46.8978 10.6905   2
  -1  10   2 25.2197 9.05066   2
   1 -10  -1 18.7106 9.04706   1
  -1  10   1 17.6812 7.84735   1
  -1  10   1 14.4091 9.49230   2
   1 -10  -1 3.74252 8.42006   2
  -1  10   0 24.6101 7.81352   2
  -1  10   0 19.7427 8.26152   1
   1 -10   0 16.9584 7.82402   2
   1 -10   0 25.4513 8.41554   1
  -1  10  -1 21.2592 7.45925   1
   1 -10   1 42.1944 8.91397   2
  -1  10  -1 47.4994 9.36974   2
   1 -10   1 17.5167 6.76116   1
   1 -10   2-3.37274 7.01418   1
  -1  10  -2-6.81879 6.45638   1
   1 -10   2 0.20644 7.51066   2
  -1  10  -2 12.3679 8.00386   2
  -1  10  -3-2.94219 6.01781   1
   1 -10   3-2.75081 7.15537   2
   1 -10   3 3.51040 6.06036   1
  -1  10  -4 11.3382 7.79647   2
   1 -10   4 4.30837 6.74491   2
   1 -10   4-0.10943 5.44111   1
  -1  10  -4 5.75521 6.13737   1
  -1  10  -5 17.5002 5.95729   1
   1 -10   5 4.65146 5.56585   1
  -1  10  -5 10.1890 6.67495   2
   1 -10   5 13.9860 7.65266   2
  -1  10  -6-3.95114 5.50441   1
  -1  10  -6-2.83015 7.80216   2
   1 -10   6 1.32868 5.16161   1
   1 -10   6-10.0430 7.48930   2
   1 -10   7 1.56667 6.35349   2
  -1  10  -7 7.37965 4.94508   1
   1 -10   7 17.0351 5.36522   1
  -1  10  -7 9.17768 8.03339   2
  -1  10  -8 43.3796 9.69972   2
   1 -10   8 50.4506 9.01675   2
  -1  10  -8 41.2021 6.06580   1
   1 -10   8 44.7906 6.13103   1
   1 -10   9 7.81051 8.36129   2
  -1  10  -9 19.5580 8.29453   2
  -1  10  -9 3.04434 4.37577   1
   1 -10   9 3.95750 4.57034   1
   1 -10  10 11.2244 9.59055   2
  -1  10 -10 0.43883 4.29908   1
   1 -10  10-1.74420 4.19006   1
   1 -10  11 10.7529 3.42905   1
  -1  10 -11 30.3998 10.1377   2
   1 -10  11 32.7164 10.5411   2
   1 -10  12 25.1325 11.5161   2
  -1  10 -12 8.15292 9.69409   2
  -1   9   6 6.30186 9.53151   1
   1  -9  -6-0.53658 9.80022   2
   1  -9  -6 3.03608 11.1747   1
   1  -9  -5 11.3125 8.36106   1
   1  -9  -5-0.80439 8.13151   2
  -1   9   5 2.61262 8.42013   1
   1  -9  -4 64.4971 10.5408   2
   1  -9  -4 27.6148 10.0344   1
  -1   9   4 35.7526 9.37352   2
  -1   9   4 37.1475 9.41802   1
  -1   9   3 0.73778 7.49613   1
   1  -9  -3-15.8383 8.56478   2
   1  -9  -3 6.02601 7.81409   1
  -1   9   3 8.89700 7.40394   2
  -1   9   2 6.47910 6.80171   1
   1  -9  -2-2.59752 7.21383   2
   1  -9  -2 6.68310 7.25098   1
  -1   9   2 6.57334 6.81401   2
  -1   9   1 6.63422 5.97704   1
   1  -9  -1 12.1868 6.78776   2
  -1   9   1 9.73163 7.10544   2
   1  -9  -1 14.5929 7.37919   1
   1  -9   0-2.86259 5.72106   1
  -1   9   0 7.39301 6.85097   2
   1  -9   0-3.24998 5.01234   2
  -1   9   0 6.43978 5.36192   1
   1  -9   1 54.9325 7.64959   2
  -1   9  -1 45.8151 7.45608   1
   1  -9   1 35.5847 6.64071   1
  -1   9  -1 60.1043 8.40665   2
  -1   9  -2 23.4815 6.79970   2
   1  -9   2 25.5376 7.07898   2
  -1   9  -2 10.9777 5.21840   1
   1  -9   2 14.4122 5.74860   1
  -1   9  -3-4.81928 5.42889   2
   1  -9   3 5.34352 4.79260   1
  -1   9  -3-4.19230 4.60609   1
   1  -9   3 8.59322 5.28899   2
   1  -9   4 30.2352 5.76345   1
  -1   9  -4 19.9925 5.19056   1
   1  -9   4 26.4098 6.30284   2
  -1   9  -4 16.2634 6.54533   2
  -1   9  -5 26.3725 7.09238   2
  -1   9  -5 17.8834 5.16307   1
   1  -9   5 29.4868 6.41114   2
   1  -9   5 23.8076 5.30130   1
  -1   9  -6 3.90244 3.84332   1
   1  -9   6-1.15673 5.04644   2
  -1   9  -6-3.12094 5.23962   2
   1  -9   6 4.96285 3.97143   1
   1  -9   7 7.25006 3.93396   1
  -1   9  -7 6.34760 6.22836   2
   1  -9   7-6.89101 6.04452   2
  -1   9  -7-1.60830 3.92904   1
   1  -9   8 56.4053 5.68006   1
   1  -9   8 47.3593 8.41593   2
  -1   9  -8 52.7860 5.42741   1
  -1   9  -8 54.3156 8.51470   2
  -1   9  -9 26.1817 4.37961   1
  -1   9  -9 37.7901 8.21297   2
   1  -9   9 28.8402 8.79686   2
   1  -9   9 31.8453 4.49194   1
  -1   9 -10 14.1192 6.62538   2
   1  -9  10 13.5166 3.29353   1
   1  -9  10 9.00116 7.80884   2
  -1   9 -10 10.4304 3.32270   1
   1  -9  11 30.6199 2.84180   1
   1  -9  11 22.4694 2.74438   1
  -1   9 -11 36.3279 8.68275   2
   1  -9  11 23.5949 7.84187   2
   1  -9  12 22.8851 9.97564   2
  -1   9 -12 35.7948 10.0538   2
  -1   9 -13-0.65317 8.82423   2
  -1   9 -14 1.81049 8.21985   2
   1  -8  -8 2.22830 9.18342   2
  -1   8   8 21.7840 12.3683   1
   1  -8  -8 18.4827 11.6061   1
   1  -8  -7 3.73309 9.87510   1
  -1   8   7-1.78607 8.19130   1
   1  -8  -7 0.56262 9.01391   2
  -1   8   6 40.1235 10.2864   1
   1  -8  -6 29.4072 8.56064   2
   1  -8  -6 48.3386 10.7023   1
  -1   8   5 9.01378 7.90431   1
   1  -8  -5 17.0229 7.10119   1
   1  -8  -5 23.6410 7.40889   2
   1  -8  -4 5.87487 7.16028   1
  -1   8   4 10.6913 6.76603   2
  -1   8   4-6.53700 5.98459   1
   1  -8  -4 6.68467 5.92453   2
   1  -8  -3 12.4856 6.62830   1
  -1   8   3 8.32803 6.34380   1
  -1   8   3 9.25474 5.75655   2
   1  -8  -3 19.2135 6.57786   2
   1  -8  -2 7.06968 5.25311   1
   1  -8  -2 1.54473 4.68833   2
  -1   8   2 4.35492 5.64346   2
  -1   8   2 7.20413 5.82097   1
   1  -8  -1 118.495 9.55124   1
   1  -8  -1 115.433 9.24892   2
  -1   8   1 133.947 10.0621   2
  -1   8   1 132.611 9.90898   1
   1  -8   0 7.90705 5.03061   2
   1  -8   0-1.50029 4.33152   1
  -1   8   0-1.64296 3.93397   1
  -1   8   0-1.05557 4.18748   2
  -1   8  -1 24.2584 5.53155   1
   1  -8   1 19.7081 5.10607   1
   1  -8   1 26.2833 5.33597   2
  -1   8  -2 78.2728 8.14075   2
  -1   8  -2 89.5787 7.56976   1
   1  -8   2 71.2583 7.59435   2
   1  -8   2 82.1633 7.46980   1
   1  -8   3 330.745 13.9041   2
   1  -8   3 333.611 12.6712   1
  -1   8  -3 324.653 14.0314   2
  -1   8  -3 331.587 12.4887   1
  -1   8  -4 1.72103 3.49802   1
   1  -8   4 12.3846 5.20558   2
  -1   8  -4-1.13665 4.54133   2
   1  -8   4 0.19046 3.52434   1
   1  -8   5 15.8791 5.09520   2
  -1   8  -5 10.7692 4.61445   2
   1  -8   5 14.9096 3.89775   1
  -1   8  -5 9.57217 3.84259   1
   1  -8   6 171.868 11.0783   2
  -1   8  -6 166.316 8.08464   1
  -1   8  -6 175.717 10.9515   2
   1  -8   6 178.778 8.39959   1
  -1   8  -7 8.47927 3.15239   1
   1  -8   7 4.09169 3.12133   1
  -1   8  -7 0.33591 5.41924   2
   1  -8   7 3.74814 4.31078   2
  -1   8  -8 11.1395 6.17543   2
   1  -8   8 1.85126 2.79137   1
   1  -8   8 1.44145 6.05623   2
  -1   8  -8-2.63806 2.63868   1
  -1   8  -9 10.7509 5.20225   2
   1  -8   9 0.72419 5.12891   2
  -1   8  -9 1.16268 2.48113   1
   1  -8   9 2.44328 2.45878   1
  -1   8 -10 30.3866 7.92536   2
   1  -8  10 30.0723 7.63547   2
   1  -8  10 25.4662 2.76699   1
   1  -8  10 18.1913 2.66707   1
  -1   8 -11 0.87309 6.15268   2
   1  -8  11-1.28750 5.77618   2
  -1   8 -12-3.12968 7.70703   2
  -1   8 -13-4.21556 8.13040   2
  -1   8 -14 7.57856 10.4148   2
  -1   8 -15 25.6327 7.34210   2
  -1   7   9 11.6906 9.25222   1
   1  -7  -9 12.8498 10.8678   1
   1  -7  -9 13.8575 9.07373   2
  -1   7   8 30.5066 9.40728   1
   1  -7  -8 40.2892 10.9181   1
   1  -7  -8 31.3486 8.43500   2
  -1   7   7 37.1280 9.57507   1
   1  -7  -7 66.0709 9.18676   2
   1  -7  -7 62.3933 9.94596   1
   1  -7  -6 28.9116 8.13015   1
  -1   7   6 32.4321 7.97761   1
   1  -7  -6 28.9735 7.22212   2
  -1   7   5 8.41441 5.21184   1
   1  -7  -5 21.8036 6.43983   2
   1  -7  -5 12.7481 6.28074   1
  -1   7   4 0.47592 5.59661   1
   1  -7  -4 0.66544 4.93852   2
  -1   7   4 2.31421 4.84239   2
   1  -7  -4 2.38861 4.93307   1
   1  -7  -3 10.3236 4.67042   2
  -1   7   3 6.38921 4.39076   1
  -1   7   3 1.07536 4.71231   2
   1  -7  -3 5.75046 5.17678   1
  -1   7   2 25.4168 5.31593   1
   1  -7  -2 25.0668 5.76839   1
   1  -7  -2 24.5438 5.65979   2
  -1   7   2 20.6521 5.21973   2
  -1   7   1 272.646 12.1190   2
   1  -7  -1 267.083 11.8682   2
  -1   7   1 265.648 12.2137   1
   1  -7  -1 249.714 11.7188   1
  -1   7   0 17.8620 4.78870   1
   1  -7   0 28.4252 4.79865   1
   1  -7   0 29.0739 5.18256   2
  -1   7   0 17.2577 4.76781   2
  -1   7  -1 49.0502 6.21509   2
   1  -7   1 46.5869 5.64331   2
  -1   7  -1 41.1276 5.49680   1
   1  -7   1 45.9288 5.43934   1
   1  -7   2 0.40457 3.12778   1
  -1   7  -2-0.98090 3.22330   1
   1  -7   2-0.04231 3.79407   2
  -1   7  -2-6.89917 4.31079   2
  -1   7  -3-4.31963 2.99070   1
   1  -7   3 3.90236 4.13758   2
   1  -7   3-1.04593 2.99871   1
  -1   7  -3 1.48246 3.73310   2
  -1   7  -4 34.6482 4.24792   1
   1  -7   4 35.6337 4.39257   1
   1  -7   4 33.2784 5.58566   2
  -1   7  -4 38.3447 5.63718   2
   1  -7   5-2.31575 3.91283   2
  -1   7  -5-4.77989 4.27630   2
   1  -7   5 3.29616 2.60534   1
  -1   7  -5 1.55476 2.71966   1
   1  -7   6 136.191 9.12829   2
  -1   7  -6 143.282 6.57950   1
  -1   7  -6 136.971 9.28913   2
   1  -7   6 140.732 6.54737   1
   1  -7   7 3.06671 4.25615   2
   1  -7   7 3.81804 2.39941   1
  -1   7  -7 4.19363 2.35446   1
  -1   7  -7 4.15072 4.14563   2
  -1   7  -8 17.3788 2.65612   1
   1  -7   8 25.3583 5.96230   2
  -1   7  -8 19.4857 5.29058   2
   1  -7   8 17.3781 2.69539   1
   1  -7   9 2.88568 1.69332   1
  -1   7  -9-3.84838 5.07628   2
   1  -7   9 2.22208 5.18716   2
   1  -7  10 163.629 3.44739   1
   1  -7  10 163.852 11.6589   2
  -1   7 -10 173.395 11.3113   2
  -1   7 -11 7.12520 6.22687   2
  -1   7 -12 9.45113 5.80587   2
  -1   7 -13-11.8594 7.52249   2
  -1   7 -14-11.3063 8.74182   2
  -1   7 -15-12.8250 9.36696   2
   1  -6 -11 0.34112 8.88655   2
   1  -6 -11-12.5563 9.91014   1
  -1   6  11-19.9859 10.2651   1
  -1   6  10 15.2612 9.26656   1
   1  -6 -10 18.9585 9.56810   1
   1  -6 -10 9.23103 7.82933   2
   1  -6  -9 47.9124 10.7172   1
   1  -6  -9 35.6471 7.84372   2
  -1   6   9 34.6114 9.51440   1
   1  -6  -8 18.6584 6.52833   2
  -1   6   8 5.26659 7.63978   1
  -1   6   7 49.8961 8.07986   1
   1  -6  -7 51.9232 8.53828   1
   1  -6  -7 33.7904 6.62195   2
   1  -6  -6 0.09638 4.28175   2
  -1   6   6 2.13090 5.85219   1
   1  -6  -6 0.73349 5.40136   1
  -1   6   5 7.90832 4.73558   1
   1  -6  -5 8.60750 5.03726   1
   1  -6  -5 9.82840 4.40128   2
   1  -6  -4 67.6105 6.75709   2
  -1   6   4 77.1378 7.96551   1
   1  -6  -4 69.8384 7.54921   1
  -1   6   4 59.8154 6.55358   2
  -1   6   3 11.0448 4.16363   1
   1  -6  -3 8.43414 3.61478   2
   1  -6  -3 3.48498 4.35599   1
  -1   6   3 4.71792 3.96689   2
  -1   6   2 78.9680 6.73370   1
   1  -6  -2 63.4566 6.12124   2
   1  -6  -2 71.0760 6.43784   1
  -1   6   2 64.2291 6.01960   2
  -1   6   1 80.0356 6.73325   1
   1  -6  -1 85.1006 6.41480   2
  -1   6   1 84.1540 6.39683   2
   1  -6  -1 79.8943 6.66340   1
   1  -6   0 4.99557 3.08049   2
  -1   6   0 7.60026 3.12315   1
  -1   6   0 4.48414 3.16690   2
   1  -6   0 6.28791 3.49399   1
   1  -6   1 287.965 10.7502   2
   1  -6   1 295.898 10.5531   1
  -1   6  -1 283.750 10.8861   2
  -1   6  -1 303.256 10.6639   1
  -1   6  -2 6.77753 3.40051   2
   1  -6   2 4.36945 3.38430   2
  -1   6  -2 3.30648 2.57064   1
   1  -6   2 4.95205 2.79140   1
   1  -6   3 21.7001 3.36328   1
  -1   6  -3 17.8016 4.15653   2
  -1   6  -3 24.3280 3.47218   1
   1  -6   3 17.1133 4.11780   2
  -1   6  -4 5.85642 3.34572   2
   1  -6   4 10.6797 3.47747   2
   1  -6   4 5.98991 2.36898   1
  -1   6  -4 6.29047 2.48605   1
  -1   6  -5 83.6738 6.73667   2
  -1   6  -5 83.9711 4.65489   1
   1  -6   5 89.4978 6.76343   2
   1  -6   5 89.2560 4.94230   1
  -1   6  -6 252.664 10.8908   2
   1  -6   6 250.807 11.0695   2
   1  -6   6 244.706 7.13489   1
  -1   6  -6 258.003 7.21445   1
  -1   6  -7 42.6676 2.97729   1
  -1   6  -7 47.1769 5.91445   2
   1  -6   7 44.4487 3.11862   1
   1  -6   7 42.8862 5.35696   2
   1  -6   8 33.0205 5.63060   2
  -1   6  -8 35.7169 5.64107   2
   1  -6   8 33.4383 2.35791   1
   1  -6   9 17.5462 1.23506   1
  -1   6  -9 17.4435 5.20694   2
   1  -6   9 16.8212 5.54230   2
  -1   6 -10 15.4438 5.07617   2
  -1   6 -11-1.91364 5.68205   2
  -1   6 -12 0.30313 6.03974   2
  -1   6 -13 42.2527 8.03377   2
  -1   6 -14 26.0879 9.07778   2
  -1   6 -15 5.17061 9.62551   2
  -1   6 -16 16.6418 6.76940   2
   1  -5 -12-10.6646 11.1160   1
  -1   5  12 2.82588 11.0375   1
   1  -5 -12 3.73358 8.71207   2
   1  -5 -11-6.02806 9.08034   1
   1  -5 -11-1.15325 7.36097   2
  -1   5  11 4.69270 8.91737   1
   1  -5 -10 70.9867 10.0459   1
   1  -5 -10 53.8589 7.97739   2
  -1   5  10 55.6589 9.55507   1
   1  -5  -9 36.8957 8.60016   1
  -1   5   9 40.5218 8.42852   1
   1  -5  -9 28.0632 6.48814   2
   1  -5  -8 13.4217 6.67205   1
  -1   5   8 23.3073 6.91404   1
   1  -5  -8 12.0630 5.17536   2
   1  -5  -7 11.9727 4.79341   1
  -1   5   7 9.38521 5.59254   1
   1  -5  -7 12.6409 4.61305   2
   1  -5  -6 7.67614 3.90673   2
   1  -5  -6 2.63836 4.90698   1
  -1   5   6 5.53182 4.13918   1
   1  -5  -5 8.14122 3.92669   2
  -1   5   5 5.92481 4.13026   1
   1  -5  -5 7.58470 3.70114   1
   1  -5  -4 55.5999 6.24271   1
  -1   5   4 51.9783 6.00542   1
   1  -5  -4 48.5614 5.19290   2
  -1   5   4 52.2396 5.32970   2
  -1   5   3-1.35885 3.12155   1
   1  -5  -3-0.09926 2.96492   2
  -1   5   3-0.26425 3.08294   2
   1  -5  -3-2.21896 2.96031   1
   1  -5  -2 117.417 7.45008   1
  -1   5   2 119.330 6.83529   2
   1  -5  -2 117.021 6.84887   2
  -1   5   2 119.101 7.37776   1
  -1   5   1 96.2865 6.27279   1
  -1   5   1 93.4513 6.12100   2
   1  -5  -1 91.5161 6.06849   1
   1  -5  -1 92.1757 6.01903   2
   1  -5   0 16.9749 3.38053   1
  -1   5   0 15.1933 3.38906   1
   1  -5   0 11.5110 3.18260   2
  -1   5   0 19.2367 3.57367   2
   1  -5   1 11.9326 2.94436   1
   1  -5   1 11.8313 2.94030   2
  -1   5  -1 10.2024 3.23127   2
  -1   5  -1 12.0474 2.83335   1
  -1   5  -2 15.2869 3.19019   2
   1  -5   2 15.5663 2.77948   1
   1  -5   2 12.1769 3.00565   2
  -1   5  -2 15.6286 2.76329   1
   1  -5   3 172.702 6.37737   1
  -1   5  -3 170.332 6.22388   1
  -1   5  -3 172.441 7.75953   2
   1  -5   3 164.284 7.70777   2
  -1   5  -4 93.0418 4.32681   1
   1  -5   4 96.0148 4.54139   1
   1  -5   4 97.7238 6.30805   2
  -1   5  -4 94.2038 6.18787   2
  -1   5  -5 79.1778 6.12849   2
  -1   5  -5 79.9725 3.72945   1
   1  -5   5 79.1458 6.09668   2
   1  -5   5 79.6986 3.78324   1
   1  -5   6 16.8431 3.84900   2
  -1   5  -6 19.0350 3.99778   2
   1  -5   6 16.5561 1.84485   1
  -1   5  -6 17.8648 1.86876   1
  -1   5  -7 2.65619 3.48280   2
   1  -5   7 1.49652 3.57065   2
   1  -5   7 0.16966 0.85721   1
  -1   5  -8 188.456 9.65483   2
   1  -5   8 203.000 9.99883   2
  -1   5  -9-5.23687 4.25308   2
  -1   5 -10 16.2475 5.04048   2
  -1   5 -11 120.035 9.35726   2
  -1   5 -12 32.4309 6.92483   2
  -1   5 -13 93.7518 9.99683   2
  -1   5 -14-2.63071 7.34828   2
  -1   5 -15 4.24255 8.46717   2
  -1   5 -16-5.46456 10.2270   2
   1  -4 -13-6.36743 9.79990   1
   1  -4 -13-2.52682 8.32515   2
  -1   4  13-0.08309 9.44040   1
  -1   4  12-5.33755 7.77684   1
   1  -4 -12 3.78521 6.89690   2
   1  -4 -12 8.18030 8.09879   1
   1  -4 -11 3.26039 5.94876   2
  -1   4  11 5.61122 6.74158   1
   1  -4 -11 8.92670 7.46542   1
   1  -4 -10 14.8589 5.78556   2
   1  -4 -10-3.89715 6.93161   1
  -1   4  10 9.63978 7.20144   1
   1  -4  -9 1.47097 4.52614   2
  -1   4   9 11.9273 5.94923   1
   1  -4  -9 6.27443 5.14848   1
   1  -4  -8 70.1877 7.98274   1
  -1   4   8 76.7294 8.20935   1
   1  -4  -8 66.1635 6.63407   2
   1  -4  -7 10.6482 4.74368   1
   1  -4  -7 10.8541 3.85705   2
  -1   4   7 20.4435 5.17644   1
   1  -4  -6 21.4693 4.01608   2
   1  -4  -6 28.7234 5.09328   1
  -1   4   6 21.6558 4.85688   1
   1  -4  -5 88.9174 6.02978   2
   1  -4  -5 97.4297 7.44076   1
  -1   4   5 93.5598 7.20873   1
  -1   4   4-1.15773 2.46724   2
  -1   4   4-3.29462 3.55227   1
   1  -4  -4 1.17008 2.44484   2
   1  -4  -4 1.06576 2.92118   1
  -1   4   3 532.792 14.0332   1
  -1   4   3 535.288 12.4388   2
   1  -4  -3 517.032 12.1735   2
   1  -4  -3 577.198 14.5191   1
   1  -4  -2 207.623 7.63212   2
  -1   4   2 198.763 7.49819   2
   1  -4  -2 186.685 8.05006   1
  -1   4   2 192.455 8.21538   1
  -1   4   1 108.757 5.53929   2
   1  -4  -1 104.426 5.39356   2
  -1   4   1 110.097 5.81178   1
   1  -4  -1 103.239 5.72416   1
   1  -4   0 55.4360 4.21259   1
  -1   4   0 52.5213 4.10485   1
  -1   4   0 61.9051 4.39778   2
   1  -4   0 56.5656 4.21083   2
   1  -4   1 110.363 5.39420   2
  -1   4  -1 107.875 5.42780   2
   1  -4   1 105.499 5.01536   1
  -1   4  -1 113.587 5.21943   1
  -1   4  -2 192.450 7.13795   2
  -1   4  -2 190.066 6.00735   1
   1  -4   2 181.898 7.06949   2
   1  -4   2 182.757 5.88168   1
  -1   4  -3 130.100 6.22572   2
   1  -4   3 129.378 6.20409   2
  -1   4  -3 124.154 4.42438   1
   1  -4   3 130.929 4.55866   1
   1  -4   4 55.1857 2.73487   1
   1  -4   4 53.3957 4.55800   2
  -1   4  -4 55.8087 2.73619   1
  -1   4  -4 58.4601 4.73707   2
  -1   4  -5 32.5278 1.82240   1
   1  -4   5 37.2322 4.19425   2
   1  -4   5 32.5201 1.81966   1
  -1   4  -5 31.6624 4.02477   2
  -1   4  -6 174.581 8.07978   2
   1  -4   6 163.347 7.81594   2
   1  -4   6 165.593 2.79323   1
   1  -4   6 173.100 2.78353   1
  -1   4  -7 16.4727 3.57305   2
   1  -4   7 20.1320 3.64682   2
  -1   4  -8 83.7351 6.56972   2
  -1   4  -9 8.99869 3.96807   2
  -1   4 -10 8.40100 4.20214   2
  -1   4 -11 40.9694 6.53887   2
  -1   4 -12 3.52520 5.35389   2
  -1   4 -13 9.09390 6.61700   2
  -1   4 -14-9.60894 7.75772   2
  -1   4 -15-13.9722 7.60088   2
  -1   4 -16 17.0668 9.89508   2
  -1   3  14-6.31040 9.19035   1
   1  -3 -14-1.01289 10.0209   1
   1  -3 -14 1.18086 8.07458   2
   1  -3 -13-3.36148 8.66366   1
   1  -3 -13 3.59447 6.95264   2
  -1   3  13 0.22347 8.32760   1
   1  -3 -12 5.00768 7.75601   1
   1  -3 -12 9.68257 6.11092   2
  -1   3  12 3.28204 7.37654   1
   1  -3 -11-1.56991 6.43048   1
   1  -3 -11-5.05743 4.72543   2
  -1   3  11 3.94046 6.04136   1
   1  -3 -10 12.0012 4.76206   2
   1  -3 -10 12.2541 5.46699   1
  -1   3  10 9.00638 5.84709   1
   1  -3  -9 59.0042 6.09627   2
   1  -3  -9 52.9314 7.39523   1
  -1   3   9 61.5324 7.59004   1
   1  -3  -8 8.70138 3.92026   1
  -1   3   8 14.5860 4.94272   1
   1  -3  -8 10.6657 3.55469   2
   1  -3  -7 1.44984 3.82290   1
   1  -3  -7 6.88177 3.09488   2
  -1   3   7 2.47475 3.10634   1
   1  -3  -6 12.0672 3.61709   1
   1  -3  -6 6.67747 2.77476   2
  -1   3   6 13.7430 4.04011   1
   1  -3  -5 213.445 9.32408   1
   1  -3  -5 215.961 7.80326   2
  -1   3   5 213.988 9.42344   1
  -1   3   4 151.193 6.24801   2
  -1   3   4 147.177 7.40221   1
   1  -3  -4 156.554 6.34373   2
   1  -3  -4 137.742 7.27434   1
  -1   3   3 84.0597 5.53520   1
   1  -3  -3 83.2708 4.51165   2
  -1   3   3 81.5462 4.53406   2
   1  -3  -3 90.8015 5.60912   1
  -1   3   2 43.1304 3.97109   1
  -1   3   2 36.8658 3.20684   2
   1  -3  -2 40.1144 3.72612   1
   1  -3  -2 36.3561 3.08128   2
   1  -3  -1 123.873 5.01877   2
  -1   3   1 120.802 4.97430   2
  -1   3   1 119.829 5.40392   1
   1  -3  -1 120.892 5.39858   1
  -1   3   0 103.508 4.63604   1
   1  -3   0 92.9769 4.39232   2
   1  -3   0 97.1049 4.51815   1
  -1   3   0 102.251 4.51989   2
  -1   3  -1 263.060 7.20517   2
  -1   3  -1 276.869 6.53875   1
   1  -3   1 279.989 6.55550   1
   1  -3   1 283.500 7.37224   2
  -1   3  -2 2281.01 21.1511   2
   1  -3   2 2211.87 20.9018   2
   1  -3   2 2194.77 15.8466   1
  -1   3  -2 2149.90 15.8438   1
   1  -3   3 35.2026 1.88839   1
  -1   3  -3 39.3487 1.95140   1
   1  -3   3 37.6046 3.52081   2
  -1   3  -3 40.0690 3.56108   2
   1  -3   4 105.445 5.55373   2
   1  -3   4 111.509 2.21192   1
  -1   3  -4 110.823 5.43056   2
  -1   3  -4 108.715 2.17844   1
  -1   3  -5 29.9341 3.65724   2
   1  -3   5 32.7297 3.89079   2
  -1   3  -6 38.9525 4.07779   2
  -1   3  -7 44.5325 4.83196   2
  -1   3  -8 61.6015 5.62973   2
   1  -3   9 80.6542 2.46421   1
   1  -3   9 84.3744 2.54522   1
  -1   3  -9 87.6146 7.04748   2
   1  -3  10 6.61519 1.26920   1
   1  -3  10 5.71442 1.26374   1
  -1   3 -10 4.91038 3.57274   2
   1  -3  11 110.013 3.94796   1
  -1   3 -11 125.355 9.01949   2
   1  -3  11 122.156 4.11948   1
  -1   3 -12 2.83785 5.45534   2
   1  -3  12-1.39019 1.74476   1
   1  -3  12-0.01382 1.68358   1
  -1   3 -13 6.95993 6.32944   2
   1  -3  13 0.46742 1.97397   1
   1  -3  14-0.85984 2.23586   1
   1  -3  14 2.22618 2.36799   1
  -1   3 -14-3.88033 6.43168   2
   1  -3  15 78.5507 4.54584   1
   1  -3  15 74.2631 4.30371   1
  -1   3 -15 75.1409 11.1627   2
  -1   3 -16-4.21736 9.64889   2
   1  -3  16-2.43096 2.34283   1
   1  -2 -14 12.6406 7.04613   2
   1  -2 -14 10.1294 8.28691   1
  -1   2  14-4.90654 8.29117   1
  -1   2  13 9.99673 6.92985   1
   1  -2 -13 3.51358 5.85664   2
   1  -2 -13 3.76193 7.68572   1
   1  -2 -12 0.74846 4.96832   2
  -1   2  12-2.77461 6.10363   1
   1  -2 -12 2.30178 6.21842   1
   1  -2 -11 20.8891 5.02764   2
   1  -2 -11 15.9518 5.60209   1
  -1   2  11 22.7043 6.02191   1
   1  -2 -10 27.1416 4.79928   2
   1  -2 -10 38.2169 6.43234   1
  -1   2  10 36.3655 6.34204   1
  -1   2   9 128.731 8.81836   1
   1  -2  -9 139.411 9.29344   1
   1  -2  -9 148.514 7.83795   2
   1  -2  -8 23.6011 4.49806   1
  -1   2   8 23.0232 4.39014   1
   1  -2  -8 18.2106 3.56102   2
   1  -2  -7 53.7086 4.38801   2
   1  -2  -7 45.0714 5.05633   1
  -1   2   7 49.6038 5.13719   1
  -1   2   6 30.9618 3.91756   1
   1  -2  -6 28.3975 4.01623   1
   1  -2  -6 29.2906 3.28183   2
   1  -2  -5 727.716 15.3653   1
   1  -2  -5 720.977 12.1040   2
  -1   2   5 723.174 15.0476   1
   1  -2  -4 131.391 4.94515   2
   1  -2  -4 140.243 6.65375   1
  -1   2   4 133.647 6.43309   1
   1  -2  -3 238.413 6.00508   2
  -1   2   3 247.606 6.11132   2
   1  -2  -3 242.004 7.82143   1
  -1   2   3 237.364 7.55964   1
   1  -2  -2 2365.76 17.3348   2
   1  -2  -2 2473.79 22.2698   1
  -1   2   2 2394.32 21.6828   1
  -1   2   2 2386.59 17.3861   2
   1  -2  -1 1007.87 10.9304   2
   1  -2  -1 1019.96 12.9980   1
  -1   2   1 1059.80 11.2029   2
  -1   2   1 1010.18 12.8671   1
  -1   2   0 809.382 9.99043   2
   1  -2   0 808.754 10.3071   1
  -1   2   0 802.068 10.1576   1
   1  -2   1 390.629 6.20525   1
  -1   2  -1 415.883 7.60775   2
   1  -2   1 416.203 7.59622   2
  -1   2  -1 427.513 6.37345   1
  -1   2  -2 1112.61 13.2854   2
   1  -2   2 1130.39 13.4584   2
   1  -2   2 1150.32 8.37025   1
  -1   2  -2 1115.38 8.11482   1
   1  -2   3 693.042 11.5568   2
  -1   2  -3 702.871 11.5294   2
  -1   2  -4 682.288 12.3648   2
  -1   2  -5 7.82316 2.64635   2
   1  -2   6 1.65008 0.57098   1
  -1   2  -6 0.27273 2.57163   2
   1  -2   6 2.48439 0.57857   1
   1  -2   7 14.7298 1.38525   1
  -1   2  -7 17.1681 1.52596   1
  -1   2  -7 14.0807 3.59205   2
  -1   2  -8 280.484 10.6026   2
  -1   2  -8 277.466 5.99126   1
   1  -2   8 271.237 5.74797   1
  -1   2  -9 1.66570 3.39272   2
   1  -2   9 1.83616 1.57101   1
  -1   2  -9 0.66728 1.57811   1
  -1   2 -10 3.49981 3.99658   2
  -1   2 -10 5.31542 2.25142   1
   1  -2  10 7.00687 2.10079   1
  -1   2 -11 11.1463 5.06266   2
  -1   2 -11 20.9607 3.26937   1
   1  -2  11 12.8807 2.71705   1
  -1   2 -12 61.0444 7.61866   2
   1  -2  12 56.7184 4.46559   1
  -1   2 -13 18.6142 6.37272   2
   1  -2  13 16.5888 3.62257   1
   1  -2  13 17.4837 3.80579   1
   1  -2  14 10.2732 4.08816   1
  -1   2 -14 2.12735 7.33281   2
   1  -2  14 7.64460 3.83322   1
  -1   2 -15 6.48496 8.00813   2
   1  -2  15 5.82620 4.37687   1
   1  -2  15 7.02223 4.13297   1
  -1   2 -16-3.02252 8.00665   2
   1  -1 -15 10.4013 9.69142   1
   1  -1 -15 7.90838 7.51513   2
   1  -1 -15 3.92526 8.02153   2
  -1   1  15 13.6679 8.59025   1
   1  -1 -14 26.3367 8.42705   1
   1  -1 -14 33.5802 7.64496   2
   1  -1 -14 11.4565 6.74305   2
  -1   1  14 27.9937 8.45880   1
   1  -1 -13 4.45419 5.28065   2
   1  -1 -13 3.48433 6.37027   1
   1  -1 -13-10.1817 5.71728   2
  -1   1  13-4.12473 5.87265   1
   1  -1 -12 15.6581 5.13115   2
   1  -1 -12 17.8440 5.77542   1
  -1   1  12 18.4315 5.74587   1
   1  -1 -11 24.9746 4.90347   2
  -1   1  11 19.3049 5.50900   1
   1  -1 -11 22.6454 5.69559   1
   1  -1 -10 7.25859 4.28687   1
  -1   1  10 9.61597 4.48955   1
   1  -1 -10 7.86103 3.53842   2
   1  -1  -9 13.7248 3.36552   2
   1  -1  -9 10.9140 4.05370   1
  -1   1   9 13.9241 4.23397   1
   1  -1  -8 19.7303 3.95920   1
  -1   1   8 17.5540 3.95445   1
   1  -1  -8 24.2020 3.41331   2
  -1   1   7 250.101 9.57806   1
   1  -1  -7 252.382 7.80716   2
   1  -1  -7 268.784 10.1814   1
  -1   1   6 1.02570 2.43456   1
   1  -1  -6 9.16319 2.09209   2
   1  -1  -6 4.32602 2.58117   1
   1  -1  -5 199.057 5.61191   2
   1  -1  -5 199.778 7.65266   1
  -1   1   5 185.994 7.28824   1
   1  -1  -4 124.699 5.77245   1
  -1   1   4 132.582 5.78576   1
   1  -1  -4 129.697 4.02117   2
   1  -1  -3 204.320 6.47059   1
  -1   1   3 184.504 6.16103   1
   1  -1  -3 199.065 4.17944   2
   1  -1  -2 931.433 12.3715   1
  -1   1   2 942.848 12.2600   1
  -1   1   2 989.573 7.86053   2
   1  -1  -2 982.003 7.84914   2
   1  -1  -1 1860.51 10.4416   2
   1  -1  -1 1832.34 15.3467   1
  -1   1   1 1831.39 15.2021   1
  -1   1   1 1842.61 10.4682   2
   1  -1   0 3.19940 1.22119   1
   1  -1   0 3.89732 1.07926   2
  -1   1   0 4.43826 1.29873   1
  -1   1   0 3.36996 1.02514   2
  -1   1  -1 121.778 2.93987   1
  -1   1  -1 121.729 3.77891   2
   1  -1   1 122.651 3.79686   2
  -1   1  -1 126.626 2.87296   1
  -1   1  -2 69.8366 3.31285   2
   1  -1   2 69.1654 1.74838   1
  -1   1  -2 69.8761 1.74378   1
   1  -1   3 0.77361 0.50622   1
  -1   1  -3 0.34706 0.48783   1
  -1   1  -4 14.2829 1.12889   1
   1  -1   4 15.7941 1.16218   1
  -1   1  -5 649.679 7.63005   1
   1  -1   5 647.214 7.58824   1
   1  -1   6 370.932 6.77017   1
  -1   1  -6 371.646 6.83838   1
   1  -1   7 117.939 4.49486   1
  -1   1  -7 117.658 4.54672   1
   1  -1   8 2.06247 1.74903   1
  -1   1  -8 3.69800 1.84817   1
  -1   1  -9 71.9002 6.63569   2
   1  -1   9 72.2015 4.48200   1
  -1   1  -9 75.8592 4.59493   1
   1  -1  10 1.07389 2.49179   1
  -1   1 -10-1.89794 2.45829   1
  -1   1 -10-1.15119 3.55314   2
  -1   1 -11 33.7547 4.29317   1
  -1   1 -11 38.0604 6.80685   2
   1  -1  11 32.0371 4.05893   1
  -1   1 -12 8.86845 5.17992   2
   1  -1  12 5.11023 3.34391   1
  -1   1 -12 6.37188 3.60300   1
  -1   1 -13 60.3657 8.28821   2
  -1   1 -13 74.4858 6.69353   1
   1  -1  13 70.8262 6.21240   1
   1  -1  14 7.11197 4.80992   1
  -1   1 -14-0.95454 7.03075   2
  -1   1 -14 7.32079 5.22054   1
   1  -1  15 23.2847 5.83078   1
  -1   1 -15 18.8728 8.83047   2
  -1   1 -15 13.6115 6.02082   1
   1   0 -16 8.68151 5.59571   2
   1   0 -16 13.7516 5.78187   2
   1   0 -16 14.3772 7.28231   1
  -1   0  16 29.4737 7.58354   1
   1   0 -15 1.50993 7.00780   2
  -1   0  15-1.00306 7.09856   1
   1   0 -15 4.59127 7.24684   2
   1   0 -15 0.54485 7.87586   1
   1   0 -14 3.97634 6.95076   1
  -1   0  14 11.0635 6.47684   1
   1   0 -14 1.75766 5.48168   2
   1   0 -14-1.33854 5.93948   2
  -1   0  13 8.15064 5.46418   1
   1   0 -13 16.7600 5.29868   2
   1   0 -13 17.7722 6.50413   1
  -1   0  12 31.8934 5.98339   1
   1   0 -12 22.7751 4.96698   2
   1   0 -12 23.7664 5.93764   1
   1   0 -11 267.221 10.5136   2
   1   0 -11 286.131 12.5788   1
  -1   0  11 259.199 11.5623   1
   1   0 -10 19.2912 3.80578   2
  -1   0  10 19.4340 4.58919   1
   1   0 -10 19.6486 4.73151   1
  -1   0   9-1.22525 2.74382   1
   1   0  -9 7.05679 3.46893   1
   1   0  -8 56.1614 5.33447   1
  -1   0   8 54.9309 4.88186   1
   1   0  -7-2.62279 2.68646   1
  -1   0   7 1.82299 2.38302   1
   1   0  -6 76.7945 5.10742   1
  -1   0   6 76.7015 4.97920   1
  -1   0   5 31.8284 3.34145   1
   1   0  -5 36.0664 3.56071   1
   1   0  -4 508.505 10.2195   1
  -1   0   4 517.844 10.2678   1
   1   0  -3 636.963 10.4800   1
  -1   0   3 666.354 10.6835   1
   1   0  -2 96.1380 3.92673   1
  -1   0   2 93.1416 3.90721   1
  -1   0   1 27.6688 2.34235   1
  -1   0   1 30.0091 2.23698   1
   1   0   0 1461.79 11.3445   1
  -1   0   0 1513.23 11.4075   1
   1   0   1 5.06881 1.13554   1
  -1   0  -1 2.99782 1.03612   1
  -1   0  -2 295.788 5.10848   1
   1   0   2 301.898 5.18098   1
  -1   0  -3 12.2341 1.56452   1
   1   0   3 10.9167 1.45127   1
  -1   0  -4 666.066 9.30487   1
   1   0   4 674.784 9.31672   1
   1   0   5 13.3743 2.04493   1
  -1   0  -5 15.5952 2.10495   1
  -1   0  -6 24.4382 2.65230   1
   1   0   6 24.0439 2.70248   1
   1   0   7 86.4496 4.73053   1
  -1   0  -7 88.5632 4.76278   1
   1   0   8 9.39959 2.67619   1
  -1   0  -8 8.80730 2.67893   1
  -1   0  -9 18.0530 3.46574   1
   1   0   9 16.2131 3.27830   1
  -1   0 -10 57.9989 5.36069   1
   1   0  10 61.9442 5.33784   1
   1   0  11 34.0680 4.96858   1
  -1   0 -11 29.1041 4.88886   1
   1   0  12 65.8057 6.58159   1
  -1   0 -12 62.7701 6.67993   1
  -1   0 -13 46.6948 8.78556   2
   1   0  13 42.8386 6.18470   1
  -1   0 -13 55.8027 6.92679   1
   1   0  14 11.7710 5.69377   1
  -1   0 -14 6.48274 6.10172   1
  -1   0 -14 5.30928 7.53717   2
   1   0  15 4.67898 7.11633   1
  -1   0 -15 14.2101 10.7688   2
  -1   0 -15 11.9295 7.44730   1
   1   1 -16 4.24837 7.37558   2
  -1  -1  16 1.83411 8.23027   1
  -1  -1  16 13.7295 8.38127   1
  -1  -1  15-7.31431 6.34691   1
   1   1 -15-5.90042 6.03727   2
  -1  -1  15 5.87088 6.79130   1
   1   1 -14 45.8847 6.75128   2
  -1  -1  14 32.9424 6.80902   1
   1   1 -13 5.33406 5.40716   1
  -1  -1  13 3.32096 4.71001   1
   1   1 -13-6.26068 4.78267   2
   1   1 -12 75.8549 7.60017   1
   1   1 -12 74.2360 6.59850   2
  -1  -1  12 67.7287 6.85770   1
   1   1 -11 39.8241 5.68767   1
  -1  -1  11 35.3950 5.19650   1
   1   1 -11 31.0292 4.58298   2
   1   1 -10 39.6385 4.39221   2
   1   1 -10 44.1883 5.42529   1
  -1  -1  10 35.4415 4.72214   1
  -1  -1   9-1.52062 2.82757   1
   1   1  -9 5.08392 3.06679   1
   1   1  -9 0.76249 2.24632   2
   1   1  -8 25.9388 3.08595   2
   1   1  -8 25.0673 3.79455   1
  -1  -1   8 26.9001 3.60412   1
   1   1  -7 35.0234 3.01626   2
   1   1  -7 35.3398 3.81513   1
  -1  -1   7 33.6781 3.70969   1
   1   1  -6 154.505 6.63960   1
  -1  -1   6 141.916 6.18492   1
   1   1  -6 146.268 4.81394   2
  -1  -1   5 639.025 11.8104   1
   1   1  -5 647.750 8.56841   2
  -1  -1   4 3292.78 24.6763   1
  -1  -1   4 3171.10 16.3466   2
   1   1  -4 3232.72 16.2173   2
  -1  -1   4 3161.70 23.6375   1
  -1  -1   3 3960.49 24.4944   1
  -1  -1   3 3947.91 15.4988   2
  -1  -1   3 3901.51 25.6544   1
   1   1  -3 3952.79 15.6235   2
  -1  -1   2 0.05054 0.72897   2
   1   1  -2 0.06781 0.79990   2
  -1  -1   2 0.24518 1.07198   1
   1   1  -2-1.50612 1.41131   1
   1   1  -1 4.78256 1.15899   2
   1   1  -1 4.41610 1.43935   1
  -1  -1   1 3.03409 1.56357   1
  -1  -1   1 5.82042 1.18254   2
  -1  -1   0 50.7220 2.63396   2
  -1  -1   0 45.1976 2.74280   1
   1   1   0 46.0902 2.65906   1
   1   1   1 245.892 5.80017   1
  -1  -1  -1 248.565 5.79485   1
  -1  -1  -2 362.803 7.37553   1
   1   1   2 370.685 7.39267   1
   1   1   3 14.4644 2.16684   1
  -1  -1  -3 12.6313 2.11787   1
  -1  -1  -4 552.789 10.4831   1
   1   1   4 517.018 10.1312   1
  -1  -1  -5 23.6644 2.98112   1
   1   1   5 27.5141 3.05587   1
   1   1   6 110.775 5.74080   1
  -1  -1  -6 103.178 5.52916   1
  -1  -1  -7 13.1318 3.00627   1
   1   1   7 14.8746 3.09652   1
  -1  -1  -8 100.396 6.31074   1
   1   1   8 114.276 6.66797   1
  -1  -1  -9 37.8282 4.90876   1
   1   1   9 44.6906 5.11713   1
   1   1  10 51.9424 5.62430   1
  -1  -1 -10 53.2047 5.80366   1
  -1  -1 -11 8.45192 4.34951   1
   1   1  11 8.08928 4.31651   1
   1   1  12-1.55145 4.84596   1
  -1  -1 -12 1.14199 4.95041   1
  -1  -1 -13 19.9502 7.03724   1
   1   1  13 22.6579 6.46321   1
  -1  -1 -14 0.68338 7.14412   1
   1   1  14-3.20636 6.99123   1
  -1  -1 -14-9.02596 9.85409   2
  -1  -2  16-10.3744 7.99790   1
   1   2 -16 7.01459 6.96712   2
  -1  -2  16-3.51530 7.62053   1
  -1  -2  15 1.96643 6.08571   1
   1   2 -15-8.92038 6.78563   2
  -1  -2  15 1.18515 5.99897   1
   1   2 -14 10.3345 5.27949   2
  -1  -2  14 0.90652 4.93602   1
  -1  -2  14 3.91905 5.23281   1
  -1  -2  13 2.63838 4.31178   1
   1   2 -13 6.24500 4.18834   2
  -1  -2  13 2.97751 4.22479   1
  -1  -2  12 2.05095 3.83477   1
  -1  -2  12-4.59801 3.89935   1
   1   2 -12-2.12754 3.66278   2
  -1  -2  11 4.31919 3.50069   1
   1   2 -11-2.33809 3.04915   2
  -1  -2  11 5.54470 3.57129   1
  -1  -2  10 7.68322 3.29060   1
   1   2 -10 7.21223 2.98850   2
  -1  -2  10 3.54136 3.08180   1
  -1  -2   9 4.97594 2.83231   1
  -1  -2   9 4.89304 2.76337   1
   1   2  -9 4.47724 2.37331   2
  -1  -2   8 1.25256 2.45587   1
   1   2  -8 2.97320 2.23879   2
  -1  -2   8-2.56495 2.40803   1
   1   2  -7 60.4635 3.79859   2
  -1  -2   7 68.0284 4.73001   1
  -1  -2   7 62.0874 4.43586   1
  -1  -2   6 130.628 4.97035   2
  -1  -2   6 117.528 5.62812   1
   1   2  -6 126.345 4.77314   2
  -1  -2   6 127.078 5.64947   1
   1   2  -5 54.7411 3.04366   2
  -1  -2   5 53.6515 3.70425   1
  -1  -2   5 67.1199 4.18135   1
  -1  -2   5 61.0563 3.22876   2
  -1  -2   4 146.165 5.35618   1
   1   2  -4 143.314 4.39787   2
  -1  -2   4 144.151 4.37318   2
   1   2  -4 141.505 5.35896   1
   1   2  -3 186.936 5.84107   1
  -1  -2   3 187.681 4.83668   2
   1   2  -3 188.657 4.90285   2
  -1  -2   3 183.918 5.73214   1
  -1  -2   2 6.86983 1.96870   1
  -1  -2   2 4.87630 1.53948   2
   1   2  -2 6.28088 1.49319   2
   1   2  -2 6.00255 1.67622   1
  -1  -2   1 321.901 7.40972   1
   1   2  -1 321.774 6.78801   2
  -1  -2   1 325.642 6.84547   2
   1   2  -1 324.031 7.46943   1
  -1  -2   0 3.10578 1.74408   1
  -1  -2   0 3.57882 1.80382   2
   1   2   0-0.33297 1.71818   2
   1   2   0-0.16190 1.77353   1
  -1  -2  -1 1339.99 16.0643   2
  -1  -2  -1 1330.03 15.8421   1
   1   2   1 1300.44 15.6149   1
  -1  -2  -2 2848.62 24.4543   1
  -1  -2  -2 2851.59 25.2498   2
   1   2   2 2765.25 24.0325   1
  -1  -2  -3 693.590 13.6311   2
  -1  -2  -3 701.767 13.0420   1
   1   2   3 699.030 12.9025   1
  -1  -2  -4 28.7179 3.30507   1
   1   2   4 30.9825 3.35589   1
  -1  -2  -4 30.1818 3.96944   2
   1   2   5 7.56518 2.72475   1
  -1  -2  -5 13.2940 3.05738   1
  -1  -2  -5 9.11174 3.24271   2
  -1  -2  -6-0.85203 2.59509   1
   1   2   6 5.91882 2.84384   1
  -1  -2  -7 16.7348 3.77464   1
   1   2   7 24.2656 4.00831   1
   1   2   8 16.2423 4.03001   1
  -1  -2  -8 9.10765 4.54563   2
  -1  -2  -8 18.3328 4.22191   1
   1   2   9 63.5273 6.27360   1
  -1  -2  -9 57.8393 7.00843   2
  -1  -2  -9 54.5135 6.02738   1
  -1  -2 -10 3.31839 4.39228   1
  -1  -2 -10 1.44534 5.17759   2
   1   2  10 4.03753 4.35975   1
  -1  -2 -11 5.39943 6.80128   2
  -1  -2 -11-3.27703 4.88449   1
   1   2  11-5.05060 4.95668   1
   1   2  12 11.4184 6.19180   1
  -1  -2 -12 3.93905 6.07673   1
  -1  -2 -12 4.04249 6.81361   2
  -1  -2 -13 16.5312 7.47556   1
   1   2  13-9.42783 6.94136   1
  -1  -2 -13-7.44128 9.44771   2
  -1  -2 -14-5.30372 8.72845   1
   1   2  14 1.49846 7.93538   1
  -1  -2 -14 1.92711 9.98219   2
   1   3 -16 8.91981 7.12248   2
  -1  -3  16-9.39205 7.01107   1
  -1  -3  16 3.64416 6.18446   1
  -1  -3  15 10.5201 5.75422   1
  -1  -3  15 8.02519 5.57308   1
   1   3 -15 6.38219 5.96310   2
  -1  -3  14 4.27029 4.68632   1
  -1  -3  14 1.73988 4.79041   1
   1   3 -14-6.76737 4.99144   2
  -1  -3  13 9.87659 4.24096   1
   1   3 -13 4.24556 4.18835   2
  -1  -3  13 13.2283 4.66951   1
  -1  -3  12 8.60311 3.90362   1
   1   3 -12 7.63997 4.04335   2
  -1  -3  12 12.5703 3.99985   1
  -1  -3  11 96.3185 6.64638   1
   1   3 -11 98.0690 6.73955   2
  -1  -3  11 109.923 7.15001   1
   1   3 -10 2.06402 2.87251   2
  -1  -3  10-1.95291 2.86388   1
  -1  -3  10 1.16296 2.82810   1
  -1  -3   9 239.130 8.77068   1
   1   3  -9 261.938 8.98258   2
  -1  -3   9 277.253 9.72302   1
   1   3  -8 14.5410 2.93975   2
  -1  -3   8 18.9021 3.25634   1
  -1  -3   8 17.8208 3.10594   1
  -1  -3   7 5.44931 2.28457   1
  -1  -3   7 5.47700 2.32035   2
   1   3  -7 7.94974 2.27969   2
  -1  -3   7 10.7244 2.68788   1
  -1  -3   6 63.7992 4.02540   2
  -1  -3   6 52.0619 3.94620   1
   1   3  -6 53.8518 3.73529   2
   1   3  -6 58.4095 4.15135   1
  -1  -3   5 234.920 7.39736   1
   1   3  -5 251.498 7.08539   2
   1   3  -5 256.536 7.67199   1
  -1  -3   5 248.870 7.00270   2
  -1  -3   4 209.164 6.90794   1
  -1  -3   4 220.725 6.43208   2
   1   3  -4 208.066 6.40173   2
   1   3  -4 223.411 7.03633   1
   1   3  -3 383.874 9.09508   1
  -1  -3   3 383.693 8.46119   2
   1   3  -3 385.141 8.45971   2
  -1  -3   3 374.789 9.04320   1
  -1  -3   2 530.127 10.5891   1
  -1  -3   2 488.456 9.78325   2
   1   3  -2 513.132 9.99731   2
   1   3  -2 507.230 10.5150   1
   1   3  -1 6.24284 2.22708   2
  -1  -3   1 10.8505 2.50867   1
   1   3  -1 9.75438 2.44012   1
  -1  -3   1 10.6003 2.42458   2
  -1  -3   0 1047.01 15.3839   2
  -1  -3   0 1078.69 15.9398   1
   1   3   0 1082.35 15.8942   1
   1   3   0 1021.21 15.2902   2
  -1  -3  -1 253.726 8.30362   1
   1   3   1 245.762 8.17399   2
   1   3   1 258.489 8.20648   1
  -1  -3  -1 251.233 8.24193   2
  -1  -3  -2 4.61393 2.11858   1
   1   3   2 5.05049 2.58299   1
  -1  -3  -2 1.04405 2.54091   2
  -1  -3  -3 8.68487 2.81558   2
   1   3   3 6.33427 2.57025   1
  -1  -3  -3 11.5298 3.04283   1
  -1  -3  -4 30.9249 4.43274   2
   1   3   4 22.0114 3.72246   1
  -1  -3  -4 25.2148 3.71549   1
   1   3   5 68.7393 5.76204   1
  -1  -3  -5 70.3945 6.06268   2
  -1  -3  -5 69.8534 5.97048   1
  -1  -3  -6 442.443 14.2363   2
   1   3   6 415.445 13.3058   1
  -1  -3  -6 424.534 13.3945   1
   1   3   7 12.1952 3.95281   1
  -1  -3  -7 14.9713 4.16261   1
  -1  -3  -7 12.3343 4.71612   2
  -1  -3  -8 419.465 15.7646   2
   1   3   8 431.403 14.9461   1
  -1  -3  -8 403.499 14.5846   1
  -1  -3  -9 26.1084 6.14568   2
   1   3   9 18.4042 5.56390   1
  -1  -3  -9 23.3563 5.58514   1
  -1  -3 -10 18.7860 6.79143   2
   1   3  10 32.2803 6.76446   1
  -1  -3 -10 30.4789 6.78684   1
  -1  -3 -11 0.17765 6.59535   1
   1   3  11 4.69799 6.31850   1
  -1  -3 -11 5.87000 7.25619   2
  -1  -3 -12-2.84671 8.34831   2
  -1  -3 -12-1.24222 7.03312   1
   1   3  12-4.81826 6.92817   1
  -1  -3 -13-0.79570 9.13907   2
   1   3  13 12.7885 8.61828   1
  -1  -3 -13 20.2361 9.57046   1
  -1  -4  16 15.6943 6.29073   1
   1   4 -16 3.98982 7.32040   2
  -1  -4  16 0.18437 6.06730   1
  -1  -4  15 11.2754 5.77775   1
   1   4 -15-4.66101 5.82887   2
  -1  -4  15 4.02403 5.31558   1
  -1  -4  14 15.7920 5.27069   1
   1   4 -14 18.5564 5.83400   2
  -1  -4  14 19.1475 5.04724   1
   1   4 -13 8.66502 4.48245   2
  -1  -4  13 13.4770 4.45442   1
  -1  -4  13 12.8549 4.29696   1
  -1  -4  12 7.67129 3.96666   1
   1   4 -12 13.5572 4.53380   2
  -1  -4  12 9.10322 3.88491   1
   1   4 -11 81.7759 6.57778   2
  -1  -4  11 67.9273 5.77604   1
  -1  -4  11 79.3582 6.35226   1
  -1  -4  10 36.3362 4.60746   1
   1   4 -10 30.9879 4.47791   2
  -1  -4  10 39.3040 4.42375   1
   1   4  -9 77.9028 5.64817   2
  -1  -4   9 68.7274 5.16521   1
  -1  -4   9 70.3104 5.57497   2
  -1  -4   9 70.7019 5.44954   1
  -1  -4   8 75.7849 5.17277   1
   1   4  -8 71.9143 5.22504   2
  -1  -4   8 81.2579 5.47010   2
  -1  -4   8 77.1951 5.46311   1
  -1  -4   7 141.881 6.61285   2
  -1  -4   7 136.530 6.49799   1
   1   4  -7 141.470 6.65701   2
   1   4  -7 138.926 6.56840   1
   1   4  -6 39.5657 3.86939   2
  -1  -4   6 32.1292 3.55939   2
  -1  -4   6 38.2707 3.81213   1
   1   4  -6 32.7728 3.53678   1
   1   4  -5 26.7802 3.22318   2
   1   4  -5 28.7753 3.37102   1
  -1  -4   5 24.5886 3.22297   2
  -1  -4   5 28.6643 3.41961   1
   1   4  -4 4.98437 2.38041   2
  -1  -4   4 4.86313 2.22122   2
   1   4  -4 5.61862 2.13192   1
  -1  -4   4 5.17413 2.33494   1
  -1  -4   3 51.4594 4.07452   2
   1   4  -3 49.2007 4.08613   2
  -1  -4   3 46.7942 3.81664   1
   1   4  -3 52.2582 4.25939   1
   1   4  -2 708.204 13.6678   2
  -1  -4   2 719.431 13.9878   1
   1   4  -2 713.507 14.0371   1
  -1  -4   2 717.483 13.7114   2
  -1  -4   1 13.5813 2.95234   1
  -1  -4   1 9.86723 2.58040   2
   1   4  -1 8.88984 2.82658   2
   1   4  -1 14.2954 3.09791   1
   1   4   0 50.9029 4.54055   2
  -1  -4   0 44.1096 4.40475   1
   1   4   0 45.8908 4.15048   1
  -1  -4   0 49.9367 4.30874   2
  -1  -4  -1 19.7746 3.45289   1
   1   4   1 20.2412 3.69606   2
  -1  -4  -1 14.5896 3.44470   2
   1   4   1 20.4687 3.64191   1
   1   4   2-2.39564 2.66885   1
  -1  -4  -2-2.22197 3.13515   2
  -1  -4  -2-0.03295 2.89330   1
   1   4   3 16.8281 3.63649   1
  -1  -4  -3 10.5301 3.24642   2
  -1  -4  -3 8.59509 3.35673   1
   1   4   4-3.95327 3.09337   1
  -1  -4  -4 5.85005 3.80444   2
  -1  -4  -4-4.22278 3.50867   1
  -1  -4  -5 182.130 9.71420   1
   1   4   5 178.294 9.47522   1
  -1  -4  -5 182.747 9.58704   2
   1   4   6 24.4956 4.80947   1
  -1  -4  -6 19.6651 4.51924   1
  -1  -4  -6 27.0965 5.37899   2
  -1  -4  -7 1.84717 4.28149   2
  -1  -4  -7 13.0265 5.02378   1
   1   4   7 14.5513 4.89328   1
  -1  -4  -8 2.64254 4.71651   2
   1   4   8 6.20135 5.02955   1
  -1  -4  -8 2.77602 4.97093   1
   1   4   9-0.28729 5.56331   1
  -1  -4  -9 14.5807 6.03035   1
  -1  -4  -9 5.29065 5.63292   2
  -1  -4 -10-1.07512 7.26573   2
  -1  -4 -10 3.02378 6.62457   1
   1   4  10-3.29167 6.41321   1
  -1  -4 -11-0.41168 7.33080   1
   1   4  11 4.82236 7.29731   1
  -1  -4 -11-8.77883 7.83137   2
   1   4  12 6.69644 9.29291   1
  -1  -4 -12-12.2988 8.95896   1
  -1  -4 -12-6.99165 8.69255   2
  -1  -5  16 1.81247 5.92010   1
  -1  -5  16-2.43993 6.30099   1
   1   5 -16-9.15779 8.09886   2
  -1  -5  15-1.65622 5.23589   1
  -1  -5  15 3.17338 5.17908   1
   1   5 -15 7.99237 6.65458   2
  -1  -5  14 13.7405 4.75888   1
  -1  -5  14 6.43025 4.38165   1
   1   5 -14 13.5634 5.91680   2
  -1  -5  13 62.4623 6.41924   1
   1   5 -13 77.6640 7.84586   2
  -1  -5  13 71.2092 6.64246   1
   1   5 -12 27.5671 5.51425   2
  -1  -5  12 14.8851 4.23904   1
  -1  -5  12 22.3202 4.81670   1
   1   5 -11 75.4142 6.71991   2
  -1  -5  11 73.4546 6.38157   1
  -1  -5  11 78.6665 6.17998   1
  -1  -5  10 106.826 6.91558   1
  -1  -5  10 107.241 7.37468   2
  -1  -5  10 98.8943 6.47980   1
   1   5 -10 90.4004 6.91002   2
  -1  -5   9 3.08633 2.90921   1
  -1  -5   9 1.73613 3.12787   2
   1   5  -9 6.68929 3.42646   2
  -1  -5   9-3.02874 3.09595   1
   1   5  -8 75.2099 5.83102   2
  -1  -5   8 75.6824 5.98245   2
   1   5  -8 76.0967 5.52426   1
  -1  -5   8 80.7680 5.68312   1
   1   5  -7 20.0339 3.65060   2
  -1  -5   7 23.8402 3.91955   2
   1   5  -7 27.0773 3.75152   1
  -1  -5   7 27.2787 3.78593   1
  -1  -5   6 85.3759 5.82828   2
   1   5  -6 83.4085 5.69576   2
   1   5  -6 85.8765 5.56166   1
  -1  -5   6 81.2645 5.41293   1
  -1  -5   5 69.8764 5.05419   1
   1   5  -5 70.8859 5.38595   2
   1   5  -5 68.9548 5.19574   1
  -1  -5   5 76.4124 5.27409   2
   1   5  -4 5.03674 2.41210   2
  -1  -5   4-0.20400 2.56972   2
   1   5  -4 6.69455 2.85380   1
  -1  -5   4 1.48618 2.15167   1
   1   5  -3 312.798 10.3406   2
   1   5  -3 345.015 10.8238   1
  -1  -5   3 341.803 10.6864   1
  -1  -5   3 340.117 10.5994   2
  -1  -5   2 25.1519 3.84788   2
   1   5  -2 25.2963 3.88289   1
   1   5  -2 23.6877 3.62994   2
  -1  -5   2 23.8256 3.84104   1
  -1  -5   1 1.89554 2.48539   1
  -1  -5   1 8.28166 3.38840   2
   1   5  -1 5.09638 3.14504   2
   1   5  -1 9.46820 2.99984   1
   1   5   0 2.63901 3.08529   1
   1   5   0 3.03367 3.27734   2
  -1  -5   0 6.07524 2.62137   2
  -1  -5   0 3.09588 2.72772   1
  -1  -5  -1 94.9273 6.86467   2
  -1  -5  -1 101.347 6.99886   1
   1   5   1 112.865 7.26230   1
   1   5   1 108.962 7.31358   2
  -1  -5  -2 410.249 13.5314   1
  -1  -5  -2 402.051 13.4038   2
   1   5   2 396.472 13.1764   1
   1   5   2 413.649 13.5400   2
  -1  -5  -3 71.5652 6.72586   2
  -1  -5  -3 80.9911 7.03422   1
   1   5   3 74.5623 6.81421   1
  -1  -5  -4 182.117 10.3345   2
   1   5   4 180.275 10.0955   1
  -1  -5  -4 170.330 10.0067   1
  -1  -5  -5 34.5271 6.19539   2
  -1  -5  -5 22.7018 5.69213   1
   1   5   5 43.8708 6.17702   1
  -1  -5  -6 9.14996 5.42529   2
   1   5   6 7.27107 5.06186   1
  -1  -5  -6 6.52010 4.51549   1
  -1  -5  -7 3.50838 5.42285   2
  -1  -5  -7 2.13238 4.59741   1
   1   5   7 5.38269 5.46665   1
  -1  -5  -8 9.33464 6.90822   2
   1   5   8-6.36139 6.23002   1
  -1  -5  -8-0.56118 5.45351   1
  -1  -5  -9 37.4384 9.04908   2
  -1  -5  -9 35.7378 7.82335   1
   1   5   9 20.2915 7.08005   1
  -1  -5 -10 5.23658 8.60289   2
  -1  -5 -10 5.81820 7.45159   1
   1   5  10 11.3822 8.80819   1
   1   5  11 67.8309 11.3873   1
  -1  -5 -11 38.6170 11.2914   1
   1   6 -16 4.18842 8.48587   2
  -1  -6  16 9.43902 6.25363   1
  -1  -6  16 3.63866 5.89430   1
   1   6 -15 8.71167 6.90408   2
  -1  -6  15 10.3414 5.60123   1
  -1  -6  15 9.28167 5.50045   1
  -1  -6  14 1.01462 4.78916   1
  -1  -6  14 1.58661 4.69319   1
   1   6 -14-0.49760 5.96237   2
   1   6 -13-2.68154 5.21007   2
  -1  -6  13 10.9302 4.97554   1
  -1  -6  13 3.16349 4.47976   1
  -1  -6  12 15.7253 4.86998   1
   1   6 -12 17.3843 5.28335   2
  -1  -6  12 14.1366 4.50044   1
  -1  -6  11 69.0316 6.12793   1
  -1  -6  11 76.2337 7.35354   2
   1   6 -11 61.3538 6.71973   2
  -1  -6  11 65.6823 6.30742   1
   1   6 -10 33.4357 5.44635   2
  -1  -6  10 40.5934 5.06278   1
  -1  -6  10 34.0712 5.65447   2
  -1  -6  10 49.0519 5.46802   1
   1   6  -9 21.6293 4.80386   2
  -1  -6   9 16.9153 3.80027   1
   1   6  -9 14.7243 3.81386   1
  -1  -6   9 17.4254 4.33077   2
   1   6  -8-3.74898 2.99228   1
   1   6  -8 4.93427 3.68982   2
  -1  -6   8-3.04178 3.17764   2
  -1  -6   8 0.68869 2.88967   1
  -1  -6   7 75.6218 6.13274   2
   1   6  -7 77.0216 5.94188   1
  -1  -6   7 85.4461 6.17864   1
   1   6  -7 71.0972 6.27749   2
   1   6  -6-2.62509 2.88974   2
  -1  -6   6 4.99744 3.10256   2
  -1  -6   6 5.35109 3.00558   1
   1   6  -6 4.15957 2.94479   1
   1   6  -5 169.835 8.41866   1
   1   6  -5 172.512 8.59605   2
  -1  -6   5 181.484 8.50241   1
  -1  -6   5 170.563 8.56539   2
  -1  -6   4 137.130 7.76892   2
  -1  -6   4 129.820 7.61648   1
   1   6  -4 135.057 7.54848   1
   1   6  -4 135.021 7.90451   2
  -1  -6   3 1.50135 3.23941   2
   1   6  -3 1.81627 2.68439   1
   1   6  -3-2.99080 3.35984   2
  -1  -6   3-5.08130 3.34810   1
   1   6  -2-3.73566 3.08043   1
   1   6  -2-0.22827 3.23878   2
  -1  -6   2-1.97357 3.01816   2
  -1  -6   2 0.71800 2.69821   1
  -1  -6   1 7.21239 3.93363   1
  -1  -6   1 4.99584 3.73947   2
   1   6  -1-0.86558 3.57776   1
   1   6  -1 8.44517 3.80899   2
   1   6   0 13.9512 4.35221   2
   1   6   0 15.1968 4.01920   1
  -1  -6   0 16.1038 4.24385   2
  -1  -6   0 11.8623 4.00953   1
  -1  -6  -1 110.301 8.06902   2
  -1  -6  -1 123.981 8.36463   1
   1   6   1 110.753 7.89168   1
   1   6   1 114.234 8.34443   2
  -1  -6  -2 57.1777 6.64488   1
   1   6   2 50.2313 6.43311   2
  -1  -6  -2 60.8878 6.50988   2
   1   6   2 53.3699 6.57180   1
  -1  -6  -3 10.8438 5.32397   2
  -1  -6  -3 3.52103 4.45735   1
   1   6   3 2.47080 4.33677   1
  -1  -6  -4 19.1516 6.04490   2
   1   6   4 25.2896 6.09614   1
  -1  -6  -4 35.0501 6.56134   1
   1   6   5 9.72817 5.98058   1
  -1  -6  -5 25.9020 6.58893   2
  -1  -6  -5 18.0977 6.06358   1
   1   6   6 0.37225 5.15989   1
  -1  -6  -6 6.06315 5.72501   1
  -1  -6  -6-7.02839 6.46156   2
  -1  -6  -7-4.18571 6.03756   2
  -1  -6  -7 7.78469 5.82009   1
   1   6   7 1.93054 5.98148   1
   1   6   8 43.7794 8.65853   1
  -1  -6  -8 42.3403 9.56627   2
  -1  -6  -8 53.7441 9.60480   1
  -1  -6  -9 2.78026 9.45155   2
   1   6   9-4.21103 9.06446   1
  -1  -6 -10-2.41605 9.33566   1
   1   6  10-8.20601 10.5030   1
  -1  -6 -10 1.66363 11.1077   2
  -1  -7  16 15.1130 6.11905   1
  -1  -7  16 21.0065 6.10976   1
  -1  -7  15 31.7503 6.44294   1
   1   7 -15 26.2528 8.33947   2
  -1  -7  15 28.3023 5.94375   1
  -1  -7  14 19.1774 6.00604   1
   1   7 -14 12.6468 7.09764   2
  -1  -7  14 23.4499 5.73179   1
  -1  -7  13 32.9808 6.12425   1
   1   7 -13 29.5290 6.79069   2
  -1  -7  13 21.3368 5.01256   1
   1   7 -12 9.97293 5.98351   2
  -1  -7  12 8.18038 4.66807   1
  -1  -7  12 9.15303 4.38336   1
  -1  -7  12 6.69628 6.11317   2
   1   7 -11-2.10550 5.34776   2
  -1  -7  11 3.34997 5.30182   2
  -1  -7  11 7.13102 4.34481   1
  -1  -7  11 3.96603 3.91750   1
  -1  -7  10-4.84387 5.23386   2
   1   7 -10-3.96720 3.54069   1
   1   7 -10 7.01086 4.59651   2
  -1  -7  10-3.47096 3.58993   1
   1   7  -9 13.2212 4.11637   1
   1   7  -9 6.19399 4.35810   2
  -1  -7   9 12.3275 5.03117   2
  -1  -7   9 6.59507 3.72774   1
  -1  -7   8 18.9102 4.36845   1
   1   7  -8 11.9340 4.03322   1
  -1  -7   8 9.47227 4.42016   2
   1   7  -8 11.8144 4.74068   2
  -1  -7   7 39.9776 5.56909   2
   1   7  -7 41.2713 5.27312   1
  -1  -7   7 33.5229 4.92615   1
   1   7  -7 37.5289 5.34964   2
   1   7  -6 8.81369 4.12893   2
  -1  -7   6 5.97719 3.83085   1
  -1  -7   6 4.76136 3.46722   2
   1   7  -6 9.38806 3.94283   1
   1   7  -5 59.4076 6.62243   2
  -1  -7   5 69.2722 6.52421   1
  -1  -7   5 64.1267 6.20654   2
   1   7  -5 72.1444 6.66957   1
  -1  -7   4 74.1247 7.15590   2
  -1  -7   4 64.8126 6.45529   1
   1   7  -4 73.2868 6.93696   2
   1   7  -4 76.6613 6.65510   1
  -1  -7   3 41.9488 5.54871   1
  -1  -7   3 37.9042 5.37526   2
   1   7  -3 46.1437 5.77833   2
   1   7  -3 45.4331 5.49622   1
  -1  -7   2 13.6482 4.59828   2
   1   7  -2 11.6609 4.62540   1
   1   7  -2 8.67081 4.35351   2
  -1  -7   2 8.06617 4.57718   1
   1   7  -1-1.38022 4.36924   2
  -1  -7   1 6.89584 3.99456   2
   1   7  -1 1.88603 3.41969   1
  -1  -7   1 0.33876 4.14732   1
  -1  -7   0 63.1247 6.76269   1
  -1  -7   0 56.0330 6.61939   2
   1   7   0 54.7146 7.26245   2
   1   7   0 46.4532 6.01113   1
  -1  -7  -1 41.7941 6.83347   1
   1   7   1 42.1727 6.93712   2
  -1  -7  -1 50.3231 6.91910   2
   1   7   1 55.9760 7.36838   1
  -1  -7  -2 178.836 11.5415   1
  -1  -7  -2 175.746 10.8150   2
   1   7   2 170.298 10.7745   2
   1   7   2 163.912 11.0339   1
  -1  -7  -3 31.9049 7.14622   2
  -1  -7  -3 25.2659 6.14416   1
   1   7   3 21.5077 5.85557   1
  -1  -7  -4 3.70260 5.96770   2
   1   7   4-4.65726 5.80128   1
  -1  -7  -4-8.90886 6.67663   1
  -1  -7  -5-5.35071 6.46664   2
   1   7   5-0.87519 5.92048   1
  -1  -7  -5 0.33981 6.29550   1
  -1  -7  -6-1.88108 7.77986   1
  -1  -7  -6 6.43228 7.10310   2
   1   7   6 14.3744 7.63637   1
  -1  -7  -7 83.6532 11.8577   2
   1   7   7 87.8875 12.0804   1
  -1  -7  -7 88.6968 11.9846   1
  -1  -7  -8 0.80997 8.41654   2
   1   7   8-3.52431 9.02882   1
  -1  -7  -8 18.6430 9.72028   1
  -1  -7  -9 28.1858 8.16253   2
   1   7   9 26.3226 8.45642   1
  -1  -7  -9 32.3530 8.32458   1
   1   8 -15 3.93362 9.15660   2
  -1  -8  15 11.4847 6.58000   1
  -1  -8  15 6.12568 6.49460   1
  -1  -8  14 6.78501 6.24653   1
  -1  -8  14 9.72222 5.71915   1
   1   8 -14-2.80536 8.26392   2
  -1  -8  13 68.6128 7.30508   1
  -1  -8  13 32.3288 8.29378   2
  -1  -8  13 39.5422 6.84385   1
   1   8 -13 65.2771 9.80632   2
  -1  -8  12 7.97952 5.08251   1
   1   8 -12-8.09039 7.12998   2
  -1  -8  12 2.70276 6.29758   2
  -1  -8  12 3.86157 5.03049   1
   1   8 -11 3.04119 6.01982   2
  -1  -8  11-5.11232 4.44705   1
  -1  -8  11 10.3577 6.44930   2
   1   8 -10 16.1301 6.36305   2
  -1  -8  10 1.98984 5.08628   2
   1   8 -10 9.83404 4.72910   1
  -1  -8  10 2.53029 4.50548   1
  -1  -8   9-1.86444 4.25712   1
   1   8  -9-0.05438 5.41511   2
  -1  -8   9 1.70103 5.18925   2
   1   8  -9-0.56283 4.31612   1
   1   8  -8 19.9909 5.10224   1
  -1  -8   8 27.4327 5.35628   1
   1   8  -8 23.3003 6.11904   2
  -1  -8   8 25.5226 5.68770   2
  -1  -8   7 43.7757 6.06376   1
  -1  -8   7 51.9459 7.08804   2
   1   8  -7 61.0770 6.59265   1
   1   8  -7 56.8720 7.06669   2
   1   8  -6 120.509 9.25780   2
  -1  -8   6 122.074 8.76095   1
   1   8  -6 134.507 9.18561   1
  -1  -8   6 132.231 9.36520   2
   1   8  -5-3.26702 5.04747   2
   1   8  -5-1.71309 4.09018   1
  -1  -8   5-0.95244 4.29153   1
  -1  -8   5-4.09673 4.34004   2
  -1  -8   4 27.0749 5.95038   2
  -1  -8   4 21.9817 5.21369   1
   1   8  -4 26.1799 5.23594   1
   1   8  -4 29.7116 6.19005   2
  -1  -8   3 52.4687 7.11294   2
  -1  -8   3 53.9506 7.04465   1
   1   8  -3 55.4202 6.94289   1
   1   8  -3 50.1488 6.52026   2
   1   8  -2 86.8285 8.74006   2
  -1  -8   2 78.6934 8.36623   2
   1   8  -2 91.8289 8.50242   1
  -1  -8   2 83.9035 8.53875   1
   1   8  -1 3.33095 5.36335   2
  -1  -8   1 6.47035 4.96726   2
  -1  -8   1 10.2068 5.51957   1
   1   8  -1 2.84220 4.32285   1
   1   8   0-5.33140 5.00581   2
  -1  -8   0 5.99740 5.05269   1
   1   8   0 7.56653 6.03816   1
   1   8   1-1.47385 6.08340   2
  -1  -8  -1-0.06141 5.58140   2
  -1  -8  -1 6.79156 5.49149   1
   1   8   1 2.63726 5.86658   1
   1   8   2-1.22759 5.65212   2
  -1  -8  -2-5.91958 6.68423   2
  -1  -8  -2-7.20998 7.02044   1
   1   8   2 4.47561 6.35243   1
  -1  -8  -3 8.07960 6.97727   1
   1   8   3 2.60923 6.92872   1
  -1  -8  -3 5.11445 6.81533   2
  -1  -8  -4 1.84401 8.02535   2
  -1  -8  -4 12.7328 6.73248   1
   1   8   4 12.0080 8.24622   1
  -1  -8  -5 2.63438 8.60490   2
   1   8   5 17.2404 8.57913   1
  -1  -8  -5 9.88019 9.23014   1
  -1  -8  -6 31.8645 10.4997   1
   1   8   6 39.2956 11.3310   1
  -1  -8  -7-1.24463 9.04478   1
   1   8   7 22.8161 11.8514   1
  -1  -8  -7 20.6805 11.6340   2
  -1  -9  14 11.3620 6.39680   1
  -1  -9  14-0.90488 6.64852   1
   1   9 -14 4.97876 9.66422   2
  -1  -9  14 15.1834 9.89030   2
   1   9 -13 12.2533 7.77786   2
  -1  -9  13 6.12035 8.16572   2
  -1  -9  13 24.5066 6.79261   1
  -1  -9  13 13.4174 6.54369   1
  -1  -9  12 12.7647 6.13185   1
  -1  -9  12 2.93899 6.16920   1
  -1  -9  12-2.15954 7.90902   2
   1   9 -11-1.40747 5.43780   1
  -1  -9  11-9.96994 5.94383   1
   1   9 -11 3.74446 7.38903   2
  -1  -9  11 4.10917 6.81316   2
  -1  -9  10 16.1859 7.70624   2
   1   9 -10 7.83434 5.43938   1
   1   9 -10 10.7490 6.05110   2
  -1  -9  10 13.6534 5.45526   1
   1   9  -9 91.4006 10.0153   2
  -1  -9   9 95.5942 10.0821   2
  -1  -9   9 87.3426 8.54776   1
   1   9  -9 97.9309 8.77874   1
   1   9  -8 17.2408 5.83688   1
  -1  -9   8 19.2400 6.99349   2
   1   9  -8 21.2604 7.47562   2
  -1  -9   8 21.2598 6.13948   1
   1   9  -7 16.0825 5.62845   1
   1   9  -7 32.9776 7.71611   2
  -1  -9   7 24.7181 5.92443   1
  -1  -9   7 12.7561 5.60151   2
  -1  -9   6 30.0848 6.59155   1
   1   9  -6 29.1858 6.53629   2
  -1  -9   6 17.3181 6.12840   2
   1   9  -6 24.5463 6.08678   1
   1   9  -5 49.8445 8.22256   2
  -1  -9   5 52.4718 7.78424   2
  -1  -9   5 45.4191 7.03443   1
   1   9  -5 52.1898 7.54978   1
   1   9  -4 51.8352 7.89912   2
  -1  -9   4 59.3842 8.14615   1
  -1  -9   4 40.3350 7.79544   2
   1   9  -4 64.9341 7.83778   1
   1   9  -3-0.36242 6.03073   1
  -1  -9   3 4.10245 6.17239   2
   1   9  -3-2.62321 5.43133   2
  -1  -9   3 1.39852 5.40248   1
   1   9  -2 2.31954 6.04107   1
  -1  -9   2-4.76292 5.52566   2
   1   9  -2-7.12973 5.94745   2
  -1  -9   2 1.64453 5.21440   1
   1   9  -1 27.9477 7.56451   1
   1   9  -1 15.3819 6.43630   2
  -1  -9   1 28.7212 7.68332   1
  -1  -9   1 8.08639 5.70355   2
   1   9   0 28.0401 7.52177   2
  -1  -9   0 14.2170 6.78239   2
  -1  -9   0 10.1396 7.23585   1
   1   9   0 16.5605 7.15052   1
   1   9   1 31.9644 7.70957   2
  -1  -9  -1 9.11460 7.77559   2
  -1  -9  -1 2.55170 7.39604   1
   1   9   1 30.1093 8.68148   1
  -1  -9  -2 1.94326 8.31897   2
   1   9   2-9.91476 7.49188   1
  -1  -9  -2 8.99440 8.58884   1
  -1  -9  -3-17.1037 8.75648   2
  -1  -9  -3 1.53468 8.78630   1
   1   9   3-9.12323 7.87182   1
  -1  -9  -4 5.78054 9.68172   2
  -1  -9  -4 6.11870 9.63861   1
   1   9   4 2.18187 7.98036   1
   1   9   5 72.2881 13.5516   1
  -1  -9  -5 63.1169 13.3929   1
  -1 -10  13 9.10332 6.94417   1
   1  10 -13 6.13012 8.71487   2
  -1 -10  13-0.60853 7.02750   1
  -1 -10  12 5.20585 6.97075   1
   1  10 -12 19.0682 10.2901   2
   1  10 -12 2.60925 7.18804   1
  -1 -10  12 11.1627 9.36938   2
  -1 -10  11 9.01140 6.57024   1
   1  10 -11-2.15437 9.59197   2
   1  10 -11 5.62185 7.15660   1
  -1 -10  11-12.3209 7.78541   2
   1  10 -10 44.8737 9.84150   2
  -1 -10  10 20.9048 7.39602   1
  -1 -10  10 32.3893 9.48964   2
   1  10 -10 24.5655 7.34031   1
  -1 -10   9 18.8694 7.23770   1
  -1 -10   9 4.27766 7.62976   2
   1  10  -9-0.79073 8.24548   2
   1  10  -9 27.1728 7.54783   1
   1  10  -8 4.33459 6.15311   1
   1  10  -8 9.87341 7.15162   2
  -1 -10   8 9.15229 6.32495   1
  -1 -10   8-5.26532 8.43383   2
  -1 -10   7-5.10733 6.72939   2
   1  10  -7-2.59119 6.46936   1
  -1 -10   7 7.33098 6.16179   1
   1  10  -6 0.49310 6.90941   2
  -1 -10   6-4.62332 7.09439   2
   1  10  -6-4.36910 6.57531   1
  -1 -10   6-1.90828 6.31523   1
   1  10  -5 26.0709 7.86720   1
   1  10  -5 21.2229 7.10709   2
  -1 -10   5 38.4044 7.86867   2
  -1 -10   5 21.4951 7.26968   1
   1  10  -4 32.9701 8.70100   2
  -1 -10   4 37.7144 8.47346   2
  -1 -10   4 36.7440 8.29731   1
   1  10  -4 57.5836 8.89613   1
   1  10  -3 50.2162 9.17490   1
   1  10  -3 41.5331 8.36079   2
  -1 -10   3 40.8611 8.98490   2
  -1 -10   3 37.4096 8.53940   1
  -1 -10   2 53.3020 9.47581   1
   1  10  -2 51.2590 9.81880   2
  -1 -10   2 42.4324 9.19095   2
   1  10  -2 56.9260 9.76814   1
   1  10  -1 1.66733 8.52691   1
  -1 -10   1 5.93171 7.42787   2
   1  10  -1-14.5261 9.22503   2
  -1 -10   1 14.3291 8.68397   1
  -1 -10   0-20.2924 9.27174   2
  -1 -10   0 1.52254 8.97826   1
   1  10   0 1.18542 9.26208   1
   1  10   0-20.5571 9.43801   2
   1  10   1-11.2689 8.44254   2
  -1 -10  -1 2.52358 8.06101   1
  -1 -10  -1 18.9813 9.68745   2
   1  10   1 0.08285 9.56198   1
  -1 -10  -2-5.22666 11.4043   2
  -1 -10  -2 6.14675 10.6839   1
   1  10   2 1.47408 10.4354   1
  -1 -10  -3 59.9229 13.8507   1
  -1 -10  -3 54.0008 12.1073   2
   1  10   3 72.2082 14.2454   1
   1  11 -11 9.37841 5.49432   1
   1  11 -11 25.2907 7.18223   2
  -1 -11  11 28.1495 7.92949   2
  -1 -11  11 14.1149 5.61801   1
  -1 -11  10-14.5761 11.5610   2
   1  11 -10-5.71390 7.70597   1
  -1 -11  10-1.16588 8.51995   1
   1  11 -10 1.99491 10.6449   2
  -1 -11   9 0.08009 10.6896   2
   1  11  -9-2.13285 10.9574   2
   1  11  -9 4.69157 8.01804   1
  -1 -11   9 0.26607 8.47936   1
   1  11  -8 12.4376 8.58830   2
  -1 -11   8-9.77105 10.5146   2
  -1 -11   8 3.49161 8.05653   1
   1  11  -8 9.99928 7.80662   1
  -1 -11   7 14.0153 9.40320   2
   1  11  -7 8.03289 7.76790   1
   1  11  -7 34.2979 10.1589   2
  -1 -11   7 27.7884 9.05441   1
  -1 -11   6 15.1761 8.10256   2
  -1 -11   6-6.69201 8.17288   1
   1  11  -6-8.46231 10.4068   2
   1  11  -6-18.6878 7.86037   1
   1  11  -5 22.6945 10.0870   2
  -1 -11   5 6.94339 9.83092   2
  -1 -11   5 23.6359 8.29684   1
   1  11  -5 19.6035 9.08476   1
  -1 -11   4 9.13342 8.86346   2
   1  11  -4 3.89634 9.23022   2
   1  11  -4 2.16573 7.93479   1
  -1 -11   4 5.73163 8.21835   1
   1  11  -3 2.41247 8.39670   1
   1  11  -3 18.6755 9.30834   2
  -1 -11   3-11.7359 10.4807   2
  -1 -11   3 2.73881 8.24471   1
   1  11  -2 11.7783 10.4574   1
   1  11  -2 7.25618 10.9476   2
  -1 -11   2 29.1928 11.6873   2
  -1 -11   2 2.27091 9.95334   1
   1  11  -1-4.99513 11.6107   1
  -1 -11   1-2.72234 9.94665   2
  -1 -11   1 5.81836 11.1619   1
   1  11  -1 25.1892 10.1636   2
   1  11   0 19.6290 11.2464   1
  -1 -11   0 1.74256 8.84683   1
  -2  11   0-15.8593 10.3253   2
   2 -11   0 9.15271 10.2131   1
   2 -11   0-8.97106 9.76026   2
  -2  11   0 10.8720 10.1005   1
  -2  11  -1 1.22515 9.23756   2
   2 -11   1 11.2475 10.5714   2
   2 -11   1-7.72395 8.65031   1
  -2  11  -1-0.07446 8.96441   1
   2 -11   2-7.49683 9.05735   1
   2 -11   2-1.27243 8.77279   2
  -2  11  -2 3.86994 8.57382   1
  -2  11  -2 4.95489 8.70890   2
  -2  11  -3 19.2744 9.51902   2
   2 -11   3-0.66445 8.14464   1
  -2  11  -3 3.84978 7.73776   1
   2 -11   3-2.39091 10.0010   2
   2 -11   4-3.20540 10.5180   2
   2 -11   4-11.3138 8.22637   1
  -2  11  -4-7.94798 7.34334   1
  -2  11  -4 18.8426 10.1577   2
  -2  11  -5 26.1080 8.87668   2
   2 -11   5-1.62378 10.6576   2
   2 -11   5 17.8187 7.17958   1
  -2  11  -5 10.8558 7.10714   1
  -2  11  -6 3.20986 6.51782   1
   2 -11   6 15.0962 6.44525   1
  -2  11  -6 2.25519 9.55515   2
   2 -11   6-3.06334 11.0601   2
   2 -11   7-0.17001 11.2649   2
  -2  11  -7-11.2944 6.66832   1
  -2  11  -7 5.36282 8.75541   2
   2 -11   7-8.63326 6.91053   1
   2 -11   8 41.2826 6.83865   1
  -2  11  -8 33.6427 11.5347   2
   2 -11   8 36.5992 10.5320   2
  -2  11  -8 44.9335 6.56925   1
   2 -11   9 28.4994 5.34754   1
  -2  11  -9 34.5813 5.17718   1
  -2  10   3 47.9759 10.1945   2
   2 -10  -3 35.0736 10.6130   1
  -2  10   3 36.2008 11.0738   1
   2 -10  -3 66.2852 10.8947   2
   2 -10  -2 21.1063 8.95581   2
  -2  10   2 35.9549 10.4111   1
   2 -10  -2 36.2517 10.4643   1
  -2  10   2 23.1674 8.78197   2
   2 -10  -1-12.0932 8.35866   2
  -2  10   1 2.37417 8.19858   1
  -2  10   1 2.67339 8.19221   2
  -2  10   0 11.9991 8.89121   2
   2 -10   0-11.1631 7.85134   1
   2 -10   0 5.61482 8.38039   2
  -2  10   0-1.72954 7.58180   1
   2 -10   1-15.9579 8.17240   1
   2 -10   1 12.4337 8.58718   2
  -2  10  -1-7.99825 6.78179   2
  -2  10  -1 0.19311 7.47612   1
  -2  10  -2 7.28509 8.02155   2
   2 -10   2 11.4055 6.49065   1
  -2  10  -2 17.7631 6.89741   1
   2 -10   2 4.42539 7.46477   2
  -2  10  -3-9.09507 8.58386   2
   2 -10   3 6.62524 6.02506   1
  -2  10  -3-5.08316 6.35728   1
   2 -10   3 0.13904 7.15590   2
  -2  10  -4 1.35508 7.78385   2
   2 -10   4 3.04578 6.00356   1
   2 -10   4 0.70151 7.92617   2
  -2  10  -4 2.22260 5.66611   1
  -2  10  -5 11.5547 7.94671   2
   2 -10   5 6.36389 7.87064   2
   2 -10   5 2.19470 5.36026   1
  -2  10  -5 9.97966 5.72799   1
  -2  10  -6 21.2505 9.00122   2
   2 -10   6 26.3896 7.65665   2
  -2  10  -6 30.0526 6.10928   1
   2 -10   6 21.1870 6.04375   1
   2 -10   7-4.51221 4.52990   1
  -2  10  -7-0.92045 9.43817   2
  -2  10  -7 0.21523 4.62212   1
   2 -10   7 4.23187 9.20362   2
   2 -10   8 3.25226 4.31630   1
  -2  10  -8-8.61337 4.22783   1
  -2  10  -8-13.5806 8.84657   2
   2 -10   8 4.36557 7.82001   2
  -2  10  -9 17.4607 9.82911   2
  -2  10  -9 2.03828 2.69565   1
   2 -10   9 4.36111 9.85520   2
   2 -10   9-0.42425 3.06768   1
  -2  10 -10-5.25619 10.3978   2
   2 -10  10-23.5414 11.0459   2
  -2  10 -11 5.73537 11.3679   2
   2 -10  11-6.41965 9.91403   2
   2  -9  -6 41.2526 10.0135   2
  -2   9   6 41.0059 12.5798   1
   2  -9  -6 11.1974 10.6069   1
  -2   9   5 25.9772 10.3661   1
   2  -9  -5 11.3106 10.5104   1
   2  -9  -5 7.91100 8.45759   2
   2  -9  -4 0.24876 9.50435   1
   2  -9  -4 3.67838 7.31962   2
  -2   9   4 13.7693 9.69338   1
  -2   9   4 7.88723 8.84356   2
  -2   9   3 60.5079 9.67877   2
   2  -9  -3 51.7117 9.10208   2
  -2   9   3 60.7016 9.81493   1
   2  -9  -3 32.7362 9.05088   1
  -2   9   2 7.51006 7.32267   1
   2  -9  -2 8.75693 7.40418   1
   2  -9  -2 8.67115 6.59171   2
  -2   9   2-4.55853 6.89493   2
   2  -9  -1-1.27399 6.15696   2
  -2   9   1-10.1545 6.03249   1
  -2   9   1 3.41598 6.70238   2
   2  -9  -1-1.19153 6.99177   1
  -2   9   0 35.8346 7.65033   1
   2  -9   0 20.5986 7.34927   2
  -2   9   0 38.1214 7.84407   2
  -2   9  -1 34.4219 7.94901   2
   2  -9   1 48.5841 7.85105   2
  -2   9  -1 28.8786 6.67867   1
   2  -9   1 56.9644 8.05922   1
  -2   9  -2 10.0296 6.72174   2
   2  -9   2 11.3519 5.74511   1
   2  -9   2-0.05972 5.49204   2
  -2   9  -2 8.67005 5.28737   1
  -2   9  -3 18.3616 5.35787   1
   2  -9   3 15.5529 5.56760   1
  -2   9  -3 3.54831 6.13720   2
   2  -9   3 9.04640 6.63884   2
   2  -9   4 19.6866 5.98171   2
   2  -9   4 18.9773 5.36256   1
  -2   9  -4 22.7072 6.64940   2
  -2   9  -4 30.6838 5.47157   1
   2  -9   5 27.2263 7.48568   2
  -2   9  -5 35.9720 7.43607   2
  -2   9  -5 37.2183 5.41594   1
   2  -9   5 25.1230 5.00897   1
  -2   9  -6 2.14166 3.84746   1
   2  -9   6 4.49748 3.89197   1
  -2   9  -6 0.59248 6.90194   2
   2  -9   6 0.77809 6.49568   2
   2  -9   7-6.09687 3.58659   1
  -2   9  -7 3.12034 7.11244   2
   2  -9   7-7.38932 5.69172   2
  -2   9  -7-7.44454 3.49981   1
  -2   9  -8 27.2423 3.61750   1
  -2   9  -8 36.6465 8.43346   2
   2  -9   8 30.3016 8.14880   2
   2  -9   8 28.3194 3.90844   1
   2  -9   9 1.07112 1.22817   1
  -2   9  -9-8.68927 8.68468   2
  -2   9 -10 13.9194 9.22086   2
   2  -9  10 8.70957 9.28392   2
  -2   9 -11 9.17312 9.92722   2
   2  -9  11 25.5296 10.0371   2
  -2   9 -12 34.4631 10.8587   2
   2  -8  -8 17.1032 7.79012   2
  -2   8   7 6.71682 8.50434   1
   2  -8  -7 6.27960 11.0255   1
   2  -8  -7-3.03034 8.35036   2
   2  -8  -6 9.14031 10.0446   1
   2  -8  -6 7.02928 7.13429   2
  -2   8   6-0.40691 9.27590   1
   2  -8  -5 35.7599 8.50913   1
   2  -8  -5 31.0479 7.58379   2
  -2   8   5 33.4720 7.58391   2
  -2   8   5 27.5591 9.14701   1
  -2   8   4 7.70801 6.43160   2
   2  -8  -4 0.79473 6.97874   1
   2  -8  -4 5.91234 5.98764   2
  -2   8   4-1.82946 7.28440   1
  -2   8   3 2.20547 5.90433   2
   2  -8  -3 1.39869 6.28374   1
  -2   8   3-5.86825 6.20142   1
   2  -8  -3-0.48884 5.27069   2
  -2   8   2 35.7087 7.32454   1
   2  -8  -2 45.7164 7.76907   1
  -2   8   2 48.7079 7.53446   2
   2  -8  -2 33.1189 6.46637   2
  -2   8   1 80.1930 8.16684   2
   2  -8  -1 72.2302 7.98590   2
   2  -8  -1 64.4559 8.09028   1
  -2   8   1 61.9885 7.76902   1
  -2   8   0 10.1782 5.09834   2
   2  -8   0-1.79893 4.80682   1
  -2   8   0 2.26644 5.10970   1
   2  -8   0 4.76216 4.86150   2
  -2   8  -1 22.5708 5.37728   1
  -2   8  -1 27.7062 6.40526   2
   2  -8   1 17.1158 5.52699   2
   2  -8   1 28.9726 5.89625   1
  -2   8  -2 10.7354 4.53760   1
   2  -8   2 10.1429 4.62900   1
  -2   8  -2 7.96339 5.24656   2
   2  -8   2 6.76479 5.20342   2
   2  -8   3 13.5675 4.44654   1
  -2   8  -3 16.1251 4.43998   1
  -2   8  -3 13.2304 5.77783   2
   2  -8   3 9.99594 5.32211   2
   2  -8   4 11.7823 4.12955   1
  -2   8  -4 17.6392 5.16034   2
  -2   8  -4 16.8670 4.21777   1
   2  -8   4 22.7316 5.85243   2
   2  -8   5 15.2609 6.07585   2
   2  -8   5 26.9458 4.36403   1
  -2   8  -5 15.2970 3.77761   1
  -2   8  -5 29.3885 6.12746   2
  -2   8  -6 5.74322 3.13636   1
   2  -8   6 1.58858 2.99484   1
  -2   8  -6 10.6883 5.89537   2
   2  -8   6 6.14480 5.92398   2
   2  -8   7 28.4996 3.65369   1
  -2   8  -7 32.4288 6.64118   2
   2  -8   7 33.7040 7.46451   2
  -2   8  -7 23.6965 3.33449   1
   2  -8   8 3.94062 1.66150   1
  -2   8  -8-0.93650 1.45150   1
  -2   8  -8-4.08879 6.42319   2
   2  -8   8 5.95820 6.64826   2
  -2   8  -9-5.36828 5.50402   2
   2  -8   9 4.98519 7.34116   2
  -2   8 -10-1.32626 5.99205   2
   2  -8  10 11.0893 7.80735   2
  -2   8 -11 23.5698 9.28175   2
  -2   8 -12 5.51346 9.18992   2
  -2   8 -13 28.9555 10.6747   2
  -2   8 -14-13.8369 9.21235   2
   2  -7  -9 4.49014 12.0005   1
  -2   7   9 31.0579 10.2069   1
   2  -7  -8 24.9545 11.1987   1
   2  -7  -8 35.0164 7.96042   2
  -2   7   8 9.76474 9.03249   1
   2  -7  -7 8.05939 8.75115   1
   2  -7  -7 3.13723 6.41379   2
  -2   7   7-3.44902 7.59756   1
   2  -7  -6 4.62258 7.01920   1
   2  -7  -6 13.3013 5.74967   2
  -2   7   6 10.2233 7.71103   1
  -2   7   5-0.29930 4.92745   2
   2  -7  -5 3.16211 5.97997   1
   2  -7  -5-5.49942 4.96734   2
  -2   7   5 9.46399 5.98183   1
   2  -7  -4 34.5957 6.04700   2
  -2   7   4 41.0816 6.91290   1
   2  -7  -4 28.1530 7.22041   1
  -2   7   4 27.5734 6.11943   2
  -2   7   3-1.38585 4.64843   2
   2  -7  -3-4.38541 4.33038   1
   2  -7  -3 1.09948 4.55999   2
  -2   7   3 0.05729 5.25917   1
  -2   7   2 4.41067 4.26209   2
   2  -7  -2 9.46945 5.03048   1
   2  -7  -2-3.18901 4.38801   2
  -2   7   2 2.69713 4.16087   1
  -2   7   1 228.324 11.1845   2
  -2   7   1 238.625 11.8349   1
   2  -7  -1 227.283 11.6756   1
   2  -7  -1 228.467 11.0412   2
   2  -7   0 113.503 8.12045   2
  -2   7   0 121.832 8.34759   1
   2  -7   0 112.261 8.17941   1
  -2   7   0 119.831 8.52385   2
   2  -7   1 16.5332 4.52483   1
   2  -7   1 19.5848 4.83196   2
  -2   7  -1 16.2029 4.64564   2
  -2   7  -1 20.3903 4.58091   1
   2  -7   2-2.66692 3.51342   1
  -2   7  -2-4.62986 4.49626   2
  -2   7  -2-2.18916 3.40177   1
   2  -7   2 3.76257 4.07506   2
   2  -7   3 144.339 8.97903   2
  -2   7  -3 139.593 9.09172   2
  -2   7  -3 141.605 7.50602   1
   2  -7   3 148.475 7.78629   1
  -2   7  -4 16.1047 5.04978   2
  -2   7  -4 17.4999 3.30020   1
   2  -7   4 4.31031 4.49587   2
   2  -7   4 18.2683 3.67018   1
  -2   7  -5 23.1170 5.02862   2
   2  -7   5 10.1206 2.97760   1
  -2   7  -5 14.9096 2.99849   1
   2  -7   5 16.7975 4.69774   2
  -2   7  -6 84.5900 8.13530   2
   2  -7   6 85.5703 8.34583   2
  -2   7  -6 85.3630 4.59857   1
   2  -7   6 79.6612 4.65696   1
  -2   7  -7 18.8505 2.05164   1
  -2   7  -7 12.8787 4.84461   2
   2  -7   7 20.3118 5.80831   2
   2  -7   7 18.3061 2.07782   1
  -2   7  -8 78.1275 8.63551   2
   2  -7   8 79.5043 8.14037   2
  -2   7  -9-0.77016 5.46189   2
   2  -7   9 7.55636 5.34033   2
  -2   7 -10 15.5108 7.42876   2
  -2   7 -11 27.0115 7.11778   2
  -2   7 -12 14.2870 7.54940   2
  -2   7 -13 76.7088 11.6456   2
  -2   7 -14 28.0090 10.4167   2
   2  -6 -11 8.47907 4.99691   2
   2  -6 -10-17.4115 11.8129   1
   2  -6 -10-4.34529 7.72472   2
  -2   6  10 3.22095 10.2741   1
   2  -6  -9-2.58647 5.77318   2
  -2   6   9-6.92553 7.24265   1
   2  -6  -8-0.30798 7.81850   1
   2  -6  -8 1.50476 5.38272   2
  -2   6   8 1.56271 7.95468   1
   2  -6  -7 9.44533 7.80152   1
   2  -6  -7 10.2835 5.11654   2
  -2   6   7 9.54454 7.35683   1
   2  -6  -6 3.79780 4.37955   2
  -2   6   6 4.87143 5.41504   1
   2  -6  -6-0.06548 6.09631   1
  -2   6   5 7.36128 4.25607   2
   2  -6  -5 16.3212 4.78366   2
  -2   6   5 8.19972 5.83935   1
   2  -6  -5 6.90579 4.76323   1
  -2   6   4 32.4846 5.23092   2
  -2   6   4 34.7361 5.77396   1
   2  -6  -4 29.9637 6.54585   1
   2  -6  -4 29.5478 5.01553   2
  -2   6   3 56.7357 6.70845   1
   2  -6  -3 54.9769 5.81300   2
   2  -6  -3 43.3096 6.31702   1
  -2   6   3 55.8521 5.84122   2
   2  -6  -2-0.81585 3.41342   1
  -2   6   2 6.10863 3.41997   2
  -2   6   2 4.12660 3.92984   1
   2  -6  -2 0.03644 3.21120   2
   2  -6  -1 4.82467 3.62285   1
  -2   6   1 1.06072 3.35485   2
  -2   6   1 0.57212 3.45555   1
   2  -6  -1 0.28501 3.42033   2
   2  -6   0 37.0312 4.86879   2
  -2   6   0 35.4648 4.93763   1
  -2   6   0 37.3967 4.75041   2
   2  -6   0 42.3997 5.15310   1
  -2   6  -1 130.274 7.74244   2
  -2   6  -1 132.059 7.39831   1
   2  -6   1 111.540 7.22793   2
   2  -6   1 132.607 7.46441   1
  -2   6  -2 17.6588 3.45122   1
  -2   6  -2 15.1153 4.17181   2
   2  -6   2 13.8161 3.71060   2
   2  -6   2 19.9870 3.51824   1
  -2   6  -3 184.718 9.39393   2
   2  -6   3 203.133 9.70320   2
  -2   6  -3 195.000 7.62143   1
   2  -6   3 183.700 7.48939   1
   2  -6   4 8.90837 3.54930   2
   2  -6   4 6.89985 2.46858   1
  -2   6  -4 1.98913 2.01486   1
  -2   6  -4 8.91639 4.18278   2
  -2   6  -5 38.3457 5.62810   2
   2  -6   5 51.7068 5.77953   2
   2  -6   5 45.5924 3.41086   1
  -2   6  -5 35.8573 3.03262   1
  -2   6  -6 13.1598 4.80036   2
   2  -6   6 12.1172 4.93147   2
   2  -6   6 11.0739 1.73413   1
  -2   6  -6 12.4210 1.68264   1
  -2   6  -7 24.9819 5.72182   2
   2  -6   7 26.5079 5.22289   2
  -2   6  -8 22.7625 5.08745   2
   2  -6   8 26.6120 6.14552   2
  -2   6  -9 0.11042 4.21999   2
  -2   6 -10 10.1813 5.87354   2
  -2   6 -11 4.51474 6.67795   2
  -2   6 -12-2.19364 7.53865   2
  -2   6 -13-7.89462 7.83555   2
  -2   6 -14 2.06810 8.93136   2
  -2   6 -15 15.9373 10.0711   2
   2  -5 -12 39.1438 11.3551   1
   2  -5 -12 44.9527 8.40343   2
   2  -5 -11-7.22892 10.0215   1
   2  -5 -11-4.53574 6.64209   2
  -2   5  11-10.4874 9.03161   1
   2  -5 -10 29.0068 6.94108   2
  -2   5  10 21.8894 8.36184   1
   2  -5  -9-14.9426 7.83286   1
  -2   5   9-7.11318 7.15117   1
   2  -5  -9-2.93969 5.36981   2
   2  -5  -8 7.90469 6.53339   1
   2  -5  -8 2.60615 4.25170   2
  -2   5   8 6.26788 5.70471   1
  -2   5   7 10.3741 5.54485   1
   2  -5  -7 0.56363 4.72305   1
   2  -5  -7 2.76449 3.69787   2
  -2   5   6 107.301 9.25880   1
   2  -5  -6 99.3995 9.36734   1
   2  -5  -6 103.306 7.00437   2
  -2   5   5 56.1492 6.64438   1
   2  -5  -5 55.6155 5.37469   2
  -2   5   5 63.9224 5.75494   2
   2  -5  -5 53.4066 6.82449   1
  -2   5   4-0.50857 2.95286   2
   2  -5  -4-0.19067 4.22479   1
   2  -5  -4 1.56799 2.86995   2
  -2   5   4 4.56634 4.24313   1
  -2   5   3 170.578 9.39098   1
  -2   5   3 176.404 8.05579   2
   2  -5  -3 162.008 9.39902   1
   2  -5  -3 175.271 8.00216   2
  -2   5   2 9.68248 3.18240   2
   2  -5  -2 10.2307 3.21265   2
  -2   5   2 13.6673 4.05074   1
   2  -5  -2 10.7599 4.12226   1
   2  -5  -1 23.5301 3.61446   2
  -2   5   1 20.8296 3.48537   2
   2  -5  -1 20.6432 3.78971   1
  -2   5   1 22.0882 4.07582   1
  -2   5   0 512.802 13.1166   2
   2  -5   0 503.223 12.7805   2
  -2   5   0 539.486 13.4766   1
   2  -5   0 521.136 13.4144   1
  -2   5  -1 98.0819 5.78370   1
   2  -5   1 92.6898 6.11058   2
   2  -5   1 85.8162 5.58031   1
  -2   5  -1 92.4952 6.16994   2
  -2   5  -2 197.278 8.63549   2
   2  -5   2 184.916 8.35020   2
   2  -5   2 195.066 7.39124   1
  -2   5  -2 187.861 7.14976   1
   2  -5   3 36.2545 4.41383   2
  -2   5  -3 37.3845 3.30610   1
  -2   5  -3 25.0618 4.08629   2
   2  -5   3 34.4448 3.33971   1
  -2   5  -4 27.1091 4.08073   2
   2  -5   4 39.9892 4.89570   2
  -2   5  -4 33.7509 2.81050   1
   2  -5   4 33.8567 2.87870   1
  -2   5  -5 103.539 7.27047   2
   2  -5   5 94.4425 6.98808   2
  -2   5  -5 95.0839 3.30711   1
   2  -5   5 96.4995 3.47205   1
  -2   5  -6 13.6042 3.82491   2
   2  -5   6 13.5184 4.04695   2
  -2   5  -7 16.7877 4.42657   2
   2  -5   7 24.2942 5.11380   2
  -2   5  -8 12.4551 4.14820   2
  -2   5  -9 45.0461 6.93816   2
  -2   5 -10 116.774 9.70148   2
  -2   5 -11 94.9832 9.73857   2
  -2   5 -12 29.2080 8.10977   2
  -2   5 -13 25.1964 8.37254   2
  -2   5 -14 30.9476 10.5460   2
  -2   5 -15 9.54973 9.75526   2
   2  -4 -13 16.2240 10.3054   1
  -2   4  13-1.58662 9.28157   1
   2  -4 -12 27.1363 9.35600   1
  -2   4  12 10.8126 8.66030   1
   2  -4 -12 27.2629 7.23348   2
   2  -4 -11 7.85845 8.78454   1
   2  -4 -11 2.91923 5.46498   2
  -2   4  11-1.49362 8.13804   1
   2  -4 -10 11.5803 7.47118   1
   2  -4 -10 14.7797 5.23404   2
  -2   4  10 16.9968 7.47907   1
   2  -4  -9 2.13164 6.06046   1
   2  -4  -9 4.04162 3.92040   2
  -2   4   9 10.4556 6.05488   1
   2  -4  -8 3.37948 3.63554   2
  -2   4   8 14.0009 5.27375   1
   2  -4  -8 12.2472 5.31708   1
   2  -4  -7 9.82278 5.48249   1
  -2   4   7 0.69194 4.85778   1
   2  -4  -7 10.0539 3.25965   2
  -2   4   6 5.03391 4.01296   1
   2  -4  -6 2.16877 2.87671   2
   2  -4  -6 4.42762 3.68941   1
   2  -4  -5 36.6379 3.99211   2
   2  -4  -5 33.6621 5.70427   1
  -2   4   5 38.9150 4.04786   2
  -2   4   5 36.5688 5.23514   1
  -2   4   4 1.10705 2.26825   2
   2  -4  -4 6.16515 2.58149   2
   2  -4  -4 0.91022 3.59509   1
  -2   4   4 2.34016 3.04569   1
  -2   4   3 97.0425 5.43862   2
   2  -4  -3 103.656 6.92112   1
   2  -4  -3 98.5193 5.42194   2
  -2   4   3 95.1118 6.67037   1
   2  -4  -2 52.1572 4.09219   2
  -2   4   2 56.2481 4.27052   2
   2  -4  -2 55.0208 5.33028   1
  -2   4   2 62.0282 5.17299   1
   2  -4  -1 268.296 8.32781   2
  -2   4   1 275.008 8.47981   2
   2  -4  -1 280.958 9.77811   1
  -2   4   1 267.941 9.25111   1
  -2   4   0 67.5918 4.71843   2
   2  -4   0 71.1437 4.71379   2
   2  -4   0 68.9504 4.91179   1
  -2   4   0 74.3321 4.88882   1
   2  -4   1 564.851 12.3905   2
   2  -4   1 557.067 11.6736   1
  -2   4  -1 582.936 12.6469   2
  -2   4  -1 570.515 11.5961   1
   2  -4   2 0.61533 1.74433   1
  -2   4  -2 3.40538 2.56787   2
   2  -4   2 0.45094 2.34631   2
  -2   4  -2 3.16240 1.86625   1
  -2   4  -3 208.375 8.29480   2
   2  -4   3 213.377 8.46647   2
   2  -4   3 216.772 6.02720   1
  -2   4  -3 202.901 5.68953   1
  -2   4  -4 164.437 7.86225   2
  -2   4  -4 167.377 4.25687   1
   2  -4   4 162.294 7.88810   2
   2  -4   4 175.010 4.50039   1
  -2   4  -5 45.9164 5.07853   2
   2  -4   5 52.5398 5.44438   2
  -2   4  -6 59.8995 5.85930   2
  -2   4  -7 391.145 13.5451   2
  -2   4  -8 2.68706 4.16076   2
  -2   4  -9 12.7796 5.20982   2
  -2   4 -10 44.5524 6.27615   2
  -2   4 -11 5.47983 5.54090   2
  -2   4 -12-4.11929 5.65355   2
  -2   4 -13-0.14041 7.89332   2
  -2   4 -14 2.29089 7.55514   2
  -2   4 -15 7.70466 10.1167   2
   2  -3 -14 32.6537 5.93464   2
  -2   3  14 25.1273 8.22665   1
   2  -3 -14 39.2713 8.98207   1
   2  -3 -13 3.10898 6.00336   2
  -2   3  13 2.53476 8.58282   1
   2  -3 -12 5.65257 8.54950   1
   2  -3 -12 10.9790 5.70651   2
  -2   3  12 22.4004 8.59879   1
   2  -3 -11-3.25007 4.51139   2
   2  -3 -11 8.83784 7.10598   1
  -2   3  11 1.82896 6.92181   1
   2  -3 -10 10.5341 6.75502   1
   2  -3 -10 0.16666 3.52346   2
  -2   3  10 2.04550 4.85671   1
   2  -3  -9-1.40344 3.36591   2
  -2   3   9 6.99614 4.96157   1
   2  -3  -9 0.65832 4.97614   1
   2  -3  -8 50.3139 7.32520   1
   2  -3  -8 42.4206 4.38918   2
  -2   3   8 42.9729 6.77576   1
   2  -3  -7 68.0934 4.80422   2
   2  -3  -7 79.5938 7.24857   1
  -2   3   7 67.5005 7.18602   1
   2  -3  -6 125.624 5.69192   2
   2  -3  -6 134.080 8.58727   1
  -2   3   6 130.758 8.50172   1
   2  -3  -5 0.36277 2.73631   1
   2  -3  -5 0.73027 1.85651   2
  -2   3   5 2.47988 3.17999   1
  -2   3   4 27.5898 2.86176   2
   2  -3  -4 32.1700 3.00059   2
   2  -3  -4 25.5551 4.39389   1
  -2   3   4 27.8738 4.22218   1
   2  -3  -3 0.41773 2.91619   1
  -2   3   3 4.81086 2.95728   1
   2  -3  -3 6.75805 1.87192   2
   2  -3  -2 19.8971 2.41483   2
  -2   3   2 21.6546 2.48260   2
   2  -3  -2 15.4384 2.86421   1
  -2   3   2 16.6617 3.28094   1
   2  -3  -1 40.9913 3.17205   2
  -2   3   1 45.9941 3.34851   2
   2  -3  -1 44.5418 4.10383   1
  -2   3   1 40.4970 3.85142   1
  -2   3   0 17.3384 2.50906   2
   2  -3   0 20.0627 2.63421   2
  -2   3   0 18.5957 2.65152   1
   2  -3   0 20.4290 2.80272   1
  -2   3  -1 39.9111 3.39624   2
   2  -3   1 37.1658 3.30622   2
   2  -3   1 40.5609 3.24174   1
  -2   3  -1 41.7223 3.15824   1
   2  -3   2 30.2302 3.45568   2
   2  -3   2 25.7057 2.46996   1
  -2   3  -2 21.0728 3.05712   2
  -2   3  -2 26.7447 2.33148   1
   2  -3   3 197.728 7.76661   2
  -2   3  -3 193.577 7.58507   2
  -2   3  -3 204.194 4.78945   1
  -2   3  -3 202.324 4.72948   1
  -2   3  -4 680.035 6.12582   1
  -2   3  -4 700.919 14.6689   2
  -2   3  -4 692.325 6.31426   1
  -2   3  -5-2.90935 2.78641   2
  -2   3  -6 3.78885 3.44771   2
  -2   3  -7 179.910 9.15590   2
  -2   3  -8 15.0529 4.00675   2
  -2   3  -9 7.86132 4.62639   2
  -2   3 -10 46.3158 6.97660   2
  -2   3 -11 25.9115 6.06899   2
  -2   3 -12 21.8894 7.78743   2
  -2   3 -13-7.02917 8.14323   2
  -2   3 -14 34.5452 10.6241   2
  -2   3 -15 11.5936 10.7583   2
   2  -2 -14 8.26239 5.88314   2
   2  -2 -14 11.7337 6.07047   2
  -2   2  14 8.52460 8.95064   1
   2  -2 -14 21.1419 9.67567   1
   2  -2 -13 23.2923 6.09274   2
  -2   2  13 5.51770 7.17896   1
   2  -2 -13 15.1848 5.89141   2
   2  -2 -13 18.0436 8.98932   1
   2  -2 -12 10.2770 4.36920   2
  -2   2  12 0.93000 6.72648   1
   2  -2 -11 9.63286 3.66708   2
  -2   2  11 4.47875 6.18319   1
   2  -2 -11 20.8945 6.34261   1
   2  -2 -10 54.1677 4.95767   2
   2  -2 -10 41.4013 7.62693   1
  -2   2  10 39.3911 6.64884   1
   2  -2  -9 91.6753 5.54635   2
   2  -2  -9 86.7043 8.20152   1
  -2   2   9 80.6394 7.61742   1
   2  -2  -8 2.19508 3.37267   1
  -2   2   8 2.98159 4.33686   1
   2  -2  -8 3.79413 2.21908   2
   2  -2  -7 3.57866 1.95631   2
  -2   2   7 5.06975 3.57641   1
   2  -2  -7 3.18396 3.02778   1
   2  -2  -6 0.69740 1.53507   2
   2  -2  -6 4.03169 3.64304   1
  -2   2   6 2.69923 3.07664   1
   2  -2  -5 163.127 8.39994   1
  -2   2   5 165.997 8.28365   1
   2  -2  -5 167.755 4.95398   2
  -2   2   4 2.57456 2.42205   1
   2  -2  -4 3.51775 1.32023   2
  -2   2   4 3.41949 1.37542   2
  -2   2   3 1.16041 1.20019   2
   2  -2  -3 0.98941 2.67287   1
  -2   2   3-1.67300 2.32005   1
   2  -2  -3-0.63496 1.16213   2
  -2   2   2 58.7046 2.88499   2
   2  -2  -2 59.7111 2.86196   2
   2  -2  -2 49.7513 4.27418   1
  -2   2   2 57.8373 4.45309   1
  -2   2   1 635.455 9.27645   2
   2  -2  -1 631.985 9.21701   2
   2  -2  -1 671.409 12.5458   1
  -2   2   1 625.852 11.9729   1
   2  -2   0 52.6349 3.17901   2
  -2   2   0 49.5263 3.08695   2
   2  -2   0 48.5705 3.49643   1
  -2   2   0 49.3637 3.44144   1
  -2   2  -1 247.117 6.89436   2
   2  -2   1 252.056 7.07021   2
   2  -2   1 244.545 6.61191   1
  -2   2  -1 246.721 6.43256   1
  -2   2  -2 6.41163 1.45329   1
  -2   2  -2 8.41162 2.17150   2
  -2   2  -2 8.88062 1.62994   1
  -2   2  -3 50.3947 4.13133   2
  -2   2  -3 51.2577 2.37421   1
  -2   2  -3 48.8344 2.40831   1
  -2   2  -4 357.165 10.3137   2
  -2   2  -4 322.287 4.60084   1
  -2   2  -4 313.396 4.77058   1
  -2   2  -5 6.51201 2.76041   2
  -2   2  -6 1.66083 2.33939   2
  -2   2  -7-1.24453 3.54586   2
   2  -2   8 209.392 3.21108   1
  -2   2  -8 197.196 3.16334   1
   2  -2   9 15.3343 1.27230   1
  -2   2  -9 17.3555 4.98144   2
  -2   2  -9 14.5416 1.28318   1
   2  -2  10 1.02970 1.01635   1
  -2   2 -10-2.88309 5.09710   2
  -2   2 -10 0.33248 1.07178   1
  -2   2 -11 105.434 9.78115   2
  -2   2 -12 50.9558 8.98084   2
   2  -2  12 45.8864 2.74577   1
   2  -2  13 2.11615 1.55990   1
  -2   2 -13 4.11736 7.44001   2
   2  -2  14 8.22712 1.47626   1
  -2   2 -14 33.1012 9.82589   2
  -2   2 -15-10.6713 9.42691   2
   2  -1 -15 6.03338 6.60345   2
   2  -1 -15 0.98631 6.12472   2
  -2   1  15-2.02109 9.53720   1
   2  -1 -15 1.01552 10.5194   1
   2  -1 -14-0.46849 5.05722   2
   2  -1 -14 9.59708 8.64269   1
  -2   1  14-0.57481 7.51887   1
   2  -1 -14-3.94955 5.27515   2
  -2   1  13 1.97059 6.93229   1
   2  -1 -13-1.56642 4.52981   2
   2  -1 -13 2.24096 4.46943   2
   2  -1 -13-6.50535 7.25066   1
   2  -1 -12 124.478 7.44784   2
   2  -1 -12 114.560 7.09723   2
   2  -1 -12 127.339 11.0152   1
  -2   1  12 122.284 10.5960   1
   2  -1 -11 4.12813 3.03430   2
  -2   1  11-7.53271 5.74360   1
   2  -1 -11 7.31912 3.14667   2
   2  -1 -11 1.87819 5.15888   1
   2  -1 -10 6.36508 2.74462   2
  -2   1  10 3.31740 4.19845   1
   2  -1 -10 5.80729 5.21857   1
   2  -1  -9 88.7733 4.78797   2
   2  -1  -9 86.2332 7.91433   1
  -2   1   9 98.4810 7.68295   1
   2  -1  -8 153.174 5.40118   2
   2  -1  -8 143.421 8.82015   1
  -2   1   8 149.721 8.89888   1
   2  -1  -7 131.654 4.41120   2
   2  -1  -7 120.484 7.95614   1
  -2   1   7 129.076 7.81977   1
   2  -1  -6 157.151 4.06348   2
   2  -1  -6 155.241 8.19563   1
  -2   1   6 160.557 8.26191   1
   2  -1  -5 152.357 3.23916   2
   2  -1  -5 147.150 7.68009   1
  -2   1   5 150.854 7.49292   1
   2  -1  -4 62.8840 1.67340   2
   2  -1  -4 70.1009 5.02708   1
  -2   1   4 73.6343 5.11473   1
   2  -1  -3 66.6523 1.76050   2
   2  -1  -3 67.5477 4.92841   1
  -2   1   3 60.3812 4.63461   1
  -2   1   3 66.5814 1.77027   2
   2  -1  -2 183.998 7.03473   1
  -2   1   2 182.571 6.78763   1
  -2   1   2 174.690 3.51941   2
  -2   1   1-0.58195 1.01397   2
  -2   1   1-1.49915 1.69226   1
  -2   1   1 2.22858 1.98435   1
  -2   1   0 194.652 5.24287   2
  -2   1   0 197.161 5.96386   1
  -2   1   0 201.655 6.24185   1
  -2   1  -1 7.20297 1.62405   1
  -2   1  -1 7.04097 1.86342   2
  -2   1  -1 11.9538 1.93856   1
  -2   1  -2-0.03618 1.10973   1
  -2   1  -2-3.21472 2.08871   2
   2  -1   2 0.35256 1.18340   1
   2  -1   3 144.227 4.28507   1
  -2   1  -3 126.020 3.99047   1
   2  -1   4 810.872 9.63366   1
  -2   1  -4 788.914 9.58443   1
   2  -1   5 73.8297 3.18102   1
  -2   1  -5 78.8765 3.30987   1
  -2   1  -6 83.1172 3.59623   1
   2  -1   6 83.1064 3.55409   1
   2  -1   7 19.8769 2.27752   1
  -2   1  -7 18.9960 2.25037   1
   2  -1   8 85.7422 4.19322   1
  -2   1  -8 80.3857 4.10279   1
  -2   1  -9 7.99617 2.41841   1
  -2   1  -9 2.25304 4.84684   2
   2  -1   9 5.77566 2.28715   1
  -2   1 -10 103.721 9.20689   2
   2  -1  10 110.840 5.35999   1
  -2   1 -10 104.227 5.34585   1
  -2   1 -11-4.14214 3.02784   1
   2  -1  11 1.84268 2.73121   1
  -2   1 -12 0.74119 3.22012   1
  -2   1 -12 8.23073 6.46971   2
   2  -1  12 2.86983 3.13515   1
   2  -1  13 4.49414 3.74214   1
  -2   1 -13 3.80988 8.59448   2
  -2   1 -13 4.90892 4.01059   1
   2  -1  14-3.33000 4.32672   1
  -2   1 -14 9.18567 9.78946   2
  -2   1 -14 0.68149 4.48187   1
   2   0 -15-2.16513 6.10177   2
   2   0 -15 6.71220 5.74637   2
  -2   0  15 4.27681 8.10471   1
  -2   0  14-3.60193 7.67917   1
   2   0 -14 0.57206 4.68236   2
   2   0 -14 2.84726 8.08075   1
   2   0 -14 1.16030 4.80235   2
   2   0 -13-4.12688 3.96755   2
  -2   0  13-7.34416 5.64052   1
   2   0 -13-1.21299 3.81864   2
   2   0 -13 1.33478 6.50637   1
   2   0 -12-0.42346 3.18746   2
  -2   0  12 6.36752 5.50438   1
   2   0 -12 1.68263 3.28618   2
   2   0 -12-1.27743 5.73035   1
   2   0 -11 28.8221 3.87013   2
   2   0 -11 27.5464 3.68101   2
  -2   0  11 40.1325 6.49860   1
   2   0 -11 34.4032 6.58130   1
   2   0 -10 23.7138 3.19116   2
   2   0 -10 35.2304 5.67288   1
  -2   0  10 27.6194 4.98612   1
   2   0 -10 28.8064 3.32223   2
   2   0  -9-0.49910 1.86171   2
  -2   0   9 2.29819 3.29840   1
   2   0  -9 2.24158 1.91557   2
   2   0  -9-1.18664 4.20057   1
   2   0  -8 102.572 4.02190   2
   2   0  -8 112.450 7.95041   1
  -2   0   8 107.017 7.30401   1
   2   0  -8 102.907 4.01502   2
   2   0  -7 326.765 5.68597   2
   2   0  -7 330.273 11.8250   1
  -2   0   7 329.993 11.6920   1
   2   0  -7 323.323 5.64456   2
   2   0  -6 16.6834 1.07062   2
   2   0  -6 14.7005 1.03072   2
   2   0  -6 18.7831 3.79964   1
  -2   0   6 16.1940 3.25569   1
   2   0  -5 594.134 14.2005   1
  -2   0   5 595.903 13.8724   1
  -2   0   4 8.45597 2.92240   1
  -2   0   3 6.34066 2.59975   1
  -2   0   3 6.12734 2.20126   1
  -2   0   2 133.207 2.87527   2
  -2   0   2 141.495 5.69106   1
  -2   0   2 141.275 5.97672   1
  -2   0   1 124.010 5.12943   1
  -2   0   0 1420.48 15.8263   1
   2   0   0 1341.85 15.5810   1
   2   0   1 1111.34 13.6714   1
  -2   0  -1 1079.66 13.5289   1
   2   0   2 64.1780 3.48751   1
  -2   0  -2 65.3808 3.54253   1
   2   0   3 219.098 6.20003   1
  -2   0  -3 218.873 6.16906   1
  -2   0  -4 299.372 7.40571   1
   2   0   4 302.007 7.39258   1
   2   0   5 3.22430 1.87612   1
  -2   0  -5 0.84606 1.71864   1
  -2   0  -6 45.5405 3.58727   1
   2   0   6 48.8529 3.68394   1
   2   0   7 29.3758 3.31214   1
  -2   0  -7 27.6104 3.19291   1
  -2   0  -8 4.60481 2.45805   1
   2   0   8 6.20142 2.46084   1
  -2   0  -9 10.9044 3.20298   1
   2   0   9 9.00602 3.05087   1
   2   0  10 172.567 7.89511   1
  -2   0 -10 160.264 7.78706   1
   2   0  11 23.6406 4.48227   1
  -2   0 -11 21.6704 4.60813   1
  -2   0 -12 1.39882 4.31276   1
   2   0  12-0.98690 4.17996   1
  -2   0 -13-1.51599 5.02090   1
  -2   0 -13-1.15711 7.42180   2
   2   0  13 0.43793 4.64891   1
  -2   0 -14-0.40802 6.07723   1
  -2   0 -14 12.9871 9.70626   2
   2   0  14-2.38494 5.43929   1
   2   1 -16-0.08440 6.11132   2
   2   1 -16 4.43997 6.26556   2
  -2  -1  16-1.13817 8.63927   1
  -2  -1  16-0.64390 8.78451   1
  -2  -1  15 5.85611 7.87528   1
  -2  -1  15 12.9535 7.92817   1
   2   1 -15 12.9927 5.70583   2
   2   1 -15 10.2932 5.35843   2
   2   1 -14 37.7996 5.46897   2
  -2  -1  14 27.3834 7.22581   1
  -2  -1  14 28.1819 7.47453   1
   2   1 -14 25.7344 5.08360   2
  -2  -1  13 21.1020 6.30830   1
   2   1 -13 30.5535 4.88452   2
  -2  -1  13 38.6029 7.31954   1
   2   1 -12 13.9058 3.57644   2
  -2  -1  12 19.4115 5.55897   1
  -2  -1  12 15.9993 5.56792   1
  -2  -1  11 4.62887 4.33703   1
   2   1 -11 8.07914 2.95728   2
  -2  -1  11 9.02534 4.73907   1
  -2  -1  10 19.9843 4.59693   1
  -2  -1  10 18.8775 4.84145   1
   2   1 -10 22.9908 2.97873   2
   2   1  -9 93.8702 4.26032   2
  -2  -1   9 100.603 7.54704   1
  -2  -1   9 100.417 7.27709   1
  -2  -1   8-2.13260 3.54798   1
  -2  -1   8-1.55853 3.25384   1
   2   1  -8-1.30090 1.41655   2
  -2  -1   7 197.865 9.05275   1
  -2  -1   7 209.510 8.89281   1
   2   1  -7 200.349 4.46037   2
   2   1  -6 149.399 3.18067   2
  -2  -1   6 143.735 7.52274   1
  -2  -1   6 154.567 7.41812   1
  -2  -1   5 117.993 6.31403   1
  -2  -1   5 127.887 6.76719   1
   2   1  -5 129.701 2.37018   2
  -2  -1   4 2.31762 0.55340   2
  -2  -1   4 4.92422 2.60454   1
  -2  -1   4 7.21418 2.63620   1
  -2  -1   3 241.210 4.15498   2
   2   1  -3 239.139 7.93524   1
  -2  -1   3 252.258 7.97209   1
  -2  -1   2 199.886 6.86470   1
  -2  -1   2 190.711 4.53118   2
   2   1  -2 209.898 7.06355   1
  -2  -1   1 1223.19 13.0104   2
  -2  -1   1 1236.49 16.3780   1
   2   1  -1 1265.13 16.4828   1
   2   1   0 59.4530 3.92250   1
  -2  -1   0 51.8360 3.78098   1
  -2  -1  -1 1016.07 14.5648   1
   2   1   1 992.087 14.4022   1
  -2  -1  -2 26.3737 2.97269   1
   2   1   2 21.8575 2.81765   1
  -2  -1  -3 40.1486 3.50722   1
   2   1   3 43.6998 3.59663   1
  -2  -1  -4 157.820 6.42769   1
   2   1   4 156.811 6.42092   1
  -2  -1  -5 7.93426 2.57523   1
   2   1   5 6.58286 2.44181   1
  -2  -1  -6 119.253 6.26923   1
   2   1   6 126.460 6.34992   1
   2   1   7 159.973 7.45802   1
  -2  -1  -7 172.051 7.77760   1
   2   1   8 524.139 13.5848   1
  -2  -1  -8 512.432 13.4851   1
   2   1   9 22.8929 4.36337   1
  -2  -1  -9 27.4147 4.58015   1
  -2  -1 -10-3.03063 4.18095   1
   2   1  10 1.23699 3.90030   1
  -2  -1 -11 6.25969 4.56889   1
   2   1  11 8.16258 4.76510   1
  -2  -1 -12 7.94389 5.97453   1
   2   1  12 7.11663 5.50267   1
  -2  -1 -13 5.37568 6.25161   1
   2   1  13-0.13957 6.48624   1
  -2  -2  16 8.01027 8.24937   1
   2   2 -16 14.5826 6.32793   2
  -2  -2  16 17.4711 8.57590   1
  -2  -2  15 6.76124 7.11818   1
  -2  -2  15 18.4796 7.94902   1
   2   2 -15-0.26550 5.05767   2
  -2  -2  14-0.51736 6.16471   1
  -2  -2  14 4.18250 6.17371   1
   2   2 -14 3.41848 4.21751   2
  -2  -2  13-2.98281 5.05500   1
  -2  -2  13-7.71330 5.01248   1
   2   2 -13-1.25070 3.40493   2
  -2  -2  12 5.15538 4.73986   1
  -2  -2  12-0.24507 4.26473   1
   2   2 -12-0.29646 3.00307   2
   2   2 -11 37.1701 3.96705   2
  -2  -2  11 46.8394 5.89583   1
  -2  -2  11 37.9474 5.99404   1
   2   2 -10 115.779 5.41765   2
  -2  -2  10 116.302 8.13015   1
  -2  -2  10 118.007 8.13678   1
   2   2  -9 170.496 5.86553   2
  -2  -2   9 157.887 8.69752   1
  -2  -2   9 144.886 8.64390   1
   2   2  -8 134.243 4.81633   2
  -2  -2   8 136.779 7.58524   1
  -2  -2   8 129.260 7.71447   1
   2   2  -7 173.705 5.00270   2
  -2  -2   7 181.614 8.33924   1
  -2  -2   7 176.643 8.46705   1
   2   2  -6 485.157 7.66100   2
  -2  -2   6 477.217 7.54386   2
  -2  -2   6 444.463 12.1120   1
  -2  -2   6 471.804 13.0199   1
  -2  -2   5 109.397 3.64201   2
  -2  -2   5 117.744 6.34554   1
   2   2  -5 113.288 3.76618   2
  -2  -2   5 115.171 6.74667   1
   2   2  -4 113.140 3.86531   2
  -2  -2   4 106.508 3.72355   2
  -2  -2   4 108.446 5.93850   1
   2   2  -4 113.457 6.07046   1
   2   2  -3 3.57065 2.35119   1
  -2  -2   3 1.55421 1.36069   2
   2   2  -3 3.78773 1.48916   2
  -2  -2   2 119.817 4.61089   2
   2   2  -2 120.929 5.77326   1
  -2  -2   2 113.417 5.81773   1
  -2  -2   1 57.9205 3.71585   2
   2   2  -1 55.0110 4.23560   1
  -2  -2   1 56.8586 4.38488   1
   2   2   0 83.2716 5.07484   1
  -2  -2   0 78.0799 4.72824   1
  -2  -2   0 76.8324 4.46218   2
  -2  -2  -1 333.574 9.41826   1
  -2  -2  -1 321.345 9.28201   2
   2   2   1 340.366 9.58765   1
  -2  -2  -2 19.5689 3.52957   2
  -2  -2  -2 25.2589 3.45223   1
   2   2   2 24.5989 3.46491   1
   2   2   3 5.01236 2.48559   1
  -2  -2  -3-1.03263 2.94365   2
  -2  -2  -3 4.12345 2.31243   1
  -2  -2  -4 29.3170 3.79357   1
   2   2   4 32.9489 3.88748   1
   2   2   5 139.066 7.19600   1
  -2  -2  -5 142.987 7.41470   1
  -2  -2  -6 222.509 9.39321   1
   2   2   6 232.621 9.49462   1
   2   2   7 41.9178 5.15728   1
  -2  -2  -7 40.0784 5.05947   1
  -2  -2  -8 2.64465 3.63813   1
   2   2   8 4.02526 3.82457   1
  -2  -2  -9 14.8960 6.19075   2
  -2  -2  -9 10.8351 4.60247   1
   2   2   9 26.2210 5.35563   1
  -2  -2 -10 8.88281 7.38383   2
  -2  -2 -10 6.89566 5.12843   1
   2   2  10 8.50406 5.18099   1
  -2  -2 -11-1.87649 8.25058   2
  -2  -2 -11 3.32802 5.63153   1
   2   2  11 6.34176 5.45985   1
  -2  -2 -12 9.20036 6.66940   1
   2   2  12-2.39834 6.29280   1
  -2  -2 -13-18.6394 11.0054   2
  -2  -2 -13-0.35555 7.46921   1
   2   2  13 4.46805 7.28273   1
  -2  -3  16 4.86153 8.04670   1
  -2  -3  16 16.3263 8.02444   1
   2   3 -16-3.70679 6.58172   2
  -2  -3  15-12.7968 6.42395   1
  -2  -3  15-7.77257 6.29925   1
   2   3 -15-8.80820 5.16366   2
  -2  -3  14-2.32349 5.91148   1
  -2  -3  14 6.47652 5.67000   1
   2   3 -14-5.37125 4.28310   2
  -2  -3  13 14.7877 5.83393   1
   2   3 -13 24.1167 4.38062   2
  -2  -3  13 16.6108 5.75378   1
  -2  -3  12 22.0493 5.54489   1
  -2  -3  12 7.84338 4.99240   1
   2   3 -12 17.5123 3.92972   2
   2   3 -11 89.3266 5.63704   2
  -2  -3  11 85.8230 7.31419   1
  -2  -3  11 97.9542 8.08405   1
  -2  -3  10 12.5555 4.32800   1
  -2  -3  10 9.12236 3.65031   1
   2   3 -10 9.24342 2.75116   2
   2   3  -9 91.3393 4.98876   2
  -2  -3   9 87.0845 6.64369   1
  -2  -3   9 97.9019 7.28719   1
   2   3  -8 108.924 5.07550   2
  -2  -3   8 112.609 6.96341   1
  -2  -3   8 115.526 5.16637   2
  -2  -3   8 102.248 7.18398   1
  -2  -3   7 2.65862 2.51933   1
   2   3  -7 1.59467 1.65348   2
  -2  -3   7 2.71263 1.92938   2
  -2  -3   7 1.00699 2.74761   1
  -2  -3   6 31.4409 4.21729   1
   2   3  -6 33.9370 3.00063   2
  -2  -3   6 31.5047 2.89225   2
   2   3  -6 34.5359 4.16072   1
   2   3  -5 505.637 9.70874   2
  -2  -3   5 484.018 9.34077   2
  -2  -3   5 493.469 12.6502   1
   2   3  -5 497.783 12.7653   1
   2   3  -4 58.5395 3.72747   2
  -2  -3   4 59.6966 3.67670   2
   2   3  -4 62.6162 4.83261   1
  -2  -3   4 62.4710 4.95904   1
   2   3  -3 1239.40 15.9783   2
  -2  -3   3 1255.17 16.0590   2
   2   3  -3 1256.63 19.3348   1
  -2  -3   3 1276.43 19.6497   1
  -2  -3   2 63.0755 4.26034   2
   2   3  -2 66.5608 4.84518   1
   2   3  -2 74.5067 4.46963   2
  -2  -3   2 68.2978 5.14771   1
   2   3  -1 119.123 6.50233   1
  -2  -3   1 117.409 5.70792   2
  -2  -3   1 114.520 6.32580   1
  -2  -3   0 179.496 7.48188   2
  -2  -3   0 184.781 7.85921   1
   2   3   0 177.242 7.78412   1
   2   3   1 3.67635 2.89010   1
  -2  -3  -1 4.38978 2.75179   2
  -2  -3  -1 6.40744 2.78497   1
   2   3   2 3.70312 2.76055   1
  -2  -3  -2 3.74921 2.63301   1
  -2  -3  -2 5.98169 3.07689   2
  -2  -3  -3 36.8367 4.54267   1
   2   3   3 32.9659 4.45803   1
  -2  -3  -3 38.0543 4.91835   2
  -2  -3  -4 59.1419 5.77898   1
   2   3   4 57.3797 5.49573   1
  -2  -3  -4 59.3407 5.87768   2
  -2  -3  -5 52.6474 5.69094   1
   2   3   5 49.3642 5.48439   1
  -2  -3  -5 52.8692 5.96280   2
  -2  -3  -6 111.708 7.86105   1
   2   3   6 116.637 7.83654   1
  -2  -3  -6 107.129 8.64199   2
  -2  -3  -7 2.72509 4.09894   1
   2   3   7 4.16601 3.87765   1
  -2  -3  -7-8.37057 5.84820   2
  -2  -3  -8-8.99695 5.76298   2
  -2  -3  -8-3.33556 4.40169   1
   2   3   8 6.75543 4.96232   1
  -2  -3  -9 48.0909 8.56883   2
   2   3   9 60.9712 7.77584   1
  -2  -3  -9 48.9948 7.29672   1
  -2  -3 -10 1.42110 6.45340   2
  -2  -3 -10-3.04105 6.02395   1
   2   3  10 7.39608 6.08568   1
  -2  -3 -11-0.29811 6.58151   1
  -2  -3 -11 3.02794 7.59014   2
   2   3  11 1.88724 6.74949   1
  -2  -3 -12-8.63224 10.1409   2
  -2  -3 -12-3.53727 8.01580   1
   2   3  12-3.32806 8.04582   1
  -2  -4  16 11.7231 7.53037   1
   2   4 -16 23.6756 6.77512   2
  -2  -4  16 24.3676 7.96801   1
  -2  -4  15 4.92602 6.82515   1
   2   4 -15 5.55027 5.33325   2
  -2  -4  15 12.5293 6.82127   1
  -2  -4  14 2.46647 5.91635   1
   2   4 -14 8.02431 4.76837   2
  -2  -4  14 12.2828 5.63465   1
  -2  -4  13-0.62291 5.21294   1
   2   4 -13 3.73559 4.09363   2
  -2  -4  13 4.32679 5.10305   1
  -2  -4  12 22.1146 5.67362   1
   2   4 -12 19.4841 4.21307   2
  -2  -4  12 17.5006 5.23622   1
   2   4 -11 1.85249 3.02809   2
  -2  -4  11-3.90077 4.32289   1
   2   4 -10 9.35228 3.24880   2
  -2  -4  10 3.09425 3.71626   1
  -2  -4  10 9.15409 4.03192   1
  -2  -4   9 14.9867 3.20646   2
  -2  -4   9 18.4533 4.31956   1
   2   4  -9 19.0321 3.28777   2
  -2  -4   9 10.8472 4.36198   1
   2   4  -8 1.20242 2.26850   2
  -2  -4   8 0.07353 2.84995   1
  -2  -4   8-2.52786 2.34643   2
  -2  -4   8 2.59856 3.28408   1
  -2  -4   7 67.9709 5.75416   1
   2   4  -7 76.3207 4.83030   2
  -2  -4   7 67.4690 4.61954   2
   2   4  -7 69.3424 5.88315   1
   2   4  -6 328.994 9.28596   2
  -2  -4   6 315.654 8.99249   2
   2   4  -6 316.156 11.0947   1
  -2  -4   6 331.635 11.2247   1
   2   4  -5 24.1178 3.26877   2
  -2  -4   5 27.3629 3.31528   2
   2   4  -5 24.6045 4.02255   1
  -2  -4   5 27.3706 4.16182   1
   2   4  -4 76.2833 5.53862   1
  -2  -4   4 76.1705 4.94195   2
   2   4  -4 77.1069 4.94655   2
  -2  -4   4 75.2350 5.82298   1
   2   4  -3 57.7015 4.58839   2
   2   4  -3 53.1854 5.07656   1
  -2  -4   3 59.1876 5.18286   1
  -2  -4   3 56.1292 4.44069   2
   2   4  -2 70.6321 5.09191   2
   2   4  -2 76.4092 5.87048   1
  -2  -4   2 77.5733 5.27519   2
  -2  -4   2 64.9341 5.48814   1
   2   4  -1 1.69242 2.68891   2
  -2  -4   1-0.20655 2.32800   2
   2   4  -1-1.87199 2.97021   1
  -2  -4   1 0.49614 2.86562   1
  -2  -4   0 118.653 6.99656   2
  -2  -4   0 124.402 7.29242   1
   2   4   0 110.447 7.10048   1
  -2  -4  -1 97.6558 6.85021   2
  -2  -4  -1 85.2537 6.43433   1
   2   4   1 94.9334 6.84349   1
  -2  -4  -2 183.070 9.05895   1
  -2  -4  -2 185.991 9.23398   2
   2   4   2 186.776 9.10090   1
  -2  -4  -3 16.0718 4.47378   2
  -2  -4  -3 16.2310 3.94008   1
   2   4   3 15.8308 4.31368   1
  -2  -4  -4 422.647 14.8358   2
  -2  -4  -4 415.832 14.4461   1
   2   4   4 419.767 14.1967   1
  -2  -4  -5 8.12215 5.07031   2
  -2  -4  -5 10.1980 4.19402   1
   2   4   5 3.65066 4.25036   1
  -2  -4  -6-1.10348 4.53089   2
  -2  -4  -6 3.51027 4.50661   1
   2   4   6 9.35814 4.65708   1
  -2  -4  -7 3.19417 5.82950   2
  -2  -4  -7 12.4539 5.29040   1
   2   4   7 11.9722 5.70647   1
  -2  -4  -8 5.06329 7.18899   2
  -2  -4  -8 4.39867 5.82722   1
   2   4   8 0.44993 5.47521   1
  -2  -4  -9 36.1125 7.85638   2
   2   4   9 39.0099 7.69697   1
  -2  -4  -9 42.9436 7.77511   1
  -2  -4 -10-2.49445 8.87665   2
  -2  -4 -10 3.69470 7.63083   1
   2   4  10 8.16568 7.60274   1
  -2  -4 -11 6.93863 10.5823   2
  -2  -4 -11 16.1831 9.48660   1
   2   4  11 2.60395 9.21949   1
  -2  -5  16 15.6109 8.21163   1
   2   5 -16 10.8074 7.30164   2
  -2  -5  16 18.6282 8.60741   1
  -2  -5  15 7.39446 6.67317   1
   2   5 -15 16.0504 5.96066   2
  -2  -5  15 9.55268 6.68183   1
  -2  -5  14-2.80452 6.17557   1
   2   5 -14 3.58082 4.69895   2
  -2  -5  14 2.48879 5.83270   1
  -2  -5  13 12.2637 5.82008   1
   2   5 -13 4.79209 4.56600   2
  -2  -5  13 12.5848 5.42211   1
   2   5 -12 1.53440 3.94420   2
  -2  -5  12 1.28303 4.42830   1
  -2  -5  12 4.52791 4.91060   1
   2   5 -11 2.67001 3.50300   2
  -2  -5  11-0.40615 4.10510   1
  -2  -5  11 1.57309 4.31485   1
  -2  -5  11 8.72428 3.95056   2
   2   5 -10 0.06669 3.18278   2
  -2  -5  10 2.92484 3.79022   1
  -2  -5  10 1.27743 3.17736   2
  -2  -5  10 8.26028 4.42303   1
  -2  -5   9 6.01257 3.96947   1
   2   5  -9 3.53117 3.19628   2
  -2  -5   9-0.77962 3.09179   2
  -2  -5   9 6.75695 4.13883   1
  -2  -5   8 8.10177 3.89874   1
   2   5  -8 10.3619 3.36514   2
   2   5  -8 10.0819 4.04376   1
  -2  -5   8 12.0205 3.38698   2
   2   5  -7 174.070 7.88667   2
  -2  -5   7 168.758 7.68543   2
   2   5  -7 182.607 9.13562   1
  -2  -5   7 168.278 9.05266   1
  -2  -5   6 10.2724 3.65855   1
   2   5  -6 8.66052 3.14678   2
  -2  -5   6 7.95544 3.02286   2
   2   5  -6 7.02864 3.62845   1
   2   5  -5 50.7461 4.85442   2
  -2  -5   5 48.5539 4.62950   2
  -2  -5   5 48.0117 5.38886   1
   2   5  -5 48.8806 5.29363   1
   2   5  -4 2.48953 2.68696   2
  -2  -5   4 4.13298 2.95940   2
  -2  -5   4 1.21372 2.95078   1
   2   5  -4 0.40692 3.23252   1
   2   5  -3 35.2208 4.69917   2
   2   5  -3 30.1295 4.56383   1
  -2  -5   3 35.0746 4.39971   2
  -2  -5   3 36.2675 4.96392   1
   2   5  -2 239.086 9.77403   2
  -2  -5   2 227.016 9.56508   2
  -2  -5   2 223.346 10.0914   1
   2   5  -2 234.946 10.3151   1
   2   5  -1 20.3068 4.33441   1
  -2  -5   1 12.6645 4.16550   1
   2   5  -1 11.8739 3.47795   2
  -2  -5   1 10.7866 3.26927   2
   2   5   0 8.85829 3.63673   2
   2   5   0 7.55566 4.03121   1
  -2  -5   0 7.31181 4.09156   1
  -2  -5   0 7.47481 3.98961   2
  -2  -5  -1 89.1798 7.30100   1
  -2  -5  -1 71.2120 6.77463   2
   2   5   1 87.8619 6.97624   1
   2   5   2 7.33395 4.18997   1
  -2  -5  -2 4.52657 3.91728   1
  -2  -5  -2 4.01748 4.33860   2
  -2  -5  -3 12.0895 4.98175   2
   2   5   3 9.51707 4.07118   1
  -2  -5  -3 8.76989 4.52194   1
  -2  -5  -4 14.8928 5.90617   2
  -2  -5  -4 12.5452 5.28084   1
   2   5   4 17.0166 5.18319   1
  -2  -5  -5-2.52615 5.95960   2
  -2  -5  -5 0.59797 5.09697   1
   2   5   5-1.72299 4.27325   1
  -2  -5  -6-0.12435 6.37368   2
  -2  -5  -6 16.9012 5.77968   1
   2   5   6-1.26280 4.99092   1
  -2  -5  -7 7.23647 6.24658   1
   2   5   7 1.71454 6.24930   1
  -2  -5  -7 7.21326 6.36456   2
  -2  -5  -8 39.3348 8.02458   1
   2   5   8 54.5471 9.03593   1
  -2  -5  -9 84.0261 11.8785   2
   2   5   9 65.2577 10.7746   1
  -2  -5  -9 74.8077 11.2101   1
  -2  -5 -10 12.3229 11.5557   2
  -2  -5 -10-0.75035 8.68297   1
   2   5  10 12.2365 8.80447   1
  -2  -6  16 0.11840 7.83847   1
  -2  -6  16-6.41103 7.87235   1
   2   6 -16 0.69817 7.42256   2
  -2  -6  15 0.52168 7.18486   1
  -2  -6  15-11.4919 6.80674   1
   2   6 -15-8.73945 7.08869   2
  -2  -6  14-4.27289 6.10775   1
  -2  -6  14-13.7157 6.79971   1
   2   6 -14 8.30566 6.08802   2
  -2  -6  13 4.40857 5.90029   1
  -2  -6  13 8.30270 5.48798   1
   2   6 -13 9.91856 5.07779   2
  -2  -6  12-1.18819 4.77447   1
  -2  -6  12-3.44130 5.04766   1
   2   6 -12-0.73583 4.35877   2
  -2  -6  12 10.1676 5.00924   2
  -2  -6  11-2.58065 4.36170   1
   2   6 -11 2.72107 4.13655   2
  -2  -6  11 1.33930 4.27140   2
  -2  -6  11 3.24904 4.79644   1
  -2  -6  10 18.0003 5.01502   1
   2   6 -10 16.3071 4.66244   2
  -2  -6  10 30.1893 5.10894   2
  -2  -6  10 18.6375 5.58565   1
  -2  -6   9 4.77984 3.97808   1
   2   6  -9 11.9626 4.01281   2
  -2  -6   9 11.7414 4.06276   2
   2   6  -9 8.19086 4.23725   1
  -2  -6   8 22.6430 4.84721   1
   2   6  -8 21.7471 4.52375   2
  -2  -6   8 22.5142 4.44109   2
   2   6  -8 23.5876 5.22238   1
   2   6  -7 51.8716 5.49461   2
  -2  -6   7 56.4706 5.56937   2
   2   6  -7 56.9743 6.25745   1
  -2  -6   7 57.8348 6.19202   1
   2   6  -6 3.30566 3.99841   1
   2   6  -6 4.99211 3.47618   2
  -2  -6   6 2.98176 3.31570   2
  -2  -6   6 5.21545 3.77597   1
   2   6  -5 53.1621 5.79130   2
   2   6  -5 60.2107 6.18652   1
  -2  -6   5 58.3577 5.72184   2
  -2  -6   5 57.9863 5.96761   1
  -2  -6   4 64.2504 6.15352   2
   2   6  -4 77.1594 7.01621   1
   2   6  -4 68.8643 6.38019   2
  -2  -6   4 67.8480 6.39363   1
   2   6  -3 89.0108 7.33138   1
   2   6  -3 97.0727 7.26087   2
  -2  -6   3 90.8650 7.14724   2
  -2  -6   3 95.4102 7.29717   1
   2   6  -2 169.059 9.24024   2
  -2  -6   2 162.521 9.08791   2
  -2  -6   2 160.507 9.56493   1
   2   6  -2 144.671 9.28746   1
   2   6  -1 190.474 10.3694   2
  -2  -6   1 197.035 10.4287   2
  -2  -6   1 206.056 10.9359   1
   2   6  -1 201.075 10.8919   1
  -2  -6   0 240.068 11.7175   2
  -2  -6   0 253.379 11.9125   1
   2   6   0 247.001 12.1888   1
   2   6   0 237.433 11.3970   2
  -2  -6  -1 33.3336 6.27520   1
  -2  -6  -1 26.2676 5.17655   2
   2   6   1 25.4818 5.99488   1
  -2  -6  -2 36.5865 6.75618   2
  -2  -6  -2 35.2940 6.07399   1
   2   6   2 45.8426 6.91764   1
  -2  -6  -3 1.30129 5.13536   2
  -2  -6  -3-1.37042 5.42273   1
   2   6   3-0.05623 5.49062   1
  -2  -6  -4-2.30826 6.04144   2
  -2  -6  -4 13.4222 6.06441   1
   2   6   4 4.09751 4.83785   1
  -2  -6  -5 34.7019 7.14155   1
   2   6   5 45.9792 7.49877   1
  -2  -6  -5 53.7539 8.86349   2
  -2  -6  -6 78.8318 10.7485   2
   2   6   6 79.7303 9.77429   1
  -2  -6  -6 70.5253 9.50058   1
  -2  -6  -7-0.53012 7.57862   2
  -2  -6  -7-13.9666 7.48910   1
   2   6   7-3.39791 6.38352   1
  -2  -6  -8 50.5630 11.4939   2
  -2  -6  -8 76.0228 11.4788   1
  -2  -6  -9 7.12932 10.0446   1
   2   6   9 1.91923 9.09687   1
  -2  -6  -9-17.0286 9.71443   2
  -2  -7  15 33.0556 8.26699   1
  -2  -7  15 12.0011 7.58866   1
   2   7 -15 28.0912 8.06101   2
  -2  -7  14 13.6820 6.82180   1
  -2  -7  14-1.58265 6.86469   1
   2   7 -14 3.74856 6.48478   2
  -2  -7  13-0.79544 6.56755   1
  -2  -7  13 6.38811 5.95847   1
   2   7 -13 19.6914 7.01587   2
  -2  -7  13 6.61715 5.94914   2
   2   7 -12-4.16384 5.55789   2
  -2  -7  12 0.39205 5.48559   2
  -2  -7  12-7.09984 6.04472   1
  -2  -7  12 5.00001 5.36326   1
   2   7 -11 28.3899 6.10863   2
  -2  -7  11 33.4733 6.19350   2
  -2  -7  11 28.5501 6.34574   1
  -2  -7  11 22.3695 6.49972   1
   2   7 -10-0.95681 4.70427   1
   2   7 -10 7.09594 4.63702   2
  -2  -7  10 6.18930 4.96216   2
  -2  -7  10 5.14064 4.79565   1
  -2  -7   9 49.0831 6.45526   2
   2   7  -9 51.8205 6.48844   2
  -2  -7   9 52.7774 6.72630   1
   2   7  -9 54.4221 6.83569   1
  -2  -7   8 1.39245 4.23767   2
   2   7  -8 9.44324 4.89757   2
  -2  -7   8 5.47081 4.56030   1
   2   7  -8 0.29007 4.14658   1
   2   7  -7 28.1047 5.58590   1
  -2  -7   7 26.7524 5.01881   2
  -2  -7   7 19.5252 4.76969   1
   2   7  -7 27.4203 5.29269   2
   2   7  -6 2.57785 4.14134   1
   2   7  -6 9.16799 4.19223   2
  -2  -7   6 9.43355 4.59391   2
  -2  -7   6 5.60308 4.21635   1
   2   7  -5 3.77119 3.74493   2
  -2  -7   5-0.34063 4.33594   1
  -2  -7   5 10.7857 4.97168   2
   2   7  -5 3.37033 4.32007   1
   2   7  -4 33.1463 5.90698   2
  -2  -7   4 33.2309 5.50167   2
  -2  -7   4 27.8808 5.41993   1
   2   7  -4 19.3812 5.08788   1
   2   7  -3 8.64156 5.02983   2
  -2  -7   3-2.29020 4.57575   1
  -2  -7   3-0.23898 4.11168   2
   2   7  -3 2.71552 3.88872   1
   2   7  -2 7.02883 4.65859   2
   2   7  -2 11.0948 5.15490   1
  -2  -7   2 11.9866 5.27597   2
  -2  -7   2 6.58409 4.82324   1
   2   7  -1 179.246 10.7854   2
  -2  -7   1 168.708 10.6555   1
  -2  -7   1 163.319 10.7808   2
   2   7  -1 162.299 10.5592   1
  -2  -7   0 36.5236 6.13142   2
   2   7   0 32.3180 6.17984   2
  -2  -7   0 37.9312 6.16175   1
   2   7   0 35.6154 6.67758   1
   2   7   1 20.5605 6.14386   1
  -2  -7  -1 25.7431 5.98368   2
  -2  -7  -1 16.8109 5.84502   1
  -2  -7  -2-0.06125 6.24975   2
   2   7   2 3.24632 5.14760   1
  -2  -7  -2 1.76852 5.59981   1
  -2  -7  -3 13.7225 7.37292   2
  -2  -7  -3 20.5004 7.24664   1
   2   7   3 22.4077 7.29584   1
  -2  -7  -4 4.11078 6.24058   2
  -2  -7  -4 10.9469 6.92084   1
   2   7   4-0.34496 6.68259   1
  -2  -7  -5 80.6620 10.7570   1
  -2  -7  -5 47.1963 9.37006   2
   2   7   5 59.0930 9.88817   1
  -2  -7  -6 86.0959 11.5883   2
  -2  -7  -6 74.1311 11.3755   1
  -2  -7  -7 80.8479 13.1443   2
  -2  -7  -7 64.6494 11.6962   1
  -2  -8  15 22.7700 6.82474   1
   2   8 -15 17.2699 6.26657   2
  -2  -8  15 21.7181 5.90926   1
   2   8 -14 1.27329 8.01256   2
  -2  -8  14 26.9006 8.00305   1
  -2  -8  14 23.9919 8.11761   1
   2   8 -13 16.2107 7.67384   2
  -2  -8  13 17.0290 7.69907   2
  -2  -8  13 7.68182 6.41195   1
  -2  -8  13 2.79122 6.88936   1
   2   8 -12-0.28273 6.70037   2
  -2  -8  12-12.2346 7.05764   2
  -2  -8  12 4.11569 6.36802   1
  -2  -8  12 2.82026 6.91167   1
  -2  -8  11 37.7519 7.45412   2
   2   8 -11 40.4896 7.16642   2
  -2  -8  11 29.4248 6.52815   1
   2   8 -11 36.1632 7.10355   1
   2   8 -10-7.68770 5.79644   2
  -2  -8  10-4.28626 5.35378   1
  -2  -8  10 0.37069 5.39443   2
   2   8 -10 3.97395 5.63573   1
   2   8  -9 19.6513 5.93511   1
   2   8  -9 26.6220 6.62276   2
  -2  -8   9 19.3177 6.09885   1
  -2  -8   9 22.8566 6.34314   2
   2   8  -8 33.6193 6.50929   2
  -2  -8   8 29.0305 6.15981   1
   2   8  -8 22.7405 6.20090   1
  -2  -8   8 24.2432 5.81649   2
   2   8  -7 13.2125 5.43610   1
  -2  -8   7 5.14913 4.65416   2
   2   8  -7 12.3543 5.69355   2
  -2  -8   7 16.7327 5.92261   1
  -2  -8   6 15.1728 5.47244   1
   2   8  -6 6.23248 4.72963   2
  -2  -8   6 7.29887 5.35998   2
   2   8  -6 19.8523 6.09921   1
   2   8  -5 64.5386 7.80601   2
  -2  -8   5 63.1299 7.92484   2
   2   8  -5 77.4075 8.21189   1
  -2  -8   5 76.7193 8.16455   1
  -2  -8   4 25.1722 5.96696   1
   2   8  -4 20.1912 6.58116   2
  -2  -8   4 18.5039 6.25971   2
   2   8  -4 20.4809 6.08230   1
   2   8  -3 83.0943 8.83041   2
  -2  -8   3 68.9975 8.61207   2
  -2  -8   3 74.2205 8.69614   1
   2   8  -3 78.3497 8.85338   1
  -2  -8   2 159.881 11.6573   2
   2   8  -2 168.696 11.2974   2
   2   8  -2 180.084 11.7316   1
  -2  -8   2 168.651 12.0606   1
  -2  -8   1-3.65751 5.25454   1
   2   8  -1-5.47399 5.57092   2
   2   8  -1-6.12358 5.90562   1
  -2  -8   1 0.30689 5.03732   2
   2   8   0 8.85989 6.36479   1
  -2  -8   0 1.67136 5.44577   2
  -2  -8   0-0.53700 7.18201   1
   2   8   0 10.2436 6.94076   2
   2   8   1 1.25056 6.82526   1
  -2  -8  -1 5.68405 7.34684   2
  -2  -8  -1 0.62807 5.91218   1
  -2  -8  -2 24.8906 8.16897   2
   2   8   2 36.6196 8.16262   1
  -2  -8  -2 47.7013 9.42585   1
  -2  -8  -3 5.95803 8.47215   2
  -2  -8  -3 12.2013 7.75717   1
   2   8   3 26.3979 8.93474   1
  -2  -8  -4 52.8958 11.4406   1
  -2  -8  -4 82.7343 11.3567   2
   2   8   4 73.7669 11.6045   1
  -2  -8  -5-0.33662 8.87692   2
  -2  -8  -5-6.70522 10.3802   1
   2   8   5 4.94985 8.41292   1
  -2  -8  -6 3.85417 11.0270   2
  -2  -8  -6-9.33894 9.78207   1
   2   8   6 2.30182 10.8215   1
  -2  -9  14 4.55426 4.09502   1
  -2  -9  14 1.96075 4.30491   1
   2   9 -13 2.92741 8.51196   2
  -2  -9  13 7.22470 7.66815   1
  -2  -9  13 33.7557 9.07483   2
  -2  -9  13 15.9391 8.86452   1
   2   9 -12 0.91132 7.78832   2
  -2  -9  12 0.30458 7.16706   1
  -2  -9  12 12.5846 7.72985   2
   2   9 -11 27.1126 8.16456   1
  -2  -9  11 38.0617 8.56770   1
   2   9 -11 44.6477 9.16581   2
  -2  -9  11 48.7595 8.81317   2
   2   9 -10 15.4133 7.08062   1
  -2  -9  10 14.6922 6.87534   1
  -2  -9  10 2.75396 6.99571   2
   2   9  -9 41.4003 7.74088   2
  -2  -9   9 38.4764 7.94490   1
  -2  -9   9 41.3927 8.05264   2
   2   9  -9 30.6591 7.12741   1
   2   9  -8-1.54477 6.29467   2
  -2  -9   8-0.98374 6.22853   1
   2   9  -8 9.30441 6.29426   1
  -2  -9   8 4.22655 6.01980   2
   2   9  -7-1.22648 6.06168   1
  -2  -9   7-3.79780 5.52641   1
   2   9  -7-3.78343 6.35263   2
  -2  -9   7-9.78735 5.98351   2
   2   9  -6-6.11785 5.99368   2
  -2  -9   6-8.45487 6.10815   2
  -2  -9   6 3.61322 6.30514   1
   2   9  -6-1.19485 5.59831   1
  -2  -9   5 47.4440 8.09794   2
  -2  -9   5 36.2847 7.52622   1
   2   9  -5 40.1216 7.53017   1
   2   9  -5 45.8492 8.49041   2
   2   9  -4 21.7857 7.69931   2
  -2  -9   4-0.53118 6.26392   1
  -2  -9   4-0.96179 6.64676   2
   2   9  -4 22.5101 7.98874   1
  -2  -9   3 0.48166 6.78280   1
   2   9  -3-6.45818 6.63317   2
   2   9  -3 2.94260 6.37298   1
  -2  -9   3 9.80891 6.20332   2
   2   9  -2 16.7047 7.54770   2
   2   9  -2 18.4013 7.65039   1
  -2  -9   2 21.0806 8.10003   2
  -2  -9   2 18.1213 7.95492   1
   2   9  -1 9.74224 7.37687   2
   2   9  -1-4.99400 7.33960   1
  -2  -9   1-11.2415 8.42470   2
  -2  -9   1 1.18682 7.74940   1
   2   9   0 0.91988 8.33634   1
  -2  -9   0 14.3470 6.95008   2
  -2  -9   0 4.69468 7.69256   1
   2   9   1 3.68851 7.41687   1
  -2  -9  -1-11.9262 8.70555   2
  -2  -9  -1 12.1503 7.79716   1
   2   9   2-1.25063 9.76001   1
  -2  -9  -2 7.69369 9.35510   2
  -2  -9  -2-3.00462 8.98244   1
   2   9   3 4.96826 10.6043   1
  -2  -9  -3-12.1676 10.4575   2
  -2  -9  -3 14.6833 10.6857   1
   2   9   4 5.75249 11.6824   1
  -2  -9  -4 3.95800 9.38288   2
  -2  -9  -4-19.0701 11.3082   1
   2  10 -12-8.31456 9.79703   2
  -2 -10  12 17.3026 8.93432   1
  -2 -10  12 2.41362 9.41951   2
   2  10 -12 0.13554 8.23364   1
  -2 -10  11 6.68128 8.35083   1
   2  10 -11 9.41721 9.21309   2
  -2 -10  11 23.4500 9.63582   2
   2  10 -11 28.9877 9.04778   1
   2  10 -10-3.88829 8.62671   1
  -2 -10  10-16.8983 8.55110   1
   2  10 -10-3.89671 9.35661   2
  -2 -10  10 13.4348 8.54274   2
  -2 -10   9 19.1522 8.62563   1
   2  10  -9 12.2649 8.45314   2
  -2 -10   9 14.9691 8.34234   2
   2  10  -9 2.32232 7.95126   1
   2  10  -8 26.4925 8.94243   1
   2  10  -8 17.6458 8.42682   2
  -2 -10   8 23.7344 8.85267   2
  -2 -10   8 21.3100 8.34766   1
   2  10  -7 15.6066 8.70537   1
  -2 -10   7 18.8893 8.27919   1
   2  10  -7 16.3909 7.93041   2
  -2 -10   7 11.2517 8.70088   2
  -2 -10   6-1.01360 7.61481   1
   2  10  -6 6.60189 7.78727   2
  -2 -10   6 21.2258 9.16594   2
   2  10  -6-1.86941 7.99231   1
   2  10  -5 8.71193 7.29904   2
  -2 -10   5-0.94469 8.24136   2
   2  10  -5 22.2304 8.43383   1
  -2 -10   5 11.9023 9.04544   1
   2  10  -4-1.73540 7.20329   2
  -2 -10   4 9.99796 7.44433   2
  -2 -10   4 11.8083 7.93837   1
   2  10  -3 16.6564 9.59299   2
   2  10  -3 3.05998 8.87320   1
  -2 -10   3-7.94860 8.74877   2
  -2 -10   3-7.00718 8.59994   1
   2  10  -2 2.10987 8.20611   1
  -2 -10   2 5.43319 9.12950   2
   2  10  -2 8.46680 9.63420   2
  -2 -10   2 10.6545 9.25423   1
   2  10  -1 17.4169 8.53234   1
  -2 -10   1 30.8891 9.33280   2
   2  10  -1 15.0589 8.48944   2
  -2 -10   1 3.64144 8.26131   1
   2  10   0 4.38338 8.90446   1
  -2 -10   0 4.17915 10.2681   2
  -2 -10   0 7.61398 8.94938   1
   2  10   1 15.0253 12.4585   1
  -2 -10  -1 10.0544 11.7996   2
  -2 -10  -1 25.4924 11.9414   1
   2  11  -9-10.2940 8.40374   2
   2  11  -9-1.07128 7.90225   1
  -2 -11   9-8.10759 8.21681   2
  -2 -11   8 17.8130 9.76517   1
   2  11  -8 5.17022 9.06358   1
  -2 -11   8 24.1004 11.0319   2
   2  11  -8 7.40854 11.0378   2
  -2 -11   7-6.82895 10.0833   1
   2  11  -7 13.8213 10.1849   2
  -2 -11   7 3.00972 10.2626   2
   2  11  -7-4.25932 9.08525   1
   2  11  -6-1.84471 9.29338   2
  -2 -11   6-11.3351 8.89946   2
   2  11  -6-13.5540 9.84783   1
  -2 -11   6 14.5677 10.8869   1
   2  11  -5-9.71962 10.4203   2
  -2 -11   5 2.49486 10.8326   2
   2  11  -5 29.5071 10.0038   1
  -2 -11   5 1.28255 10.3737   1
  -2 -11   4 4.45991 11.5382   2
   2  11  -4-6.66995 11.4041   1
   2  11  -4-0.95324 10.8741   2
  -2 -11   4 19.3770 10.0109   1
   2  11  -3-6.32891 11.5604   2
   2  11  -3-13.3110 11.2823   1
  -2 -11   3 14.0060 12.1712   2
  -2 -11   3-10.7381 10.9168   1
   3 -11   3 16.5963 6.55040   1
  -3  11  -3 22.8396 7.59004   2
  -3  11  -3 13.7749 6.01061   1
   3 -11   3 19.3509 7.58421   2
  -3  11  -4-14.2033 6.74933   1
   3 -11   5 11.7256 5.59675   1
   3 -11   5 20.0273 7.87908   2
  -3  11  -5 20.8747 5.79063   1
  -3  10   2 17.2316 10.8575   1
  -3  10   2 6.05784 9.47930   2
   3 -10  -2 13.2342 9.79766   2
   3 -10  -2-2.67601 9.65690   1
  -3  10   1-17.1871 10.4714   1
   3 -10  -1 12.1964 10.3859   1
  -3  10   1 7.58833 8.48631   2
   3 -10  -1-14.8183 9.53054   2
  -3  10   0 10.7148 8.01400   1
   3 -10   0 5.65774 8.64986   1
  -3  10   0 19.1871 9.04193   2
   3 -10   0-2.17475 8.50857   2
   3 -10   1 12.6733 8.45046   1
  -3  10  -1-0.19509 7.57906   1
  -3  10  -1 23.4291 9.34325   2
   3 -10   1 21.1831 8.99814   2
   3 -10   2 26.4560 8.49594   1
  -3  10  -2 5.30339 7.93756   2
  -3  10  -2 10.7918 6.79537   1
   3 -10   2 5.70498 7.80332   2
   3 -10   3 5.87593 7.18253   1
  -3  10  -3-1.98145 8.51040   2
  -3  10  -3 10.8861 6.91772   1
   3 -10   3-5.88146 8.15191   2
   3 -10   4-5.81834 6.48942   1
  -3  10  -4 6.77554 8.47475   2
  -3  10  -4-9.41370 6.10299   1
   3 -10   4 4.60347 8.98579   2
   3 -10   5 10.1267 5.93689   1
  -3  10  -5-4.47185 8.66578   2
   3 -10   5-5.55533 9.17252   2
  -3  10  -5 0.50656 5.36338   1
   3 -10   6-0.07609 5.32411   1
  -3  10  -6-3.10051 8.15075   2
   3 -10   6-6.58169 9.53576   2
  -3  10  -6-5.94815 5.01892   1
  -3  10  -7 5.12227 4.00027   1
  -3  10  -7 10.4024 8.45392   2
   3 -10   7 7.70097 9.98476   2
   3 -10   7-3.57827 4.46207   1
  -3  10  -8 6.61105 1.66799   1
   3 -10   8-5.32872 8.96932   2
  -3  10  -9-3.34789 10.6020   2
   3 -10   9-5.95720 9.30132   2
   3  -9  -5 2.82444 11.7129   1
  -3   9   5 11.0663 8.70492   2
  -3   9   5-9.56444 9.27001   1
   3  -9  -5 14.8167 8.63846   2
  -3   9   4-2.91974 9.27843   1
   3  -9  -4 11.8332 10.5787   1
  -3   9   4 7.40199 8.07843   2
   3  -9  -4-5.10748 8.19569   2
   3  -9  -3 19.0978 10.3798   1
  -3   9   3 12.6597 8.09734   2
   3  -9  -3 11.6542 7.80700   2
  -3   9   3-9.32790 8.59824   1
  -3   9   2-11.5463 7.20713   1
   3  -9  -2 4.65815 8.11788   1
  -3   9   2 6.67729 7.79469   2
   3  -9  -2 7.22136 7.12679   2
  -3   9   1-3.07333 6.78917   1
  -3   9   1 2.66191 6.94837   2
   3  -9  -1-0.48450 6.54208   2
   3  -9  -1 11.6182 8.18805   1
  -3   9   0 3.64257 6.55293   1
   3  -9   0 14.1269 7.27929   1
  -3   9   0 18.3246 7.35467   2
   3  -9   0-5.33684 6.79058   2
  -3   9  -1 16.1340 6.59245   1
   3  -9   1 13.7688 6.52967   1
  -3   9  -1-1.18829 6.99637   2
   3  -9   1 21.5941 7.33416   2
   3  -9   2 5.71374 5.74776   1
  -3   9  -2-2.74339 5.62212   1
  -3   9  -2-3.40411 7.40155   2
   3  -9   2-1.49326 6.96351   2
  -3   9  -3 13.3344 5.36700   1
  -3   9  -3 8.68014 6.25771   2
   3  -9   3 17.2306 7.48461   2
   3  -9   3 9.93371 5.63206   1
   3  -9   4 2.79646 4.82474   1
  -3   9  -4 5.18936 6.37024   2
  -3   9  -4 10.5615 4.86985   1
   3  -9   4 2.09931 6.66016   2
   3  -9   5 0.48941 4.56802   1
  -3   9  -5 2.53297 7.36589   2
  -3   9  -5 14.3359 4.63748   1
   3  -9   5 5.88421 6.41471   2
   3  -9   6 5.32171 4.00841   1
  -3   9  -6-0.63688 6.90008   2
   3  -9   6-3.71126 8.17484   2
  -3   9  -6 7.29392 3.76620   1
  -3   9  -7-4.00645 2.92796   1
  -3   9  -7 15.7028 7.90050   2
   3  -9   7 8.86526 8.64277   2
   3  -9   7 0.53809 2.84650   1
  -3   9  -8 6.18051 9.23699   2
   3  -9   8 13.1253 8.02559   2
  -3   9  -9 1.20146 9.14994   2
   3  -9   9 21.8263 9.68256   2
  -3   9 -10 24.0241 10.7840   2
  -3   9 -11-0.53316 9.78847   2
   3  -8  -7 18.8118 10.8139   1
   3  -8  -7 8.42004 8.15465   2
  -3   8   7 6.11862 12.0666   1
   3  -8  -6 10.0490 7.34748   2
  -3   8   6 33.6919 10.1190   1
  -3   8   5 9.62966 7.16693   2
   3  -8  -5-0.37512 6.32745   2
   3  -8  -5-12.0194 9.19463   1
  -3   8   5 10.8377 9.56540   1
  -3   8   4 47.3820 10.1450   1
   3  -8  -4 21.0841 8.94633   1
  -3   8   4 29.5429 7.40972   2
   3  -8  -4 25.3420 6.98848   2
   3  -8  -3 4.88612 6.50759   1
  -3   8   3 6.64620 6.06754   2
   3  -8  -3 3.96261 5.64335   2
  -3   8   3 11.9791 7.31209   1
   3  -8  -2 9.96958 7.37027   1
  -3   8   2-9.56265 5.77640   2
   3  -8  -2 2.99343 5.58043   2
  -3   8   2 9.63373 6.14477   1
  -3   8   1 30.8339 7.12634   1
   3  -8  -1 33.1849 6.77713   2
   3  -8  -1 38.2327 8.02139   1
  -3   8   1 41.4722 7.45269   2
   3  -8   0 6.35290 5.88938   1
  -3   8   0-0.63896 5.31927   2
   3  -8   0-2.75667 5.22066   2
  -3   8   0 3.80838 5.75341   1
  -3   8  -1 41.7348 6.82775   2
   3  -8   1 54.1269 7.43797   2
  -3   8  -1 39.2377 6.29968   1
   3  -8   1 33.3044 6.39560   1
   3  -8   2 0.09295 4.44230   1
  -3   8  -2-2.14759 5.50510   2
  -3   8  -2-1.15153 4.34597   1
   3  -8   2 1.46275 4.93863   2
   3  -8   3 23.6202 5.03782   1
  -3   8  -3 23.7824 4.94672   1
  -3   8  -3 20.1224 6.01547   2
   3  -8   3 16.6732 6.23849   2
   3  -8   4-2.17760 4.06402   1
  -3   8  -4-2.62193 3.89562   1
  -3   8  -4-0.93627 6.02040   2
   3  -8   4-0.86815 5.40962   2
  -3   8  -5 42.2842 7.50813   2
  -3   8  -5 30.6435 4.47789   1
   3  -8   5 24.6909 6.89644   2
   3  -8   5 31.2067 4.66223   1
  -3   8  -6 13.3627 7.24136   2
   3  -8   6 6.87734 6.47415   2
  -3   8  -6 3.28081 2.64603   1
   3  -8   6-0.06713 2.95152   1
  -3   8  -7 5.23312 6.90714   2
  -3   8  -7 3.26780 1.11314   1
  -3   8  -7 3.83016 1.24271   1
   3  -8   7 4.53290 6.85948   2
  -3   8  -8-3.13976 6.29497   2
   3  -8   8 18.4204 7.43956   2
  -3   8  -9 23.4449 7.80467   2
  -3   8 -10 1.38574 8.80273   2
  -3   8 -11 15.7026 8.47836   2
  -3   8 -12 6.37890 9.83601   2
   3  -7  -8 9.72286 9.32356   1
   3  -7  -8 18.5222 7.08676   2
  -3   7   8 25.1115 10.1622   1
   3  -7  -7 2.48818 5.97534   2
  -3   7   7-5.93262 7.77667   1
   3  -7  -6 22.8403 5.94901   2
  -3   7   6 21.3803 8.68438   1
   3  -7  -6 36.1931 9.89923   1
   3  -7  -5 8.84617 7.77515   1
  -3   7   5 5.96591 5.27287   2
   3  -7  -5 13.3372 5.56540   2
  -3   7   5 15.3589 7.54908   1
   3  -7  -4-8.52829 6.34862   1
  -3   7   4 11.3996 5.22360   2
   3  -7  -4 4.95648 4.83244   2
  -3   7   4 7.06436 6.81579   1
   3  -7  -3 5.43413 5.73164   1
  -3   7   3 20.7121 5.45585   2
   3  -7  -3 14.3797 5.06920   2
  -3   7   3 20.6017 6.53899   1
  -3   7   2 54.5293 6.59891   2
  -3   7   2 45.8122 7.27425   1
   3  -7  -2 58.8142 6.72945   2
   3  -7  -2 56.2965 7.64587   1
  -3   7   1 26.6777 5.52838   2
  -3   7   1 31.3541 6.40561   1
   3  -7  -1 32.9936 5.83619   2
   3  -7  -1 24.5786 6.01553   1
   3  -7   0-4.78640 4.56482   1
  -3   7   0 6.29765 4.45040   2
   3  -7   0 4.06811 4.20133   2
  -3   7   0 1.77865 4.26525   1
   3  -7   1-6.36415 4.36310   1
  -3   7  -1-6.08633 4.56866   2
   3  -7   1 1.68297 4.29611   2
  -3   7  -1 3.61022 4.22732   1
  -3   7  -2 159.987 10.1430   2
  -3   7  -2 164.273 8.93329   1
   3  -7   2 143.203 9.66584   2
   3  -7   2 160.779 8.97108   1
  -3   7  -3 132.023 9.41436   2
   3  -7   3 133.182 9.35406   2
  -3   7  -3 133.983 7.52083   1
   3  -7   3 135.948 7.78596   1
  -3   7  -4 14.0252 3.41879   1
  -3   7  -4 19.0420 5.67341   2
   3  -7   4 13.9845 3.81607   1
   3  -7   4 12.7100 4.98833   2
  -3   7  -5 52.4043 7.13616   2
   3  -7   5 51.5549 7.61122   2
  -3   7  -5 53.2320 4.30446   1
   3  -7   5 48.9998 4.46849   1
  -3   7  -6 7.02681 5.96012   2
   3  -7   6 0.05736 5.32886   2
  -3   7  -6 2.13661 1.68653   1
  -3   7  -6 4.14844 1.79445   1
  -3   7  -7 10.3023 6.19186   2
   3  -7   7 12.2468 5.84736   2
  -3   7  -8-10.8274 6.18548   2
  -3   7  -9 4.76819 6.92180   2
  -3   7 -10 20.4503 7.32064   2
  -3   7 -11 5.29927 8.65721   2
  -3   7 -12-1.64979 8.96993   2
  -3   7 -13 0.08820 11.0883   2
   3  -6 -10 12.8633 11.3115   1
   3  -6 -10 1.08919 6.05875   2
  -3   6  10 23.4827 12.4280   1
   3  -6  -9-7.24776 11.2252   1
   3  -6  -9-2.05691 5.88092   2
  -3   6   9 0.25617 9.57934   1
   3  -6  -8 2.09998 8.79300   1
   3  -6  -8 1.13071 5.20753   2
  -3   6   8 11.2052 8.82065   1
   3  -6  -7 5.04357 6.80780   1
   3  -6  -7 18.0303 4.97408   2
  -3   6   7 15.9526 7.94082   1
   3  -6  -6 4.15037 6.19097   1
   3  -6  -6 3.09307 4.37425   2
  -3   6   6 9.07469 6.28819   1
  -3   6   5 37.8950 7.98542   1
   3  -6  -5 39.3611 7.43627   1
   3  -6  -5 17.7870 4.53569   2
  -3   6   5 32.6186 5.29723   2
  -3   6   4 32.3132 5.24751   2
  -3   6   4 37.3961 6.87205   1
   3  -6  -4 34.2580 5.15485   2
   3  -6  -4 36.6200 7.38586   1
  -3   6   3 64.8552 7.83008   1
  -3   6   3 47.6710 5.51653   2
   3  -6  -3 59.1665 5.84235   2
   3  -6  -3 55.2165 7.59956   1
   3  -6  -2 0.56107 4.79895   1
  -3   6   2 3.96400 3.66716   2
   3  -6  -2-1.03872 3.46375   2
  -3   6   2 2.57480 4.69588   1
   3  -6  -1 13.3999 4.41134   1
  -3   6   1 8.19637 3.83719   2
   3  -6  -1 9.31148 3.90064   2
  -3   6   1 9.07914 4.30219   1
   3  -6   0 142.681 8.29384   2
  -3   6   0 154.376 8.90574   1
  -3   6   0 144.672 8.43317   2
   3  -6   0 153.773 9.07215   1
   3  -6   1 165.675 8.98628   2
  -3   6  -1 182.231 8.92812   1
   3  -6   1 162.312 8.73947   1
  -3   6  -1 167.753 9.08715   2
  -3   6  -2 57.2737 6.01676   2
  -3   6  -2 62.7530 5.47138   1
   3  -6   2 52.4467 5.91931   2
   3  -6   2 55.3736 5.33933   1
  -3   6  -3 23.6690 3.68726   1
  -3   6  -3 21.8316 5.12086   2
   3  -6   3 17.7972 4.54694   2
   3  -6   3 26.3006 4.00918   1
  -3   6  -4 29.9491 5.31966   2
  -3   6  -4 22.9770 3.33085   1
   3  -6   4 32.4322 5.39295   2
   3  -6   4 26.8192 3.59790   1
  -3   6  -5 104.213 8.28928   2
   3  -6   5 110.400 8.49644   2
  -3   6  -5 107.280 4.63375   1
  -3   6  -5 112.491 4.67559   1
  -3   6  -6 30.4355 5.56149   2
   3  -6   6 37.2836 6.50093   2
  -3   6  -7 3.13642 5.30998   2
  -3   6  -8 3.53325 5.21657   2
  -3   6  -9 59.6081 9.04357   2
  -3   6 -10-3.51274 7.04662   2
  -3   6 -11 18.2769 8.70879   2
  -3   6 -12 10.0319 7.66495   2
  -3   6 -13 0.50605 9.83951   2
   3  -5 -11-5.12540 11.8551   1
   3  -5 -11 0.29597 5.64146   2
  -3   5  11 22.6238 11.2362   1
   3  -5 -10-3.78573 9.14898   1
   3  -5 -10-0.74462 5.07491   2
  -3   5  10-2.16073 8.73026   1
   3  -5  -9 2.03917 8.88301   1
   3  -5  -9 4.07542 4.60879   2
  -3   5   9 9.73074 7.16918   1
   3  -5  -8 4.22507 6.67017   1
   3  -5  -8-2.87856 4.09818   2
  -3   5   8-12.3148 7.31669   1
   3  -5  -7 15.6051 6.35422   1
   3  -5  -7 9.13480 3.89529   2
  -3   5   7 8.82833 5.40731   1
   3  -5  -6 10.5790 6.36139   1
   3  -5  -6 5.89873 3.40017   2
  -3   5   6 6.41651 6.08818   1
   3  -5  -5 2.12215 5.52454   1
  -3   5   5 7.30225 3.39164   2
   3  -5  -5 1.43427 2.83787   2
  -3   5   5 7.77587 5.33697   1
   3  -5  -4 6.14844 5.18084   1
  -3   5   4 6.13893 3.40499   2
   3  -5  -4 7.20646 3.06232   2
  -3   5   4 9.20302 5.02506   1
   3  -5  -3-5.81849 4.98191   1
  -3   5   3 0.29134 2.93073   2
   3  -5  -3 1.59014 2.91426   2
  -3   5   3 1.48579 3.53991   1
   3  -5  -2 12.6887 4.19052   1
  -3   5   2 12.2436 3.42948   2
   3  -5  -2 12.0422 3.26136   2
  -3   5   2 7.69579 3.97360   1
  -3   5   1 82.9841 5.95516   2
   3  -5  -1 76.7342 5.69442   2
   3  -5  -1 88.8919 7.04093   1
  -3   5   1 80.1650 6.55837   1
  -3   5   0 192.653 8.62257   2
   3  -5   0 195.249 8.56843   2
   3  -5   0 190.542 9.12599   1
  -3   5   0 196.906 9.01736   1
  -3   5  -1 123.805 7.25838   2
   3  -5   1 109.314 6.86814   2
   3  -5   1 112.117 6.83255   1
  -3   5  -1 110.008 6.56088   1
  -3   5  -2-0.24982 3.28045   2
  -3   5  -2 4.77817 2.63473   1
   3  -5   2-0.17796 3.52005   2
   3  -5   2 3.13933 2.75490   1
  -3   5  -3 2.85142 3.14361   2
   3  -5   3-2.69051 3.52300   2
  -3   5  -3 4.91031 2.39893   1
   3  -5   3 6.95329 2.61472   1
  -3   5  -4 5.46833 2.10448   1
  -3   5  -4 6.45573 3.96150   2
   3  -5   4 8.70361 4.01457   2
  -3   5  -4 5.73870 2.09583   1
  -3   5  -5 23.3370 5.12724   2
  -3   5  -5 13.6735 1.70650   1
  -3   5  -5 14.4054 1.68827   1
  -3   5  -6 9.64948 4.68014   2
  -3   5  -7 28.8613 6.08684   2
  -3   5  -8-1.99121 5.06123   2
  -3   5  -9 46.2765 7.76768   2
  -3   5 -10 19.4517 7.43276   2
  -3   5 -11 16.7095 7.33754   2
  -3   5 -12-0.07599 7.34568   2
  -3   5 -13 16.9280 9.60443   2
   3  -4 -12 25.2909 5.73089   2
  -3   4  12 20.9561 11.2692   1
   3  -4 -12 36.3380 10.7920   1
   3  -4 -11 2.50355 10.3827   1
   3  -4 -11 3.87635 4.34596   2
  -3   4  11-13.3910 8.90005   1
   3  -4 -10 58.2983 5.43874   2
   3  -4 -10 65.0496 9.86917   1
  -3   4  10 55.9703 9.74604   1
   3  -4  -9 3.75792 6.81140   1
   3  -4  -9 2.28956 3.25344   2
  -3   4   9 11.5916 6.96422   1
   3  -4  -8 4.17626 2.98114   2
   3  -4  -8 0.88299 6.00585   1
  -3   4   8 6.95256 6.03682   1
   3  -4  -7 17.1346 5.66961   1
   3  -4  -7 16.4582 3.31661   2
  -3   4   7 14.2462 6.49385   1
   3  -4  -6 37.4650 3.77939   2
   3  -4  -6 40.6070 6.97894   1
  -3   4   6 36.2615 6.44400   1
   3  -4  -5 9.73562 5.11134   1
  -3   4   5 13.8537 2.90033   2
  -3   4   5 7.70811 4.43706   1
   3  -4  -5 13.0327 2.88172   2
  -3   4   4 33.7691 3.59788   2
   3  -4  -4 36.6680 3.59344   2
   3  -4  -4 33.2731 5.85878   1
  -3   4   4 38.8077 5.68830   1
  -3   4   3 124.123 5.86409   2
   3  -4  -3 123.758 5.75306   2
   3  -4  -3 129.771 8.37120   1
  -3   4   3 136.070 8.47886   1
   3  -4  -2 1.94128 3.39052   1
  -3   4   2 0.71993 2.31892   2
  -3   4   2-4.70702 3.29604   1
   3  -4  -2-0.34376 2.25602   2
  -3   4   1 119.569 6.11057   2
   3  -4  -1 110.367 5.85367   2
   3  -4  -1 121.284 7.35505   1
  -3   4   1 115.595 6.96226   1
  -3   4   0 2.36868 2.60510   1
  -3   4   0 3.45772 2.61563   2
   3  -4   0-2.99206 2.73287   2
   3  -4   0 1.07922 2.69657   1
  -3   4  -1 14.4505 3.23615   2
   3  -4   1 15.8680 3.35384   2
   3  -4   1 21.3333 3.47918   1
  -3   4  -1 21.9337 3.36893   1
  -3   4  -2 4.50655 2.38549   1
  -3   4  -2 5.65298 3.00550   2
   3  -4   2 2.84164 2.91357   2
   3  -4   2 4.12113 2.41522   1
  -3   4  -3 8.19880 2.22765   1
  -3   4  -3 4.60459 2.94357   2
  -3   4  -3 7.78999 2.21449   1
  -3   4  -4 1.87292 1.54069   1
  -3   4  -4-0.51955 3.09418   2
  -3   4  -4 1.09881 1.56498   1
  -3   4  -5 12.5217 1.31451   1
  -3   4  -5 12.7486 4.41879   2
  -3   4  -5 10.5900 1.21564   1
  -3   4  -6 206.302 10.6112   2
  -3   4  -7 168.068 10.4241   2
  -3   4  -8 26.1012 6.13872   2
  -3   4  -9-0.81464 5.74691   2
  -3   4 -10 6.84921 5.66514   2
  -3   4 -11-3.52116 6.19689   2
  -3   4 -12-4.27913 7.91821   2
  -3   4 -13 1.38394 9.76331   2
  -3   4 -14 10.1474 11.3222   2
   3  -3 -13 4.34629 4.32215   2
  -3   3  13-9.65071 10.2917   1
   3  -3 -13-1.79865 4.23394   2
   3  -3 -13-15.3744 10.7059   1
   3  -3 -12 5.26863 3.84581   2
  -3   3  12 3.95046 8.44228   1
   3  -3 -12 1.83935 3.56275   2
   3  -3 -12 15.0479 10.2806   1
   3  -3 -11 0.92656 3.33545   2
  -3   3  11-0.44534 7.76490   1
   3  -3 -11 2.44210 8.73454   1
   3  -3 -10-0.96437 2.61752   2
  -3   3  10-3.75774 6.57796   1
   3  -3 -10 8.73262 7.48047   1
   3  -3  -9 4.50662 2.40263   2
  -3   3   9-2.14024 5.24359   1
   3  -3  -9-0.06715 5.99115   1
   3  -3  -8-3.20556 6.20121   1
  -3   3   8 4.46339 5.41053   1
   3  -3  -8 0.35842 1.99627   2
   3  -3  -7 4.92321 4.34758   1
  -3   3   7-2.29182 4.65771   1
   3  -3  -7 5.79547 1.92863   2
   3  -3  -6 1.60720 4.05763   1
  -3   3   6 3.46730 3.89883   1
   3  -3  -6 0.46221 1.61028   2
   3  -3  -5 22.6992 4.78020   1
   3  -3  -5 17.6756 2.22283   2
  -3   3   5 22.3225 4.46674   1
  -3   3   4 55.8628 3.43195   2
   3  -3  -4 54.3114 3.30348   2
   3  -3  -4 53.7264 6.09410   1
  -3   3   4 59.9383 5.81315   1
  -3   3   3 13.4610 2.21874   2
   3  -3  -3 11.2166 2.12689   2
  -3   3   3 3.72965 3.08863   1
   3  -3  -3 13.1730 3.73606   1
  -3   3   2 12.2675 3.51702   1
   3  -3  -2 6.38703 2.09221   2
  -3   3   2 5.10672 2.00510   2
   3  -3  -2 8.57333 3.43599   1
  -3   3   1 141.562 5.85270   2
   3  -3  -1 149.068 5.98065   2
   3  -3  -1 148.014 7.59119   1
  -3   3   1 139.127 7.16958   1
   3  -3   0 12.6565 2.73814   2
  -3   3   0 7.58029 2.73568   1
  -3   3   0 8.98574 2.36337   2
   3  -3   0 7.74129 2.93076   1
  -3   3  -1 307.316 9.30599   2
  -3   3  -1 302.459 9.06660   1
  -3   3  -1 296.973 8.87756   1
  -3   3  -2 123.626 6.58596   2
  -3   3  -2 122.808 5.43934   1
  -3   3  -2 123.116 5.60969   1
  -3   3  -3 128.573 6.98882   2
  -3   3  -3 119.865 4.87514   1
  -3   3  -3 126.916 5.15262   1
  -3   3  -4 28.8387 4.63897   2
  -3   3  -4 28.9077 2.48344   1
  -3   3  -4 29.7497 2.46263   1
  -3   3  -5 5.36601 1.13585   1
  -3   3  -5 11.2214 3.52137   2
  -3   3  -5 6.12781 1.25369   1
  -3   3  -6-0.30296 3.89222   2
  -3   3  -7 38.3153 5.94507   2
  -3   3  -8 22.4566 5.90753   2
  -3   3  -9 12.3218 6.25559   2
  -3   3 -10 6.05369 6.40799   2
  -3   3 -11 2.89572 6.38223   2
  -3   3 -12 23.5453 9.30332   2
  -3   3 -13-0.65536 10.0521   2
  -3   3 -14 25.8095 11.7384   2
   3  -2 -14 3.46641 3.27399   2
  -3   2  14-6.32759 10.6731   1
   3  -2 -14 11.4891 10.8065   1
  -3   2  13 1.35894 9.43277   1
   3  -2 -13 0.30266 3.01582   2
   3  -2 -13-8.27181 10.1319   1
   3  -2 -12 4.31765 2.72975   2
  -3   2  12 18.0155 8.23603   1
   3  -2 -12 5.86220 2.65637   2
   3  -2 -12 24.2950 8.54000   1
   3  -2 -11 4.66543 2.03346   2
  -3   2  11 1.02346 6.94571   1
   3  -2 -11 2.60322 2.03688   2
   3  -2 -11-5.82483 6.19264   1
   3  -2 -10 81.3776 3.57052   2
   3  -2 -10 92.5432 3.78003   2
   3  -2 -10 84.2070 9.63637   1
  -3   2  10 97.3419 9.44158   1
  -3   2   9 8.40167 5.49006   1
   3  -2  -9 4.90133 1.40538   2
   3  -2  -9 5.60182 1.40800   2
   3  -2  -9 11.0349 6.04329   1
  -3   2   8-2.07955 4.82139   1
   3  -2  -8-0.62641 4.30949   1
  -3   2   7 5.99370 4.58917   1
   3  -2  -7 11.8033 4.29818   1
  -3   2   6 10.0195 3.98697   1
   3  -2  -6 16.9265 5.00484   1
   3  -2  -5 4.64057 0.77173   2
  -3   2   5 8.72167 3.51291   1
   3  -2  -5 6.22677 3.97158   1
  -3   2   4 2.69853 3.31386   1
  -3   2   4-0.02315 0.87107   2
   3  -2  -4 0.08060 3.50658   1
  -3   2   3 49.3064 2.63009   2
   3  -2  -3 57.2828 5.59937   1
  -3   2   3 52.6717 5.44093   1
  -3   2   2 19.6155 2.15320   2
   3  -2  -2 18.8489 3.63318   1
  -3   2   2 19.2371 3.68881   1
  -3   2   1 134.400 5.12091   2
  -3   2   1 131.753 6.81273   1
  -3   2   1 140.221 6.84676   1
  -3   2   0 210.344 6.87004   2
  -3   2   0 214.417 7.81882   1
  -3   2   0 215.967 8.08570   1
  -3   2  -1 116.102 5.71877   2
  -3   2  -1 111.518 5.40888   1
  -3   2  -1 120.659 5.87546   1
  -3   2  -2 241.057 8.62794   2
  -3   2  -2 237.710 7.21729   1
  -3   2  -2 239.343 7.57516   1
  -3   2  -3 517.175 13.1900   2
  -3   2  -3 534.122 10.4124   1
  -3   2  -3 536.172 10.0683   1
  -3   2  -4 38.9448 4.72725   2
  -3   2  -4 38.5072 2.91613   1
  -3   2  -4 36.1480 2.95479   1
  -3   2  -5 123.933 7.88921   2
  -3   2  -5 126.986 4.38056   1
  -3   2  -5 134.051 4.67917   1
  -3   2  -6 30.4846 2.20712   1
  -3   2  -6 30.1479 5.26354   2
  -3   2  -6 31.4324 2.35048   1
  -3   2  -7 47.4390 6.14662   2
  -3   2  -7 37.3464 2.05567   1
  -3   2  -8 347.954 14.6414   2
  -3   2  -8 334.459 4.34785   1
  -3   2  -9 7.53506 6.05209   2
  -3   2 -10 81.1046 9.44518   2
  -3   2 -11 1.73885 5.91305   2
  -3   2 -12-1.89949 7.82455   2
  -3   2 -13 9.62347 10.1346   2
   3  -1 -14 6.02914 2.46031   2
  -3   1  14 13.4614 8.59272   1
   3  -1 -13 11.7591 2.40542   2
   3  -1 -13 11.1868 2.33415   2
  -3   1  13 12.5574 7.55054   1
   3  -1 -13 14.2608 9.90354   1
  -3   1  12-1.30766 6.63245   1
   3  -1 -12 3.09371 1.60214   2
  -3   1  11 8.19010 6.69014   1
   3  -1 -11 2.74875 1.06861   2
   3  -1 -11 7.04918 7.39194   1
  -3   1  10 12.6846 6.11045   1
   3  -1 -10 5.40176 5.18942   1
  -3   1   9 6.80740 4.42620   1
   3  -1  -9 11.3024 5.67807   1
   3  -1  -8 49.4405 6.92178   1
  -3   1   8 37.3181 5.97081   1
  -3   1   7 2.72761 4.28103   1
   3  -1  -7-1.84768 4.16708   1
  -3   1   6 2.47499 2.90738   1
   3  -1  -6-6.49950 3.95836   1
  -3   1   5 15.7105 4.29303   1
   3  -1  -5 18.8387 4.47039   1
  -3   1   4 121.678 7.47769   1
  -3   1   4 126.826 7.31376   1
  -3   1   3 6.38954 0.97734   2
  -3   1   3 11.0377 3.10926   1
  -3   1   3 5.92902 2.79878   1
  -3   1   2 268.021 5.69278   2
  -3   1   2 285.522 9.78413   1
  -3   1   2 292.126 10.1554   1
  -3   1   1 10.5361 2.73543   1
  -3   1   1 10.6788 1.89941   2
  -3   1   1 10.8344 2.82281   1
  -3   1   0 3.70896 2.24538   1
  -3   1   0 2.64784 1.87488   2
  -3   1   0-1.69644 2.28552   1
  -3   1  -1 26.8987 3.20538   2
  -3   1  -1 23.2867 3.24991   1
  -3   1  -1 21.6255 2.96259   1
  -3   1  -2 8.07325 2.25484   1
  -3   1  -2 8.26837 2.64825   2
  -3   1  -2 8.03885 2.53730   1
  -3   1  -3 65.0123 5.31192   2
  -3   1  -3 72.4822 4.30811   1
   3  -1   3 68.7448 4.28091   1
  -3   1  -4 0.79249 1.78863   1
  -3   1  -4 4.31019 3.04739   2
   3  -1   4 0.95527 1.82956   1
  -3   1  -5 364.807 8.59980   1
   3  -1   5 371.412 8.65047   1
  -3   1  -6 325.581 8.20577   1
   3  -1   6 306.535 7.84789   1
  -3   1  -7 93.2374 4.68468   1
  -3   1  -7 88.9845 8.26313   2
   3  -1   7 95.1420 4.64640   1
   3  -1   8 36.8433 3.24761   1
  -3   1  -8 31.0906 6.14789   2
  -3   1  -8 38.1975 3.41397   1
  -3   1  -9 170.918 11.6623   2
   3  -1   9 164.319 6.04017   1
  -3   1  -9 161.395 6.08810   1
   3  -1  10 16.2975 2.91416   1
  -3   1 -10 23.9897 7.84335   2
  -3   1 -10 17.2782 3.11646   1
   3  -1  11 4.84014 2.46462   1
  -3   1 -11 1.35053 2.49598   1
  -3   1 -11 5.11073 7.76770   2
  -3   1 -12 5.43020 2.80674   1
  -3   1 -12-3.92558 7.63810   2
  -3   1 -13 4.18039 10.5003   2
  -3   1 -13 1.94518 2.30711   1
   3   0 -15 1.94297 2.09103   2
  -3   0  15 8.89879 10.4625   1
  -3   0  14 16.5754 8.75613   1
   3   0 -14-0.05734 1.82963   2
  -3   0  14 11.7545 8.21472   1
  -3   0  13 6.07564 6.96406   1
   3   0 -13 0.43643 1.35983   2
   3   0 -12 82.3079 2.14181   2
  -3   0  12 88.9792 10.1461   1
  -3   0  12 93.0237 10.4340   1
  -3   0  11 15.6025 5.91123   1
  -3   0  11 18.1128 5.98064   1
  -3   0  10 10.8041 5.90641   1
  -3   0  10-8.22473 5.84453   1
  -3   0   9 2.92000 4.33575   1
  -3   0   9-2.20807 4.51881   1
  -3   0   8 351.546 14.1118   1
  -3   0   8 363.928 14.2023   1
  -3   0   7 100.271 7.69064   1
  -3   0   7 111.496 8.15915   1
  -3   0   6 30.2281 5.03545   1
  -3   0   6 37.9953 5.04708   1
  -3   0   5 0.66429 3.54261   1
  -3   0   5 0.77287 3.26525   1
  -3   0   4-3.46079 2.75716   1
  -3   0   4 1.69253 2.98444   1
  -3   0   3 30.1255 1.67273   2
  -3   0   3 28.5852 1.59014   2
  -3   0   3 24.1375 3.92877   1
  -3   0   3 24.8875 4.22803   1
  -3   0   2-0.23050 2.56538   1
  -3   0   2 1.47830 1.33178   2
  -3   0   1 0.80478 2.29449   1
  -3   0   1 3.18650 2.79683   1
   3   0   0-1.01438 2.37106   1
  -3   0   0-0.97637 2.22939   1
   3   0   1 375.738 10.2214   1
  -3   0  -1 390.482 10.3602   1
  -3   0  -2 3.65678 2.24780   1
   3   0   2 4.99505 2.39108   1
   3   0   3 70.4600 4.64409   1
  -3   0  -3 79.3931 4.88371   1
   3   0   4 31.3919 3.45286   1
  -3   0  -4 30.3776 3.48507   1
   3   0   5 115.566 5.76757   1
  -3   0  -5 113.131 5.88260   1
   3   0   6 111.686 5.87648   1
  -3   0  -6 114.962 6.09189   1
  -3   0  -7 67.4542 5.08096   1
   3   0   7 60.6554 4.84007   1
   3   0   8 3.41424 2.92397   1
  -3   0  -8 3.24060 3.05236   1
  -3   0  -9-4.08553 3.37671   1
   3   0   9 1.35714 3.11019   1
   3   0  10 25.5521 4.42955   1
  -3   0 -10 29.2417 4.73980   1
  -3   0 -11 17.7137 4.39181   1
   3   0  11 19.4132 4.68520   1
  -3   0 -12 34.2990 5.55002   1
  -3   0 -12 28.0764 10.4419   2
   3   0  12 32.7124 5.41266   1
  -3   0 -13 12.2350 5.58446   1
   3   0  13 17.5657 5.40443   1
  -3   0 -13 16.6942 11.8217   2
   3   1 -15 8.20117 2.14689   2
  -3  -1  15 19.7975 9.99189   1
  -3  -1  14-11.9219 7.61812   1
   3   1 -14 3.57541 1.82130   2
  -3  -1  14 2.58588 7.89793   1
  -3  -1  13 5.28358 7.04599   1
   3   1 -13 1.77429 1.25746   2
  -3  -1  13-1.93682 7.28424   1
  -3  -1  12-2.93599 6.05974   1
  -3  -1  12 7.55256 6.02026   1
  -3  -1  11 44.0891 6.72339   1
  -3  -1  11 61.5390 8.26369   1
  -3  -1  10 231.796 12.3499   1
  -3  -1  10 246.131 13.0399   1
  -3  -1   9 57.1634 6.55155   1
  -3  -1   9 54.6340 6.66807   1
  -3  -1   8 4.97581 4.47232   1
  -3  -1   8 11.9757 4.23571   1
  -3  -1   7 16.9531 4.66038   1
  -3  -1   7 15.6309 4.16261   1
  -3  -1   6 0.91353 3.71651   1
  -3  -1   6 5.30502 3.14705   1
  -3  -1   5 468.259 13.6804   1
  -3  -1   5 439.837 13.8938   1
  -3  -1   4 213.063 3.83253   2
  -3  -1   4 207.712 9.06855   1
  -3  -1   4 223.312 9.93380   1
  -3  -1   3 11.2351 1.69308   2
  -3  -1   3 20.1415 3.81276   1
  -3  -1   2 0.56968 1.56556   2
  -3  -1   2 5.38556 2.64908   1
   3   1  -2 4.97992 2.96149   1
  -3  -1   1 118.308 5.32070   2
   3   1  -1 121.113 6.56459   1
  -3  -1   1 116.454 6.52223   1
   3   1   0 40.3517 4.24221   1
  -3  -1   0 36.6208 4.16763   1
   3   1   1 160.242 7.34167   1
  -3  -1  -1 164.632 7.43263   1
   3   1   2 17.3743 3.25931   1
  -3  -1  -2 20.1462 3.33242   1
  -3  -1  -3 2.34400 2.49591   1
   3   1   3-0.95416 2.56504   1
  -3  -1  -4 9.77230 3.04093   1
   3   1   4 8.71358 2.98301   1
  -3  -1  -5 0.82024 2.72860   1
   3   1   5 5.92842 3.11700   1
  -3  -1  -6 67.0379 5.66826   1
   3   1   6 68.6790 5.55492   1
   3   1   7 13.6144 3.70316   1
  -3  -1  -7 8.94412 3.40866   1
   3   1   8 3.91206 3.76615   1
  -3  -1  -8 4.75532 3.76675   1
   3   1   9 1.52902 4.20059   1
  -3  -1  -9 6.75843 4.00528   1
   3   1  10-2.98992 4.74154   1
  -3  -1 -10 2.28710 4.40885   1
   3   1  11-3.01470 5.00472   1
  -3  -1 -11 2.11991 5.13945   1
  -3  -1 -12 52.0485 7.97701   1
   3   1  12 47.4696 7.63548   1
   3   2 -15 4.06207 2.44856   2
  -3  -2  15 0.07350 8.53782   1
   3   2 -15 1.09902 2.70108   2
  -3  -2  15 9.86294 8.19398   1
   3   2 -14 0.32156 2.08064   2
  -3  -2  14-5.40348 7.28956   1
   3   2 -14-0.90733 2.18233   2
  -3  -2  14 1.84474 7.08120   1
  -3  -2  13-3.85837 7.06407   1
   3   2 -13 0.47665 1.67730   2
  -3  -2  13 7.19198 6.32550   1
   3   2 -12 11.0622 1.74357   2
  -3  -2  12 13.3449 5.96387   1
  -3  -2  12 14.5728 6.02379   1
  -3  -2  11-2.77110 5.24737   1
   3   2 -11 3.79931 1.04332   2
   3   2 -11 4.46867 1.09191   2
  -3  -2  11 4.96177 4.78905   1
  -3  -2  10 65.3010 7.39468   1
  -3  -2  10 72.1132 7.87523   1
  -3  -2   9 3.99000 4.72114   1
  -3  -2   9 3.05480 3.59056   1
  -3  -2   8 16.7448 5.02747   1
  -3  -2   8 12.9553 4.52479   1
  -3  -2   7 9.04728 3.92486   1
  -3  -2   7 6.66125 4.01806   1
  -3  -2   6 18.6452 1.41151   2
  -3  -2   6 18.3230 4.36150   1
  -3  -2   6 23.0059 4.83648   1
  -3  -2   5 258.585 5.35245   2
  -3  -2   5 253.609 10.3334   1
  -3  -2   5 258.319 11.3526   1
  -3  -2   4 354.914 7.31437   2
  -3  -2   4 351.707 11.8069   1
   3   2  -4 337.477 11.8304   1
  -3  -2   3 310.046 7.66744   2
  -3  -2   3 310.381 10.9712   1
   3   2  -3 294.645 10.6872   1
  -3  -2   2 68.9302 4.32512   2
   3   2  -2 70.7359 5.75982   1
  -3  -2   2 65.1057 5.64865   1
  -3  -2   1 19.4595 3.80662   1
   3   2  -1 22.2361 4.04057   1
  -3  -2   1 25.3928 3.30694   2
  -3  -2   0 5.26671 3.06663   1
   3   2   0 7.38516 3.15878   1
  -3  -2   0 8.90531 2.88786   2
  -3  -2  -1-0.37429 2.45792   2
  -3  -2  -1 6.39890 3.15458   1
   3   2   1-0.16036 2.39844   1
  -3  -2  -2 258.910 10.3909   2
   3   2   2 266.264 10.0274   1
  -3  -2  -2 263.354 10.0180   1
   3   2   3 26.2279 4.23567   1
  -3  -2  -3 20.6676 4.07728   1
  -3  -2  -3 20.8193 4.52487   2
  -3  -2  -4 169.566 8.60331   1
   3   2   4 193.827 9.06397   1
  -3  -2  -5 30.5641 4.84448   1
   3   2   5 35.4507 5.03778   1
   3   2   6 2.57810 3.54622   1
  -3  -2  -6 5.03482 3.70874   1
   3   2   7-7.47707 4.01464   1
  -3  -2  -7-3.69018 4.06520   1
   3   2   8 5.29783 4.53850   1
  -3  -2  -8 1.67896 4.59549   1
  -3  -2  -8 5.63453 6.41570   2
   3   2   9 1.90407 5.04185   1
  -3  -2  -9 1.15645 4.95443   1
  -3  -2  -9 11.2040 7.02558   2
  -3  -2 -10-5.34536 8.59365   2
   3   2  10 9.18101 5.98870   1
  -3  -2 -10 7.82908 5.83339   1
  -3  -2 -11-6.07789 10.6011   2
   3   2  11-4.24027 6.56345   1
  -3  -2 -11-1.74962 6.72389   1
  -3  -2 -12 31.3690 5.56940   1
   3   2  12 46.6928 6.42570   1
   3   3 -16 23.4900 2.97626   2
   3   3 -16 15.4255 2.71878   2
  -3  -3  16 21.7550 7.11331   1
  -3  -3  16 20.8820 7.09551   1
  -3  -3  15 11.9319 7.83139   1
  -3  -3  15 12.7486 8.17244   1
   3   3 -15 5.65551 3.19987   2
  -3  -3  14 2.74827 7.50721   1
  -3  -3  14 13.8815 7.83643   1
   3   3 -14 8.69922 3.15156   2
  -3  -3  13-1.62528 6.64066   1
  -3  -3  13 11.7043 6.35602   1
   3   3 -13-1.01753 2.55133   2
  -3  -3  12 7.80976 5.40234   1
  -3  -3  12 16.6678 6.03360   1
   3   3 -12 8.14339 2.44052   2
   3   3 -11 18.0057 2.43306   2
  -3  -3  11 16.5745 5.87728   1
  -3  -3  11 22.7897 5.97732   1
   3   3 -10 55.0360 3.31070   2
  -3  -3  10 57.3528 7.04853   1
  -3  -3  10 63.2949 7.89066   1
  -3  -3   9 11.6638 5.07070   1
   3   3  -9 10.6526 1.98896   2
  -3  -3   9 13.8997 5.05675   1
   3   3  -8 15.8265 2.16650   2
  -3  -3   8 14.0788 2.09311   2
  -3  -3   8 10.2195 4.32840   1
  -3  -3   8 14.0799 4.68536   1
  -3  -3   7 1.09697 1.60780   2
   3   3  -7 1.24239 1.65786   2
  -3  -3   7 2.75435 3.29868   1
  -3  -3   7 2.46489 3.35306   1
   3   3  -6 0.89480 1.69053   2
  -3  -3   6 2.75708 1.74684   2
  -3  -3   6-0.08252 2.78912   1
   3   3  -6-1.21012 3.42382   1
   3   3  -5 3.52701 3.71864   1
  -3  -3   5 3.15520 1.92782   2
  -3  -3   5 3.10138 3.59665   1
   3   3  -4 15.3141 4.10797   1
  -3  -3   4 11.1614 2.54394   2
  -3  -3   4 10.9438 3.65940   1
  -3  -3   3 6.78325 3.58009   1
  -3  -3   3 2.92904 2.34162   2
   3   3  -3 6.08766 3.10308   1
  -3  -3   2 94.1857 5.63837   2
   3   3  -2 103.575 6.94610   1
  -3  -3   2 91.3099 6.63066   1
  -3  -3   1 60.4531 5.06815   2
   3   3  -1 57.6485 5.73113   1
  -3  -3   1 55.9090 5.68679   1
  -3  -3   0 10.1945 3.37006   2
  -3  -3   0 2.83599 3.35066   1
   3   3   0 13.4439 3.60124   1
   3   3   1 35.0693 4.80777   1
  -3  -3  -1 30.7740 4.78233   2
  -3  -3  -1 38.6340 5.02599   1
  -3  -3  -2 59.7720 5.96770   2
   3   3   2 59.2672 5.98191   1
  -3  -3  -2 72.1361 6.30729   1
  -3  -3  -3 214.292 10.6173   2
  -3  -3  -3 194.509 9.86494   1
   3   3   3 208.785 10.2096   1
  -3  -3  -4 2.12036 3.46287   1
  -3  -3  -4 2.62752 4.73120   2
   3   3   4 3.26458 3.75239   1
  -3  -3  -5 8.54440 4.72076   2
   3   3   5 12.1592 4.50978   1
  -3  -3  -5 10.5213 4.49790   1
  -3  -3  -6-3.33575 5.64291   2
   3   3   6 7.29911 4.73957   1
  -3  -3  -6-0.99621 4.43243   1
   3   3   7 5.59037 5.12155   1
  -3  -3  -7-7.55342 7.17960   2
  -3  -3  -7 2.04404 5.10959   1
  -3  -3  -8 57.1034 8.94094   2
   3   3   8 59.9653 7.98649   1
  -3  -3  -8 53.6524 7.74662   1
  -3  -3  -9 69.1735 10.8306   2
   3   3   9 72.7052 8.85200   1
  -3  -3  -9 69.8393 8.72769   1
  -3  -3 -10 130.045 14.3458   2
   3   3  10 95.2498 10.6203   1
  -3  -3 -10 104.407 10.6752   1
   3   3  11 42.2898 9.75191   1
  -3  -3 -11 75.2598 13.8543   2
  -3  -3 -11 58.2281 9.85602   1
  -3  -4  16 15.2116 6.44530   1
   3   4 -16 7.97837 2.69256   2
  -3  -4  16 10.2503 5.38845   1
  -3  -4  15-0.79443 9.19379   1
   3   4 -15-0.81412 4.31379   2
  -3  -4  15-13.3489 8.60396   1
   3   4 -14 8.17240 4.04118   2
  -3  -4  14 9.19475 7.59586   1
  -3  -4  14-7.63261 7.22393   1
  -3  -4  13-0.06512 6.70324   1
   3   4 -13 0.04796 3.23653   2
  -3  -4  13-7.31877 6.23537   1
  -3  -4  12 3.60354 5.71344   1
   3   4 -12 5.29924 3.11863   2
  -3  -4  12 0.46414 5.96299   1
  -3  -4  11 6.35433 5.68662   1
   3   4 -11 3.68632 2.80419   2
  -3  -4  11 12.9335 5.75160   1
   3   4 -10 36.5634 3.86314   2
  -3  -4  10 47.1752 6.62170   1
  -3  -4  10 42.2317 7.15534   1
   3   4  -9 82.6801 4.89508   2
  -3  -4   9 84.1970 7.84694   1
  -3  -4   9 82.2950 4.84198   2
  -3  -4   9 91.7972 8.64977   1
   3   4  -8-0.58266 2.28382   2
  -3  -4   8 6.82338 3.98942   1
  -3  -4   8 3.22087 2.35827   2
  -3  -4   8 4.69375 4.92089   1
  -3  -4   7 180.153 6.81823   2
   3   4  -7 163.587 6.67479   2
   3   4  -7 205.713 10.7728   1
  -3  -4   7 177.888 9.97112   1
   3   4  -6 8.16149 2.82111   2
  -3  -4   6 16.3207 4.15036   1
  -3  -4   6 9.47959 2.60625   2
   3   4  -6 11.5167 3.83465   1
   3   4  -5 8.45391 3.70554   1
   3   4  -5 2.82585 2.45839   2
  -3  -4   5 5.88102 3.90879   1
  -3  -4   5 4.60636 2.57403   2
  -3  -4   4 25.8061 3.76500   2
  -3  -4   4 20.1966 4.33547   1
   3   4  -4 22.9270 3.55086   2
   3   4  -4 24.6010 4.54425   1
  -3  -4   3 286.820 9.84527   2
   3   4  -3 274.734 11.4075   1
  -3  -4   3 299.015 12.1590   1
  -3  -4   2 42.6285 4.80009   2
   3   4  -2 34.9925 5.34533   1
  -3  -4   2 38.4911 5.22256   1
  -3  -4   1 47.8276 5.26917   2
   3   4  -1 32.6398 5.16735   1
  -3  -4   1 35.2200 5.32163   1
  -3  -4   0 2.08396 3.54605   2
  -3  -4   0 10.4486 4.25978   1
   3   4   0 7.71032 4.11426   1
   3   4   1 105.625 7.98580   1
  -3  -4  -1 104.357 7.70572   2
  -3  -4  -1 104.192 7.87005   1
  -3  -4  -2 83.2060 7.38249   2
  -3  -4  -2 93.2548 7.80865   1
   3   4   2 94.2113 7.74963   1
  -3  -4  -3 66.9429 7.35737   2
  -3  -4  -3 61.1113 7.07658   1
   3   4   3 61.5250 7.04076   1
  -3  -4  -4 0.87720 4.98956   2
   3   4   4-6.60922 5.02757   1
  -3  -4  -4-6.11555 4.44189   1
   3   4   5 28.2472 6.23435   1
  -3  -4  -5 24.0968 6.21006   1
  -3  -4  -5 17.3831 6.01422   2
  -3  -4  -6 89.6670 10.3390   2
  -3  -4  -6 91.5659 8.91874   1
   3   4   6 99.7579 9.26451   1
   3   4   7 4.97933 5.92044   1
  -3  -4  -7-2.33286 7.07057   2
  -3  -4  -7-6.23315 6.16751   1
   3   4   8 11.7098 7.08610   1
  -3  -4  -8 2.37992 8.65851   2
  -3  -4  -8-6.58517 6.95356   1
   3   4   9 14.6563 8.61327   1
  -3  -4  -9 0.49946 10.0338   2
  -3  -4  -9 3.05706 7.51753   1
   3   4  10 9.97043 9.03051   1
  -3  -4 -10 10.7271 11.5290   2
  -3  -4 -10 0.55000 8.81190   1
  -3  -5  15 3.19179 9.24544   1
   3   5 -15 3.64346 5.37340   2
  -3  -5  15-1.04656 7.98233   1
  -3  -5  14-7.94109 7.71057   1
   3   5 -14 5.22162 4.60454   2
  -3  -5  14 0.53048 6.83131   1
  -3  -5  13-0.06682 7.25925   1
   3   5 -13 5.75262 4.08068   2
  -3  -5  13 1.82776 6.63134   1
  -3  -5  12 3.62095 6.48655   1
   3   5 -12 0.68894 3.74468   2
  -3  -5  12 1.02007 6.10219   1
   3   5 -11 10.5193 3.89806   2
  -3  -5  11 13.1643 6.00449   1
  -3  -5  11 14.1776 5.78848   1
  -3  -5  10 24.7653 4.09735   2
   3   5 -10 16.5273 3.84331   2
  -3  -5  10 23.0781 6.02697   1
  -3  -5  10 29.2248 6.56107   1
   3   5  -9 2.04791 3.09022   2
  -3  -5   9 5.42594 4.63576   1
  -3  -5   9 2.21557 2.98794   2
  -3  -5   9 6.79909 5.88232   1
   3   5  -8 39.0838 4.36926   2
  -3  -5   8 39.3383 4.42147   2
  -3  -5   8 30.0471 6.23637   1
   3   5  -8 43.5424 6.68789   1
   3   5  -7 12.7093 3.58963   2
  -3  -5   7 15.8698 5.24547   1
  -3  -5   7 17.7127 3.69812   2
   3   5  -7 20.5444 5.67593   1
   3   5  -6 32.6181 4.36963   2
  -3  -5   6 27.5810 4.12026   2
   3   5  -6 31.7742 5.75570   1
  -3  -5   6 30.9354 5.81908   1
  -3  -5   5-3.65507 3.83218   1
   3   5  -5 3.41629 3.01285   2
  -3  -5   5 1.51012 3.03063   2
   3   5  -5 2.97714 4.19524   1
   3   5  -4 1.66087 3.11981   2
   3   5  -4-3.77237 3.48573   1
  -3  -5   4 3.81600 3.44791   2
  -3  -5   4-2.80781 3.36925   1
  -3  -5   3 421.798 13.2306   2
   3   5  -3 445.786 15.4907   1
  -3  -5   3 461.445 15.6196   1
  -3  -5   2 205.319 9.83818   2
   3   5  -2 207.768 11.0019   1
  -3  -5   2 209.674 11.0445   1
  -3  -5   1 4.34198 3.62819   2
  -3  -5   1 2.79628 3.83358   1
   3   5  -1 7.81873 3.99748   1
   3   5   0 186.320 10.8852   1
  -3  -5   0 193.865 10.4091   2
  -3  -5   0 187.384 10.5881   1
  -3  -5  -1 2.97353 4.64987   1
  -3  -5  -1 5.23576 4.20389   2
   3   5   1 2.83280 4.46829   1
  -3  -5  -2 3.30851 4.84498   1
  -3  -5  -2 1.43040 5.22600   2
   3   5   2-5.40354 5.37106   1
  -3  -5  -3 10.4254 5.67970   1
  -3  -5  -3 15.5708 6.33960   2
   3   5   3 13.7405 5.59186   1
   3   5   4 23.4880 6.97245   1
  -3  -5  -4 31.7317 7.28340   2
  -3  -5  -4 36.4869 7.16730   1
   3   5   5 8.73622 6.17197   1
  -3  -5  -5-0.20041 6.24123   2
  -3  -5  -5-1.73183 6.24788   1
   3   5   6 37.6007 8.53449   1
  -3  -5  -6 39.0623 9.19216   2
  -3  -5  -6 34.0362 7.85218   1
   3   5   7 15.3056 7.86062   1
  -3  -5  -7 18.8492 9.71669   2
  -3  -5  -7 18.6156 8.42955   1
   3   5   8 23.4920 9.66300   1
  -3  -5  -8 26.2464 10.7107   2
  -3  -5  -8 28.7795 8.54051   1
   3   5   9 31.1279 10.5745   1
  -3  -5  -9 20.4013 9.51007   1
  -3  -6  15 5.16259 9.31984   1
   3   6 -15 7.47571 6.42986   2
  -3  -6  15 19.8083 9.59663   1
  -3  -6  14-5.50590 8.43714   1
   3   6 -14 12.6542 5.46561   2
  -3  -6  14 9.01973 8.41893   1
  -3  -6  13 13.8070 7.73554   1
  -3  -6  13 1.95100 6.99528   1
   3   6 -13 17.6670 5.53844   2
  -3  -6  12 34.6629 5.66316   2
  -3  -6  12 22.2460 6.99885   1
   3   6 -12 22.3115 5.02737   2
  -3  -6  12 18.2778 6.99367   1
  -3  -6  11 11.6204 6.83499   1
   3   6 -11 1.76416 4.28867   2
  -3  -6  11 9.99727 4.66325   2
  -3  -6  11 13.9508 6.41108   1
   3   6 -10 39.1852 5.46291   2
  -3  -6  10 34.1503 5.09933   2
  -3  -6  10 36.7826 7.03065   1
  -3  -6  10 36.3962 7.56885   1
  -3  -6   9 5.34090 5.21533   1
   3   6  -9-1.93970 4.06860   2
  -3  -6   9 0.38853 3.68257   2
   3   6  -9 0.68137 5.22140   1
  -3  -6   8 0.54975 5.24119   1
   3   6  -8 0.07387 3.64789   2
  -3  -6   8 3.03561 3.55997   2
   3   6  -8 7.12125 5.72546   1
   3   6  -7 4.04928 4.62659   1
   3   6  -7 11.2711 4.07414   2
  -3  -6   7 12.4922 4.22539   2
  -3  -6   7 2.57976 4.95122   1
   3   6  -6 2.33368 3.60750   2
  -3  -6   6 2.25770 3.93726   2
   3   6  -6 0.79469 3.97663   1
  -3  -6   6 0.58111 4.98042   1
   3   6  -5 271.931 11.5095   2
  -3  -6   5 296.993 11.8318   2
   3   6  -5 275.769 13.3941   1
  -3  -6   5 291.418 13.6141   1
   3   6  -4 57.8100 6.29848   2
  -3  -6   4 59.3745 6.56690   2
   3   6  -4 60.1194 7.48579   1
  -3  -6   4 51.6475 7.10143   1
  -3  -6   3 36.8943 5.76915   2
   3   6  -3 42.5354 6.84269   1
  -3  -6   3 34.9605 6.00491   1
   3   6  -3 39.3575 5.64031   2
  -3  -6   2-2.97065 4.11037   2
  -3  -6   2-4.48961 4.16651   1
   3   6  -2 2.23203 4.10613   1
  -3  -6   1 16.7056 5.71786   1
  -3  -6   1 16.1436 5.18332   2
   3   6  -1 16.9243 5.74301   1
  -3  -6   0 4.69492 5.57942   1
  -3  -6   0 18.1094 5.63286   2
   3   6   0 15.4115 5.74249   1
  -3  -6  -1 8.96930 5.58399   1
  -3  -6  -1-2.61131 5.60989   2
   3   6   1-6.96788 5.71122   1
  -3  -6  -2 9.79678 6.18263   1
  -3  -6  -2 6.91960 5.55440   2
   3   6   2 6.38518 5.78284   1
  -3  -6  -3 39.7602 8.41148   2
   3   6   3 31.1270 7.76770   1
  -3  -6  -3 23.7612 7.69922   1
   3   6   4 18.2045 7.52157   1
  -3  -6  -4 19.2066 7.11159   2
  -3  -6  -4 17.7274 7.06076   1
   3   6   5 21.5175 7.83944   1
  -3  -6  -5 0.97557 6.95591   2
  -3  -6  -5 26.3908 9.00219   1
   3   6   6 19.9337 9.93718   1
  -3  -6  -6-2.58200 9.21437   2
  -3  -6  -6 7.48273 7.96488   1
   3   6   7 12.3526 8.95068   1
  -3  -6  -7-6.93620 9.76654   2
  -3  -6  -7-5.84036 9.94040   1
  -3  -7  14 6.69267 8.25143   1
   3   7 -14 6.31340 6.73505   2
  -3  -7  13 15.6305 8.41686   1
   3   7 -13 6.57904 5.70693   2
  -3  -7  13 23.6170 6.95593   2
  -3  -7  13 21.2006 8.74361   1
  -3  -7  12-4.86408 6.83451   1
   3   7 -12 6.17368 5.87451   2
  -3  -7  12 1.45889 5.48210   2
  -3  -7  12 12.3899 8.26962   1
  -3  -7  11-4.14562 6.65240   1
   3   7 -11 11.8307 5.20579   2
  -3  -7  11 2.89222 5.16771   2
  -3  -7  11-1.05862 7.99276   1
   3   7 -10-0.26747 5.00269   2
   3   7 -10 12.2606 6.88278   1
  -3  -7  10 5.23813 5.08306   2
  -3  -7  10 6.51535 5.91310   1
   3   7  -9-2.82924 6.73336   1
   3   7  -9-0.26814 4.50258   2
  -3  -7   9 12.9377 5.23969   2
  -3  -7   9 5.38875 5.60670   1
   3   7  -8 0.06023 5.67933   1
   3   7  -8 1.84620 4.64872   2
  -3  -7   8 8.48441 4.66448   2
  -3  -7   8 4.33815 5.58840   1
   3   7  -7 2.85161 4.64578   2
  -3  -7   7 10.7563 4.69724   2
  -3  -7   7-8.36578 5.61208   1
   3   7  -7 1.36328 5.43557   1
   3   7  -6 12.4096 5.00276   2
   3   7  -6 9.93586 5.88964   1
  -3  -7   6 13.2996 5.30720   2
  -3  -7   6 8.14872 6.07532   1
   3   7  -5 157.158 10.1587   2
  -3  -7   5 154.903 10.0468   2
   3   7  -5 154.550 11.2413   1
  -3  -7   5 158.450 11.4707   1
   3   7  -4 4.51353 4.66774   2
  -3  -7   4 1.15539 4.85238   2
  -3  -7   4-4.47173 4.60587   1
   3   7  -4 6.21798 5.04339   1
   3   7  -3 95.0807 8.94772   2
  -3  -7   3 94.3857 8.55772   2
   3   7  -3 75.4632 9.11458   1
  -3  -7   3 101.220 9.97684   1
  -3  -7   2-0.30994 4.72463   1
  -3  -7   2-2.27585 5.28439   2
   3   7  -2 3.92575 5.86409   1
  -3  -7   1 11.0526 6.12321   1
  -3  -7   1 12.9317 5.73401   2
   3   7  -1 8.97029 6.68807   1
  -3  -7   0 40.8231 8.45218   1
  -3  -7   0 31.1537 6.81647   2
   3   7   0 26.2582 6.60541   1
  -3  -7  -1 2.26401 6.94975   1
  -3  -7  -1 2.28375 6.98536   2
   3   7   1-1.57697 6.11655   1
  -3  -7  -2 94.5574 11.0029   2
  -3  -7  -2 93.7887 11.0832   1
   3   7   2 107.863 10.7531   1
   3   7   3-2.61581 8.58235   1
  -3  -7  -3 3.85414 8.30485   2
  -3  -7  -3 14.6923 8.04470   1
   3   7   4 8.14530 9.45345   1
  -3  -7  -4 14.3964 9.55958   2
  -3  -7  -4 10.0607 9.14049   1
   3   7   5 11.8169 9.63307   1
  -3  -7  -5-0.97820 10.1469   1
   3   7   6 10.2523 9.94217   1
  -3  -7  -6 36.2629 13.1937   2
  -3  -7  -6 48.8290 12.2778   1
   3   8 -13-8.88674 7.77975   2
  -3  -8  13 15.9602 7.25263   2
  -3  -8  13 4.32116 8.59816   1
  -3  -8  13-4.05374 8.94868   1
   3   8 -12 1.38777 7.24533   2
  -3  -8  12-1.25878 6.32965   2
  -3  -8  12-5.81516 8.24489   1
  -3  -8  12 3.29057 8.64627   1
   3   8 -11-1.38300 6.28481   2
  -3  -8  11 3.89788 6.42426   2
  -3  -8  11 6.32068 7.79906   1
   3   8 -10 8.18218 6.48792   2
   3   8 -10 6.42516 6.61232   1
  -3  -8  10 2.16121 6.05487   2
  -3  -8  10 5.55607 6.90110   1
   3   8  -9 4.30631 5.82577   2
   3   8  -9 10.1336 7.66082   1
  -3  -8   9-0.15511 5.70816   2
  -3  -8   9 7.92861 6.05768   1
   3   8  -8 11.1391 6.18562   2
  -3  -8   8 7.31419 5.64828   2
  -3  -8   8 15.2653 6.42406   1
   3   8  -8 1.66103 6.49011   1
   3   8  -7 8.50181 5.94303   2
  -3  -8   7 13.0813 5.85174   2
   3   8  -7 10.1363 7.51825   1
  -3  -8   7 3.89663 6.80570   1
   3   8  -6 22.9009 7.92094   1
  -3  -8   6 19.7518 6.94588   1
  -3  -8   6 32.5837 6.96888   2
   3   8  -6 26.1765 7.09104   2
   3   8  -5-1.38723 6.32149   1
   3   8  -5 10.9942 6.43579   2
  -3  -8   5 9.13616 5.99693   1
  -3  -8   5 6.20464 6.23708   2
   3   8  -4-2.09592 5.77621   2
  -3  -8   4 4.74369 5.62173   1
  -3  -8   4 4.73070 5.98099   2
   3   8  -4-0.67603 6.75086   1
  -3  -8   3 0.62290 6.41624   1
  -3  -8   3 3.20990 5.88385   2
   3   8  -3 9.55590 7.05036   1
   3   8  -3 14.4542 6.25750   2
  -3  -8   2 3.05507 7.26887   1
  -3  -8   2 21.5010 7.82541   2
   3   8  -2 1.06698 7.64972   1
  -3  -8   1-1.89999 7.07890   1
  -3  -8   1-8.62891 6.72200   2
   3   8  -1 11.3533 6.76966   1
  -3  -8   0 2.65950 8.40307   1
  -3  -8   0 15.0681 8.21542   2
   3   8   0 5.90660 7.63000   1
  -3  -8  -1 20.6842 7.86799   2
   3   8   1 22.1565 8.38713   1
  -3  -8  -1 23.1186 8.36024   1
  -3  -8  -2 78.7897 11.3009   2
  -3  -8  -2 66.4421 12.3308   1
   3   8   2 92.7627 12.5858   1
   3   8   3-1.53362 9.14877   1
  -3  -8  -3 0.41878 10.7855   2
  -3  -8  -3 7.84433 9.97318   1
  -3  -8  -4 56.3486 11.8757   1
  -3  -8  -4 73.4311 14.2773   2
   3   9 -12 6.17925 8.51330   2
  -3  -9  12 9.04787 8.91974   1
  -3  -9  12-2.51134 8.41601   2
  -3  -9  12 17.7382 10.9623   1
   3   9 -11 14.8796 8.70493   1
   3   9 -11 8.65075 7.80344   2
  -3  -9  11 4.67497 9.26024   1
  -3  -9  11 15.8354 8.15918   2
   3   9 -10-9.74949 7.89570   2
  -3  -9  10 7.08037 7.69132   1
  -3  -9  10-2.23850 7.45861   2
   3   9  -9-6.79932 7.22175   1
  -3  -9   9-2.12652 8.09052   1
  -3  -9   9 1.33626 7.06498   2
   3   9  -8-16.9927 8.22392   2
  -3  -9   8 5.28107 8.40116   1
  -3  -9   8 9.53875 7.29499   2
   3   9  -8 0.80718 8.11357   1
   3   9  -7-4.83258 7.11861   2
  -3  -9   7 8.40656 7.30118   1
   3   9  -7 8.13918 7.80017   1
  -3  -9   7 7.55607 7.13066   2
   3   9  -6 8.89171 7.38209   1
   3   9  -6 13.6686 7.47298   2
  -3  -9   6 25.3927 8.96223   1
  -3  -9   6 7.10721 6.86188   2
   3   9  -5 7.08768 7.13490   2
  -3  -9   5-2.26812 7.40977   1
  -3  -9   5 3.80263 7.90698   2
   3   9  -5 26.4668 9.26939   1
  -3  -9   4-9.48539 9.18284   1
   3   9  -4 3.35482 7.16335   2
  -3  -9   4 15.5151 8.42858   2
   3   9  -4-10.1325 8.95311   1
  -3  -9   3 14.3436 9.56135   1
  -3  -9   3-0.28635 7.02976   2
   3   9  -3 8.41120 8.94846   1
   3   9  -3 11.8733 7.94129   2
  -3  -9   2 12.2337 9.50095   1
  -3  -9   2-6.86667 8.13090   2
   3   9  -2-0.64735 8.72121   1
  -3  -9   1 17.0315 8.50268   2
   3   9  -1 13.6859 8.76566   1
  -3  -9   1 19.5875 10.0760   1
  -3  -9   0-5.07756 10.5593   2
   3   9   0-8.45439 9.11900   1
  -3  -9   0-17.7879 10.2287   1
  -3  -9  -1 128.583 15.1289   2
  -3  -9  -1 87.1496 12.8973   1
   3   9   1 95.1705 14.4733   1
  -3  -9  -2 30.9082 11.5860   2
  -3  -9  -2 45.3458 11.9415   1
   3  10 -10 36.9206 8.33372   2
   3  10 -10 38.0934 9.63661   1
  -3 -10  10 24.0950 7.54653   2
   3  10  -9-18.1260 9.97960   2
  -3 -10   9 8.71861 9.42641   1
  -3 -10   9-4.44747 8.82275   2
   3  10  -9 1.30650 10.2363   1
   3  10  -8 21.0656 10.0931   2
  -3 -10   8 15.4201 9.92801   1
  -3 -10   8 34.7935 10.5260   2
   3  10  -8-4.57135 10.3762   1
  -3 -10   7 11.3619 9.11932   1
   3  10  -7-0.52352 9.21276   2
   3  10  -7-13.9839 10.8942   1
  -3 -10   7 9.80293 8.81155   2
   3  10  -6 1.65106 9.30222   1
  -3 -10   6-6.47420 9.35584   1
   3  10  -6 21.0059 8.93900   2
  -3 -10   6-14.2884 10.2969   2
  -3 -10   5-11.7947 11.3064   1
   3  10  -5-0.70594 9.73075   2
  -3 -10   5 2.01056 9.52310   2
  -3 -10   4-5.94030 8.66814   1
   3  10  -4-2.34262 9.87751   2
  -3 -10   4-11.8403 10.6377   2
   3  10  -4-14.9163 11.8181   1
  -3 -10   3 9.70290 11.8747   1
  -3 -10   3 33.7330 10.8775   2
   3  10  -3 31.8611 11.3081   1
  -3 -10   2 27.5485 11.0933   2
   3  10  -2-7.33669 11.8683   1
  -3 -10   2-4.94344 11.0138   1
   4 -10   2-8.46628 7.05457   1
  -4  10  -2-7.31148 6.67467   1
  -4  10  -2-11.9449 8.20824   2
  -4  10  -3 7.54428 6.75231   1
  -4  10  -3-8.00047 9.41472   2
   4 -10   3-5.44501 8.47239   2
   4 -10   3-9.77656 7.30872   1
  -4  10  -4 6.82664 8.98750   2
  -4  10  -4 10.0885 6.03421   1
   4 -10   4-4.03477 9.03941   2
   4 -10   4 6.60600 6.37628   1
  -4  10  -5 18.9394 6.32421   2
   4 -10   5 3.04071 4.96677   2
   4 -10   5 18.8338 4.51020   1
   4  -9  -3-4.06135 9.52470   1
  -4   9   3-8.72309 7.10120   2
   4  -9  -3-3.39618 6.69733   2
  -4   9   3-9.71463 8.89631   1
   4  -9  -2 10.0756 10.6350   1
  -4   9   2 2.44830 8.27782   2
   4  -9  -2-1.33041 7.89305   2
  -4   9   2-2.18001 9.61951   1
   4  -9  -1 28.2043 9.00041   1
  -4   9   1-1.18199 7.85461   2
   4  -9  -1 8.50464 7.94584   2
  -4   9   1 21.2639 9.18433   1
  -4   9   0 11.2955 7.69121   1
   4  -9   0 0.90249 8.30217   1
  -4   9   0-11.3834 7.90998   2
   4  -9   0-15.2148 7.88646   2
  -4   9  -1 44.0916 8.60543   1
   4  -9   1 66.3957 10.1239   2
  -4   9  -1 42.4118 9.07843   2
   4  -9   1 58.7050 9.30232   1
   4  -9   2-5.54061 6.58312   1
  -4   9  -2 11.1497 6.80871   1
  -4   9  -2 0.13267 7.47743   2
   4  -9   2 1.25738 7.44849   2
  -4   9  -3 15.7416 6.56784   1
  -4   9  -3-6.64273 7.78400   2
   4  -9   3 14.5668 8.31039   2
   4  -9   3 16.6177 6.91017   1
  -4   9  -4 41.5637 10.2144   2
  -4   9  -4 58.2867 7.23290   1
   4  -9   4 42.1508 9.80441   2
   4  -9   4 49.9017 7.74441   1
  -4   9  -5 11.2219 8.59336   2
  -4   9  -5 3.34038 4.75580   1
   4  -9   5-1.04361 8.09371   2
  -4   9  -6 4.12202 3.26093   1
  -4   9  -6-2.01034 8.99407   2
   4  -9   6 11.9378 9.09584   2
  -4   9  -6 4.14818 3.26378   1
  -4   9  -7 29.6125 11.0479   2
  -4   9  -8-5.48526 9.90715   2
  -4   8   5 5.32943 7.33472   2
   4  -8  -5 20.2647 7.30384   2
  -4   8   5 7.04797 9.89173   1
   4  -8  -4-12.1886 11.0115   1
  -4   8   4-5.55441 7.06098   2
   4  -8  -4-5.18044 6.81829   2
  -4   8   4 4.24150 9.40707   1
   4  -8  -3-2.67114 9.43615   1
  -4   8   3-7.04818 6.18601   2
   4  -8  -3-4.71448 6.43777   2
  -4   8   3 3.56912 7.84497   1
  -4   8   2 66.7570 8.71930   2
  -4   8   2 50.0854 9.60307   1
   4  -8  -2 41.8839 7.96901   2
   4  -8  -2 49.0398 9.97563   1
   4  -8  -1 11.1074 7.33968   1
  -4   8   1 13.3912 6.47712   2
   4  -8  -1 28.1679 7.38312   2
  -4   8   1 13.8722 7.37961   1
   4  -8   0 13.6038 6.76387   1
  -4   8   0 3.97131 6.52110   2
   4  -8   0 19.5823 6.61273   2
  -4   8   0 6.83692 6.57976   1
   4  -8   1 12.6036 6.50633   1
  -4   8  -1 24.2420 6.92246   2
   4  -8   1 12.9628 6.49546   2
  -4   8  -1 19.9422 6.24522   1
  -4   8  -2 4.14936 6.39222   2
   4  -8   2-3.91329 6.93718   2
  -4   8  -2-2.05867 5.92888   1
   4  -8   2 7.92644 5.68813   1
  -4   8  -3 6.26683 4.99515   1
  -4   8  -3 5.34779 6.81900   2
   4  -8   3-0.67185 6.72961   2
   4  -8   3 5.07502 5.20609   1
  -4   8  -4 2.55044 4.30744   1
  -4   8  -4-6.14446 7.31952   2
   4  -8   4-1.15834 6.88544   2
   4  -8   4-5.04797 5.12629   1
  -4   8  -5 30.8920 8.63639   2
   4  -8   5 30.6559 8.80536   2
  -4   8  -5 25.8121 4.37566   1
  -4   8  -6 2.01364 2.05870   1
  -4   8  -6-3.78885 8.04391   2
  -4   8  -7 2.51739 7.34053   2
  -4   8  -8 12.5592 9.27850   2
  -4   8  -9-3.93571 10.6286   2
  -4   8 -10 42.4226 11.4797   2
   4  -7  -7 9.99507 9.89306   1
   4  -7  -7 7.35013 5.98898   2
  -4   7   7 8.51239 11.1593   1
   4  -7  -6 18.6151 10.7481   1
   4  -7  -6 15.1721 5.90259   2
  -4   7   6 14.0378 10.2362   1
   4  -7  -5-6.04003 8.09963   1
  -4   7   5-1.78195 5.60345   2
   4  -7  -5 4.68726 5.67916   2
  -4   7   5-2.92260 7.96708   1
   4  -7  -4 20.2964 7.79175   1
  -4   7   4 28.5706 6.06066   2
   4  -7  -4 17.8009 5.98212   2
  -4   7   4 28.8726 9.29528   1
   4  -7  -3 2.31353 7.34520   1
  -4   7   3 9.73654 5.23315   2
   4  -7  -3 0.89462 5.19254   2
  -4   7   3 12.3126 7.86068   1
  -4   7   2 54.1751 7.19733   2
   4  -7  -2 37.1253 6.29641   2
  -4   7   2 38.8788 8.05221   1
   4  -7  -2 45.4038 8.28122   1
   4  -7  -1 27.2702 7.24939   1
  -4   7   1 29.7526 6.19005   2
   4  -7  -1 36.0456 6.20640   2
  -4   7   1 32.0072 6.78616   1
  -4   7   0 1.23233 5.21651   2
   4  -7   0-4.39219 4.93052   2
  -4   7   0 0.05123 5.52755   1
   4  -7   0-1.08407 5.39993   1
  -4   7  -1 11.4706 5.66364   2
   4  -7   1 2.51713 5.04190   2
  -4   7  -1-4.69819 5.26406   1
   4  -7   1 2.95272 5.03579   1
  -4   7  -2 45.8689 6.20019   1
  -4   7  -2 26.6646 6.58101   2
   4  -7   2 25.2835 6.57554   2
   4  -7   2 22.5754 5.59325   1
  -4   7  -3-8.94769 6.01936   2
   4  -7   3-3.02684 5.66903   2
   4  -7   3-3.91247 4.01866   1
  -4   7  -3 1.45272 3.96571   1
  -4   7  -4 15.6329 4.14320   1
  -4   7  -4 12.6430 6.79064   2
   4  -7   4 11.8452 6.52997   2
  -4   7  -4 10.5781 3.96370   1
  -4   7  -5 1.20057 2.93959   1
  -4   7  -5-6.99655 6.10360   2
  -4   7  -5 1.11933 2.68828   1
  -4   7  -6 4.79195 6.44541   2
  -4   7  -6 2.68664 1.10934   1
  -4   7  -7 0.53715 6.95443   2
  -4   7  -8 32.3939 8.63719   2
  -4   7  -9 0.30628 9.04323   2
  -4   7 -10 12.3559 9.73322   2
  -4   7 -11 6.75467 10.1172   2
   4  -6  -9 9.55483 4.24689   2
   4  -6  -8 16.2982 4.95430   2
  -4   6   8 19.6754 9.71326   1
   4  -6  -7-17.2022 9.24948   1
   4  -6  -7 5.83655 4.69329   2
  -4   6   7-21.3659 9.26502   1
   4  -6  -6 7.30096 8.58006   1
   4  -6  -6 16.0144 4.55448   2
  -4   6   6 14.8262 8.42554   1
   4  -6  -5 5.81385 7.56866   1
  -4   6   5 8.28111 4.50397   2
   4  -6  -5 8.96801 4.20273   2
  -4   6   5-4.45601 7.26596   1
   4  -6  -4 14.8504 7.73624   1
  -4   6   4 18.1440 4.91448   2
   4  -6  -4 23.5154 4.62940   2
  -4   6   4 17.4071 6.90267   1
  -4   6   3 8.44055 4.43334   2
  -4   6   3 4.93282 5.92580   1
   4  -6  -3-2.41738 3.98237   2
  -4   6   2 90.0568 7.20171   2
   4  -6  -2 93.9895 7.04332   2
   4  -6  -2 88.7783 8.95650   1
  -4   6   2 78.5824 8.47109   1
  -4   6   1 15.7687 4.56555   2
  -4   6   1 13.3906 5.68726   1
   4  -6  -1 12.5004 4.30122   2
   4  -6  -1 20.5429 6.12272   1
  -4   6   0 61.1745 6.74200   2
   4  -6   0 53.5782 6.13029   2
   4  -6   0 62.1859 7.33359   1
  -4   6   0 61.6597 7.08663   1
  -4   6  -1 62.7920 6.61607   1
  -4   6  -1 60.3313 6.82184   2
   4  -6   1 55.8960 6.47850   2
   4  -6   1 55.4807 6.85057   1
  -4   6  -2 27.4167 5.03358   1
  -4   6  -2 37.2616 6.10773   2
   4  -6   2 29.3897 5.70226   2
   4  -6   2 23.9499 5.07962   1
  -4   6  -3 3.37343 3.30860   1
  -4   6  -3-0.58859 4.69508   2
  -4   6  -3 2.28507 3.35584   1
  -4   6  -4 4.64638 4.67514   2
  -4   6  -4 7.04690 3.04472   1
  -4   6  -4 1.54305 2.97266   1
  -4   6  -5 4.33971 5.82295   2
  -4   6  -5 4.70651 2.20073   1
  -4   6  -5 6.17006 2.34391   1
  -4   6  -6 11.9064 6.48047   2
  -4   6  -7-9.01214 7.06375   2
  -4   6  -8 8.20939 7.77542   2
  -4   6  -9-1.16194 6.86724   2
  -4   6 -10-6.14756 8.20569   2
  -4   6 -11 24.6070 11.4876   2
  -4   5  10-9.93205 11.1634   1
   4  -5 -10 3.12579 10.3002   1
   4  -5  -9-0.04847 2.61222   2
  -4   5   9-4.51257 9.85536   1
   4  -5  -9-17.3837 9.67253   1
  -4   5   8 9.07928 7.98830   1
   4  -5  -8 6.43633 3.02238   2
   4  -5  -8 14.5632 9.90393   1
  -4   5   7-0.36546 7.78483   1
   4  -5  -7 6.02878 2.91556   2
   4  -5  -7 8.23427 7.02297   1
  -4   5   6 3.86215 5.97839   1
   4  -5  -6 3.17012 3.02451   2
   4  -5  -6 6.40890 6.43230   1
   4  -5  -5 17.7925 3.76832   2
  -4   5   5 19.6126 3.68338   2
  -4   5   5 14.3554 7.04361   1
   4  -5  -5 17.2644 6.80634   1
  -4   5   4 17.5864 3.72754   2
  -4   5   4 12.7380 6.06171   1
   4  -5  -4 13.7922 3.37725   2
   4  -5  -4 19.3174 6.58787   1
  -4   5   3 6.34715 3.36520   2
  -4   5   3-0.74836 4.84574   1
   4  -5  -3-1.40876 3.14740   2
   4  -5  -3-5.15593 5.23605   1
  -4   5   2 1.68101 3.40314   2
  -4   5   2-3.24566 4.74546   1
   4  -5  -2 0.64045 3.28884   2
   4  -5  -2 6.02148 5.01727   1
  -4   5   1 44.6735 5.06544   2
   4  -5  -1 47.8253 5.26388   2
   4  -5  -1 40.5029 6.23939   1
  -4   5   1 43.9885 6.00529   1
  -4   5   0 0.96005 3.50993   2
  -4   5   0-1.59310 3.79126   1
   4  -5   0 1.72830 3.53506   2
   4  -5   0 4.03821 4.12352   1
  -4   5  -1 36.7060 5.24144   2
  -4   5  -1 45.1690 5.51642   1
  -4   5  -1 41.7915 5.30029   1
  -4   5  -2 0.35403 3.35684   1
  -4   5  -2 1.55547 3.89415   2
  -4   5  -2-0.32340 3.05714   1
  -4   5  -3-2.54293 3.94923   2
  -4   5  -3-1.16578 2.89826   1
  -4   5  -3-0.52053 2.73653   1
  -4   5  -4 27.6015 3.43548   1
  -4   5  -4 20.6301 5.60089   2
  -4   5  -4 28.4136 3.61999   1
  -4   5  -5 129.546 4.99432   1
  -4   5  -5 138.320 10.0062   2
  -4   5  -5 131.280 4.96219   1
  -4   5  -6 18.2187 5.50281   2
  -4   5  -7 5.57428 5.54026   2
  -4   5  -8 31.0266 8.05826   2
  -4   5  -9 10.0687 7.99331   2
  -4   5 -10 15.7024 8.20733   2
  -4   5 -11 17.7572 10.0938   2
  -4   5 -12 24.8531 12.0005   2
  -4   4  11-1.44670 11.2394   1
   4  -4 -11 38.5525 13.2410   1
  -4   4  10-1.34176 9.44716   1
   4  -4 -10 8.88501 10.8039   1
  -4   4   9 6.22599 8.85246   1
   4  -4  -9-13.3063 9.40810   1
  -4   4   8 6.50259 7.74539   1
   4  -4  -8 13.3817 8.48378   1
  -4   4   7 6.03739 6.48337   1
   4  -4  -7 0.86545 6.80294   1
  -4   4   6 10.3336 5.52223   1
   4  -4  -6 1.79951 1.69583   2
   4  -4  -6-1.46927 6.80367   1
   4  -4  -5 14.0048 2.53460   2
  -4   4   5 10.0020 2.52641   2
  -4   4   5 0.40305 5.67386   1
   4  -4  -5 5.33552 5.32477   1
  -4   4   4 130.673 5.68486   2
   4  -4  -4 134.433 10.1982   1
   4  -4  -4 128.453 5.68919   2
  -4   4   4 142.070 10.0068   1
  -4   4   3 7.39377 2.80877   2
  -4   4   3 0.39196 4.54068   1
   4  -4  -3 6.91665 5.02536   1
  -4   4   2 45.0201 4.38139   2
   4  -4  -2 42.4340 6.51048   1
  -4   4   2 41.7042 6.20677   1
  -4   4   1 5.73259 4.02228   1
  -4   4   1 4.67490 2.99473   2
  -4   4   0 3.98267 3.57792   1
  -4   4   0-1.76739 3.11554   2
  -4   4   0 0.18710 3.39718   1
  -4   4  -1 16.5430 3.89808   2
  -4   4  -1 22.6638 4.13817   1
  -4   4  -1 28.8866 4.48436   1
  -4   4  -2 131.922 8.01084   2
  -4   4  -2 144.745 7.36178   1
  -4   4  -2 138.066 7.20532   1
  -4   4  -3 90.6333 7.25302   2
  -4   4  -3 84.1301 5.41784   1
  -4   4  -3 95.7459 5.81337   1
  -4   4  -4 2.19249 2.32054   1
  -4   4  -4 3.46239 2.36975   1
  -4   4  -4 0.40142 3.95246   2
  -4   4  -5 50.8296 6.95867   2
  -4   4  -5 46.8128 3.25255   1
  -4   4  -5 45.3389 3.24456   1
  -4   4  -6 32.4660 6.67981   2
  -4   4  -7 62.2849 8.22906   2
  -4   4  -8 77.5329 9.45325   2
  -4   4  -9 19.1342 7.12804   2
  -4   4 -10 13.9860 8.71251   2
  -4   4 -11 15.3141 8.99502   2
  -4   4 -12 30.4361 10.6809   2
  -4   3  12 8.99121 11.7609   1
   4  -3 -12-20.8405 11.9164   1
  -4   3  11-2.25725 8.66580   1
   4  -3 -11-1.93554 9.65139   1
  -4   3  10 12.2902 8.09488   1
   4  -3 -10-3.91637 10.2274   1
  -4   3   9-7.95551 7.40116   1
   4  -3  -9 4.66264 7.38002   1
  -4   3   8 13.2828 6.50890   1
   4  -3  -8 6.52336 6.03874   1
  -4   3   7 15.0483 6.11403   1
   4  -3  -7 25.4060 7.08092   1
   4  -3  -6 46.2554 8.16716   1
  -4   3   6 39.3187 7.22110   1
  -4   3   5 0.91425 4.98285   1
   4  -3  -5 5.89238 5.38412   1
  -4   3   4 63.6957 3.27752   2
   4  -3  -4 54.8284 7.06233   1
  -4   3   4 77.2514 7.95129   1
  -4   3   3 46.1651 3.39896   2
  -4   3   3 48.0177 6.01651   1
  -4   3   3 46.5560 6.16317   1
  -4   3   2 4.57855 3.70048   1
  -4   3   2 7.21247 3.82740   1
  -4   3   2 4.08713 2.36214   2
  -4   3   1 6.14012 3.72437   1
  -4   3   1 11.3012 4.00821   1
  -4   3   1 5.39782 2.63464   2
  -4   3   0 0.94037 3.05136   1
  -4   3   0-2.55242 3.35412   1
  -4   3   0 1.53321 2.62360   2
  -4   3  -1 2.88772 3.22540   1
  -4   3  -1 5.31943 3.25647   2
  -4   3  -1 5.14301 3.14984   1
  -4   3  -2 30.7303 4.41671   2
  -4   3  -2 21.0536 3.58886   1
  -4   3  -2 23.7498 4.02792   1
  -4   3  -3 367.603 10.1939   1
  -4   3  -3 379.635 12.9744   2
  -4   3  -3 370.908 10.5794   1
  -4   3  -4-0.73444 2.27174   1
  -4   3  -4 3.00765 2.42373   1
  -4   3  -4-3.96696 3.74422   2
  -4   3  -5 13.8969 2.63776   1
  -4   3  -5 14.7043 2.49184   1
  -4   3  -5 18.3574 4.83164   2
  -4   3  -6 2.18727 1.50013   1
  -4   3  -6 0.98505 1.52287   1
  -4   3  -6-1.57451 5.10285   2
  -4   3  -7 65.6961 8.53199   2
  -4   3  -8 31.2757 7.17621   2
  -4   3  -9 32.0518 8.14401   2
  -4   3 -10 13.4194 7.34512   2
  -4   3 -11 4.13180 10.0753   2
  -4   3 -12 27.8570 10.0927   2
  -4   2  13 0.91300 10.4089   1
  -4   2  13-6.13836 9.66625   1
  -4   2  12-4.08043 10.2755   1
  -4   2  12 12.3887 9.33463   1
  -4   2  11 4.62575 8.70084   1
  -4   2  10 34.7476 8.95126   1
  -4   2   9 102.405 10.2884   1
  -4   2   8 72.0380 8.98246   1
  -4   2   7-8.28226 5.90888   1
  -4   2   6 35.1871 5.96581   1
  -4   2   6 35.9184 6.29760   1
  -4   2   5 21.7428 5.90854   1
  -4   2   5 14.2039 5.07889   1
  -4   2   4 61.4562 1.91364   2
  -4   2   4 73.3839 7.18468   1
  -4   2   4 76.3178 7.42459   1
  -4   2   3 48.7632 2.96880   2
  -4   2   3 45.9681 5.59299   1
  -4   2   3 48.6902 6.05154   1
  -4   2   2 30.6353 3.02033   2
  -4   2   2 25.3961 4.72924   1
  -4   2   2 32.0248 4.99573   1
  -4   2   1 4.95438 3.80477   1
  -4   2   1 1.30860 2.20714   2
  -4   2   1-1.16933 3.08286   1
  -4   2   0 70.8717 5.05885   2
  -4   2   0 72.6475 5.81769   1
  -4   2   0 64.9655 5.87919   1
  -4   2  -1 17.3194 3.58906   1
  -4   2  -1 23.8916 3.82202   2
  -4   2  -1 24.5435 4.13416   1
  -4   2  -2-3.52387 3.02671   1
  -4   2  -2-1.89752 2.80982   1
  -4   2  -2-1.84388 3.08064   2
  -4   2  -3 13.5524 4.07560   2
  -4   2  -3 26.5471 3.74981   1
  -4   2  -3 21.0073 3.41691   1
  -4   2  -4 0.25710 2.63884   1
  -4   2  -4 8.06006 4.24291   2
  -4   2  -4 4.68338 2.57777   1
  -4   2  -5 31.0827 5.91529   2
  -4   2  -5 21.5005 3.14514   1
  -4   2  -5 19.0732 3.25617   1
  -4   2  -6 1.94782 2.39167   1
  -4   2  -6 7.05491 2.39122   1
  -4   2  -6 10.6807 5.40465   2
  -4   2  -7 5.10432 2.19192   1
  -4   2  -7 5.64453 5.96980   2
  -4   2  -7 5.81837 2.07880   1
  -4   2  -8 0.97713 1.41229   1
  -4   2  -8-1.07311 6.56465   2
  -4   2  -9-2.20658 7.22613   2
  -4   2 -10 19.9331 9.47659   2
  -4   2 -11 18.4448 8.67790   2
  -4   2 -12-14.6086 9.46219   2
  -4   1  13 20.6760 9.15481   1
  -4   1  12 24.9737 10.0567   1
  -4   1  12 44.4745 11.0258   1
  -4   1  11 7.74653 7.81619   1
  -4   1  11 4.93834 6.55262   1
  -4   1  10 4.18972 7.31671   1
  -4   1  10 9.04482 7.22060   1
  -4   1   9 37.5027 7.73237   1
  -4   1   9 25.9376 6.53260   1
  -4   1   8 8.44884 5.93360   1
  -4   1   8 12.2978 6.30352   1
  -4   1   7 15.7116 5.49276   1
  -4   1   7 16.0121 5.70967   1
  -4   1   6 52.5158 6.51586   1
  -4   1   6 51.2551 6.71597   1
  -4   1   5 23.7751 4.88130   1
  -4   1   5 23.1919 5.04421   1
  -4   1   4 27.9669 5.22668   1
  -4   1   4 28.2063 5.08773   1
  -4   1   3-1.82790 3.55258   1
  -4   1   3 2.19891 1.31394   2
  -4   1   3 6.93342 4.08864   1
  -4   1   2 273.440 7.12142   2
  -4   1   2 270.654 11.0883   1
  -4   1   2 283.565 11.7767   1
  -4   1   1 15.2248 4.08879   1
  -4   1   1 14.4177 3.87629   1
  -4   1   1 14.1045 2.75507   2
  -4   1   0 43.5838 4.14451   2
  -4   1   0 44.1422 4.96306   1
  -4   1   0 54.3470 5.67351   1
  -4   1  -1 100.312 6.51976   1
  -4   1  -1 85.8178 5.97179   2
  -4   1  -1 102.797 6.85656   1
  -4   1  -2 11.5365 3.32915   1
  -4   1  -2 14.1693 3.79263   2
  -4   1  -2 11.0668 3.55072   1
  -4   1  -3 123.514 7.90130   2
  -4   1  -3 133.495 6.93447   1
  -4   1  -3 129.114 7.30227   1
  -4   1  -4 90.6559 7.53239   2
  -4   1  -4 85.1203 5.66736   1
  -4   1  -4 84.8257 6.04198   1
  -4   1  -5 150.530 9.93954   2
  -4   1  -5 160.992 7.27247   1
  -4   1  -6 12.6098 3.31645   1
   4  -1   6 7.90140 3.11784   1
  -4   1  -6 13.3229 6.08294   2
  -4   1  -7 33.1500 4.03433   1
  -4   1  -7 45.4986 7.60724   2
   4  -1   7 36.1883 4.08066   1
   4  -1   8-1.11587 2.85447   1
  -4   1  -8 1.33035 2.89305   1
  -4   1  -8 8.30867 6.75793   2
  -4   1  -9 3.13563 2.76851   1
  -4   1  -9-4.28146 7.04521   2
   4  -1  10 15.7501 2.93198   1
  -4   1 -10 26.7174 8.92328   2
  -4   1 -10 24.0450 3.38757   1
  -4   1 -11 0.94905 1.93922   1
  -4   1 -11 5.73631 9.95812   2
  -4   0  14 5.39801 10.5661   1
  -4   0  14 2.35666 9.25756   1
  -4   0  13 2.44883 8.25774   1
  -4   0  13-0.32671 9.38126   1
  -4   0  12 14.5048 8.93804   1
  -4   0  12 14.9305 8.01372   1
  -4   0  11 11.2175 7.74315   1
  -4   0  11 4.33168 6.69369   1
  -4   0  10 7.30670 5.76629   1
  -4   0  10 10.2601 6.00109   1
  -4   0   9 5.45346 6.26870   1
  -4   0   9 10.4088 6.06561   1
  -4   0   8-1.49999 4.95132   1
  -4   0   8-1.43705 5.33186   1
  -4   0   7 1.41613 4.94068   1
  -4   0   7-5.09401 4.35702   1
  -4   0   6 2.95623 4.27809   1
  -4   0   6 5.92562 4.77916   1
  -4   0   5 29.6770 5.29570   1
  -4   0   5 35.2114 6.14701   1
  -4   0   4 14.5738 4.31770   1
  -4   0   4 12.8867 4.14710   1
  -4   0   3 5.40833 3.43770   1
  -4   0   3 0.89948 1.49477   2
  -4   0   3 3.34923 1.51944   2
  -4   0   3 7.56452 4.32029   1
  -4   0   2 8.90347 2.24794   2
  -4   0   2 12.9610 3.88998   1
  -4   0   2 8.12491 3.72019   1
  -4   0   2 8.53479 2.26210   2
  -4   0   1 73.4780 6.30460   1
  -4   0   1 81.9594 5.01849   2
  -4   0   1 79.4447 6.94395   1
  -4   0   0 44.6741 5.16249   1
  -4   0   0 54.0736 5.73381   1
  -4   0  -1 164.819 8.43824   1
   4   0   1 160.663 8.35588   1
  -4   0  -2 1.84799 2.93636   1
   4   0   2-0.44227 2.91368   1
  -4   0  -3 49.9836 5.09917   1
   4   0   3 50.2168 5.15562   1
   4   0   4 7.19660 3.28640   1
  -4   0  -4 4.12024 3.10702   1
  -4   0  -5 173.674 8.24215   1
   4   0   5 168.596 8.29895   1
  -4   0  -6-1.06159 3.49480   1
   4   0   6 5.51579 3.73769   1
   4   0   7-2.05925 3.72605   1
  -4   0  -7 2.04734 3.54989   1
   4   0   8 1.64369 3.92528   1
  -4   0  -8-1.25861 3.77001   1
   4   0   9 30.0810 4.91770   1
  -4   0  -9 38.0455 5.36413   1
   4   0  10 47.9960 5.98960   1
  -4   0 -10 28.6722 10.8336   2
  -4   0 -10 34.0211 5.44743   1
  -4   0 -11 33.0440 11.0091   2
  -4   0 -11 33.8543 5.92716   1
  -4  -1  14 12.6596 10.1596   1
  -4  -1  14-10.1161 10.7546   1
  -4  -1  13-3.25898 8.95127   1
  -4  -1  13-7.11929 8.28850   1
  -4  -1  12 44.8049 8.62694   1
  -4  -1  12 30.5115 7.94827   1
  -4  -1  11 16.7816 7.82922   1
  -4  -1  11 10.6758 7.66532   1
  -4  -1  10 3.81848 6.54937   1
  -4  -1  10 19.6683 6.27314   1
  -4  -1   9 4.37515 5.31157   1
  -4  -1   9 5.67007 5.60685   1
  -4  -1   8 2.15689 4.85100   1
  -4  -1   8-0.05598 4.39654   1
  -4  -1   7 5.08369 5.39708   1
  -4  -1   7-3.36349 4.22136   1
  -4  -1   6 69.1739 7.18544   1
  -4  -1   6 61.7440 7.57416   1
  -4  -1   5 4.27715 3.59913   1
  -4  -1   5 2.51948 4.45470   1
  -4  -1   4 24.6412 2.05923   2
  -4  -1   4 24.9516 2.07780   2
  -4  -1   4 22.2549 4.98991   1
  -4  -1   4 22.7282 5.20033   1
  -4  -1   3 2.17690 1.90082   2
  -4  -1   3 7.26755 3.99934   1
  -4  -1   3-2.02646 3.53101   1
  -4  -1   2 92.7832 5.12850   2
  -4  -1   2 101.329 7.41657   1
  -4  -1   2 100.764 7.74595   1
  -4  -1   1 76.3027 5.24005   2
   4   1  -1 64.2089 6.24778   1
  -4  -1   1 65.4829 6.18138   1
   4   1   0 100.620 7.34752   1
  -4  -1   0 100.492 7.16748   1
  -4  -1   0 97.7935 6.31509   2
   4   1   1 50.6444 5.55139   1
  -4  -1  -1 50.6689 5.54199   1
   4   1   2 7.30400 3.63864   1
  -4  -1  -2 10.1050 3.84103   1
  -4  -1  -3 105.931 7.32190   1
   4   1   3 100.048 7.09630   1
  -4  -1  -4 3.54691 3.47149   1
   4   1   4 6.38121 3.66172   1
  -4  -1  -5 15.3544 4.34869   1
   4   1   5 14.3933 4.46648   1
   4   1   6 0.76574 4.04688   1
  -4  -1  -6 2.69544 4.00666   1
  -4  -1  -7 39.1916 6.02654   1
   4   1   7 48.4769 6.07420   1
  -4  -1  -8 247.799 11.3183   1
   4   1   8 227.203 10.7197   1
   4   1   9 5.13030 5.38751   1
  -4  -1  -9-0.50115 5.13968   1
   4   1  10 14.3161 5.64763   1
  -4  -1 -10-4.38395 6.14907   1
  -4  -2  14 4.95810 8.96753   1
  -4  -2  14-5.47132 9.12469   1
  -4  -2  13-8.31908 8.00031   1
  -4  -2  13 15.5640 8.77470   1
  -4  -2  12 15.2678 8.08790   1
  -4  -2  12 2.69584 6.55293   1
  -4  -2  11 11.8858 7.57101   1
  -4  -2  11 7.13230 7.08520   1
  -4  -2  10 3.08920 6.54672   1
  -4  -2  10 6.31731 5.88556   1
  -4  -2   9 35.6936 7.50304   1
  -4  -2   9 32.7270 7.81099   1
  -4  -2   8 5.46707 5.62424   1
  -4  -2   8 0.77721 4.70293   1
  -4  -2   7 33.7607 6.24738   1
  -4  -2   7 36.8561 6.67640   1
  -4  -2   6 22.3267 5.40466   1
  -4  -2   6 26.1142 6.14395   1
  -4  -2   5 163.462 4.74643   2
  -4  -2   5 176.112 10.3032   1
  -4  -2   5 173.277 10.7917   1
  -4  -2   4 13.9321 2.55145   2
  -4  -2   4 15.8322 4.79761   1
  -4  -2   3-0.70909 2.30327   2
   4   2  -3 0.36654 3.95998   1
  -4  -2   3-1.31547 4.07193   1
  -4  -2   2 48.6093 4.49737   2
   4   2  -2 56.4313 6.48329   1
  -4  -2   2 50.4933 5.93061   1
  -4  -2   1 11.1625 4.31590   1
  -4  -2   1 14.9686 3.62552   2
   4   2  -1 12.5036 4.56582   1
  -4  -2   0 3.62071 3.53581   1
  -4  -2   0 4.06431 3.41226   2
   4   2   0 7.40193 3.81465   1
  -4  -2  -1 15.6329 4.32568   2
   4   2   1 26.1070 4.87627   1
  -4  -2  -1 28.7260 5.00578   1
  -4  -2  -2 19.5680 5.16760   2
   4   2   2 19.1484 4.77884   1
  -4  -2  -2 20.4427 4.76534   1
   4   2   3 2.93895 3.67285   1
  -4  -2  -3 7.31628 4.79910   2
  -4  -2  -3 5.60192 3.94818   1
   4   2   4 2.82176 4.22916   1
  -4  -2  -4-3.60210 5.60547   2
  -4  -2  -4 4.67726 4.44979   1
  -4  -2  -5 2.31484 4.41953   1
  -4  -2  -5 5.48959 5.56555   2
   4   2   5 2.31396 4.20290   1
  -4  -2  -6 21.3898 7.39171   2
   4   2   6 10.6708 5.22884   1
  -4  -2  -6 11.5643 5.25122   1
  -4  -2  -7 22.0901 7.49824   2
   4   2   7 28.3321 6.10232   1
  -4  -2  -7 24.6080 6.13433   1
  -4  -2  -8-4.15334 9.45948   2
  -4  -2  -8 8.21455 6.16890   1
  -4  -2  -9 16.4750 10.5476   2
  -4  -2  -9 9.71083 6.42668   1
   4   2   9 19.5671 6.95687   1
  -4  -2 -10 7.07485 11.0163   2
  -4  -2 -10 15.1786 7.43456   1
   4   2  10 9.80906 7.05369   1
  -4  -3  14 5.51214 10.1375   1
  -4  -3  14 13.1478 8.84326   1
  -4  -3  13 10.8481 8.94339   1
  -4  -3  13-8.11892 7.73146   1
  -4  -3  12 11.9928 6.61573   1
  -4  -3  12 12.0253 7.64816   1
  -4  -3  11 15.7194 6.55624   1
  -4  -3  11 9.51078 7.99320   1
  -4  -3  10 0.20360 6.79846   1
  -4  -3  10-0.75406 5.49064   1
  -4  -3   9-3.79913 5.85477   1
  -4  -3   9-0.35951 5.85692   1
  -4  -3   8 289.790 14.2620   1
  -4  -3   8 275.161 14.3070   1
  -4  -3   7 10.3345 1.64659   2
  -4  -3   7 7.55746 5.09904   1
  -4  -3   7 10.2391 4.94525   1
  -4  -3   6 63.7292 7.52838   1
  -4  -3   6 62.8696 3.65964   2
  -4  -3   6 72.1892 8.40556   1
   4   3  -5-2.89829 4.43451   1
  -4  -3   5 0.02021 2.22401   2
  -4  -3   5 1.07890 4.58319   1
  -4  -3   4 61.7261 4.72675   2
   4   3  -4 58.3802 7.04485   1
  -4  -3   4 62.1616 6.99518   1
  -4  -3   3 152.678 7.34024   2
   4   3  -3 145.263 9.58731   1
  -4  -3   3 141.035 9.53809   1
  -4  -3   2 191.786 8.67288   2
   4   3  -2 181.587 10.2571   1
  -4  -3   2 180.630 10.2882   1
  -4  -3   1 22.7540 4.42423   2
   4   3  -1 21.2992 5.32277   1
  -4  -3   1 22.5954 5.15394   1
  -4  -3   0 124.943 8.24775   2
   4   3   0 124.642 8.83295   1
  -4  -3   0 129.048 8.89271   1
   4   3   1 1.98614 4.08961   1
  -4  -3  -1 8.45986 4.49916   2
   4   3   2 11.4785 4.92671   1
  -4  -3  -2 7.99155 4.30493   2
  -4  -3  -2 11.9751 4.74286   1
  -4  -3  -3-0.75259 5.05705   2
  -4  -3  -3 4.92136 4.70154   1
   4   3   3-2.11139 4.26295   1
  -4  -3  -4 16.8932 5.52145   1
  -4  -3  -4 26.1956 6.63437   2
   4   3   4 25.0557 5.76497   1
  -4  -3  -5 5.86929 5.25331   1
  -4  -3  -5 19.1455 7.83980   2
   4   3   5 5.52734 5.46989   1
  -4  -3  -6 31.3120 8.35889   2
   4   3   6 18.4789 6.23099   1
  -4  -3  -6 15.4986 6.00729   1
  -4  -3  -7 35.7118 10.0308   2
   4   3   7 17.0319 7.04411   1
  -4  -3  -7 16.1842 7.00905   1
  -4  -3  -8 44.4843 11.1837   2
   4   3   8 13.1491 7.08161   1
  -4  -3  -8 29.5018 8.16439   1
  -4  -3  -9 37.9384 12.3137   2
  -4  -3  -9 21.2306 8.77188   1
   4   3   9 17.5159 8.54354   1
  -4  -4  14-10.3273 9.51795   1
  -4  -4  14 65.2321 11.8017   1
  -4  -4  13-4.87256 8.47761   1
  -4  -4  13 11.4850 7.99853   1
  -4  -4  12 20.6779 8.97052   1
  -4  -4  12-6.45852 7.56403   1
  -4  -4  11 5.45452 7.45224   1
  -4  -4  11-3.48492 7.58893   1
  -4  -4  10-4.24579 5.54507   1
  -4  -4  10 6.46225 6.00978   1
  -4  -4   9 8.38747 6.26824   1
  -4  -4   9 10.9145 2.17100   2
  -4  -4   9 3.74740 6.52859   1
  -4  -4   8-1.44348 5.47537   1
  -4  -4   8 2.94186 2.25758   2
  -4  -4   8-0.32857 6.21081   1
  -4  -4   7 35.2925 3.78633   2
  -4  -4   7 42.0427 7.84234   1
  -4  -4   7 41.1432 6.60975   1
   4   4  -6 1.76282 4.96478   1
  -4  -4   6-2.08663 4.62369   1
  -4  -4   6-0.58602 2.70908   2
  -4  -4   5 5.02014 4.51826   1
  -4  -4   5 12.5448 3.20433   2
   4   4  -5 6.56732 4.84851   1
  -4  -4   4 21.7966 4.20510   2
  -4  -4   4 15.4027 5.30008   1
   4   4  -4 26.3383 6.10489   1
  -4  -4   3 30.8321 4.80509   2
   4   4  -3 32.7166 6.40934   1
  -4  -4   3 42.7127 6.64353   1
  -4  -4   2 57.5115 6.18752   2
   4   4  -2 61.4848 6.97322   1
  -4  -4   2 52.6792 6.59211   1
  -4  -4   1 80.4817 7.22473   2
   4   4  -1 83.1168 8.08186   1
  -4  -4   1 64.2280 7.65305   1
   4   4   0 2.47993 4.87402   1
  -4  -4   0 9.78230 4.49878   2
  -4  -4   0 3.03477 4.87299   1
  -4  -4  -1 15.7767 5.31630   2
  -4  -4  -1 7.62780 5.36151   1
   4   4   1 8.74639 4.86463   1
  -4  -4  -2-0.60435 5.41164   2
  -4  -4  -2 4.49459 5.52480   1
   4   4   2 5.12302 5.13217   1
  -4  -4  -3 32.4911 6.96372   1
  -4  -4  -3 21.2915 6.40388   2
   4   4   3 30.1989 6.78563   1
  -4  -4  -4 4.32871 5.51386   1
  -4  -4  -4 7.86541 7.02865   2
   4   4   4 19.9654 6.44202   1
  -4  -4  -5 18.2824 7.42056   2
   4   4   5 14.7805 6.88122   1
  -4  -4  -5 21.5213 7.06360   1
  -4  -4  -6 18.0499 9.66590   2
   4   4   6 19.8164 8.13661   1
  -4  -4  -6 16.8996 7.63745   1
  -4  -4  -7 14.3162 9.70608   2
   4   4   7 18.3858 7.94299   1
  -4  -4  -7 10.9948 7.74451   1
  -4  -4  -8 41.3467 10.5502   1
  -4  -4  -8 12.9665 12.0904   2
   4   4   8 29.3035 9.54241   1
  -4  -5  14 2.21389 10.6316   1
  -4  -5  14 9.53966 9.64534   1
  -4  -5  13 15.6567 8.95132   1
  -4  -5  13 3.01103 9.46178   1
  -4  -5  12 10.4846 9.25371   1
  -4  -5  12-0.81192 7.80714   1
  -4  -5  11 18.3381 7.84069   1
  -4  -5  11 37.9421 9.26528   1
  -4  -5  10 21.0287 3.73324   2
  -4  -5  10 20.8268 7.22681   1
  -4  -5  10 21.2960 7.39612   1
  -4  -5   9-0.72274 6.55126   1
  -4  -5   9 4.64818 3.12369   2
  -4  -5   9-3.08107 6.81969   1
  -4  -5   8 20.2595 6.42464   1
  -4  -5   8 20.5705 3.80203   2
  -4  -5   7 54.2162 5.09954   2
  -4  -5   7 59.9884 8.61815   1
   4   5  -7 59.8648 8.58663   1
  -4  -5   6 25.3918 6.56323   1
  -4  -5   6 23.4774 4.58184   2
   4   5  -6 27.4711 7.29331   1
  -4  -5   5-2.97311 5.36159   1
   4   5  -5 6.50211 6.14848   1
  -4  -5   5 4.35837 4.03344   2
  -4  -5   4 8.19819 4.31955   2
   4   5  -4 2.94217 4.68543   1
  -4  -5   4 6.49020 5.32162   1
  -4  -5   3 1.92230 4.35456   2
   4   5  -3-1.69316 5.53404   1
  -4  -5   3 1.39436 5.61456   1
  -4  -5   2 35.9233 5.93781   2
   4   5  -2 27.6504 6.72110   1
  -4  -5   2 19.1543 6.57407   1
  -4  -5   1 45.8162 6.69988   2
   4   5  -1 50.4900 7.72279   1
  -4  -5   1 41.8670 7.36049   1
  -4  -5   0-5.70094 5.29361   2
  -4  -5   0 7.75184 5.16064   1
   4   5   0 0.65570 5.70033   1
  -4  -5  -1 14.5521 6.25923   2
  -4  -5  -1 24.9955 7.05843   1
   4   5   1 19.4652 6.68129   1
  -4  -5  -2 30.0293 7.62515   1
  -4  -5  -2 31.6767 7.99406   2
   4   5   2 31.4599 7.41630   1
  -4  -5  -3 68.5445 9.89111   2
   4   5   3 57.6133 9.13251   1
  -4  -5  -3 48.9395 8.05344   1
  -4  -5  -4 7.88763 8.58980   2
   4   5   4 10.2341 6.55328   1
  -4  -5  -4 11.3484 7.51662   1
  -4  -5  -5 11.5451 9.23776   2
   4   5   5 29.8065 8.79492   1
  -4  -5  -5 24.4180 8.58390   1
  -4  -5  -6-4.78490 10.0346   2
   4   5   6 20.1143 8.41526   1
  -4  -5  -6 8.81960 8.74437   1
   4   5   7 4.05862 8.48369   1
  -4  -5  -7 3.05949 8.28638   1
  -4  -6  14 10.8857 6.14032   1
  -4  -6  14 0.99395 4.55067   1
  -4  -6  13 14.4105 10.1384   1
   4   6 -13 1.69089 4.14436   2
  -4  -6  13-5.65748 8.98419   1
   4   6 -12 0.02808 4.24013   2
  -4  -6  12 14.6673 8.22157   1
  -4  -6  12 11.6893 9.32316   1
   4   6 -11-3.76080 4.20133   2
  -4  -6  11-0.74285 7.89122   1
  -4  -6  11-2.92400 4.63665   2
  -4  -6  11 2.85535 7.72013   1
  -4  -6  10-2.45347 7.82097   1
   4   6 -10 1.93263 4.29411   2
  -4  -6  10-0.22250 4.34873   2
  -4  -6  10 2.89511 7.85536   1
   4   6  -9-2.75672 4.49553   2
  -4  -6   9-2.59208 7.40420   1
  -4  -6   9 2.24437 3.89689   2
  -4  -6   8 36.3728 5.64647   2
  -4  -6   8 40.2659 8.22213   1
   4   6  -8 25.3182 8.24517   1
  -4  -6   7 67.8683 6.73003   2
  -4  -6   7 67.8608 9.46127   1
   4   6  -7 78.2522 10.1955   1
   4   6  -6 12.7885 6.58997   1
  -4  -6   6 5.15787 4.45546   2
  -4  -6   6 11.4808 5.97793   1
  -4  -6   5 31.5325 5.67719   2
  -4  -6   5 39.2188 7.04753   1
   4   6  -5 29.9572 6.78802   1
  -4  -6   4 33.7605 5.94725   2
   4   6  -4 18.2107 7.19552   1
  -4  -6   4 25.5498 7.35995   1
   4   6  -3 2.06459 6.52244   1
  -4  -6   3 12.6474 5.38921   2
  -4  -6   3 19.7304 6.79283   1
   4   6  -2-2.07958 6.75341   1
  -4  -6   2-10.8837 6.21761   2
  -4  -6   2-6.61995 6.84339   1
   4   6  -1 30.5023 7.84584   1
  -4  -6   1 20.6104 6.79678   2
  -4  -6   1 36.9451 8.28497   1
  -4  -6   0 84.5905 9.87663   2
   4   6   0 64.2095 9.84001   1
  -4  -6   0 97.0984 10.9384   1
  -4  -6  -1-13.9512 8.24205   1
   4   6   1-0.69962 7.26179   1
  -4  -6  -2 8.88367 7.51635   1
  -4  -6  -2 8.14195 7.46437   2
   4   6   2 19.2747 8.54042   1
  -4  -6  -3 25.8717 9.35316   2
   4   6   3-1.19559 7.28004   1
  -4  -6  -3 8.82817 8.13799   1
  -4  -6  -4-0.40303 8.54995   2
   4   6   4 8.07269 7.90176   1
  -4  -6  -4-12.0562 9.89696   1
  -4  -6  -5 27.0525 10.5740   2
   4   6   5 4.44704 9.30985   1
  -4  -6  -5 29.1224 10.5567   1
  -4  -7  13 2.75039 8.65565   1
   4   7 -13-11.0490 5.17079   2
  -4  -7  13 9.76419 8.55146   1
  -4  -7  12 15.4768 10.1066   1
   4   7 -12-2.56024 6.20505   2
  -4  -7  12 8.15034 5.65133   2
  -4  -7  12-13.2796 10.0560   1
  -4  -7  11 6.01001 7.82147   1
   4   7 -11 6.65729 5.72687   2
  -4  -7  11 6.76263 5.58926   2
  -4  -7  11-1.02525 9.25918   1
   4   7 -10-3.26820 5.23894   2
  -4  -7  10 4.29215 5.39310   2
  -4  -7  10-0.38009 8.47143   1
   4   7  -9 29.1648 6.44934   2
   4   7  -9 19.7252 7.79140   1
  -4  -7   9 20.8829 5.68527   2
  -4  -7   9 20.7906 9.12963   1
   4   7  -8 21.6059 5.83378   2
  -4  -7   8 25.3074 5.76866   2
  -4  -7   8 27.9222 8.75224   1
   4   7  -8 33.6473 8.36932   1
   4   7  -7 12.0124 7.94770   1
  -4  -7   7-2.24175 5.46690   2
  -4  -7   7-4.88542 7.07494   1
  -4  -7   6-4.52463 5.36359   2
  -4  -7   6 4.13708 7.70238   1
   4   7  -6-2.52786 7.55714   1
  -4  -7   5 0.26191 5.53849   2
  -4  -7   5 20.8360 7.92365   1
   4   7  -5 11.9044 7.93131   1
   4   7  -4 2.00129 6.63209   1
  -4  -7   4-6.33343 5.97202   2
  -4  -7   4 6.04316 7.37498   1
   4   7  -3 7.68930 7.24486   1
  -4  -7   3 5.95837 6.21763   2
  -4  -7   3 5.07591 7.52436   1
   4   7  -2 12.3250 7.97102   1
  -4  -7   2 3.31813 6.70989   1
  -4  -7   2 7.02229 7.04815   2
  -4  -7   1 163.499 12.5637   2
   4   7  -1 162.896 13.2857   1
  -4  -7   1 154.179 13.7277   1
  -4  -7   0 17.1575 8.88716   1
  -4  -7   0 22.2976 7.70856   2
   4   7   0 6.77943 7.52269   1
  -4  -7  -1 9.05356 8.49844   1
  -4  -7  -1 24.0114 9.73309   2
   4   7   1 3.57095 8.56761   1
  -4  -7  -2 21.6643 9.85362   2
   4   7   2-4.42903 9.48195   1
  -4  -7  -2 1.57301 8.72054   1
  -4  -7  -3 42.3538 11.9494   2
  -4  -7  -3 68.4172 11.9960   1
   4   8 -11 24.2507 8.11646   2
  -4  -8  11 22.4837 7.17783   2
  -4  -8  11 9.86222 11.2624   1
  -4  -8  11 4.94636 10.6691   1
   4   8 -10 16.5272 6.91993   2
  -4  -8  10 5.96125 7.01767   2
  -4  -8  10 20.2771 9.10791   1
   4   8 -10 18.3097 9.32576   1
   4   8  -9 10.6027 9.88060   1
   4   8  -9 15.6643 7.11226   2
  -4  -8   9 17.0698 7.19528   2
  -4  -8   9 24.6307 9.29081   1
   4   8  -8-1.17454 6.74053   2
  -4  -8   8 12.5191 6.75915   2
   4   8  -8-2.57356 9.41492   1
  -4  -8   8 1.58264 8.22645   1
   4   8  -7 15.8385 8.51716   1
  -4  -8   7 24.2775 7.38455   2
  -4  -8   7 20.4224 8.73021   1
  -4  -8   6 8.97817 7.14321   2
  -4  -8   6 10.3769 9.48579   1
   4   8  -6 14.1826 9.51408   1
   4   8  -5 21.3806 9.99222   1
  -4  -8   5 5.65889 7.31294   2
  -4  -8   5 4.28787 8.61611   1
   4   8  -4-8.25222 8.83470   1
  -4  -8   4-1.84507 8.22565   1
  -4  -8   4-7.52727 7.53710   2
   4   8  -3 50.2842 10.6675   1
  -4  -8   3 61.9371 11.1021   1
  -4  -8   3 37.3545 9.86551   2
  -4  -8   2 62.4709 10.3478   2
   4   8  -2 59.6950 11.8915   1
  -4  -8   2 56.0126 11.8570   1
  -4  -8   1 14.2832 9.80677   1
  -4  -8   1 23.4174 8.91248   2
   4   8  -1-7.77279 10.2205   1
  -4  -8   0 27.7818 10.2977   1
  -4  -8   0 43.9791 11.0577   2
   4   8   0 6.26860 10.6851   1
  -4  -8  -1 4.68987 11.3995   2
   4   8   1 0.44868 9.62632   1
  -4  -8  -1 23.6485 12.0595   1
   4   9  -9-8.45098 7.54756   2
  -4  -9   9 14.2958 8.86365   1
  -4  -9   9-1.29265 6.88971   2
   4   9  -9 16.5172 9.69428   1
   4   9  -8-1.71445 8.92153   2
   4   9  -8 19.6216 11.8481   1
  -4  -9   8-7.58897 9.26585   1
  -4  -9   8-2.09606 8.38429   2
  -4  -9   7 25.8336 9.93671   1
  -4  -9   7 7.33707 8.71259   2
   4   9  -7-0.35039 10.4730   1
  -4  -9   6-17.1112 12.2490   1
   4   9  -6-4.73658 9.38715   1
  -4  -9   5 28.1717 10.3288   1
   4   9  -5 2.28286 10.0471   1
  -4  -9   5 2.43590 8.59702   2
   4   9  -4 5.13654 11.2005   1
  -4  -9   4 9.52553 11.6008   1
  -4  -9   4 8.67175 9.79592   2
  -4  -9   3 59.7414 12.3208   2
  -4  -9   3 35.1516 12.9361   1
  -5   8   2 20.7939 6.72967   2
   5  -8  -2 17.1225 6.49021   2
  -5   8   2 14.7199 8.76145   1
   5  -8  -2 4.73677 8.43328   1
  -5   8   1-11.2088 7.44483   2
   5  -8  -1 8.15758 7.58243   2
  -5   8   1-8.93235 8.58620   1
  -5   8   0-12.7485 8.07699   2
   5  -8   0 2.79795 7.75927   2
   5  -8   0-20.2786 10.1057   1
  -5   8   0 9.22321 8.14567   1
  -5   8  -1 17.4328 7.75598   2
  -5   8  -1 6.53556 7.53299   1
  -5   8  -1 11.0601 7.55266   1
  -5   8  -2 29.5599 8.69822   2
  -5   8  -2 32.9721 7.53083   1
  -5   8  -2 20.9375 7.11317   1
  -5   8  -3 5.71813 8.65871   2
  -5   8  -3-0.95797 6.15906   1
  -5   8  -3 4.58652 6.51299   1
  -5   8  -4 17.1332 5.77363   1
  -5   8  -4 33.0276 10.1909   2
  -5   8  -4 26.8105 6.23899   1
  -5   8  -5-0.68622 3.85125   1
  -5   8  -5 9.27444 10.0314   2
  -5   8  -5 2.08033 3.90760   1
  -5   8  -6-18.1394 8.86846   2
   5  -7  -5 28.4502 4.62771   2
  -5   7   5 23.3878 8.40445   1
   5  -7  -5 46.4289 9.99113   1
  -5   7   5 30.7612 4.73316   2
  -5   7   4 2.00143 6.00960   2
  -5   7   4-3.61624 10.8485   1
   5  -7  -4 0.11385 5.83556   2
   5  -7  -4 20.7709 10.9606   1
  -5   7   3 11.9239 5.97562   2
  -5   7   3-4.03489 8.57349   1
   5  -7  -3 19.5576 9.19301   1
  -5   7   2 14.3239 6.15529   2
  -5   7   2-4.15427 8.03550   1
   5  -7  -2 6.69910 8.76366   1
  -5   7   1 2.33035 6.28709   2
  -5   7   1-0.82767 7.37523   1
   5  -7  -1 1.12456 7.92413   1
  -5   7   0 7.32778 7.29966   1
  -5   7   0 20.7832 7.32414   2
  -5   7   0 9.82659 7.25014   1
  -5   7  -1 8.75155 7.11384   2
  -5   7  -1 17.7680 6.80899   1
  -5   7  -1-2.46959 6.32924   1
  -5   7  -2-1.72685 6.97262   2
  -5   7  -2-2.07071 5.77342   1
  -5   7  -2 2.05108 5.69546   1
  -5   7  -3-0.24316 7.25940   2
  -5   7  -3 6.91103 5.22413   1
  -5   7  -3 15.3239 5.85890   1
  -5   7  -4 25.7787 5.42889   1
  -5   7  -4 17.7289 8.09237   2
  -5   7  -4 23.1340 5.24031   1
  -5   7  -5 12.2866 3.65015   1
  -5   7  -5 3.23855 7.92666   2
  -5   7  -5 15.4345 3.69797   1
  -5   7  -6 11.5517 8.22387   2
  -5   7  -7 30.6091 11.0359   2
  -5   7  -8 40.2813 8.43275   2
  -5   6   7 41.5528 9.04214   1
   5  -6  -7 30.3379 8.07669   1
  -5   6   6 25.7649 11.0082   1
   5  -6  -6 54.1768 13.0350   1
  -5   6   5 6.03910 9.39389   1
   5  -6  -5 17.6016 9.68798   1
  -5   6   5 3.53168 3.99075   2
  -5   6   4 13.2894 4.98824   2
  -5   6   4 2.26423 7.91617   1
   5  -6  -4-2.02110 8.89724   1
  -5   6   3 6.96982 4.94095   2
  -5   6   3 5.76267 7.93027   1
   5  -6  -3 1.88970 8.17314   1
  -5   6   2 3.33130 5.09935   2
  -5   6   2-1.00467 6.54107   1
  -5   6   1 2.62588 5.08514   2
  -5   6   1-1.73660 5.96365   1
  -5   6   1 2.78089 6.32122   1
  -5   6   0 2.80669 5.96457   1
  -5   6   0-5.00267 5.39726   2
  -5   6   0 0.37132 5.83803   1
  -5   6  -1 26.9524 6.35327   2
  -5   6  -1 26.5994 6.22833   1
  -5   6  -1 27.8712 6.57282   1
  -5   6  -2 9.61738 6.02923   2
  -5   6  -2 9.41695 5.15484   1
  -5   6  -2 0.46359 4.82024   1
  -5   6  -3 14.1746 4.62960   1
  -5   6  -3 3.13312 6.33666   2
  -5   6  -3 11.9399 4.90544   1
  -5   6  -4 11.9759 6.55126   2
  -5   6  -4 11.6420 4.31090   1
  -5   6  -4 9.37403 4.08545   1
  -5   6  -5 20.6252 3.72645   1
  -5   6  -5 19.8813 3.58232   1
  -5   6  -6 32.6877 8.34023   2
  -5   6  -7 29.8145 8.79926   2
  -5   6  -8 11.2335 10.4635   2
  -5   6  -9 24.0242 6.95588   2
  -5   5   8-4.72259 9.23472   1
   5  -5  -8-16.3171 12.1266   1
  -5   5   7 19.2872 9.96348   1
   5  -5  -7 2.88139 10.4276   1
   5  -5  -6 49.7085 11.4607   1
  -5   5   6 45.8450 10.0936   1
  -5   5   5 14.7977 7.35064   1
  -5   5   4-5.52945 3.53214   2
  -5   5   4 7.36717 6.84005   1
  -5   5   3 58.7850 5.35792   2
  -5   5   3 63.0365 8.85388   1
  -5   5   3 48.7504 8.70914   1
  -5   5   2 18.3825 4.61759   2
  -5   5   2 27.2509 7.36845   1
  -5   5   2 36.2455 7.56300   1
  -5   5   1 3.43854 4.39521   2
  -5   5   1-0.90993 5.33298   1
  -5   5   0 22.2095 5.63534   1
  -5   5   0 12.3259 5.03905   2
  -5   5   0 18.3348 5.96506   1
  -5   5  -1 7.62711 5.13323   2
  -5   5  -1 17.0073 5.47455   1
  -5   5  -1 23.2985 5.46169   1
  -5   5  -2 4.91229 4.50177   1
  -5   5  -2-2.45739 4.91265   2
  -5   5  -2-2.32577 4.64604   1
  -5   5  -3 17.1932 5.74038   2
  -5   5  -3 22.3952 5.14072   1
  -5   5  -3 18.1945 4.68666   1
  -5   5  -4 2.38880 3.59729   1
  -5   5  -4-9.51013 6.79214   2
  -5   5  -4 1.55797 3.63878   1
  -5   5  -5 7.61662 3.04112   1
  -5   5  -5 12.6587 6.87423   2
  -5   5  -5 8.01880 3.05316   1
  -5   5  -6 8.36374 7.16431   2
  -5   5  -7 6.94481 8.14468   2
  -5   5  -8 1.96780 8.53751   2
  -5   5  -9 30.0017 10.4985   2
  -5   4   9 50.9010 11.3633   1
  -5   4   9 32.2027 11.5327   1
  -5   4   8 16.5850 9.26810   1
  -5   4   8-9.30337 9.91326   1
  -5   4   7-2.33685 7.91478   1
  -5   4   7-3.83404 8.39007   1
  -5   4   6 7.41965 7.89555   1
  -5   4   6 14.3851 8.07494   1
  -5   4   5 16.0208 6.83488   1
  -5   4   5 15.2771 7.86136   1
  -5   4   4 5.91072 2.29482   2
  -5   4   4 7.54304 6.83760   1
  -5   4   4 14.3725 6.56550   1
  -5   4   3-1.23618 5.40172   1
  -5   4   3 3.92749 2.94218   2
  -5   4   3 4.43630 5.94224   1
  -5   4   2 13.3292 5.71035   1
  -5   4   2 6.28547 3.38185   2
  -5   4   2 1.74424 5.33387   1
  -5   4   1-1.35684 4.66324   1
  -5   4   1 1.53489 5.07694   1
  -5   4   1-4.85184 3.77810   2
  -5   4   0 8.77129 5.00793   1
  -5   4   0 13.6712 4.32418   2
  -5   4   0 15.1145 5.28932   1
  -5   4  -1 5.28856 4.15468   1
  -5   4  -1-3.23555 4.87486   1
  -5   4  -1 0.87488 4.36715   2
  -5   4  -2 38.0429 6.29939   2
  -5   4  -2 38.8415 5.56033   1
  -5   4  -2 39.8937 5.70902   1
  -5   4  -3 6.12983 3.95731   1
  -5   4  -3 0.67964 4.78498   2
  -5   4  -3 2.43218 3.88356   1
  -5   4  -4 2.55945 3.54658   1
  -5   4  -4 3.07348 3.70670   1
  -5   4  -4 3.77952 5.61167   2
  -5   4  -5 0.34610 2.96024   1
  -5   4  -5 0.40638 5.85273   2
  -5   4  -5 4.27531 3.11813   1
  -5   4  -6-0.82665 1.95825   1
  -5   4  -6 1.45124 6.53259   2
  -5   4  -7-7.59489 7.35406   2
  -5   4  -8 5.12078 8.43789   2
  -5   4  -9 11.7344 10.2554   2
  -5   3  10-6.36353 10.9542   1
  -5   3  10 3.70770 11.7624   1
  -5   3   9 29.9387 9.32337   1
  -5   3   9 1.09945 9.78301   1
  -5   3   8 28.3969 9.01896   1
  -5   3   8 56.6116 9.98686   1
  -5   3   7 32.9227 9.05962   1
  -5   3   7 40.6950 9.09352   1
  -5   3   6 4.26147 6.91259   1
  -5   3   6-2.28435 7.22854   1
  -5   3   5 32.0091 7.92342   1
  -5   3   5 31.5362 7.13281   1
  -5   3   4 40.7517 2.02598   2
  -5   3   4 41.7699 7.30792   1
  -5   3   4 41.8223 7.31567   1
  -5   3   3 23.1580 2.97219   2
  -5   3   3 24.1515 6.62326   1
  -5   3   3 34.3423 6.76147   1
  -5   3   2 23.4052 3.69843   2
  -5   3   2 34.9973 6.70704   1
  -5   3   2 28.2965 6.10889   1
  -5   3   1 8.84225 5.20458   1
  -5   3   1 3.77989 3.21440   2
  -5   3   1-1.67772 4.62499   1
  -5   3   0 31.7765 4.79724   2
  -5   3   0 31.2370 5.72723   1
  -5   3   0 38.8144 5.91442   1
  -5   3  -1 6.10246 4.51635   1
  -5   3  -1-0.67852 3.82931   2
  -5   3  -1 4.19950 3.95159   1
  -5   3  -2 38.5016 5.54086   1
  -5   3  -2 40.2968 5.82958   2
  -5   3  -2 32.2868 5.63106   1
  -5   3  -3 6.45674 4.34338   1
  -5   3  -3 5.40851 3.59678   1
  -5   3  -3 4.28631 4.90387   2
  -5   3  -4 4.17092 3.57399   1
  -5   3  -4 3.14820 3.75995   1
  -5   3  -4 8.29415 5.93301   2
  -5   3  -5 25.7878 4.05293   1
  -5   3  -5 25.4069 7.20255   2
  -5   3  -5 29.0158 4.48310   1
  -5   3  -6 8.46704 2.92860   1
  -5   3  -6 6.98040 3.01533   1
  -5   3  -6-1.31805 6.41800   2
  -5   3  -7-0.47945 7.54179   2
  -5   3  -7 1.44620 1.43365   1
  -5   3  -8 15.9287 9.18580   2
  -5   3  -9 50.6003 11.7660   2
  -5   3 -10 28.4849 7.72753   2
  -5   2  11-3.62995 9.66079   1
  -5   2  11 11.7387 11.4600   1
  -5   2  10 2.04835 9.88509   1
  -5   2  10-11.9299 9.81589   1
  -5   2   9-6.42809 8.57699   1
  -5   2   9-0.31914 8.94583   1
  -5   2   8 0.37879 8.34290   1
  -5   2   8 1.19686 7.29354   1
  -5   2   7 6.68241 6.47814   1
  -5   2   7 0.27981 6.03627   1
  -5   2   6 5.61342 7.13948   1
  -5   2   6 6.08360 6.54900   1
  -5   2   5-2.44930 5.25743   1
  -5   2   5-3.07038 6.25968   1
  -5   2   4 0.30094 5.49648   1
  -5   2   4 8.14431 5.70155   1
  -5   2   3 1.07595 4.84871   1
  -5   2   3 1.00646 1.89014   2
  -5   2   3-2.62161 4.95043   1
  -5   2   2-0.42570 4.63558   1
  -5   2   2-0.49866 4.60242   1
  -5   2   2-1.95365 2.57527   2
  -5   2   1 50.0467 4.84022   2
  -5   2   1 47.9905 6.39781   1
  -5   2   1 53.2581 7.11534   1
  -5   2   0 124.361 7.38835   2
  -5   2   0 124.685 8.73343   1
  -5   2   0 134.378 9.45066   1
  -5   2  -1 15.3116 5.19184   1
  -5   2  -1 21.1038 4.57805   2
  -5   2  -1 21.1953 4.74798   1
  -5   2  -2-0.87900 4.36081   1
  -5   2  -2 0.74311 3.77763   1
  -5   2  -2-1.39591 4.52979   2
  -5   2  -3 80.8425 7.79808   2
  -5   2  -3 83.2215 6.74126   1
  -5   2  -3 84.5565 7.15247   1
  -5   2  -4 1.29729 3.85696   1
  -5   2  -4 9.18516 5.55686   2
  -5   2  -4 8.69650 4.18439   1
  -5   2  -5 2.74602 3.98501   1
  -5   2  -5 1.20781 3.45223   1
  -5   2  -5-0.34654 5.58767   2
  -5   2  -6 11.3126 3.97324   1
  -5   2  -6 10.9584 3.92621   1
  -5   2  -6-0.12662 7.05234   2
  -5   2  -7-1.63602 3.58508   1
  -5   2  -7 0.79982 3.21249   1
  -5   2  -8 0.04572 2.24569   1
  -5   2  -8 1.41919 2.22011   1
  -5   2  -9 44.0008 10.1485   2
  -5   1  11 10.2323 9.32878   1
  -5   1  11 6.06150 10.3992   1
  -5   1  10-1.62689 9.04351   1
  -5   1  10-6.70952 9.26169   1
  -5   1   9-3.28254 6.47256   1
  -5   1   9-3.45042 8.77989   1
  -5   1   8 10.9111 6.84360   1
  -5   1   8 1.26752 6.33875   1
  -5   1   7-2.95865 6.79850   1
  -5   1   7 11.2336 6.38027   1
  -5   1   6 20.9926 7.42239   1
  -5   1   6 21.9708 7.09905   1
  -5   1   5 9.69466 5.70586   1
  -5   1   5 10.4928 5.54185   1
  -5   1   4-5.86511 5.59833   1
  -5   1   4 1.22510 5.38642   1
  -5   1   3 45.4215 3.28835   2
  -5   1   3 38.0860 2.98362   2
  -5   1   3 39.7635 6.74968   1
  -5   1   3 52.7128 7.35530   1
  -5   1   2 136.816 6.15164   2
  -5   1   2 132.965 9.57793   1
  -5   1   2 133.277 10.1020   1
  -5   1   1 69.4987 7.29437   1
  -5   1   1 55.6668 5.06680   2
  -5   1   1 63.7470 7.66441   1
  -5   1   0-2.48295 4.37615   1
  -5   1   0 4.82796 4.35241   1
  -5   1   0-0.13249 3.48598   2
  -5   1  -1 11.0827 4.80524   1
  -5   1  -1 11.5013 4.81195   1
  -5   1  -1 12.1122 4.34521   2
  -5   1  -2 71.7879 7.07172   2
  -5   1  -2 71.4978 7.06975   1
  -5   1  -2 66.6296 6.66620   1
  -5   1  -3 19.1936 5.50462   2
  -5   1  -3 14.8795 4.37521   1
  -5   1  -3 10.4398 4.57231   1
  -5   1  -4-1.03629 3.98500   1
  -5   1  -4-5.52736 5.43189   2
  -5   1  -4 6.83375 4.48161   1
  -5   1  -5 10.7080 4.64245   1
  -5   1  -5-1.42122 5.66303   2
  -5   1  -5 4.13874 4.35414   1
  -5   1  -6 19.4519 4.83673   1
  -5   1  -6 13.3114 6.58972   2
  -5   1  -6 12.0249 4.53449   1
  -5   1  -7 1.70279 7.37223   2
  -5   1  -7 2.50724 4.31270   1
  -5   1  -7 0.86521 4.51258   1
  -5   1  -8 5.10179 9.41847   2
  -5   1  -8 5.14850 4.07122   1
  -5   1  -8 12.3719 4.47336   1
  -5   1  -9 10.1483 3.82991   1
  -5   1  -9 11.5731 9.98843   2
  -5   0  12-12.3297 10.6284   1
  -5   0  12 27.9841 12.4090   1
  -5   0  11 21.5251 10.5413   1
  -5   0  11 35.0821 10.6734   1
  -5   0  10-5.33048 9.23240   1
  -5   0  10 10.6605 8.10729   1
  -5   0   9 8.14902 7.77398   1
  -5   0   9-2.80298 6.58621   1
  -5   0   8 22.2864 8.21417   1
  -5   0   8 34.6290 7.47390   1
  -5   0   7 16.2253 7.46000   1
  -5   0   7 3.72531 6.65679   1
  -5   0   6 83.1892 9.31647   1
  -5   0   6 81.2751 9.36861   1
  -5   0   5 3.42497 5.52330   1
  -5   0   5-0.75743 4.62091   1
  -5   0   4 3.21764 5.15978   1
  -5   0   4 8.91399 5.50967   1
  -5   0   4 4.00342 1.04729   2
  -5   0   4 4.16365 0.99753   2
  -5   0   3 20.6168 2.96153   2
  -5   0   3 11.3058 5.85685   1
  -5   0   3 21.5896 2.88444   2
  -5   0   3 20.9667 5.84134   1
  -5   0   2 45.0329 4.36640   2
  -5   0   2 36.9264 6.49161   1
  -5   0   2 49.2451 4.43265   2
  -5   0   2 45.1907 7.30254   1
  -5   0   1 23.6252 4.38829   2
  -5   0   1 20.4872 4.09064   2
  -5   0   1 21.7417 5.51160   1
  -5   0   1 21.8148 5.78601   1
  -5   0   0-3.04908 4.21366   1
  -5   0   0 6.37440 3.89920   2
  -5   0   0-8.05595 4.98607   1
  -5   0  -1 40.8308 5.82475   2
  -5   0  -1 48.1862 6.82375   1
  -5   0  -1 47.0585 6.30887   1
  -5   0  -2 43.4232 6.29975   2
  -5   0  -2 36.5624 5.67118   1
  -5   0  -2 32.2607 6.15921   1
  -5   0  -3-0.55816 4.21447   1
  -5   0  -3-8.44123 5.40910   2
  -5   0  -4 18.2394 5.34307   1
  -5   0  -4 7.34421 6.51675   2
  -5   0  -5 18.6642 5.42378   1
  -5   0  -5 8.20339 6.90996   2
   5   0   5 16.1451 5.12447   1
  -5   0  -6 12.2198 4.97163   1
   5   0   6 19.9137 5.26890   1
  -5   0  -6 13.7179 7.22084   2
  -5   0  -7 26.6559 9.94567   2
   5   0   7 37.1273 6.39868   1
  -5   0  -7 29.0299 6.00089   1
   5   0   8-1.16859 5.63110   1
  -5   0  -8-1.17084 5.70158   1
   5   0   9 51.1388 6.54395   1
  -5   0  -9 65.2434 6.90362   1
  -5  -1  12-17.0896 12.2843   1
  -5  -1  12-9.46999 9.92898   1
  -5  -1  11-7.63060 9.28937   1
  -5  -1  11-8.12112 9.01012   1
  -5  -1  10 5.02902 7.77777   1
  -5  -1  10 10.4016 8.55354   1
  -5  -1   9 17.2803 7.94935   1
  -5  -1   9 19.0739 8.09161   1
  -5  -1   8 14.8575 8.25299   1
  -5  -1   8-3.95965 6.58887   1
  -5  -1   7 3.94334 7.00046   1
  -5  -1   7 1.88094 6.41646   1
  -5  -1   6 17.8806 6.87211   1
  -5  -1   6 9.95799 6.17284   1
  -5  -1   5 14.4584 5.77717   1
  -5  -1   5 7.74256 5.77167   1
  -5  -1   4 138.188 4.95628   2
  -5  -1   4 135.422 10.7121   1
  -5  -1   4 128.327 4.67898   2
  -5  -1   4 140.852 10.7854   1
  -5  -1   3 76.9866 8.06376   1
  -5  -1   3 64.4483 4.68726   2
  -5  -1   3 71.7773 4.77066   2
  -5  -1   3 62.9685 8.01635   1
  -5  -1   2 5.28832 3.41964   2
  -5  -1   2 1.71561 4.79983   1
  -5  -1   2 4.74493 3.35810   2
  -5  -1   2 10.4124 5.62770   1
  -5  -1   1 27.6705 4.85875   2
  -5  -1   1 26.4659 5.98209   1
  -5  -1   1 11.0428 6.14589   1
  -5  -1   0 209.569 10.2467   2
  -5  -1   0 201.193 11.3589   1
  -5  -1  -1 41.3867 6.44561   2
   5   1   1 30.2229 6.17197   1
  -5  -1  -1 40.6347 6.57863   1
   5   1   2-0.74361 4.60908   1
  -5  -1  -2-3.87206 4.99663   1
   5   1   3 7.12427 5.31653   1
  -5  -1  -3 8.59007 5.43940   1
  -5  -1  -3-0.65973 5.84782   2
  -5  -1  -4 14.5652 5.78215   1
   5   1   4-1.98448 4.90456   1
  -5  -1  -5 55.6542 7.38537   1
   5   1   5 54.9093 7.42586   1
  -5  -1  -6 7.60112 5.77796   1
   5   1   6 9.07700 6.28162   1
   5   1   7-8.71873 5.78204   1
  -5  -1  -7 10.0828 6.29693   1
   5   1   8-1.73413 6.93947   1
  -5  -1  -8 18.4135 7.36897   1
  -5  -1  -8 12.0629 11.3101   2
  -5  -2  13-10.8122 8.90484   1
  -5  -2  13-9.07864 9.23043   1
  -5  -2  12 2.53713 10.2552   1
  -5  -2  12 4.85359 10.7870   1
  -5  -2  11 18.1100 9.03631   1
  -5  -2  11 14.8963 8.68629   1
  -5  -2  10 17.4212 8.15818   1
  -5  -2  10 2.29449 9.30836   1
  -5  -2   9 0.54879 7.33581   1
  -5  -2   9 2.24293 6.29129   1
  -5  -2   8 5.22327 7.75867   1
  -5  -2   8-6.11716 6.73911   1
  -5  -2   7 10.4769 7.52589   1
  -5  -2   7 26.8237 7.88825   1
  -5  -2   6-0.57712 5.40057   1
  -5  -2   6-1.70714 5.75770   1
  -5  -2   5-0.82786 1.80800   2
  -5  -2   5-0.55690 4.99999   1
  -5  -2   5 0.32625 1.66429   2
  -5  -2   5-1.93173 5.95273   1
  -5  -2   4 18.0352 3.35169   2
  -5  -2   4 25.9267 6.19125   1
  -5  -2   4 16.3120 6.78505   1
  -5  -2   3 42.1323 4.70077   2
  -5  -2   3 37.8082 8.01543   1
  -5  -2   3 38.2827 7.17162   1
  -5  -2   2 38.8145 5.20447   2
   5   2  -2 43.9184 6.98971   1
  -5  -2   2 35.6928 6.58749   1
   5   2  -1 18.4006 5.57448   1
  -5  -2   1 22.4179 6.15785   1
  -5  -2   1 2.11122 3.76886   2
   5   2   0 2.59947 5.32859   1
  -5  -2   0-5.57235 4.77343   2
  -5  -2   0-0.43576 4.94331   1
  -5  -2  -1-6.07282 5.41718   2
   5   2   1-0.21926 5.12559   1
  -5  -2  -1-0.59172 5.22195   1
  -5  -2  -2 41.1523 7.46311   2
   5   2   2 27.1051 6.64372   1
  -5  -2  -2 41.1646 7.08079   1
   5   2   3 15.9366 6.28867   1
  -5  -2  -3 8.19630 6.36103   2
  -5  -2  -3 16.2565 6.12597   1
  -5  -2  -4 29.5070 7.73115   2
  -5  -2  -4 41.4682 7.42994   1
   5   2   4 43.4378 7.84114   1
  -5  -2  -5 60.3528 10.4207   2
  -5  -2  -5 66.5129 8.90423   1
   5   2   5 51.3272 8.13441   1
  -5  -2  -6-14.1622 9.20671   2
   5   2   6-4.74582 6.57273   1
  -5  -2  -6-0.62257 7.10726   1
  -5  -2  -7 52.6709 9.53629   1
  -5  -2  -7 26.2293 10.9223   2
   5   2   7 49.3334 8.71574   1
  -5  -3  13 16.5409 7.38975   1
  -5  -3  13 8.08633 6.23640   1
  -5  -3  12 7.17664 11.6196   1
  -5  -3  12 10.2829 10.5491   1
  -5  -3  11 15.8358 9.14371   1
  -5  -3  11 23.1684 9.74208   1
  -5  -3  10-8.15281 10.0637   1
  -5  -3  10 2.49488 8.90871   1
  -5  -3   9 1.74887 7.52691   1
  -5  -3   9 5.52409 6.40649   1
  -5  -3   8 16.7126 6.82250   1
  -5  -3   8 21.5789 8.41872   1
  -5  -3   7 0.62180 5.57942   1
  -5  -3   7 1.40571 6.11168   1
  -5  -3   6 3.27258 6.96099   1
  -5  -3   6 2.82752 2.01115   2
  -5  -3   6 0.28951 7.12522   1
  -5  -3   5 1.36183 6.33407   1
  -5  -3   5 3.18274 2.97680   2
  -5  -3   5-0.50268 6.93962   1
  -5  -3   4 18.8078 3.93511   2
  -5  -3   4 34.0929 7.77721   1
  -5  -3   3 8.85327 6.49064   1
   5   3  -3 6.75306 5.80029   1
  -5  -3   3 12.5715 4.37233   2
  -5  -3   2 4.37456 6.11413   1
   5   3  -2 6.99664 6.03042   1
  -5  -3   2 6.94305 4.17893   2
  -5  -3   1 8.39781 4.94106   2
   5   3  -1 0.72781 6.31662   1
  -5  -3   1-3.81488 5.97548   1
  -5  -3   0 8.53760 5.29505   2
   5   3   0 4.51138 5.41148   1
  -5  -3   0 4.74737 5.88582   1
  -5  -3  -1 25.4462 6.73230   2
  -5  -3  -1 25.4864 7.09098   1
   5   3   1 31.7765 7.53004   1
  -5  -3  -2 46.8231 7.96645   2
  -5  -3  -2 35.3161 7.71439   1
   5   3   2 26.7077 7.28893   1
  -5  -3  -3-2.45355 7.28795   2
  -5  -3  -3 20.6490 6.86945   1
   5   3   3 13.2913 6.76456   1
  -5  -3  -4 10.8045 7.02233   1
  -5  -3  -4 20.2394 8.67737   2
   5   3   4 34.3160 8.09191   1
  -5  -3  -5 37.9248 8.46337   1
  -5  -3  -5 26.4276 10.0801   2
   5   3   5 35.0760 8.70209   1
  -5  -3  -6 3.22695 9.95804   2
   5   3   6-2.20891 8.44121   1
  -5  -3  -6-2.86865 8.13335   1
  -5  -4  12 10.4806 10.1802   1
  -5  -4  12 21.5436 10.9847   1
  -5  -4  11 10.3854 10.4972   1
  -5  -4  11 14.5356 9.39547   1
  -5  -4  10 23.8308 10.9000   1
  -5  -4  10 42.3409 10.8218   1
  -5  -4   9 8.02946 8.19151   1
  -5  -4   9-1.88191 7.92288   1
  -5  -4   8 1.04358 6.58864   1
  -5  -4   8 8.52252 8.62681   1
  -5  -4   7-8.02381 7.76622   1
  -5  -4   7 5.49525 2.68093   2
  -5  -4   7-3.00198 7.20588   1
  -5  -4   6 6.13610 5.95830   1
  -5  -4   6 5.70528 3.64433   2
  -5  -4   6 19.7597 8.44275   1
  -5  -4   5 0.90010 6.12156   1
  -5  -4   5 6.26406 4.14832   2
   5   4  -5-0.27725 6.77293   1
  -5  -4   4 17.5376 6.58695   1
  -5  -4   4 3.08251 4.43033   2
   5   4  -4 1.56710 6.97694   1
  -5  -4   3-0.12223 4.63920   2
   5   4  -3-4.16021 6.61426   1
  -5  -4   3 1.71943 6.56308   1
  -5  -4   2 14.5185 5.36516   2
   5   4  -2 20.8423 6.96679   1
   5   4  -1 23.3138 7.63003   1
  -5  -4   1 19.8193 6.42060   2
  -5  -4   1 12.6492 6.92637   1
  -5  -4   0 5.12818 6.13936   2
  -5  -4   0 2.43945 6.03087   1
   5   4   0 3.69908 6.21577   1
  -5  -4  -1 38.1829 8.12301   2
  -5  -4  -1 31.7587 8.03501   1
   5   4   1 32.7880 8.10093   1
  -5  -4  -2 9.68176 7.48448   2
  -5  -4  -2 23.1151 8.12807   1
   5   4   2 31.6533 7.83683   1
  -5  -4  -3 27.8723 8.80717   1
  -5  -4  -3 20.2874 8.72602   2
   5   4   3 6.91437 8.14471   1
  -5  -4  -4 84.5013 11.3427   2
  -5  -4  -4 76.9077 10.6295   1
   5   4   4 76.5609 10.4913   1
   5   4   5 7.80757 9.02021   1
  -5  -4  -5-7.86293 10.2063   2
  -5  -4  -5-2.76710 9.15197   1
  -5  -5  12 17.6665 11.1949   1
  -5  -5  12 14.3212 9.88048   1
  -5  -5  11-9.50622 8.94356   1
  -5  -5  11 18.3734 9.71391   1
  -5  -5  10 10.8283 10.0176   1
  -5  -5  10 25.7000 10.7903   1
  -5  -5   9 10.9770 8.89717   1
  -5  -5   9 1.07675 2.58326   2
  -5  -5   9 19.1183 9.67719   1
  -5  -5   8 2.99078 8.61284   1
  -5  -5   8 8.47755 3.81698   2
  -5  -5   8-6.28747 9.00391   1
  -5  -5   7 19.1179 8.85654   1
  -5  -5   7 15.4464 4.53085   2
  -5  -5   6 10.3235 7.29752   1
  -5  -5   6 5.55077 4.46600   2
   5   5  -6 1.58619 7.73535   1
   5   5  -5-6.62187 8.42209   1
  -5  -5   5 8.15201 4.57331   2
  -5  -5   5 3.73704 6.46596   1
  -5  -5   4 6.05786 4.96023   2
   5   5  -4 1.61498 7.76579   1
  -5  -5   4 10.8762 7.24423   1
   5   5  -3 28.8222 8.18190   1
  -5  -5   3 15.6146 5.84419   2
  -5  -5   3 12.6727 7.98052   1
  -5  -5   2 12.7282 6.44288   2
  -5  -5   2 20.6559 7.75161   1
   5   5  -2-0.28982 7.35642   1
  -5  -5   1 41.6804 8.15705   2
  -5  -5   1 58.9345 9.08472   1
   5   5  -1 52.5460 9.02103   1
  -5  -5   0 26.8898 8.13465   2
  -5  -5   0 30.7671 8.67616   1
   5   5   0 20.5830 8.27530   1
  -5  -5  -1 113.614 11.7288   2
  -5  -5  -1 132.767 13.3326   1
  -5  -5  -2 16.1371 8.55638   1
   5   5   2-2.31332 8.40277   1
  -5  -5  -2 0.14538 7.79289   2
  -5  -5  -3-1.23792 9.28329   1
   5   5   3-3.72182 8.86879   1
  -5  -5  -3 3.05956 10.1445   2
   5   5   4-1.16646 8.74098   1
  -5  -5  -4 2.80356 8.28519   1
  -5  -6  11 2.07875 10.2926   1
  -5  -6  11-14.8231 12.3213   1
  -5  -6  10 12.9739 10.5603   1
  -5  -6  10 3.30348 4.08939   2
  -5  -6  10 6.02066 11.8573   1
  -5  -6   9 4.17287 10.1145   1
  -5  -6   9 3.89704 4.58235   2
  -5  -6   9 4.76830 9.87677   1
  -5  -6   8-18.2397 9.94636   1
  -5  -6   8 5.74714 5.04788   2
   5   6  -7-0.82514 9.07083   1
  -5  -6   7-4.38660 5.17066   2
  -5  -6   7 3.48312 8.70462   1
   5   6  -6-15.4900 8.75987   1
  -5  -6   6-0.96296 5.70844   2
  -5  -6   6-0.63628 8.57328   1
  -5  -6   5-0.04817 6.14469   2
   5   6  -5 10.0232 8.97820   1
  -5  -6   5-8.90237 7.55198   1
   5   6  -4 15.5072 9.15614   1
  -5  -6   4 16.5732 7.10059   2
  -5  -6   4 0.39150 7.27193   1
  -5  -6   3 3.81030 7.03432   2
  -5  -6   3-8.98105 8.50710   1
   5   6  -3-3.81203 7.39785   1
  -5  -6   2 57.9669 9.64614   2
  -5  -6   2 55.9631 11.1672   1
   5   6  -2 69.0154 12.0384   1
  -5  -6   1 4.65164 7.91738   2
  -5  -6   1 14.7980 9.91629   1
   5   6  -1 2.63703 9.46302   1
  -5  -6   0 70.1263 11.2021   2
  -5  -6   0 75.1033 11.8700   1
  -5  -6  -1-7.97339 9.64584   1
   5   6   1-0.98253 9.90076   1
  -5  -6  -1-9.31286 9.29979   2
  -5  -6  -2 4.83413 9.95979   1
   5   6   2 2.50139 9.80653   1
  -5  -6  -2 13.7059 10.0767   2
  -5  -7   9 23.4080 6.96348   2
  -5  -7   9-3.13629 10.9847   1
  -5  -7   8 31.6347 7.22942   2
  -5  -7   8 45.6897 12.4934   1
   5   7  -8 42.3336 11.8166   1
   5   7  -7-14.9226 11.9225   1
  -5  -7   7 1.69921 6.69858   2
  -5  -7   7-6.08063 11.2511   1
  -5  -7   6 27.6819 8.19990   2
  -5  -7   6 30.9760 9.29890   1
   5   7  -6 25.5669 11.2989   1
   5   7  -5 39.9573 10.4891   1
  -5  -7   5 26.6231 7.73635   2
  -5  -7   5 29.4902 10.7454   1
  -5  -7   4-10.5152 8.42749   2
   5   7  -4-12.2641 10.8155   1
  -5  -7   3 25.1438 8.64167   2
  -5  -7   3 51.6147 11.9607   1
   5   7  -3 34.8627 10.9529   1
  -5  -7   2-22.9981 10.3972   1
  -5  -7   2 13.2105 9.09509   2
   5   7  -2 0.87521 11.6150   1
  -5  -7   1 14.5168 11.6794   1
  -5  -7   1 9.93074 10.2871   2
   5   7  -1-1.14662 10.9344   1
  -6   6   2 16.8402 6.40303   1
  -6   6   2 19.3476 4.16479   2
  -6   6   1-7.39448 6.08385   2
  -6   6   1-10.5072 8.47132   1
  -6   6   1-5.20578 9.09679   1
  -6   6   0 15.2244 7.52829   2
  -6   6   0-2.97943 7.77308   1
  -6   6   0-7.60906 8.03343   1
  -6   6  -1 2.56788 7.09114   1
  -6   6  -1-15.0620 7.13226   2
  -6   6  -1 11.9109 8.23711   1
  -6   6  -2 9.62046 8.38911   2
  -6   6  -2-0.75211 7.02985   1
  -6   6  -2 6.98909 6.88229   1
  -6   6  -3 2.27452 6.57251   2
  -6   5   4 5.11225 9.37368   1
  -6   5   4 6.57406 9.23952   1
  -6   5   3 1.91408 9.13433   1
  -6   5   3 3.34960 3.71086   2
  -6   5   3 9.49110 9.35356   1
  -6   5   2 0.62176 5.08356   2
  -6   5   2-7.60897 8.91941   1
  -6   5   2 4.29727 8.47958   1
  -6   5   1 15.2042 5.78693   2
  -6   5   1-0.06425 8.05427   1
  -6   5   1-4.35192 7.70209   1
  -6   5   0-4.32510 7.12989   1
  -6   5   0 7.82432 5.88266   2
  -6   5   0 9.96340 7.33261   1
  -6   5  -1 4.58497 6.59067   2
  -6   5  -1 5.03983 6.58198   1
  -6   5  -1-1.15740 6.90661   1
  -6   5  -2-2.04452 6.45212   1
  -6   5  -2 6.90323 6.99139   2
  -6   5  -2-1.96209 6.79732   1
  -6   5  -3 8.38579 5.91405   1
  -6   5  -3-1.58722 7.42790   2
  -6   5  -3 3.64696 6.03401   1
  -6   5  -4 16.1895 5.94965   1
  -6   5  -4 2.57256 8.25083   2
  -6   5  -4 14.1780 5.79422   1
  -6   5  -5 0.42149 7.16505   2
  -6   4   6 13.4238 9.78553   1
  -6   4   6-9.39608 9.53457   1
  -6   4   5 4.70965 10.2162   1
  -6   4   5-8.11050 10.8659   1
  -6   4   4 9.74683 8.76993   1
  -6   4   4 0.29930 9.05089   1
  -6   4   3 1.45438 2.77561   2
  -6   4   3 4.60137 7.83681   1
  -6   4   2 25.1397 8.78147   1
  -6   4   2 13.8024 4.84122   2
  -6   4   2 14.1539 7.87024   1
  -6   4   1-4.33210 6.83238   1
  -6   4   1-8.21707 7.67074   1
  -6   4   1 3.62508 4.99033   2
  -6   4   0-4.93079 7.50330   1
  -6   4   0 0.90239 5.32320   2
  -6   4   0 6.54951 6.67892   1
  -6   4  -1-14.9770 6.72238   1
  -6   4  -1-4.18381 5.56052   2
  -6   4  -1 6.68376 6.21192   1
  -6   4  -2 0.48569 6.40518   1
  -6   4  -2 7.49424 5.83726   1
  -6   4  -2-0.61883 6.67283   2
  -6   4  -3-3.06187 5.77488   1
  -6   4  -3 8.99335 5.93421   1
  -6   4  -3 9.05120 7.26183   2
  -6   4  -4-2.07390 5.47505   1
  -6   4  -4 3.17824 8.07583   2
  -6   4  -4 2.64278 4.99525   1
  -6   4  -5 34.6238 5.66919   1
  -6   4  -5 24.6005 9.59460   2
  -6   4  -6 13.3353 5.88446   2
  -6   3   7-6.64361 10.5960   1
  -6   3   7 34.6650 11.5246   1
  -6   3   6-13.4093 10.0176   1
  -6   3   6-6.24046 9.25423   1
  -6   3   5 29.4891 10.0761   1
  -6   3   5 34.2507 9.60860   1
  -6   3   4-7.39138 8.64574   1
  -6   3   4 5.50886 7.62419   1
  -6   3   3 3.20341 7.66406   1
  -6   3   3-1.84164 2.17367   2
  -6   3   2 12.1233 7.84389   1
  -6   3   2 14.6748 8.26364   1
  -6   3   2 4.76751 3.92997   2
  -6   3   1 31.1872 8.42578   1
  -6   3   1 15.0845 5.05858   2
  -6   3   1 18.2704 7.47857   1
  -6   3   0 9.81201 7.19754   1
  -6   3   0 16.3563 5.34805   2
  -6   3   0 14.4136 7.19686   1
  -6   3  -1-1.15329 6.18735   1
  -6   3  -1 4.82720 6.34082   1
  -6   3  -1 15.7812 5.98384   2
  -6   3  -2 0.45723 5.92853   1
  -6   3  -2 10.0858 6.06218   1
  -6   3  -2-7.85489 6.21484   2
  -6   3  -3 3.05253 5.62279   1
  -6   3  -3-3.56217 5.87109   1
  -6   3  -3 4.82711 6.65267   2
  -6   3  -4 16.2119 6.13689   1
  -6   3  -4 13.4703 7.57357   2
  -6   3  -4 27.5834 5.84401   1
  -6   3  -5 0.13852 5.62955   1
  -6   3  -5-2.57015 5.06983   1
  -6   3  -5-0.27076 9.01844   2
  -6   3  -6 23.3708 4.66336   1
  -6   3  -6 16.6095 4.64228   1
  -6   2   8 7.20636 11.3118   1
  -6   2   8 38.5357 12.1918   1
  -6   2   7 9.97166 9.19531   1
  -6   2   7-2.48598 10.7792   1
  -6   2   6 16.1076 9.21490   1
  -6   2   6 9.92525 8.11540   1
  -6   2   5 0.07781 8.39785   1
  -6   2   5 12.4979 8.38458   1
  -6   2   4-2.77190 7.80778   1
  -6   2   4 8.50832 8.65159   1
  -6   2   3-1.64218 6.99848   1
  -6   2   3 10.6576 8.26562   1
  -6   2   3 5.98363 2.16992   2
  -6   2   3 6.77885 2.19278   2
  -6   2   2 3.66089 7.01182   1
  -6   2   2 4.30233 3.52854   2
  -6   2   2 0.94170 6.87190   1
  -6   2   1-8.07007 7.17328   1
  -6   2   1-0.54619 4.16861   2
  -6   2   1-12.4417 6.81128   1
  -6   2   0 23.2093 7.47066   1
  -6   2   0 28.5318 7.37321   1
  -6   2   0 18.4609 5.38935   2
  -6   2  -1 9.16009 6.49739   1
  -6   2  -1 0.53529 6.25232   1
  -6   2  -1 1.69834 5.44764   2
  -6   2  -2 54.7340 8.20477   2
  -6   2  -2 46.4641 7.75781   1
  -6   2  -2 68.7959 9.08389   1
  -6   2  -3 14.3818 6.84892   1
  -6   2  -3-0.39626 6.50351   2
  -6   2  -3 2.50974 5.69269   1
  -6   2  -4 12.6595 6.59673   1
  -6   2  -4-7.01902 7.90516   2
  -6   2  -4-7.67005 6.13786   1
  -6   2  -5 21.9309 6.42662   1
  -6   2  -5 27.0930 5.98713   1
  -6   2  -5 39.0251 9.32355   2
  -6   2  -6 6.55782 5.53046   1
  -6   2  -6-4.53790 5.42278   1
  -6   1   9-16.0876 9.50391   1
  -6   1   9-3.96585 11.1432   1
  -6   1   8-8.96627 12.1434   1
  -6   1   8-16.9776 11.4695   1
  -6   1   7-6.23267 9.20782   1
  -6   1   7 16.3958 8.35499   1
  -6   1   6-3.27067 7.70204   1
  -6   1   6-3.48982 7.77926   1
  -6   1   5-1.37427 6.94532   1
  -6   1   5-14.5953 9.00526   1
  -6   1   4 30.2184 8.94055   1
  -6   1   4 12.5248 7.83918   1
  -6   1   3 68.0233 4.03481   2
  -6   1   3 88.8788 10.3654   1
  -6   1   3 79.0586 10.7233   1
  -6   1   2 128.351 7.09434   2
  -6   1   2 120.007 11.3297   1
  -6   1   2 134.584 6.92290   2
  -6   1   2 140.449 11.9648   1
  -6   1   1 94.1991 7.28609   2
  -6   1   1 85.7403 6.87317   2
  -6   1   1 97.1623 10.3197   1
  -6   1   1 93.5402 10.2893   1
  -6   1   0-2.49531 7.29143   1
  -6   1   0-0.34928 6.59278   1
  -6   1   0 2.51677 4.73271   2
  -6   1  -1 6.55127 6.57695   1
  -6   1  -1-6.26497 5.93044   1
  -6   1  -1-8.11149 5.85638   2
  -6   1  -2 24.9093 7.58479   1
  -6   1  -2 4.24659 6.42902   2
  -6   1  -2 8.18015 6.25934   1
  -6   1  -3 21.9156 7.31934   1
  -6   1  -3 18.8540 7.72191   2
  -6   1  -3 9.03575 6.44833   1
  -6   1  -4 7.93916 6.71437   1
  -6   1  -4-1.52180 6.30241   1
  -6   1  -4-3.22088 8.01574   2
  -6   1  -5 4.70039 6.68984   1
  -6   1  -5-8.57497 6.76900   1
  -6   1  -5-15.1158 10.0253   2
  -6   1  -6-7.79994 5.52555   1
  -6   1  -6-16.5747 8.24611   2
  -6   0   9-5.61873 9.43431   1
  -6   0   9 5.23226 11.6790   1
  -6   0   8 6.92798 9.97758   1
  -6   0   8 12.6343 9.52649   1
  -6   0   7-0.95429 7.47759   1
  -6   0   7-2.72495 9.51353   1
  -6   0   6-2.45038 9.25261   1
  -6   0   6 0.07618 7.72816   1
  -6   0   5 26.5424 9.90972   1
  -6   0   5 42.2170 9.64776   1
  -6   0   4 36.0836 9.02053   1
  -6   0   4 50.7664 9.15450   1
  -6   0   3-0.76295 3.16454   2
  -6   0   3-3.65773 6.77368   1
  -6   0   3-2.73274 2.75481   2
  -6   0   2 21.3641 7.63679   1
  -6   0   2 32.7085 4.73502   2
  -6   0   2 25.5507 4.73135   2
  -6   0   2 32.6691 7.45414   1
  -6   0   1 51.9163 6.50977   2
  -6   0   1 56.5413 6.43981   2
  -6   0   1 45.4877 8.69815   1
  -6   0   1 52.3782 8.79543   1
  -6   0   0 20.6621 7.48247   1
  -6   0   0 5.74758 5.50550   2
  -6   0   0 10.4613 5.35203   2
  -6   0   0 22.2769 8.04994   1
  -6   0  -1-1.55841 6.44812   2
  -6   0  -1 5.83432 7.26777   1
  -6   0  -1 11.5617 7.02965   1
  -6   0  -2 2.24949 6.70084   2
  -6   0  -2 15.6648 7.21888   1
  -6   0  -2-6.77425 6.99444   1
  -6   0  -2 21.9276 7.58059   2
  -6   0  -3-7.68354 7.48045   2
  -6   0  -3 7.17771 6.89384   1
  -6   0  -4 37.5953 7.93006   1
  -6   0  -4 11.4316 8.08054   2
  -6   0  -4 21.5186 7.37365   1
  -6   0  -5-2.55947 7.02605   1
  -6   0  -5-4.93008 8.98811   2
  -6   0  -5 6.91636 7.72838   1
  -6  -1   9-0.65456 10.9450   1
  -6  -1   9-0.43919 10.1288   1
  -6  -1   8-14.6531 11.3046   1
  -6  -1   8-7.15447 9.77950   1
  -6  -1   7 6.04803 9.58862   1
  -6  -1   7 17.7061 8.68428   1
  -6  -1   6 13.1295 9.03583   1
  -6  -1   6 5.82557 7.94574   1
  -6  -1   5 32.7907 10.0470   1
  -6  -1   5 18.6348 8.95397   1
  -6  -1   4 2.30739 7.82227   1
  -6  -1   4 13.2103 2.50542   2
  -6  -1   4 11.2904 2.45943   2
  -6  -1   3 7.51198 3.86541   2
  -6  -1   3 16.9719 7.61313   1
  -6  -1   3 7.82231 3.65271   2
  -6  -1   2 3.93735 7.51064   1
  -6  -1   2 8.48645 4.72163   2
  -6  -1   2 15.0120 4.60654   2
  -6  -1   2 0.14419 7.69173   1
  -6  -1   1 9.45714 7.39714   1
  -6  -1   1 2.30253 5.27772   2
  -6  -1   1-0.56285 5.00521   2
  -6  -1   1 11.3697 8.41295   1
  -6  -1   0 40.9983 7.39194   2
  -6  -1   0 34.5211 6.74627   2
  -6  -1   0 30.5827 9.00846   1
  -6  -1   0 32.3204 8.51821   1
  -6  -1  -1 22.6149 7.22199   2
  -6  -1  -1 8.33861 6.85432   2
  -6  -1  -1 17.5493 8.02060   1
  -6  -1  -1 10.5825 7.62530   1
  -6  -1  -2 6.90842 7.54104   2
  -6  -1  -2-5.22714 6.81583   1
  -6  -1  -2-5.22867 7.30821   2
  -6  -1  -2-9.53602 8.40867   1
  -6  -1  -3-0.13165 8.03860   2
  -6  -1  -3 25.0909 7.89502   1
  -6  -1  -3 14.1418 8.07789   2
  -6  -1  -3 25.1660 8.61520   1
  -6  -1  -4 15.0320 9.20216   2
  -6  -1  -4 4.91361 7.56477   1
  -6  -1  -4 3.10117 9.18490   2
  -6  -1  -4 31.6510 9.43012   1
  -6  -1  -5 0.93351 3.55988   1
  -6  -1  -5 7.40453 5.94689   2
  -6  -1  -5 8.94446 5.80502   2
  -6  -1  -5 10.8126 5.01159   1
  -6  -2   9 29.3976 12.1135   1
  -6  -2   9 11.7896 10.3522   1
  -6  -2   8 2.38026 10.6284   1
  -6  -2   8 5.65995 10.4372   1
  -6  -2   7 19.1682 11.0998   1
  -6  -2   7 4.78941 9.19923   1
  -6  -2   6 0.25439 8.95263   1
  -6  -2   6 12.6720 9.45160   1
  -6  -2   5 10.3295 8.83762   1
  -6  -2   5 2.15060 1.41640   2
  -6  -2   5 9.60007 8.68732   1
  -6  -2   4 48.5591 4.91084   2
  -6  -2   4 49.1266 4.68059   2
  -6  -2   4 39.6077 9.65956   1
  -6  -2   4 56.1598 11.3609   1
  -6  -2   3 9.30988 8.44738   1
  -6  -2   3 2.10712 4.55656   2
  -6  -2   3 5.23651 4.56138   2
  -6  -2   3 6.86350 9.08376   1
  -6  -2   2 3.70850 8.13319   1
  -6  -2   2 4.46335 5.30434   2
  -6  -2   2 1.41633 5.34918   2
  -6  -2   2 1.71102 7.54229   1
  -6  -2   1 12.0163 5.75267   2
  -6  -2   1-0.77163 7.78731   1
  -6  -2   1 0.13883 7.62071   1
  -6  -2   0 13.8454 6.87423   2
  -6  -2   0 19.4788 8.97164   1
  -6  -2   0 25.2488 8.33970   1
  -6  -2  -1 18.0689 7.69819   2
  -6  -2  -1-3.55072 7.71907   1
  -6  -2  -2 18.2785 8.63251   2
  -6  -2  -2 32.1184 8.51798   1
   6   2   2 22.8703 8.42563   1
  -6  -2  -3 17.4945 9.09185   2
  -6  -2  -3 6.83950 8.72006   1
   6   2   3 1.21360 8.54131   1
  -6  -2  -4 8.69159 5.55059   1
  -6  -2  -4 16.4000 7.19083   2
   6   2   4 5.76253 5.72221   1
  -6  -3   9 12.2271 13.3544   1
  -6  -3   9 3.09961 9.58647   1
  -6  -3   8-14.6809 12.3074   1
  -6  -3   8-2.63994 10.6767   1
  -6  -3   7 17.6233 9.39533   1
  -6  -3   7 9.06251 10.2415   1
  -6  -3   6-7.26885 9.48651   1
  -6  -3   6 0.65045 0.62741   2
  -6  -3   6 4.14311 8.60960   1
  -6  -3   5 2.98640 8.20617   1
  -6  -3   5-1.44958 3.44496   2
  -6  -3   5-0.98221 3.40886   2
  -6  -3   5 2.34599 9.71713   1
  -6  -3   4 0.15771 7.58367   1
  -6  -3   4-0.03198 4.67408   2
  -6  -3   4 8.13436 9.02368   1
  -6  -3   3-0.30688 8.07949   1
  -6  -3   3 17.9824 6.08638   2
  -6  -3   3 16.4986 10.4777   1
  -6  -3   2 23.2142 6.89307   2
  -6  -3   2 38.8258 10.7836   1
  -6  -3   2 20.6283 8.38437   1
  -6  -3   1 19.2223 6.87448   2
   6   3  -1 11.8712 8.05866   1
  -6  -3   1 2.73640 8.32710   1
  -6  -3   0 59.4048 9.52112   2
   6   3   0 30.2000 9.27632   1
  -6  -3   0 41.6991 9.30235   1
  -6  -3  -1-4.34048 8.35358   2
  -6  -3  -1 8.67239 8.93714   1
   6   3   1-4.11653 9.28841   1
  -6  -3  -2 81.2309 11.6805   2
  -6  -3  -2 78.7101 12.1827   1
   6   3   2 79.2420 12.1353   1
  -6  -4   8-7.29651 10.1346   1
  -6  -4   8-5.70413 11.5123   1
  -6  -4   7 19.8456 11.7608   1
  -6  -4   7 6.00885 1.26441   2
  -6  -4   7 14.1004 12.8956   1
  -6  -4   6 3.99423 10.0313   1
  -6  -4   6-1.10438 3.73271   2
  -6  -4   6-0.84410 10.2123   1
  -6  -4   5 11.3301 10.2179   1
  -6  -4   5 2.34830 4.99573   2
  -6  -4   5-10.5450 11.2138   1
  -6  -4   4 2.53387 5.76095   2
  -6  -4   4 6.53336 9.59221   1
  -6  -4   3-5.08243 6.59706   2
   6   4  -3 5.72126 9.98960   1
  -6  -4   3 9.23695 9.49618   1
   6   4  -2-3.29207 9.13378   1
  -6  -4   2 13.9102 7.18781   2
  -6  -4   2 9.48155 9.21999   1
  -6  -4   1-0.17597 7.84524   2
   6   4  -1-21.2563 9.71441   1
  -6  -4   0 66.5350 10.8145   2
  -6  -4   0 73.5615 12.1034   1
  -6  -4  -1-0.77384 6.17721   2
  -6  -4  -1 24.2871 7.65119   1
  -6  -5   7 29.4048 3.84793   2
  -6  -5   6 11.8138 5.80336   2
  -6  -5   6-6.89311 11.2416   1
  -6  -5   6 8.99158 10.5598   1
  -6  -5   5-5.06638 9.38192   1
   6   5  -4-16.2654 10.7562   1
  -6  -5   4 8.12876 7.54281   2
  -6  -5   4 1.31810 10.1239   1
  -6  -5   3 3.97896 7.78240   2
  -6  -5   3-0.52257 9.14467   1
   6   5  -3-3.57772 9.63371   1
   6   5  -2-15.4331 9.33948   1
  -6  -5   2 13.9782 7.37654   2
  -6  -5   2-13.5340 9.11756   1
   0   0   0    0.00    0.00   0
TITL 275_c in P-1
REM P-1 (#2 in standard setting)
CELL 0.71073   4.924807   8.601162  12.107354 108.5838  97.2567  92.6664
ZERR    2.00   0.000530   0.000742   0.001049   0.0081   0.0084   0.0078
LATT  1
SFAC C H N O
UNIT 14.00 26.00 2.00 16.00
TREF
HKLF 4
END
;
_shelx_hkl_checksum              4640
_shelx_res_file
;
TITL 275_III in P-1
    275_c.res
    created by SHELXL-2018/3 at 12:43:40 on 16-Jan-2019
REM P-1 (#2 in standard setting)
CELL 0.71073 4.924807 8.601162 12.107354 108.5838 97.2567 92.6664
ZERR 2 0.00053 0.000742 0.001049 0.0081 0.0084 0.0078
LATT 1
SFAC C H N O
UNIT 14 26 2 16
EQIV $1 -X,1-Y,-Z
EQIV $2 1+X,+Y,+Z
EQIV $3 1-X,2-Y,-Z
EQIV $4 1-X,2-Y,1-Z
L.S. 20
PLAN  10
SIZE 0.034 0.071 0.4344
TEMP 1.85
HTAB O4 O3_$2
HTAB O3 O4_$3
HTAB H6 H6_$1
HTAB O8 O8_$4
BOND $H
BOND
CONF
fmap 2
acta
SHEL 40 0.8
REM <olex2.extras>
REM <HklSrc "%.\\275_c.hkl">
REM </olex2.extras>
WGHT    0.036300    0.191700
FVAR       0.78884
O3    4    0.266712    0.992244    0.132173    11.00000    0.01802    0.02547 =
         0.02767    0.01029   -0.00075    0.00312
O6    4    0.192770    0.595091    0.065857    11.00000    0.02391    0.02821 =
         0.02637    0.00748   -0.00162   -0.01190
AFIX 147
H6    2    0.064291    0.538396    0.018007    10.50000   -1.20000
AFIX   0
O4    4    0.743898    0.846681    0.028974    11.00000    0.01750    0.02985 =
         0.02598    0.00938    0.00198   -0.00670
AFIX 147
H4    2    0.898817    0.878438    0.065778    11.00000   -1.20000
AFIX   0
O1    4    0.881869    0.976413    0.317548    11.00000    0.02290    0.02303 =
         0.02858    0.00326   -0.01048   -0.00285
AFIX 147
H1    2    0.994991    1.049013    0.362722    11.00000   -1.20000
AFIX   0
O5    4    0.322783    0.634890   -0.093770    11.00000    0.02486    0.04159 =
         0.02102    0.00526   -0.00233   -0.00748
O8    4    0.434789    0.854991    0.440771    11.00000    0.04067    0.01988 =
         0.03145    0.00336   -0.00308    0.00322
AFIX 147
H8    2    0.503030    0.948178    0.479875    10.50000   -1.20000
AFIX   0
O2    4    0.697007    1.187417    0.276047    11.00000    0.03239    0.01963 =
         0.05282    0.00922   -0.01349   -0.00473
C3    1    0.584754    0.779222    0.095543    11.00000    0.01677    0.01795 =
         0.02006    0.00734    0.00001   -0.00210
AFIX  13
H3A   2    0.701584    0.718813    0.136044    11.00000   -1.20000
AFIX   0
C2    1    0.466043    0.915654    0.187084    11.00000    0.01550    0.01951 =
         0.02076    0.00755   -0.00147   -0.00289
AFIX  13
H2    2    0.375759    0.865593    0.236799    11.00000   -1.20000
AFIX   0
N1    3    0.207316    0.363202    0.231540    11.00000    0.02102    0.02340 =
         0.02952    0.00313   -0.00298   -0.00132
AFIX 137
H1A   2    0.313317    0.364598    0.177463    11.00000   -1.50000
H1B   2    0.032551    0.338870    0.197673    11.00000   -1.50000
H1C   2    0.257319    0.287580    0.264040    11.00000   -1.50000
AFIX   0
O7    4    0.767585    0.777520    0.549079    11.00000    0.04639    0.03008 =
         0.04576    0.00666   -0.02354   -0.00823
C5    1    0.586258    0.749784    0.463519    11.00000    0.02175    0.02344 =
         0.02367    0.00658   -0.00148   -0.00516
C1    1    0.692520    1.043177    0.265456    11.00000    0.01738    0.02038 =
         0.02082    0.00469    0.00320    0.00107
C4    1    0.350657    0.660976    0.012831    11.00000    0.01389    0.01683 =
         0.02267    0.00373    0.00024    0.00194
C7    1    0.238530    0.527162    0.323775    11.00000    0.02143    0.02128 =
         0.02512    0.00030   -0.00019    0.00243
AFIX  23
H7A   2    0.136305    0.522960    0.386352    11.00000   -1.20000
H7B   2    0.163490    0.607385    0.290313    11.00000   -1.20000
AFIX   0
C6    1    0.536509    0.579568    0.373759    11.00000    0.02207    0.02214 =
         0.03072    0.00363   -0.00004    0.00165
AFIX  23
H6A   2    0.638832    0.575970    0.309721    11.00000   -1.20000
H6B   2    0.607095    0.501299    0.410191    11.00000   -1.20000
AFIX   0
H3    2    0.325751    1.026562    0.093306    11.00000    0.08390
HKLF 4
REM  275_III in P-1
REM wR2 = 0.0982, GooF = S = 1.022, Restrained GooF = 1.022 for all data
REM R1 = 0.0463 for 1348 Fo > 4sig(Fo) and 0.0825 for all 1960 data
REM 154 parameters refined using 0 restraints
END
WGHT      0.0362      0.1921
REM Highest difference peak  0.222,  deepest hole -0.217,  1-sigma level  0.052
Q1    1   0.1119  0.9212  0.0816  11.00000  0.05    0.22
Q2    1   0.6094  0.9548  0.2007  11.00000  0.05    0.21
Q3    1   0.9094  0.8710  0.2641  11.00000  0.05    0.20
Q4    1   0.8372  0.7235  0.5739  11.00000  0.05    0.20
Q5    1   0.8780  0.8045  0.5018  11.00000  0.05    0.19
Q6    1   0.6261  1.1412  0.3181  11.00000  0.05    0.19
Q7    1   0.4928  0.6964  0.0547  11.00000  0.05    0.18
Q8    1   0.1074  0.5815  0.3378  11.00000  0.05    0.18
Q9    1   0.5504  0.9842  0.2411  11.00000  0.05    0.17
Q10   1   0.7191  0.9450  0.0602  11.00000  0.05    0.17
;
_shelx_res_checksum              22456
loop_
_space_group_symop_operation_xyz
'x, y, z'
'-x, -y, -z'
loop_
_atom_site_type_symbol
_atom_site_label
_atom_site_fract_x
_atom_site_fract_y
_atom_site_fract_z
_atom_site_U_iso_or_equiv
_atom_site_adp_type
_atom_site_calc_flag
_atom_site_occupancy
O O3 0.2667(3) 0.9922(2) 0.13217(15) 0.0237(4) Uani d 1
O O6 0.1928(3) 0.5951(2) 0.06586(14) 0.0275(4) Uani d 1
H H6 0.064291 0.538396 0.018007 0.033 Uiso calc 0.5
O O4 0.7439(3) 0.84668(19) 0.02897(13) 0.0248(4) Uani d 1
H H4 0.898817 0.878438 0.065778 0.030 Uiso calc 1
O O1 0.8819(3) 0.97641(18) 0.31755(14) 0.0276(4) Uani d 1
H H1 0.994991 1.049013 0.362722 0.033 Uiso calc 1
O O5 0.3228(3) 0.6349(2) -0.09377(14) 0.0312(4) Uani d 1
O O8 0.4348(4) 0.85499(19) 0.44077(15) 0.0326(4) Uani d 1
H H8 0.503030 0.948178 0.479875 0.039 Uiso calc 0.5
O O2 0.6970(3) 1.18742(19) 0.27605(16) 0.0376(5) Uani d 1
C C3 0.5848(4) 0.7792(2) 0.09554(18) 0.0184(5) Uani d 1
H H3A 0.701584 0.718813 0.136044 0.022 Uiso calc 1
C C2 0.4660(4) 0.9157(2) 0.18708(19) 0.0189(5) Uani d 1
H H2 0.375759 0.865593 0.236799 0.023 Uiso calc 1
N N1 0.2073(4) 0.3632(2) 0.23154(17) 0.0267(5) Uani d 1
H H1A 0.313317 0.364598 0.177463 0.040 Uiso calc 1
H H1B 0.032551 0.338870 0.197673 0.040 Uiso calc 1
H H1C 0.257319 0.287580 0.264040 0.040 Uiso calc 1
O O7 0.7676(4) 0.7775(2) 0.54908(17) 0.0453(5) Uani d 1
C C5 0.5863(5) 0.7498(3) 0.4635(2) 0.0239(5) Uani d 1
C C1 0.6925(4) 1.0432(3) 0.26546(19) 0.0200(5) Uani d 1
C C4 0.3507(4) 0.6610(3) 0.01283(19) 0.0187(5) Uani d 1
C C7 0.2385(5) 0.5272(3) 0.3238(2) 0.0247(5) Uani d 1
H H7A 0.136305 0.522960 0.386352 0.030 Uiso calc 1
H H7B 0.163490 0.607385 0.290313 0.030 Uiso calc 1
C C6 0.5365(5) 0.5796(3) 0.3738(2) 0.0266(5) Uani d 1
H H6A 0.638832 0.575970 0.309721 0.032 Uiso calc 1
H H6B 0.607095 0.501299 0.410191 0.032 Uiso calc 1
H H3 0.326(8) 1.027(5) 0.093(3) 0.084(15) Uiso d 1
loop_
_atom_site_aniso_label
_atom_site_aniso_U_11
_atom_site_aniso_U_22
_atom_site_aniso_U_33
_atom_site_aniso_U_12
_atom_site_aniso_U_13
_atom_site_aniso_U_23
O3 0.0180(8) 0.0255(9) 0.0277(9) 0.0031(7) -0.0008(7) 0.0103(8)
O6 0.0239(9) 0.0282(9) 0.0264(9) -0.0119(7) -0.0016(7) 0.0075(8)
O4 0.0175(8) 0.0299(9) 0.0260(9) -0.0067(7) 0.0020(7) 0.0094(7)
O1 0.0229(9) 0.0230(9) 0.0286(9) -0.0029(7) -0.0105(7) 0.0033(7)
O5 0.0249(9) 0.0416(10) 0.0210(9) -0.0075(7) -0.0023(7) 0.0053(8)
O8 0.0407(11) 0.0199(9) 0.0315(10) 0.0032(8) -0.0031(8) 0.0034(8)
O2 0.0324(10) 0.0196(9) 0.0528(12) -0.0047(7) -0.0135(9) 0.0092(8)
C3 0.0168(11) 0.0180(11) 0.0201(12) -0.0021(9) 0.0000(9) 0.0073(9)
C2 0.0155(11) 0.0195(11) 0.0208(11) -0.0029(9) -0.0015(9) 0.0076(9)
N1 0.0210(10) 0.0234(10) 0.0295(11) -0.0013(8) -0.0030(9) 0.0031(9)
O7 0.0464(12) 0.0301(10) 0.0458(11) -0.0082(8) -0.0235(9) 0.0067(9)
C5 0.0218(12) 0.0234(12) 0.0237(12) -0.0052(10) -0.0015(10) 0.0066(10)
C1 0.0174(11) 0.0204(12) 0.0208(11) 0.0011(9) 0.0032(9) 0.0047(9)
C4 0.0139(11) 0.0168(11) 0.0227(12) 0.0019(8) 0.0002(9) 0.0037(9)
C7 0.0214(12) 0.0213(12) 0.0251(12) 0.0024(9) -0.0002(10) 0.0003(10)
C6 0.0221(12) 0.0221(12) 0.0307(13) 0.0016(10) 0.0000(11) 0.0036(10)
loop_
_atom_type_symbol
_atom_type_description
_atom_type_scat_dispersion_real
_atom_type_scat_dispersion_imag
_atom_type_scat_source
C C 0.0033 0.0016 'International Tables Vol C Tables 4.2.6.8 and 6.1.1.4'
H H 0.0000 0.0000 'International Tables Vol C Tables 4.2.6.8 and 6.1.1.4'
N N 0.0061 0.0033 'International Tables Vol C Tables 4.2.6.8 and 6.1.1.4'
O O 0.0106 0.0060 'International Tables Vol C Tables 4.2.6.8 and 6.1.1.4'
loop_
_exptl_crystal_face_index_h
_exptl_crystal_face_index_k
_exptl_crystal_face_index_l
_exptl_crystal_face_perp_dist
0 5 1 0.0120
0 -5 -1 0.0220
3 -1 1 0.2160
-7 3 -2 0.1830
0 1 -3 0.0290
0 -1 3 0.0420
loop_
_geom_angle_atom_site_label_1
_geom_angle_atom_site_label_2
_geom_angle_atom_site_label_3
_geom_angle
C2 O3 H3 110(3)
C4 O6 H6 109.5
C3 O4 H4 109.5
C1 O1 H1 109.5
C5 O8 H8 109.5
O4 C3 H3A 109.1
O4 C3 C2 110.75(16)
O4 C3 C4 109.26(17)
C2 C3 H3A 109.1
C4 C3 H3A 109.1
C4 C3 C2 109.36(17)
O3 C2 C3 111.20(17)
O3 C2 H2 108.2
O3 C2 C1 110.17(17)
C3 C2 H2 108.2
C1 C2 C3 110.85(17)
C1 C2 H2 108.2
H1A N1 H1B 109.5
H1A N1 H1C 109.5
H1B N1 H1C 109.5
C7 N1 H1A 109.5
C7 N1 H1B 109.5
C7 N1 H1C 109.5
O8 C5 C6 114.96(19)
O7 C5 O8 125.7(2)
O7 C5 C6 119.4(2)
O1 C1 C2 111.87(18)
O2 C1 O1 124.9(2)
O2 C1 C2 123.2(2)
O6 C4 C3 113.64(19)
O5 C4 O6 125.2(2)
O5 C4 C3 121.15(19)
N1 C7 H7A 109.5
N1 C7 H7B 109.5
N1 C7 C6 110.67(18)
H7A C7 H7B 108.1
C6 C7 H7A 109.5
C6 C7 H7B 109.5
C5 C6 H6A 108.8
C5 C6 H6B 108.8
C7 C6 C5 113.77(19)
C7 C6 H6A 108.8
C7 C6 H6B 108.8
H6A C6 H6B 107.7
loop_
_geom_bond_atom_site_label_1
_geom_bond_atom_site_label_2
_geom_bond_distance
O3 C2 1.419(3)
O3 H3 0.71(3)
O6 H6 0.8200
O6 C4 1.286(3)
O4 H4 0.8200
O4 C3 1.420(2)
O1 H1 0.8200
O1 C1 1.315(2)
O5 C4 1.226(3)
O8 H8 0.8200
O8 C5 1.273(3)
O2 C1 1.205(2)
C3 H3A 0.9800
C3 C2 1.532(3)
C3 C4 1.522(3)
C2 H2 0.9800
C2 C1 1.518(3)
N1 H1A 0.8900
N1 H1B 0.8900
N1 H1C 0.8900
N1 C7 1.481(3)
O7 C5 1.231(3)
C5 C6 1.507(3)
C7 H7A 0.9700
C7 H7B 0.9700
C7 C6 1.504(3)
C6 H6A 0.9700
C6 H6B 0.9700
loop_
_geom_hbond_atom_site_label_D
_geom_hbond_atom_site_label_H
_geom_hbond_atom_site_label_A
_geom_hbond_site_symmetry_A
_geom_hbond_distance_DH
_geom_hbond_distance_HA
_geom_hbond_distance_DA
_geom_hbond_angle_DHA
_geom_hbond_publ_flag
O4 H4 O3 1_655 0.82 1.96 2.766(2) 166.0 yes
O8 H8 O8 2_676 0.82 1.65 2.456(3) 166.7 yes
O3 H3 O4 2_675 0.71(3) 2.11(4) 2.726(2) 146(4) yes
loop_
_geom_torsion_atom_site_label_1
_geom_torsion_atom_site_label_2
_geom_torsion_atom_site_label_3
_geom_torsion_atom_site_label_4
_geom_torsion
O3 C2 C1 O1 -179.75(18)
O3 C2 C1 O2 -0.9(3)
O4 C3 C2 O3 67.7(2)
O4 C3 C2 C1 -55.2(2)
O4 C3 C4 O6 -179.21(17)
O4 C3 C4 O5 0.7(3)
O8 C5 C6 C7 -38.0(3)
C3 C2 C1 O1 -56.2(2)
C3 C2 C1 O2 122.6(2)
C2 C3 C4 O6 -57.8(2)
C2 C3 C4 O5 122.0(2)
N1 C7 C6 C5 176.73(19)
O7 C5 C6 C7 143.6(2)
C4 C3 C2 O3 -52.8(2)
C4 C3 C2 C1 -175.71(17)

_cod_database_fobs_code 2021497
