#------------------------------------------------------------------------------
#$Date: 2018-11-23 05:39:25 +0200 (Fri, 23 Nov 2018) $
#$Revision: 212130 $
#$URL: file:///home/coder/svn-repositories/cod/cif/2/02/13/2021368.cif $
#------------------------------------------------------------------------------
#
# This file is available in the Crystallography Open Database (COD),
# http://www.crystallography.net/. The original data for this entry
# were provided by IUCr Journals, http://journals.iucr.org/.
#
# The file may be used within the scientific community so long as
# proper attribution is given to the journal article from which the
# data were obtained.
#
data_2021368
loop_
_publ_author_name
'Sharma, Anamika'
'Zamisa, Sizwe J.'
'Noki, Sikabwe'
'Almarhoon, Zainab'
'El-Faham, Ayman'
'de la Torre, Beatriz G.'
'Albericio, Fernando'
_publ_section_title
;
 Crystal structure, spectroscopic studies and theoretical studies of
 thiobarbituric acid derivatives: understanding the hydrogen-bonding
 patterns
;
_journal_coeditor_code           FP3065
_journal_issue                   12
_journal_name_full               'Acta Crystallographica Section C'
_journal_page_first
;
;
_journal_paper_doi               10.1107/S2053229618015516
_journal_volume                  74
_journal_year                    2018
_chemical_formula_iupac          'C11 H16 N2 O3 S'
_chemical_formula_moiety         'C11 H16 N2 O3 S'
_chemical_formula_sum            'C11 H16 N2 O3 S'
_chemical_formula_weight         256.32
_chemical_name_systematic
1,3-Diethyl-5-propionyl-2-thioxodihydropyrimidine-4,6(1<i>H</i>,5<i>H</i>)-dione
_space_group_crystal_system      monoclinic
_space_group_IT_number           4
_space_group_name_Hall           'P 2yb'
_space_group_name_H-M_alt        'P 1 21 1'
_symmetry_space_group_name_Hall  'P 2yb'
_symmetry_space_group_name_H-M   'P 1 21 1'
_atom_sites_solution_hydrogens   geom
_audit_creation_method           SHELXL-2016/6
_cell_angle_alpha                90
_cell_angle_beta                 103.4740(10)
_cell_angle_gamma                90
_cell_formula_units_Z            2
_cell_length_a                   4.91400(10)
_cell_length_b                   12.9450(3)
_cell_length_c                   9.7630(3)
_cell_measurement_reflns_used    7194
_cell_measurement_temperature    100(2)
_cell_measurement_theta_max      27.48
_cell_measurement_theta_min      2.66
_cell_volume                     603.95(3)
_computing_cell_refinement
;
SAINT-Plus (Bruker, 2008)
;
_computing_data_collection
;
APEX2 (Bruker, 2008)
;
_computing_data_reduction
;
SAINT-Plus and XPREP (Bruker, 2008)
;
_computing_molecular_graphics
;
ORTEP-3 (Farrugia, 2012)
;
_computing_publication_material
;
WinGX (Farrugia, 2012)
;
_computing_structure_refinement
;
SHELXL2016 (Sheldrick, 2015b)
;
_computing_structure_solution
;
SHELXT (Sheldrick, 2015a)
;
_diffrn_ambient_temperature      100(2)
_diffrn_measured_fraction_theta_full 1.000
_diffrn_measured_fraction_theta_max 0.998
_diffrn_measurement_device_type  'Bruker APEXII CCD'
_diffrn_measurement_method       '\f and \w scans'
_diffrn_radiation_monochromator  graphite
_diffrn_radiation_source         'sealed tube'
_diffrn_radiation_type           MoK\a
_diffrn_radiation_wavelength     0.71073
_diffrn_reflns_av_R_equivalents  0.000
_diffrn_reflns_av_unetI/netI     0.0279
_diffrn_reflns_limit_h_max       6
_diffrn_reflns_limit_h_min       -6
_diffrn_reflns_limit_k_max       16
_diffrn_reflns_limit_k_min       -16
_diffrn_reflns_limit_l_max       12
_diffrn_reflns_limit_l_min       -12
_diffrn_reflns_number            8623
_diffrn_reflns_theta_full        25.242
_diffrn_reflns_theta_max         27.503
_diffrn_reflns_theta_min         2.145
_exptl_absorpt_coefficient_mu    0.267
_exptl_absorpt_correction_T_max  0.991
_exptl_absorpt_correction_T_min  0.940
_exptl_absorpt_correction_type   multi-scan
_exptl_absorpt_process_details
;
(SADABS; Bruker, 2012)
;
_exptl_crystal_colour            colourless
_exptl_crystal_density_diffrn    1.409
_exptl_crystal_description       block
_exptl_crystal_F_000             272
_exptl_crystal_size_max          0.190
_exptl_crystal_size_mid          0.140
_exptl_crystal_size_min          0.070
_refine_diff_density_max         0.209
_refine_diff_density_min         -0.262
_refine_ls_abs_structure_details
;
Flack <i>x</i> determined using 1252 quotients [(I+)-(I-)]/[(I+)+(I-)]
(Parsons <i>et al.</i>,  2013)
;
_refine_ls_abs_structure_Flack   0.034(16)
_refine_ls_extinction_method     none
_refine_ls_goodness_of_fit_ref   1.087
_refine_ls_hydrogen_treatment    constr
_refine_ls_matrix_type           full
_refine_ls_number_parameters     158
_refine_ls_number_reflns         8623
_refine_ls_number_restraints     1
_refine_ls_restrained_S_all      1.086
_refine_ls_R_factor_all          0.0270
_refine_ls_R_factor_gt           0.0265
_refine_ls_shift/su_max          0.000
_refine_ls_shift/su_mean         0.000
_refine_ls_structure_factor_coef Fsqd
_refine_ls_weighting_details
'w=1/[\s^2^(Fo^2^)+(0.0441P)^2^+0.0526P] where P=(Fo^2^+2Fc^2^)/3'
_refine_ls_weighting_scheme      calc
_refine_ls_wR_factor_gt          0.0695
_refine_ls_wR_factor_ref         0.0703
_reflns_number_gt                8469
_reflns_number_total             8623
_reflns_threshold_expression     'I > 2\s(I)'
_cod_data_source_file            fp3065sup1.cif
_cod_data_source_block           A02
_cod_database_code               2021368
_shelx_space_group_comment
;
The symmetry employed for this shelxl refinement is uniquely defined
by the following loop, which should always be used as a source of
symmetry information in preference to the above space-group names.
They are only intended as comments.
;
_shelx_estimated_absorpt_t_min   0.951
_shelx_estimated_absorpt_t_max   0.982
_shelx_hkl_file
;
   1   0   0   45.90    1.09
  -1   0   0   45.26    1.08
  -1   0   0   44.99    1.25
  -1   0   0   46.17    1.19
  -1   0   0   44.41    1.02
   1   0   0   45.20    1.06
   1   0   0   45.37    1.07
   1   0   0   44.60    1.08
   1   0   0   45.10    1.25
   1   0   0   45.92    1.19
  -1   0   0   44.64    1.07
  -1   0   0   45.89    1.06
  -2   0   0    2.18    0.12
  -2   0   0    2.49    0.11
  -2   0   0    2.34    0.09
   2   0   0    2.37    0.09
   2   0   0    2.44    0.12
   2   0   0    2.26    0.12
   2   0   0    2.24    0.11
   2   0   0    2.63    0.12
  -2   0   0    2.16    0.10
  -2   0   0    2.18    0.09
   3   0   0   17.52    0.54
  -3   0   0   18.43    0.50
   3   0   0   18.91    0.53
   3   0   0   17.67    0.54
   3   0   0   18.33    0.58
  -3   0   0   18.08    0.52
  -3   0   0   18.80    0.52
  -3   0   0   18.38    0.48
  -4   0   0    5.60    0.24
   4   0   0    5.84    0.25
   4   0   0    5.76    0.27
   4   0   0    5.30    0.27
  -4   0   0    6.38    0.22
   5   0   0    0.41    0.10
   5   0   0    0.34    0.11
  -5   0   0    0.26    0.09
   6   0   0    4.07    0.29
  -6   0   0    3.22    0.24
   6   0   0    3.64    0.27
   0  -1   0   -0.25    0.01
   0   1   0   -0.26    0.01
   0   1   0   -0.26    0.01
  -1  -1   0   24.54    0.73
  -1  -1   0   26.49    0.64
  -1  -1   0   25.77    0.70
  -1  -1   0   25.24    0.62
  -1  -1   0   24.85    0.63
   1  -1   0   25.31    0.62
   1  -1   0   25.89    0.61
   1  -1   0   24.83    0.58
  -1  -1   0   25.36    0.63
  -1  -1   0   24.86    0.60
   1  -1   0   25.54    0.63
   1  -1   0   25.12    0.58
   1   1   0   26.61    0.64
   1   1   0   26.17    0.70
  -1   1   0   25.34    0.62
  -1   1   0   26.40    0.62
  -1   1   0   25.39    0.72
  -1   1   0   26.83    0.61
  -1   1   0   26.06    0.59
   1   1   0   26.99    0.74
   1   1   0   26.36    0.62
   1   1   0   26.15    0.60
   1   1   0   25.56    0.63
   1   1   0   25.99    0.63
   2  -1   0   15.95    0.43
   2  -1   0   15.98    0.46
  -2  -1   0   15.77    0.40
  -2  -1   0   15.09    0.43
   2  -1   0   15.91    0.43
  -2  -1   0   15.79    0.41
   2  -1   0   15.73    0.42
  -2  -1   0   15.37    0.45
  -2  -1   0   16.07    0.49
   2  -1   0   16.37    0.39
   2   1   0   15.20    0.40
   2   1   0   15.68    0.44
   2   1   0   14.79    0.44
   2   1   0   15.48    0.43
  -2   1   0   14.55    0.42
  -2   1   0   14.86    0.39
  -2   1   0   15.19    0.41
  -2   1   0   14.78    0.47
  -2   1   0   14.53    0.39
   2   1   0   15.21    0.44
   2   1   0   14.80    0.48
  -3  -1   0    2.91    0.13
   3  -1   0    2.98    0.16
   3  -1   0    3.16    0.16
   3  -1   0    3.07    0.16
  -3  -1   0    3.26    0.16
  -3  -1   0    3.07    0.13
  -3  -1   0    2.84    0.15
  -3   1   0    3.04    0.12
  -3   1   0    2.93    0.15
  -3   1   0    2.89    0.11
   3   1   0    2.85    0.16
   3   1   0    2.88    0.16
  -3   1   0    3.02    0.14
   3   1   0    3.23    0.17
   3   1   0    2.98    0.17
   4  -1   0   25.51    0.75
  -4  -1   0   26.64    0.68
  -4  -1   0   26.64    0.71
   4  -1   0   25.17    0.75
  -4  -1   0   25.86    0.73
   4   1   0   24.66    0.76
  -4   1   0   25.70    0.66
   4   1   0   24.09    0.75
  -4   1   0   24.71    0.69
   4   1   0   24.78    0.81
   5  -1   0   10.01    0.42
  -5  -1   0   10.17    0.39
   5  -1   0    9.38    0.40
   5   1   0   10.04    0.42
  -5   1   0    9.52    0.37
   5   1   0    9.99    0.43
   5   1   0    9.87    0.40
   6  -1   0    4.57    0.31
   6  -1   0    4.74    0.29
   6   1   0    4.54    0.30
  -6   1   0    4.05    0.26
   0  -2   0  187.59    4.36
   0  -2   0  181.96    4.32
   0  -2   0  189.39    4.39
   0  -2   0  190.27    4.32
   0  -2   0  191.49    4.95
   0   2   0  180.74    4.35
   0   2   0  188.91    4.94
   0   2   0  188.62    4.37
   0   2   0  191.11    4.36
   1  -2   0   81.57    1.92
   1  -2   0   82.90    1.92
  -1  -2   0   80.94    1.94
  -1  -2   0   84.21    2.20
  -1  -2   0   82.19    1.95
  -1  -2   0   83.65    1.95
   1  -2   0   81.43    1.94
   1  -2   0   83.31    1.94
  -1  -2   0   81.22    1.85
  -1   2   0   82.37    1.83
  -1   2   0   82.51    1.92
  -1   2   0   82.98    1.83
  -1   2   0   84.48    1.93
   1   2   0   80.28    1.95
   1   2   0   84.46    1.94
  -1   2   0   84.36    1.92
   1   2   0   84.85    2.19
   1   2   0   82.64    2.28
   1   2   0   84.64    1.85
   2  -2   0    2.11    0.08
  -2  -2   0    2.03    0.10
  -2  -2   0    2.11    0.11
  -2  -2   0    2.21    0.11
  -2  -2   0    2.19    0.12
  -2  -2   0    2.11    0.11
   2  -2   0    2.04    0.08
   2  -2   0    2.00    0.10
   2  -2   0    2.07    0.10
  -2  -2   0    2.11    0.12
   2   2   0    2.04    0.12
   2   2   0    2.39    0.12
  -2   2   0    2.20    0.09
  -2   2   0    2.38    0.10
   2   2   0    2.30    0.12
  -2   2   0    2.24    0.11
   2   2   0    2.26    0.10
   2   2   0    2.27    0.12
  -2   2   0    2.44    0.10
   3  -2   0   19.66    0.58
  -3  -2   0   20.43    0.67
   3  -2   0   20.17    0.57
  -3  -2   0   19.95    0.61
  -3  -2   0   20.51    0.55
   3  -2   0   20.31    0.50
   3  -2   0   19.67    0.58
  -3  -2   0   20.35    0.59
  -3  -2   0   20.31    0.56
  -3   2   0   20.93    0.53
  -3   2   0   20.84    0.56
   3   2   0   20.51    0.61
   3   2   0   20.30    0.66
   3   2   0   20.92    0.61
  -3   2   0   21.07    0.56
  -3   2   0   21.14    0.54
   3   2   0   21.28    0.60
  -4  -2   0    5.28    0.21
   4  -2   0    5.45    0.25
   4  -2   0    5.01    0.25
  -4  -2   0    5.44    0.22
  -4  -2   0    5.52    0.26
  -4  -2   0    5.76    0.25
   4   2   0    5.20    0.26
   4   2   0    5.12    0.26
  -4   2   0    5.57    0.19
  -4   2   0    4.97    0.22
   4   2   0    4.81    0.25
   5  -2   0    6.29    0.31
  -5  -2   0    6.30    0.30
   5  -2   0    6.57    0.33
   5   2   0    6.47    0.33
  -5   2   0    6.24    0.29
   5   2   0    6.77    0.32
   5   2   0    7.32    0.36
   6  -2   0   26.33    0.90
   6  -2   0   27.74    0.88
   6   2   0   27.26    0.91
  -6   2   0   27.84    0.83
   0  -3   0   -0.08    0.02
   0  -3   0   -0.06    0.01
   0  -3   0   -0.03    0.02
   0  -3   0   -0.03    0.01
   0   3   0   -0.03    0.02
   0   3   0   -0.08    0.01
   0   3   0   -0.07    0.02
   1  -3   0  158.93    3.72
  -1  -3   0  160.22    3.72
  -1  -3   0  154.50    3.75
   1  -3   0  166.28    3.70
   1  -3   0  159.09    3.70
  -1  -3   0  159.40    3.72
  -1  -3   0  160.94    4.22
  -1  -3   0  162.81    3.75
   1   3   0  161.29    3.76
  -1   3   0  160.46    3.73
  -1   3   0  164.18    3.68
   1   3   0  151.77    3.72
   1   3   0  160.63    4.22
   1   3   0  161.79    3.72
  -1   3   0  160.79    3.68
   1   3   0  160.83    3.74
   1   3   0  160.84    3.55
   2  -3   0   42.46    1.04
   2  -3   0   41.53    1.03
  -2  -3   0   42.86    1.07
   2  -3   0   42.15    1.03
  -2  -3   0   41.83    1.06
   2  -3   0   43.51    1.02
  -2  -3   0   41.13    1.17
  -2  -3   0   41.65    1.04
  -2  -3   0   41.55    1.00
   2   3   0   41.77    1.07
   2   3   0   43.62    1.17
  -2   3   0   41.96    0.97
  -2   3   0   42.94    1.19
   2   3   0   41.91    1.07
  -2   3   0   41.96    1.01
  -2   3   0   42.25    1.02
   2   3   0   42.61    1.23
   3  -3   0    2.76    0.14
   3  -3   0    2.81    0.15
  -3  -3   0    2.59    0.15
  -3  -3   0    2.75    0.14
  -3  -3   0    2.71    0.14
  -3  -3   0    2.68    0.15
   3   3   0    2.70    0.17
   3   3   0    2.54    0.16
   3   3   0    2.66    0.14
  -3   3   0    2.76    0.11
  -3   3   0    2.70    0.13
  -3   3   0    2.77    0.10
   3   3   0    2.58    0.16
  -3   3   0    2.93    0.14
  -4  -3   0   11.65    0.41
  -4  -3   0   11.18    0.36
   4  -3   0   11.24    0.39
  -4  -3   0   11.24    0.39
  -4  -3   0   11.09    0.38
   4  -3   0   11.04    0.40
   4   3   0   10.63    0.43
   4   3   0   10.22    0.42
  -4   3   0   11.32    0.33
  -4   3   0   10.57    0.36
   4   3   0   10.93    0.42
   5  -3   0    9.17    0.38
   5  -3   0    9.10    0.40
  -5   3   0    9.33    0.36
   5   3   0    9.04    0.40
   5   3   0    9.34    0.42
   6  -3   0    8.00    0.40
   6  -3   0    7.64    0.37
  -6   3   0    7.51    0.36
   6   3   0    7.21    0.40
   0  -4   0  118.58    2.77
   0  -4   0  117.97    2.77
   0  -4   0  118.61    2.79
   0   4   0  121.64    3.19
   0   4   0  123.62    2.80
  -1  -4   0   20.70    0.52
  -1  -4   0   19.77    0.60
  -1  -4   0   20.24    0.53
   1  -4   0   20.02    0.48
  -1  -4   0   19.78    0.48
   1  -4   0   20.45    0.48
   1   4   0   19.55    0.49
   1   4   0   18.71    0.51
   1   4   0   19.82    0.52
  -1   4   0   20.33    0.52
   1   4   0   19.81    0.60
  -2  -4   0   21.33    0.53
   2  -4   0   20.50    0.53
   2  -4   0   20.87    0.53
  -2  -4   0   21.34    0.58
  -2  -4   0   21.09    0.57
   2  -4   0   21.01    0.54
  -2  -4   0   20.68    0.56
  -2  -4   0   20.42    0.63
  -2   4   0   20.50    0.49
  -2   4   0   19.96    0.53
   2   4   0   19.83    0.64
   2   4   0   20.86    0.58
  -2   4   0   21.26    0.50
   2   4   0   20.88    0.62
   2   4   0   19.88    0.58
  -2   4   0   20.38    0.51
  -3  -4   0   12.21    0.38
   3  -4   0   12.24    0.37
  -3  -4   0   11.82    0.42
   3  -4   0   12.40    0.38
   3  -4   0   12.43    0.37
  -3  -4   0   12.67    0.41
  -3  -4   0   12.79    0.38
   3   4   0   11.05    0.44
   3   4   0   11.96    0.40
   3   4   0   11.94    0.41
  -3   4   0   11.93    0.34
  -3   4   0   11.68    0.34
  -3   4   0   11.70    0.35
   3   4   0   11.83    0.41
  -4  -4   0    0.72    0.11
  -4  -4   0    0.59    0.10
   4  -4   0    0.71    0.10
  -4  -4   0    0.72    0.09
   4  -4   0    0.82    0.11
  -4  -4   0    0.67    0.09
   4   4   0    0.60    0.11
  -4   4   0    0.58    0.09
   4   4   0    0.60    0.12
  -4   4   0    0.70    0.07
   4   4   0    0.73    0.12
   5  -4   0    2.42    0.19
   5  -4   0    2.17    0.17
   5   4   0    2.21    0.19
  -5   4   0    2.40    0.18
   5   4   0    2.52    0.22
   6  -4   0    9.70    0.44
   6  -4   0    9.29    0.41
  -6   4   0    9.42    0.40
   0  -5   0   -0.18    0.03
   0  -5   0   -0.16    0.02
   0  -5   0   -0.19    0.02
   0  -5   0   -0.12    0.02
   0   5   0   -0.14    0.03
  -1  -5   0   22.79    0.70
  -1  -5   0   22.73    0.60
  -1  -5   0   22.22    0.55
  -1  -5   0   22.82    0.62
  -1  -5   0   23.14    0.60
   1  -5   0   23.79    0.55
   1  -5   0   23.52    0.55
  -1   5   0   23.92    0.68
   1   5   0   22.83    0.59
   1   5   0   22.97    0.69
   1   5   0   23.11    0.61
  -1   5   0   23.31    0.60
   1   5   0   23.16    0.56
  -2  -5   0  163.29    3.86
  -2  -5   0  161.13    3.67
   2  -5   0  166.67    3.81
   2  -5   0  165.55    3.83
   2  -5   0  162.45    3.81
  -2  -5   0  156.45    4.37
  -2  -5   0  169.63    3.87
  -2  -5   0  164.64    3.89
  -2  -5   0  169.40    3.90
  -2   5   0  166.61    3.62
   2   5   0  164.68    3.87
   2   5   0  166.44    3.68
  -2   5   0  163.73    3.63
   2   5   0  166.82    4.36
  -2   5   0  162.00    3.84
   2   5   0  160.48    3.90
   2   5   0  160.94    4.52
   3  -5   0    6.51    0.23
  -3  -5   0    5.83    0.26
  -3  -5   0    5.75    0.25
   3  -5   0    5.86    0.21
  -3  -5   0    5.98    0.24
  -3  -5   0    6.11    0.23
   3  -5   0    5.59    0.23
  -3   5   0    5.77    0.20
  -3   5   0    6.19    0.22
   3   5   0    5.98    0.27
   3   5   0    5.74    0.26
  -3   5   0    5.93    0.20
   3   5   0    5.29    0.27
  -4  -5   0    3.78    0.22
   4  -5   0    3.73    0.19
  -4  -5   0    3.56    0.21
  -4  -5   0    3.50    0.19
   4  -5   0    3.44    0.20
  -4   5   0    4.14    0.16
  -4   5   0    3.93    0.19
   4   5   0    3.88    0.24
   4   5   0    3.73    0.23
   5  -5   0    9.10    0.36
   5  -5   0    9.40    0.40
   5   5   0    9.04    0.42
  -5   5   0    9.49    0.36
   0  -6   0   62.49    1.50
   0  -6   0   64.09    1.50
   0  -6   0   62.80    1.56
   0  -6   0   64.78    1.50
   0   6   0   63.94    1.76
  -1  -6   0    0.01    0.03
  -1  -6   0    0.02    0.03
  -1  -6   0    0.00    0.04
  -1  -6   0    0.04    0.04
  -1  -6   0    0.00    0.03
   1  -6   0    0.08    0.02
   1   6   0    0.02    0.04
   1   6   0   -0.01    0.03
   1   6   0    0.10    0.04
  -1   6   0   -0.02    0.04
  -1   6   0    0.02    0.03
   1   6   0   -0.01    0.02
   2  -6   0   10.91    0.30
  -2  -6   0   10.52    0.35
  -2  -6   0   10.53    0.35
  -2  -6   0   11.04    0.36
   2  -6   0   11.24    0.30
  -2  -6   0    9.72    0.39
  -2  -6   0   11.10    0.36
   2  -6   0   10.73    0.28
  -2   6   0   10.79    0.32
   2   6   0   10.84    0.35
  -2   6   0   10.55    0.26
   2   6   0   10.35    0.36
   2   6   0   10.53    0.39
  -2   6   0   10.97    0.37
   2   6   0   10.71    0.32
  -2   6   0   10.72    0.27
  -3  -6   0    9.74    0.36
   3  -6   0   10.25    0.32
   3  -6   0   10.14    0.34
  -3  -6   0   10.58    0.34
  -3  -6   0    9.99    0.36
   3  -6   0   10.22    0.31
  -3  -6   0   10.02    0.40
   3   6   0   10.21    0.38
  -3   6   0   11.25    0.36
   3   6   0   10.97    0.39
   3   6   0   10.77    0.42
  -3   6   0   10.66    0.32
  -3   6   0   10.45    0.30
   4  -6   0    3.04    0.19
  -4  -6   0    3.12    0.19
  -4  -6   0    3.15    0.21
   4  -6   0    3.06    0.17
  -4   6   0    3.51    0.16
  -4   6   0    3.45    0.17
   4   6   0    3.22    0.22
   5  -6   0    4.82    0.24
   5  -6   0    4.97    0.27
  -5   6   0    4.92    0.24
   5   6   0    4.90    0.30
   0  -7   0    0.03    0.02
   0  -7   0   -0.01    0.03
   0  -7   0    0.00    0.02
   0  -7   0    0.03    0.02
   0   7   0    0.02    0.02
   0   7   0    0.00    0.04
  -1  -7   0   72.33    1.74
  -1  -7   0   71.95    1.74
  -1  -7   0   70.14    1.79
   1  -7   0   73.70    1.68
  -1  -7   0   71.19    1.75
   1   7   0   72.42    1.65
   1   7   0   72.44    1.72
  -1   7   0   73.50    1.99
  -1   7   0   71.70    1.76
   1   7   0   72.56    1.75
   2  -7   0   34.25    0.82
   2  -7   0   34.12    0.81
  -2  -7   0   33.40    0.88
  -2  -7   0   33.03    0.89
  -2  -7   0   31.50    1.01
  -2  -7   0   33.87    0.81
  -2  -7   0   32.81    0.90
   2   7   0   33.46    1.01
  -2   7   0   35.23    0.98
   2   7   0   33.10    0.83
   2   7   0   32.72    0.90
  -2   7   0   33.89    0.87
   2   7   0   33.51    0.88
  -2   7   0   31.50    0.75
   3  -7   0   35.74    0.92
  -3  -7   0   34.54    1.09
  -3  -7   0   33.82    0.97
   3  -7   0   35.72    0.88
   3  -7   0   36.55    0.91
  -3  -7   0   34.69    0.97
  -3   7   0   35.94    0.85
   3   7   0   35.01    0.99
  -3   7   0   37.74    1.04
  -3   7   0   35.63    0.86
   3   7   0   36.17    1.12
  -3   7   0   36.36    0.92
  -4  -7   0    2.60    0.19
   4  -7   0    2.28    0.13
  -4  -7   0    2.37    0.17
   4  -7   0    2.71    0.17
  -4   7   0    2.50    0.15
   4   7   0    2.48    0.20
   5  -7   0    2.93    0.17
   5  -7   0    2.61    0.20
   5   7   0    2.68    0.23
  -5   7   0    2.68    0.18
   0  -8   0   27.39    0.69
   0  -8   0   27.47    0.76
   0  -8   0   27.62    0.69
   0   8   0   28.11    0.64
  -1  -8   0    1.47    0.12
  -1  -8   0    1.52    0.10
  -1  -8   0    1.54    0.11
   1  -8   0    1.56    0.06
  -1  -8   0    1.54    0.10
   1   8   0    1.45    0.09
   1   8   0    1.42    0.09
  -1   8   0    1.64    0.12
   1   8   0    1.42    0.10
  -2  -8   0   19.19    0.57
  -2  -8   0   18.86    0.60
  -2  -8   0   20.12    0.58
  -2  -8   0   19.35    0.58
   2  -8   0   20.51    0.50
   2   8   0   19.82    0.65
  -2   8   0   19.97    0.56
   2   8   0   20.29    0.59
   3  -8   0    3.90    0.16
  -3  -8   0    3.44    0.20
  -3  -8   0    3.31    0.20
   3   8   0    3.75    0.23
  -3   8   0    3.78    0.15
  -3   8   0    3.70    0.17
   4  -8   0    3.39    0.15
  -4  -8   0    3.48    0.23
   4  -8   0    3.61    0.20
  -4  -8   0    3.58    0.22
  -4   8   0    3.67    0.18
   4   8   0    3.82    0.25
   5  -8   0    1.98    0.14
  -5   8   0    2.16    0.17
   5   8   0    2.11    0.22
   0  -9   0    0.01    0.03
   0  -9   0    0.00    0.03
   0  -9   0    0.08    0.05
   0   9   0   -0.01    0.02
  -1  -9   0   13.78    0.41
  -1  -9   0   14.15    0.40
   1  -9   0   14.43    0.35
  -1  -9   0   13.20    0.46
  -1  -9   0   14.42    0.42
  -1   9   0   13.33    0.44
   1   9   0   13.73    0.38
  -2  -9   0    5.24    0.26
  -2  -9   0    5.65    0.24
   2  -9   0    5.71    0.17
  -2   9   0    5.34    0.23
  -3  -9   0    5.91    0.28
   3  -9   0    6.58    0.23
  -3  -9   0    5.89    0.29
  -3   9   0    6.64    0.25
  -3   9   0    5.97    0.20
  -4  -9   0   34.12    1.01
  -4  -9   0   35.10    1.01
  -4   9   0   33.94    0.87
   5  -9   0    2.13    0.12
  -5  -9   0    2.32    0.20
  -5   9   0    2.22    0.17
   0 -10   0  142.62    3.31
   0 -10   0  139.80    3.43
   0 -10   0  145.99    3.32
   0  10   0  138.86    3.15
   1 -10   0    9.43    0.26
  -1 -10   0    9.30    0.31
   1 -10   0    9.45    0.26
  -1 -10   0    9.28    0.30
  -1 -10   0    9.46    0.37
  -1 -10   0    9.77    0.32
  -1  10   0    8.87    0.34
   2 -10   0    2.67    0.11
  -2 -10   0    2.82    0.17
  -2 -10   0    2.70    0.19
  -2  10   0    2.69    0.16
  -3 -10   0    0.82    0.13
  -3 -10   0    0.74    0.12
  -3  10   0    0.71    0.10
  -3  10   0    0.64    0.07
  -4 -10   0    5.94    0.32
  -4 -10   0    5.98    0.32
  -4  10   0    6.13    0.24
   0 -11   0    0.09    0.05
  -1 -11   0   35.08    0.91
  -1 -11   0   32.95    0.99
   1 -11   0   35.92    0.85
   1 -11   0   35.41    0.85
  -1  11   0   34.59    0.97
  -2 -11   0   10.12    0.37
  -2 -11   0   10.40    0.42
   2 -11   0   10.31    0.28
  -2  11   0   10.18    0.37
  -3 -11   0    0.17    0.09
  -3 -11   0    0.09    0.08
  -3  11   0    0.27    0.08
  -3  11   0    0.18    0.05
  -4 -11   0    4.35    0.28
  -4 -11   0    4.62    0.28
  -4  11   0    4.07    0.19
   0 -12   0   95.63    2.48
   0 -12   0   97.30    2.35
   0 -12   0  103.47    2.36
   1 -12   0   44.81    1.06
   1 -12   0   46.18    1.06
  -1 -12   0   44.10    1.13
  -1 -12   0   42.06    1.22
  -1  12   0   42.58    1.19
   2 -12   0    5.78    0.18
  -2 -12   0    5.41    0.30
  -2 -12   0    5.46    0.26
  -2  12   0    5.87    0.27
  -3 -12   0    7.63    0.35
  -3 -12   0    7.89    0.38
  -3  12   0    8.21    0.32
  -3  12   0    7.60    0.24
  -4 -12   0    1.78    0.21
  -4 -12   0    1.90    0.21
  -4  12   0    1.85    0.13
   1 -13   0    5.43    0.18
  -1 -13   0    4.81    0.22
   1 -13   0    4.90    0.17
  -1 -13   0    4.45    0.27
  -1  13   0    5.08    0.26
  -2 -13   0    1.57    0.14
   2 -13   0    1.66    0.08
  -2 -13   0    1.25    0.17
  -2  13   0    1.43    0.15
  -3 -13   0    1.25    0.16
  -3 -13   0    1.30    0.18
  -3  13   0    1.40    0.15
  -3  13   0    1.48    0.09
   0 -14   0    5.58    0.22
   0  14   0    5.70    0.30
  -1 -14   0    9.82    0.44
  -1 -14   0   10.75    0.37
   1 -14   0   10.63    0.30
  -1  14   0   10.55    0.43
  -2 -14   0    2.71    0.19
  -2 -14   0    2.59    0.22
  -2  14   0    2.84    0.20
  -3 -14   0    0.68    0.13
  -3 -14   0    0.92    0.16
   0 -15   0    0.00    0.05
   0  15   0    0.04    0.08
   1 -15   0    8.31    0.25
  -1 -15   0    8.52    0.41
  -1 -15   0    8.19    0.32
  -1  15   0    7.88    0.37
  -2 -15   0   15.65    0.61
  -2 -15   0   15.32    0.53
  -2  15   0   15.04    0.55
   0 -16   0    7.26    0.27
   0  16   0    6.97    0.37
  -1 -16   0    1.99    0.16
  -1 -16   0    1.76    0.22
   1 -16   0    1.99    0.11
  -1  16   0    1.87    0.21
   6   0  -1    0.76    0.14
  -6   0   1    0.55    0.12
   6   0  -1    0.74    0.16
   5   0  -1    4.49    0.26
  -5   0   1    4.67    0.24
   5   0  -1    4.61    0.27
   4   0  -1   23.51    0.72
   4   0  -1   24.42    0.76
  -4   0   1   24.23    0.66
  -4   0   1   24.65    0.62
   4   0  -1   23.33    0.71
   3   0  -1   22.40    0.54
   3   0  -1   20.96    0.67
  -3   0   1   21.73    0.60
  -3   0   1   21.61    0.55
   3   0  -1   22.12    0.62
  -3   0   1   21.68    0.57
   3   0  -1   22.34    0.61
   3   0  -1   21.65    0.62
  -2   0   1    0.31    0.03
  -2   0   1    0.25    0.05
   2   0  -1    0.32    0.05
  -2   0   1    0.28    0.05
   2   0  -1    0.30    0.03
   2   0  -1    0.36    0.02
   2   0  -1    0.34    0.05
  -2   0   1    0.13    0.03
   2   0  -1    0.41    0.05
   2   0  -1    0.26    0.05
  -1   0   1   -0.04    0.02
  -1   0   1   -0.03    0.02
   1   0  -1   -0.03    0.01
   1   0  -1    0.02    0.03
  -1   0   1   -0.01    0.01
   1   0  -1    0.03    0.02
   1   0  -1   -0.06    0.02
   1   0  -1   -0.03    0.02
   1   0  -1    0.04    0.03
  -1   0   1   -0.04    0.02
  -1   0   1   -0.01    0.03
   0   0   1  233.40    4.98
   0   0  -1  238.50    5.22
   0   0   1  225.88    5.21
   0   0  -1  208.48    5.57
   0   0   1  214.91    5.57
   0   0  -1  231.48    4.97
  -1   0  -1  306.49    7.12
  -1   0  -1  307.83    7.13
   1   0   1  314.94    7.18
   1   0   1  310.01    6.81
   1   0   1  304.69    7.15
  -1   0  -1  312.01    6.80
  -1   0  -1  309.94    8.07
  -1   0  -1  298.70    7.18
  -1   0  -1  297.86    8.40
   1   0   1  309.91    7.21
   1   0   1  309.60    8.41
   1   0   1  317.47    6.80
   1   0   1  306.85    7.12
   2   0   1   57.92    1.43
   2   0   1   56.85    1.63
  -2   0  -1   58.05    1.39
  -2   0  -1   57.43    1.55
   2   0   1   58.28    1.32
   2   0   1   57.38    1.42
  -2   0  -1   58.24    1.40
  -2   0  -1   58.14    1.64
   2   0   1   57.22    1.40
  -2   0  -1   58.73    1.34
  -3   0  -1   12.87    0.39
   3   0   1   11.99    0.42
   3   0   1   11.93    0.40
  -3   0  -1   12.10    0.36
   3   0   1   11.94    0.40
   3   0   1   12.57    0.35
   3   0   1   12.49    0.40
  -3   0  -1   12.76    0.38
  -3   0  -1   12.41    0.39
  -4   0  -1    6.89    0.28
  -4   0  -1    7.27    0.26
   4   0   1    7.18    0.31
   4   0   1    6.45    0.30
  -4   0  -1    6.93    0.25
   5   0   1    0.58    0.12
   5   0   1    0.58    0.13
  -5   0  -1    0.48    0.11
   6   0   1    1.27    0.18
   6  -1  -1    4.69    0.29
  -6  -1   1    4.46    0.27
   6  -1  -1    4.27    0.30
   6   1  -1    4.58    0.29
  -6   1   1    4.43    0.27
   6   1  -1    4.48    0.31
  -5  -1   1    8.35    0.34
   5  -1  -1    7.66    0.36
   5  -1  -1    7.94    0.35
   5   1  -1    7.58    0.36
   5   1  -1    8.34    0.37
   5   1  -1    8.03    0.34
  -5   1   1    8.68    0.34
  -4  -1   1    7.74    0.25
  -4  -1   1    7.32    0.28
   4  -1  -1    7.83    0.32
   4  -1  -1    7.27    0.30
   4   1  -1    7.55    0.32
  -4   1   1    7.38    0.28
   4   1  -1    7.62    0.32
  -4   1   1    7.46    0.23
   4   1  -1    7.46    0.31
  -3  -1   1    1.01    0.10
   3  -1  -1    1.37    0.06
   3  -1  -1    1.14    0.10
  -3  -1   1    1.23    0.10
   3  -1  -1    1.07    0.09
   3  -1  -1    1.16    0.11
   3  -1  -1    1.24    0.11
  -3  -1   1    1.20    0.07
   3   1  -1    1.04    0.11
   3   1  -1    1.17    0.12
   3   1  -1    1.02    0.10
   3   1  -1    1.10    0.11
  -3   1   1    1.00    0.09
  -3   1   1    1.03    0.09
   2  -1  -1   51.19    1.17
  -2  -1   1   50.59    1.19
   2  -1  -1   49.90    1.39
   2  -1  -1   51.13    1.23
   2  -1  -1   50.11    1.22
  -2  -1   1   49.22    1.22
  -2  -1   1   50.47    1.42
  -2  -1   1   50.26    1.16
   2   1  -1   49.69    1.18
   2   1  -1   51.09    1.24
   2   1  -1   49.68    1.42
   2   1  -1   50.94    1.23
  -2   1   1   50.73    1.15
  -2   1   1   49.03    1.17
   2   1  -1   50.27    1.33
   2   1  -1   48.67    1.23
  -2   1   1   49.48    1.20
  -2   1   1   48.80    1.41
   1  -1  -1   30.05    0.83
  -1  -1   1   29.75    0.74
  -1  -1   1   31.08    0.75
  -1  -1   1   29.96    0.74
  -1  -1   1   30.24    0.70
   1  -1  -1   30.00    0.68
  -1  -1   1   30.13    0.72
   1  -1  -1   30.67    0.73
   1  -1  -1   30.29    0.73
   1  -1  -1   30.14    0.79
   1   1  -1   30.03    0.72
  -1   1   1   28.85    0.84
  -1   1   1   30.56    0.79
  -1   1   1   30.28    0.72
   1   1  -1   30.61    0.75
   1   1  -1   30.42    0.70
   1   1  -1   30.07    0.74
   1   1  -1   28.97    0.74
  -1   1   1   29.97    0.72
  -1   1   1   29.94    0.70
  -1   1   1   29.78    0.68
   0  -1  -1  214.38    5.34
   0  -1  -1  196.82    5.02
   0  -1   1  203.48    4.71
   0  -1  -1  211.66    4.73
   0   1   1  202.96    4.47
   0   1   1  218.44    5.33
   0   1  -1  193.27    4.69
   0   1   1  193.42    5.64
   0   1  -1  201.76    4.47
   0   1   1  197.24    4.68
   0   1  -1  199.18    4.72
   1  -1   1  760.15   20.50
  -1  -1  -1  853.57   20.06
   1  -1   1  849.15   21.11
  -1  -1  -1  909.26   20.69
  -1  -1  -1  909.24   21.07
  -1  -1  -1  849.32   24.70
  -1  -1  -1  976.46   20.28
  -1  -1  -1  876.79   20.93
  -1  -1  -1  867.77   23.55
   1  -1   1  853.89   21.00
   1  -1   1  843.97   21.16
   1   1   1  868.05   20.05
  -1   1  -1  840.53   20.94
  -1   1  -1  906.17   19.67
  -1   1  -1  890.00   21.00
  -1   1  -1  813.64   21.00
   1   1   1  830.62   21.10
   1   1   1 1000.00   20.31
  -1   1  -1  847.13   19.62
   1   1   1  890.90   23.45
   1   1   1  862.15   24.59
   1   1   1  888.72   20.97
   1   1   1  861.73   21.05
  -2  -1  -1   13.99    0.39
  -2  -1  -1   13.59    0.43
  -2  -1  -1   14.57    0.39
   2  -1   1   14.45    0.41
   2  -1   1   14.33    0.40
   2  -1   1   14.10    0.41
  -2  -1  -1   14.72    0.47
  -2  -1  -1   13.62    0.40
  -2   1  -1   14.18    0.45
  -2   1  -1   14.48    0.38
  -2   1  -1   13.97    0.42
   2   1   1   14.44    0.42
   2   1   1   13.89    0.42
  -2   1  -1   14.92    0.40
  -2   1  -1   14.55    0.38
   2   1   1   14.62    0.41
   2   1   1   14.68    0.43
   2   1   1   14.44    0.46
  -3  -1  -1    8.72    0.31
   3  -1   1    8.64    0.32
  -3  -1  -1    9.19    0.29
   3  -1   1    8.53    0.32
  -3  -1  -1    9.03    0.30
   3  -1   1    8.63    0.31
  -3  -1  -1    8.43    0.30
   3   1   1    9.33    0.28
   3   1   1    8.76    0.33
  -3   1  -1    9.42    0.31
   3   1   1    8.94    0.33
  -3   1  -1    8.85    0.27
  -3   1  -1    9.12    0.29
   3   1   1    8.84    0.34
  -3   1  -1    8.79    0.29
   4  -1   1    8.63    0.36
  -4  -1  -1    9.68    0.32
  -4  -1  -1    9.59    0.33
  -4  -1  -1    8.98    0.34
   4  -1   1    9.36    0.37
   4   1   1    9.67    0.38
   4   1   1    9.62    0.38
  -4   1  -1    9.71    0.31
  -4   1  -1    9.19    0.33
   4   1   1    9.07    0.37
  -5  -1  -1    0.14    0.08
   5  -1   1    0.22    0.09
   5  -1   1    0.34    0.10
  -5   1  -1    0.27    0.09
   5   1   1    0.56    0.13
   5   1   1    0.28    0.10
   6  -1   1    0.63    0.15
   6  -1   1    0.65    0.15
  -6   1  -1    0.73    0.14
   6   1   1    0.67    0.14
   6  -2  -1   12.62    0.53
   6  -2  -1   12.81    0.51
   6   2  -1   12.77    0.54
  -6   2   1   12.08    0.47
   5  -2  -1   10.29    0.41
   5  -2  -1    9.94    0.42
  -5  -2   1   10.42    0.40
  -5   2   1   10.15    0.38
   5   2  -1   11.07    0.44
   5   2  -1   10.29    0.44
   5   2  -1   10.29    0.42
  -4  -2   1   30.86    0.82
  -4  -2   1   31.84    0.81
   4  -2  -1   29.79    0.86
  -4  -2   1   31.75    0.87
   4  -2  -1   31.51    0.87
   4   2  -1   30.73    0.89
  -4   2   1   30.69    0.81
   4   2  -1   30.83    0.89
  -4   2   1   31.53    0.77
   4   2  -1   30.05    0.96
   3  -2  -1   41.26    0.94
   3  -2  -1   42.94    0.98
  -3  -2   1   40.77    1.01
  -3  -2   1   41.20    1.00
  -3  -2   1   41.25    1.05
   3  -2  -1   41.60    1.05
   3  -2  -1   40.89    1.05
  -3   2   1   39.38    1.02
   3   2  -1   39.81    1.07
   3   2  -1   40.15    1.07
   3   2  -1   39.59    1.20
   3   2  -1   40.78    1.11
  -3   2   1   40.23    0.98
  -3   2   1   40.67    0.97
   2  -2  -1    9.37    0.28
   2  -2  -1    9.10    0.27
  -2  -2   1    9.16    0.27
   2  -2  -1    9.30    0.28
   2  -2  -1    9.64    0.24
  -2  -2   1    9.01    0.29
  -2  -2   1    8.67    0.29
  -2  -2   1    9.29    0.27
   2  -2  -1    9.09    0.23
  -2   2   1    9.22    0.30
   2   2  -1    9.65    0.26
   2   2  -1    9.24    0.29
  -2   2   1    9.70    0.26
  -2   2   1    9.20    0.24
   2   2  -1    9.58    0.30
   2   2  -1    9.57    0.30
   2   2  -1    9.08    0.32
   2   2  -1    9.16    0.30
  -2   2   1    9.31    0.26
   1  -2  -1   86.65    2.00
   1  -2  -1   86.47    2.26
  -1  -2   1   88.62    2.05
   1  -2  -1   86.43    2.02
  -1  -2   1   88.33    2.03
   1  -2  -1   88.12    2.00
  -1  -2   1   85.14    2.02
  -1  -2   1   85.88    2.03
   1   2  -1   87.96    2.29
   1   2  -1   83.82    2.03
  -1   2   1   86.46    2.01
   1   2  -1   85.08    2.02
   1   2  -1   86.64    1.93
   1   2  -1   86.74    2.02
  -1   2   1   86.83    1.99
   1   2  -1   87.54    2.05
  -1   2   1   85.23    2.26
  -1   2   1   84.65    1.99
  -1   2   1   83.64    1.90
   0  -2   1   17.58    0.47
   0  -2  -1   19.62    0.48
   0  -2  -1   20.05    0.55
   0  -2  -1   20.31    0.47
   0  -2   1   19.96    0.44
   0  -2   1   19.99    0.48
   0   2  -1   19.07    0.45
   0   2  -1   18.88    0.47
   0   2   1   19.22    0.46
   0   2  -1   20.23    0.49
   1  -2   1  271.85    6.21
  -1  -2  -1  264.61    6.19
  -1  -2  -1  267.90    7.25
  -1  -2  -1  259.13    6.16
   1  -2   1  264.99    6.20
  -1  -2  -1  260.96    5.85
   1  -2   1  268.82    5.85
  -1  -2  -1  268.31    6.18
  -1  -2  -1  262.49    6.96
  -1  -2  -1  267.37    6.14
   1   2   1  276.38    6.17
   1   2   1  264.36    7.27
  -1   2  -1  261.50    6.20
  -1   2  -1  259.28    6.13
   1   2   1  272.61    7.48
   1   2   1  271.74    5.87
  -1   2  -1  260.22    5.86
  -1   2  -1  271.16    6.12
   1   2   1  269.43    6.21
  -1   2  -1  261.14    5.88
   1   2   1  264.47    6.14
   1   2   1  260.20    6.13
  -2  -2  -1   33.93    0.85
   2  -2   1   32.39    0.83
   2  -2   1   32.88    0.75
  -2  -2  -1   33.11    0.79
  -2  -2  -1   33.45    0.96
  -2  -2  -1   31.71    0.91
  -2  -2  -1   32.75    0.82
  -2  -2  -1   32.62    0.83
   2  -2   1   31.55    0.83
   2   2   1   32.29    0.83
   2   2   1   31.67    0.85
   2   2   1   30.16    0.84
  -2   2  -1   31.85    0.80
  -2   2  -1   32.46    0.78
  -2   2  -1   32.40    0.81
   2   2   1   32.53    0.96
   2   2   1   33.21    0.91
  -2   2  -1   32.95    0.94
   3  -2   1   23.98    0.69
   3  -2   1   24.81    0.69
  -3  -2  -1   24.83    0.69
   3  -2   1   25.14    0.68
  -3  -2  -1   24.19    0.66
   3  -2   1   25.79    0.61
  -3  -2  -1   25.22    0.80
  -3  -2  -1   24.35    0.66
  -3  -2  -1   24.83    0.74
  -3   2  -1   25.22    0.65
   3   2   1   24.19    0.71
  -3   2  -1   24.35    0.64
   3   2   1   24.59    0.71
   3   2   1   25.28    0.79
  -3   2  -1   24.95    0.67
  -3   2  -1   25.01    0.70
   3   2   1   25.84    0.72
   4  -2   1    3.51    0.21
  -4  -2  -1    3.52    0.18
   4  -2   1    3.29    0.20
  -4  -2  -1    3.71    0.18
  -4  -2  -1    3.48    0.19
   4   2   1    3.64    0.22
  -4   2  -1    3.61    0.16
   4   2   1    3.42    0.21
   4   2   1    3.79    0.23
  -4   2  -1    3.72    0.19
   5  -2   1    9.98    0.42
   5  -2   1   10.23    0.43
  -5  -2  -1   10.79    0.41
   5   2   1    9.75    0.43
   5   2   1   10.45    0.45
   5   2   1   10.45    0.45
  -5   2  -1   11.28    0.40
   6  -2   1    0.69    0.14
   6  -2   1    0.94    0.18
   6   2   1    0.62    0.15
  -6   2  -1    1.13    0.17
   6  -3  -1   20.22    0.71
   6  -3  -1   19.80    0.68
  -6   3   1   19.81    0.65
   6   3  -1   19.32    0.72
   5  -3  -1   25.60    0.79
  -5  -3   1   25.90    0.76
   5  -3  -1   24.68    0.77
   5   3  -1   25.47    0.86
   5   3  -1   26.73    0.83
  -5   3   1   25.86    0.74
   5   3  -1   25.67    0.82
   4  -3  -1   19.28    0.58
  -4  -3   1   19.35    0.55
  -4  -3   1   19.27    0.60
  -4  -3   1   19.05    0.56
   4  -3  -1   18.77    0.59
  -4   3   1   19.97    0.50
  -4   3   1   19.04    0.54
   4   3  -1   18.79    0.61
   4   3  -1   19.08    0.62
   4   3  -1   18.59    0.65
   3  -3  -1    7.23    0.21
   3  -3  -1    6.73    0.25
   3  -3  -1    6.82    0.25
   3  -3  -1    6.87    0.26
  -3  -3   1    6.61    0.24
  -3  -3   1    6.80    0.27
  -3  -3   1    6.70    0.24
   3   3  -1    6.48    0.27
  -3   3   1    7.02    0.23
   3   3  -1    7.26    0.25
   3   3  -1    7.12    0.28
   3   3  -1    6.60    0.29
  -3   3   1    7.83    0.20
  -3   3   1    7.04    0.23
  -2  -3   1    6.75    0.22
   2  -3  -1    6.81    0.21
  -2  -3   1    7.03    0.24
   2  -3  -1    7.20    0.21
   2  -3  -1    6.75    0.21
  -2  -3   1    6.76    0.22
  -2  -3   1    6.97    0.24
  -2   3   1    6.46    0.19
  -2   3   1    6.48    0.18
  -2   3   1    6.72    0.22
   2   3  -1    6.65    0.24
   2   3  -1    6.81    0.24
   2   3  -1    6.47    0.24
  -2   3   1    6.64    0.20
   2   3  -1    6.58    0.26
  -2   3   1    6.48    0.19
  -2   3   1    6.88    0.19
  -1  -3   1    3.16    0.12
   1  -3  -1    3.16    0.09
  -1  -3   1    3.13    0.12
   1  -3  -1    3.24    0.12
  -1  -3   1    3.07    0.11
   1  -3  -1    3.19    0.11
   1  -3  -1    3.25    0.09
  -1  -3   1    3.12    0.12
  -1  -3   1    3.24    0.13
   1   3  -1    3.32    0.13
   1   3  -1    3.22    0.12
  -1   3   1    3.25    0.12
   1   3  -1    3.10    0.12
   1   3  -1    3.25    0.11
  -1   3   1    3.28    0.11
   1   3  -1    3.24    0.12
   1   3  -1    3.19    0.14
   0  -3  -1   61.19    1.44
   0  -3   1   59.70    1.43
   0  -3  -1   60.54    1.40
   0  -3   1   59.16    1.41
   0  -3   1   60.10    1.33
   0   3  -1   61.01    1.44
   0   3  -1   60.27    1.41
   0   3  -1   60.81    1.44
   0   3  -1   59.65    1.34
   0   3   1   61.05    1.62
   0   3   1   61.27    1.40
  -1  -3  -1  124.47    2.96
   1  -3   1  127.07    2.97
  -1  -3  -1  112.92    2.82
  -1  -3  -1  128.88    2.97
   1  -3   1  126.48    2.94
  -1  -3  -1  124.80    2.99
  -1  -3  -1  129.80    2.98
  -1  -3  -1  128.21    3.36
  -1   3  -1  130.16    2.93
   1   3   1  127.51    2.96
   1   3   1  128.48    3.36
   1   3   1  129.22    2.83
   1   3   1  127.89    3.48
   1   3   1  131.12    3.00
  -1   3  -1  124.17    2.80
  -1   3  -1  125.44    2.80
  -1   3  -1  129.10    2.97
   1   3   1  128.66    2.96
  -2  -3  -1   13.51    0.37
  -2  -3  -1   13.41    0.41
  -2  -3  -1   13.56    0.45
   2  -3   1   13.16    0.38
   2  -3   1   13.08    0.39
  -2  -3  -1   13.22    0.43
   2  -3   1   13.32    0.37
  -2  -3  -1   12.69    0.39
  -2  -3  -1   13.16    0.39
   2  -3   1   13.43    0.33
   2   3   1   12.85    0.45
   2   3   1   13.63    0.41
  -2   3  -1   13.84    0.35
   2   3   1   13.21    0.41
  -2   3  -1   13.39    0.35
   2   3   1   14.41    0.43
  -2   3  -1   13.99    0.37
  -2   3  -1   13.32    0.37
  -3  -3  -1   27.09    0.73
  -3  -3  -1   26.06    0.70
   3  -3   1   26.16    0.72
   3  -3   1   26.15    0.72
  -3  -3  -1   27.19    0.83
  -3  -3  -1   26.11    0.78
   3  -3   1   25.88    0.62
  -3  -3  -1   27.07    0.69
   3   3   1   26.66    0.75
   3   3   1   24.27    0.82
  -3   3  -1   25.50    0.67
  -3   3  -1   25.15    0.68
   3   3   1   24.82    0.74
   3   3   1   26.65    0.77
  -3   3  -1   25.51    0.67
  -4  -3  -1    3.29    0.19
   4  -3   1    3.23    0.20
  -4  -3  -1    3.70    0.20
  -4  -3  -1    3.52    0.21
  -4  -3  -1    3.58    0.18
   4  -3   1    3.51    0.20
  -4   3  -1    3.59    0.19
   4   3   1    3.62    0.21
   4   3   1    3.53    0.22
  -4   3  -1    3.55    0.16
   4   3   1    3.57    0.22
   5  -3   1    9.31    0.40
   5  -3   1    8.54    0.38
   5   3   1    9.27    0.41
  -5   3  -1    9.33    0.36
   5   3   1    8.99    0.42
   6  -4  -1    3.98    0.25
   6  -4  -1    3.86    0.27
  -6   4   1    3.75    0.24
   5  -4  -1    7.92    0.36
   5  -4  -1    7.29    0.32
  -5   4   1    7.35    0.31
   5   4  -1    7.55    0.37
   5   4  -1    7.44    0.36
   4  -4  -1   27.71    0.79
  -4  -4   1   28.40    0.82
   4  -4  -1   29.32    0.81
  -4  -4   1   29.13    0.78
  -4  -4   1   29.10    0.78
  -4   4   1   29.09    0.75
   4   4  -1   28.93    0.85
   4   4  -1   29.25    0.85
   4   4  -1   26.52    0.92
  -3  -4   1   24.12    0.66
   3  -4  -1   24.24    0.65
  -3  -4   1   24.47    0.65
  -3  -4   1   23.79    0.69
   3  -4  -1   24.23    0.65
   3  -4  -1   24.15    0.66
  -3   4   1   24.65    0.66
  -3   4   1   24.96    0.61
   3   4  -1   24.76    0.70
   3   4  -1   25.24    0.71
  -3   4   1   24.69    0.62
   3   4  -1   25.15    0.73
  -3   4   1   24.61    0.62
   3   4  -1   23.97    0.78
  -2  -4   1    9.57    0.30
  -2  -4   1    9.31    0.31
   2  -4  -1    9.83    0.28
  -2  -4   1    9.80    0.29
   2  -4  -1    9.49    0.27
   2  -4  -1    9.71    0.27
  -2  -4   1    9.80    0.32
  -2   4   1    9.54    0.30
   2   4  -1    9.60    0.35
   2   4  -1    9.42    0.32
  -2   4   1    9.73    0.25
  -2   4   1   10.12    0.28
  -2   4   1    9.22    0.26
   2   4  -1    9.99    0.34
   2   4  -1   10.07    0.32
  -1  -4   1   56.18    1.47
  -1  -4   1   61.60    1.49
   1  -4  -1   62.84    1.47
   1  -4  -1   62.00    1.66
  -1  -4   1   62.70    1.47
   1   4  -1   59.76    1.47
  -1   4   1   62.40    1.65
   1   4  -1   61.95    1.68
   1   4  -1   61.46    1.39
   1   4  -1   62.16    1.49
  -1   4   1   62.02    1.47
   0  -4  -1  227.26    5.92
   0  -4   1  226.55    5.24
   0  -4  -1  221.07    5.25
   0  -4   1  221.45    5.19
   0  -4  -1  228.79    5.19
   0  -4  -1  222.15    5.19
   0   4   1  227.19    5.23
   0   4  -1  217.98    4.95
   0   4  -1  226.66    5.24
   0   4   1  230.30    5.91
   0   4  -1  225.39    5.19
   0   4   1  229.34    5.17
   0   4  -1  227.14    5.25
  -1  -4  -1   16.09    0.42
   1  -4   1   15.81    0.40
  -1  -4  -1   15.58    0.49
   1  -4   1   15.45    0.40
   1   4   1   15.47    0.43
  -1   4  -1   16.18    0.39
  -1   4  -1   15.28    0.37
  -1   4  -1   15.76    0.42
   1   4   1   15.86    0.40
   1   4   1   16.33    0.49
  -1   4  -1   15.11    0.37
   1   4   1   15.49    0.48
   1   4   1   15.38    0.42
  -2  -4  -1   51.46    1.19
   2  -4   1   49.80    1.24
  -2  -4  -1   47.69    1.41
  -2  -4  -1   48.83    1.25
  -2  -4  -1   49.77    1.26
   2  -4   1   49.95    1.23
   2  -4   1   50.85    1.22
  -2  -4  -1   50.60    1.26
  -2   4  -1   50.77    1.23
  -2   4  -1   52.07    1.16
  -2   4  -1   51.52    1.21
   2   4   1   50.34    1.27
   2   4   1   50.58    1.46
   2   4   1   48.84    1.27
  -2   4  -1   50.53    1.16
   2   4   1   52.90    1.41
   3  -4   1   24.91    0.67
  -3  -4  -1   24.06    0.68
  -3  -4  -1   24.59    0.66
  -3  -4  -1   24.19    0.76
   3  -4   1   24.38    0.67
  -3  -4  -1   24.30    0.70
   3  -4   1   25.31    0.69
  -3   4  -1   24.04    0.63
   3   4   1   22.94    0.78
   3   4   1   24.46    0.72
   3   4   1   25.25    0.72
   3   4   1   25.06    0.74
  -3   4  -1   25.13    0.65
  -3   4  -1   24.62    0.65
  -4  -4  -1    2.18    0.18
   4  -4   1    1.99    0.16
  -4  -4  -1    2.17    0.15
   4  -4   1    1.92    0.15
  -4  -4  -1    2.24    0.16
  -4  -4  -1    2.18    0.16
  -4   4  -1    2.01    0.14
  -4   4  -1    2.10    0.12
   4   4   1    2.28    0.18
   4   4   1    2.41    0.19
   4   4   1    2.14    0.17
   5  -4   1    6.12    0.32
   5  -4   1    5.98    0.29
  -5   4  -1    6.21    0.28
   5   4   1    6.03    0.32
   5   4   1    6.08    0.34
   6  -5  -1    0.52    0.13
   6  -5  -1    0.38    0.10
  -6   5   1    0.45    0.11
   5  -5  -1    7.99    0.35
   5  -5  -1    7.71    0.32
   5   5  -1    8.13    0.39
   5   5  -1    8.03    0.39
  -5   5   1    8.25    0.32
  -4  -5   1   12.85    0.45
   4  -5  -1   11.38    0.38
  -4  -5   1   11.87    0.40
   4  -5  -1   11.73    0.41
  -4  -5   1   11.78    0.40
   4   5  -1   12.19    0.46
  -4   5   1   12.02    0.37
   4   5  -1   11.27    0.47
   4   5  -1   12.35    0.46
   3  -5  -1   19.62    0.53
   3  -5  -1   19.92    0.54
   3  -5  -1   19.52    0.55
  -3  -5   1   19.67    0.59
  -3  -5   1   19.94    0.55
  -3  -5   1   20.13    0.57
  -3   5   1   20.32    0.51
   3   5  -1   20.11    0.61
   3   5  -1   19.22    0.66
  -3   5   1   19.55    0.56
   3   5  -1   19.91    0.60
   3   5  -1   19.33    0.62
   2  -5  -1   11.08    0.29
  -2  -5   1   11.51    0.36
   2  -5  -1   11.24    0.30
  -2  -5   1   11.41    0.32
   2  -5  -1   11.41    0.31
  -2  -5   1   11.15    0.36
  -2  -5   1   11.03    0.36
  -2  -5   1   11.42    0.35
  -2   5   1   11.43    0.32
  -2   5   1   11.07    0.36
   2   5  -1   10.99    0.33
   2   5  -1   11.35    0.39
  -2   5   1   11.01    0.27
  -2   5   1   11.08    0.27
   2   5  -1   11.17    0.36
   2   5  -1   11.07    0.36
  -1  -5   1   51.82    1.25
  -1  -5   1   50.55    1.25
  -1  -5   1   51.96    1.16
   1  -5  -1   51.28    1.25
  -1  -5   1   52.14    1.27
   1   5  -1   51.14    1.43
   1   5  -1   50.63    1.26
   1   5  -1   50.04    1.24
  -1   5   1   51.34    1.41
   0  -5  -1   63.02    1.74
   0  -5  -1   64.62    1.48
   0  -5  -1   63.13    1.48
   0  -5   1   62.52    1.50
   0  -5  -1   62.54    1.54
   0  -5   1   62.31    1.49
   0   5  -1   62.96    1.48
   0   5   1   64.44    1.73
   0   5  -1   61.18    1.41
   0   5  -1   65.34    1.50
   1  -5   1   30.20    0.75
  -1  -5  -1   30.81    0.78
  -1  -5  -1   31.26    0.79
  -1  -5  -1   31.09    0.81
  -1  -5  -1   31.34    0.91
   1  -5   1   31.54    0.75
  -1   5  -1   31.36    0.79
   1   5   1   30.22    0.73
  -1   5  -1   30.68    0.70
   1   5   1   30.53    0.78
   1   5   1   30.98    0.90
   1   5   1   31.65    0.79
  -1   5  -1   30.92    0.70
   1   5   1   30.09    0.89
  -2  -5  -1    3.42    0.17
  -2  -5  -1    3.03    0.17
   2  -5   1    3.07    0.13
   2  -5   1    3.32    0.13
  -2  -5  -1    3.04    0.14
  -2  -5  -1    2.76    0.15
  -2  -5  -1    3.24    0.17
  -2  -5  -1    2.72    0.15
  -2   5  -1    2.95    0.12
  -2   5  -1    3.17    0.11
   2   5   1    2.91    0.16
  -2   5  -1    3.06    0.13
   2   5   1    3.07    0.17
   2   5   1    3.04    0.16
   2   5   1    3.13    0.17
  -3  -5  -1    0.96    0.12
  -3  -5  -1    0.86    0.11
   3  -5   1    1.07    0.09
   3  -5   1    1.34    0.11
  -3  -5  -1    0.97    0.10
  -3  -5  -1    0.95    0.11
   3  -5   1    1.01    0.10
   3   5   1    1.01    0.12
  -3   5  -1    1.23    0.09
   3   5   1    0.84    0.11
  -3   5  -1    1.04    0.09
   3   5   1    0.96    0.12
   4  -5   1   28.43    0.82
  -4  -5  -1   29.08    0.81
  -4  -5  -1   28.43    0.90
   4  -5   1   28.17    0.80
  -4  -5  -1   27.99    0.83
   4   5   1   27.93    0.94
  -4   5  -1   29.10    0.75
  -4   5  -1   27.88    0.76
   4   5   1   28.10    0.86
  -5  -5  -1    0.18    0.08
   5  -5   1    0.29    0.09
  -5   5  -1    0.34    0.09
   5   5   1    0.23    0.10
   5  -6  -1    1.44    0.17
   5  -6  -1    1.19    0.13
   5   6  -1    1.12    0.16
  -5   6   1    1.26    0.14
  -4  -6   1    1.39    0.16
   4  -6  -1    1.48    0.13
  -4  -6   1    1.58    0.13
   4  -6  -1    1.45    0.11
   4   6  -1    1.51    0.17
  -4   6   1    1.40    0.12
   4   6  -1    1.45    0.15
  -3  -6   1    0.51    0.08
   3  -6  -1    0.55    0.06
  -3  -6   1    0.60    0.08
   3  -6  -1    0.49    0.07
  -3  -6   1    0.55    0.09
   3  -6  -1    0.51    0.07
  -3   6   1    0.68    0.07
  -3   6   1    0.54    0.06
  -3   6   1    0.70    0.07
   3   6  -1    0.56    0.10
   3   6  -1    0.63    0.10
   3   6  -1    0.67    0.10
  -2  -6   1   68.44    1.70
   2  -6  -1   69.26    1.62
  -2  -6   1   67.76    1.71
  -2  -6   1   68.67    1.71
   2  -6  -1   70.23    1.63
  -2  -6   1   68.30    1.70
  -2   6   1   71.05    1.88
   2   6  -1   69.68    1.70
   2   6  -1   68.52    1.72
  -2   6   1   69.63    1.67
   2   6  -1   68.49    1.61
  -1  -6   1  117.08    2.71
  -1  -6   1  114.59    2.76
  -1  -6   1  110.71    2.71
  -1  -6   1  115.49    2.74
   1  -6  -1  115.68    2.74
  -1  -6   1  115.49    2.56
   1   6  -1  112.62    2.70
   1   6  -1  116.96    2.74
   1   6  -1  117.37    3.11
  -1   6   1  115.45    3.08
   0  -6  -1   10.63    0.28
   0  -6  -1   10.40    0.27
   0  -6   1   10.43    0.28
   0  -6   1   10.41    0.28
   0  -6  -1   10.30    0.33
   0   6   1    9.87    0.36
   0   6  -1   10.06    0.26
   0   6  -1   10.28    0.37
   0   6  -1    9.75    0.26
   1  -6   1    6.64    0.18
  -1  -6  -1    6.29    0.22
   1  -6   1    6.77    0.19
   1  -6   1    6.38    0.18
  -1  -6  -1    6.84    0.22
  -1  -6  -1    6.09    0.22
  -1  -6  -1    6.52    0.28
  -1   6  -1    6.42    0.17
   1   6   1    6.92    0.28
  -1   6  -1    7.01    0.24
   1   6   1    6.63    0.23
  -1   6  -1    6.72    0.17
   1   6   1    6.55    0.20
  -2  -6  -1   64.62    1.64
   2  -6   1   65.87    1.58
  -2  -6  -1   64.94    1.62
  -2  -6  -1   64.51    1.65
  -2  -6  -1   66.83    1.65
  -2  -6  -1   63.19    1.85
   2  -6   1   67.23    1.58
  -2   6  -1   67.69    1.49
   2   6   1   66.49    1.54
   2   6   1   64.66    1.65
   2   6   1   66.42    1.63
  -2   6  -1   68.34    1.61
  -2   6  -1   65.70    1.50
   2   6   1   66.84    1.89
   3  -6   1   13.44    0.40
  -3  -6  -1   12.38    0.44
  -3  -6  -1   12.70    0.49
  -3  -6  -1   12.96    0.44
   3  -6   1   13.81    0.40
   3   6   1   13.72    0.46
   3   6   1   13.42    0.47
  -3   6  -1   13.43    0.40
  -3   6  -1   13.32    0.38
   3   6   1   13.12    0.49
  -4  -6  -1    1.66    0.17
   4  -6   1    1.68    0.13
  -4  -6  -1    1.91    0.16
  -4  -6  -1    1.67    0.16
  -4   6  -1    1.60    0.12
  -4   6  -1    1.76    0.13
   4   6   1    1.52    0.16
  -5  -6  -1    4.48    0.25
   5  -6   1    4.09    0.23
  -5   6  -1    3.65    0.22
   5   6   1    4.20    0.28
   5  -7  -1    6.81    0.31
   5  -7  -1    6.19    0.26
   5   7  -1    6.37    0.36
  -5   7   1    6.25    0.28
  -4  -7   1    4.15    0.25
   4  -7  -1    4.23    0.21
   4  -7  -1    4.33    0.17
  -4  -7   1    4.35    0.23
  -4   7   1    4.23    0.19
   4   7  -1    4.33    0.26
   3  -7  -1    4.18    0.17
   3  -7  -1    4.22    0.17
  -3  -7   1    4.36    0.22
   3  -7  -1    4.02    0.13
  -3  -7   1    4.35    0.21
   3   7  -1    3.94    0.23
   3   7  -1    4.15    0.22
  -3   7   1    3.91    0.18
  -3   7   1    3.95    0.15
  -3   7   1    4.19    0.17
  -2  -7   1   67.36    1.58
   2  -7  -1   68.56    1.60
  -2  -7   1   66.80    1.71
  -2  -7   1   67.20    1.69
  -2  -7   1   65.59    1.69
   2  -7  -1   68.44    1.61
  -2   7   1   70.63    1.67
   2   7  -1   66.83    1.68
   2   7  -1   70.18    1.60
  -2   7   1   70.41    1.88
   2   7  -1   70.55    1.71
  -1  -7   1   41.81    1.05
  -1  -7   1   41.53    1.05
  -1  -7   1   41.88    1.05
  -1  -7   1   41.93    1.09
   1  -7  -1   42.00    1.07
   1   7  -1   42.43    1.06
   1   7  -1   41.39    1.03
  -1   7   1   41.94    1.20
   0  -7  -1   10.83    0.30
   0  -7  -1   11.08    0.41
   0  -7  -1   11.11    0.36
   0  -7   1   11.44    0.31
   0  -7  -1   11.06    0.30
   0  -7   1   11.01    0.31
   0  -7   1   11.01    0.30
   0   7  -1   10.57    0.28
  -1  -7  -1   29.42    0.81
  -1  -7  -1   29.42    0.77
  -1  -7  -1   28.68    0.91
  -1  -7  -1   29.04    0.76
  -1  -7  -1   29.98    0.76
   1  -7   1   30.72    0.73
   1   7   1   28.70    0.77
   1   7   1   30.18    0.72
  -1   7  -1   29.99    0.68
  -1   7  -1   30.54    0.79
  -2  -7  -1    4.71    0.21
  -2  -7  -1    4.64    0.22
   2  -7   1    4.69    0.15
   2  -7   1    4.55    0.17
  -2  -7  -1    4.38    0.24
  -2  -7  -1    4.83    0.22
   2   7   1    4.81    0.23
   2   7   1    4.94    0.21
  -2   7  -1    5.02    0.20
  -2   7  -1    4.68    0.15
  -2   7  -1    4.77    0.15
   2   7   1    5.01    0.22
   2   7   1    4.71    0.20
  -3  -7  -1   35.19    0.97
  -3  -7  -1   32.68    1.08
  -3  -7  -1   34.98    0.96
   3  -7   1   35.46    0.89
   3   7   1   34.41    1.10
  -3   7  -1   36.91    0.92
  -3   7  -1   34.98    0.86
  -4  -7  -1    1.81    0.17
  -4  -7  -1    1.79    0.18
   4  -7   1    2.12    0.13
  -4  -7  -1    1.96    0.16
  -4   7  -1    1.68    0.13
  -4   7  -1    1.59    0.13
   4   7   1    1.69    0.17
   5  -7   1    3.58    0.21
  -5  -7  -1    4.23    0.25
  -5   7  -1    3.88    0.22
   5   7   1    3.86    0.27
   5  -8  -1    2.80    0.20
   5  -8  -1    2.57    0.14
  -5   8   1    2.74    0.18
   5   8  -1    2.96    0.25
   4  -8  -1   11.28    0.32
   4  -8  -1   11.95    0.40
  -4  -8   1   12.46    0.46
  -4  -8   1   12.17    0.44
  -4   8   1   11.67    0.36
   4   8  -1   11.36    0.49
  -3  -8   1   18.40    0.58
  -3  -8   1   18.00    0.58
   3  -8  -1   18.45    0.50
   3  -8  -1   18.81    0.51
  -3   8   1   18.14    0.47
  -3   8   1   19.13    0.52
   3   8  -1   18.16    0.65
   2  -8  -1    6.62    0.19
  -2  -8   1    6.52    0.28
  -2  -8   1    6.16    0.26
  -2  -8   1    6.60    0.27
  -2  -8   1    6.07    0.26
   2  -8  -1    7.04    0.19
   2   8  -1    6.55    0.26
   2   8  -1    6.61    0.27
  -2   8   1    6.97    0.29
  -2   8   1    7.24    0.25
   1  -8  -1   30.09    0.80
  -1  -8   1   30.39    0.77
  -1  -8   1   29.80    0.77
  -1  -8   1   29.97    0.82
  -1  -8   1   28.39    0.77
   1   8  -1   28.74    0.77
   1   8  -1   29.00    0.75
   0  -8  -1   18.60    0.49
   0  -8  -1   18.95    0.48
   0  -8  -1   18.29    0.63
   0  -8   1   19.39    0.50
   0  -8  -1   18.87    0.56
   0  -8   1   18.94    0.48
   0  -8   1   18.97    0.49
   0   8   1   18.20    0.44
   0   8  -1   18.78    0.46
  -1  -8  -1    6.03    0.22
  -1  -8  -1    5.20    0.27
  -1  -8  -1    6.11    0.22
  -1  -8  -1    6.06    0.25
   1  -8   1    6.02    0.18
  -1   8  -1    5.58    0.23
   1   8   1    5.59    0.19
  -1   8  -1    6.18    0.16
   1   8   1    5.56    0.22
   2  -8   1    5.05    0.18
  -2  -8  -1    4.77    0.22
  -2  -8  -1    4.70    0.26
  -2  -8  -1    4.90    0.24
  -2   8  -1    5.03    0.16
  -2   8  -1    4.85    0.15
  -2   8  -1    4.99    0.21
   2   8   1    5.24    0.24
  -3  -8  -1   17.17    0.63
  -3  -8  -1   16.46    0.55
   3  -8   1   17.35    0.46
  -3  -8  -1   16.47    0.56
   3   8   1   16.97    0.62
  -3   8  -1   17.22    0.46
  -3   8  -1   18.02    0.51
  -4  -8  -1    1.39    0.17
  -4  -8  -1    1.35    0.16
   4  -8   1    1.38    0.10
  -4  -8  -1    1.46    0.18
  -4   8  -1    1.58    0.12
   4   8   1    1.34    0.17
  -5  -8  -1    5.49    0.30
   5  -8   1    5.18    0.24
  -5   8  -1    5.27    0.26
   5  -9  -1    0.97    0.14
  -5   9   1    0.78    0.11
  -4  -9   1    0.43    0.11
   4  -9  -1    0.41    0.08
  -4  -9   1    0.38    0.11
  -4   9   1    0.39    0.07
   3  -9  -1    3.55    0.15
  -3  -9   1    3.38    0.21
   3  -9  -1    3.48    0.15
  -3  -9   1    3.57    0.22
  -3   9   1    3.82    0.14
  -3   9   1    3.77    0.13
  -3   9   1    3.76    0.18
   3   9  -1    3.86    0.24
  -2  -9   1   14.92    0.48
  -2  -9   1   15.46    0.51
   2  -9  -1   15.58    0.38
  -2   9   1   14.81    0.46
  -1  -9   1    3.74    0.17
   1  -9  -1    3.85    0.19
  -1  -9   1    3.63    0.16
  -1  -9   1    3.53    0.17
  -1  -9   1    3.91    0.20
   1   9  -1    3.55    0.15
   0  -9  -1   25.61    0.74
   0  -9   1   26.47    0.64
   0  -9   1   25.62    0.66
   0  -9  -1   26.19    0.65
   0  -9   1   25.22    0.66
   0  -9  -1   26.13    0.66
   0   9  -1   25.99    0.62
   0   9   1   25.96    0.61
   1  -9   1   15.14    0.39
  -1  -9  -1   15.48    0.44
  -1  -9  -1   13.42    0.54
  -1  -9  -1   14.15    0.48
  -1  -9  -1   15.00    0.44
  -1   9  -1   15.14    0.36
   1   9   1   14.65    0.40
  -1   9  -1   14.15    0.46
  -2  -9  -1    3.45    0.18
  -2  -9  -1    3.63    0.21
  -2  -9  -1    3.39    0.23
   2  -9   1    3.69    0.14
   2   9   1    3.30    0.20
  -2   9  -1    3.48    0.12
  -2   9  -1    3.46    0.18
  -2   9  -1    3.44    0.13
  -3  -9  -1   12.10    0.46
  -3  -9  -1   12.65    0.45
  -3  -9  -1   12.43    0.52
  -3   9  -1   13.00    0.41
  -3   9  -1   12.18    0.36
  -4  -9  -1    4.33    0.27
   4  -9   1    4.41    0.17
  -4  -9  -1    4.73    0.27
  -4   9  -1    4.81    0.21
   5  -9   1    5.03    0.21
  -5  -9  -1    4.85    0.30
  -5   9  -1    4.88    0.25
  -5  10   1    1.16    0.13
  -4 -10   1    2.85    0.22
  -4 -10   1    3.49    0.23
  -4  10   1    3.29    0.16
  -3 -10   1   33.65    0.98
  -3 -10   1   34.14    1.01
   3 -10  -1   35.87    0.87
  -3  10   1   35.21    0.82
  -3  10   1   35.50    0.93
  -2 -10   1    2.27    0.15
  -2 -10   1    2.10    0.17
  -2  10   1    2.36    0.15
   1 -10  -1    4.61    0.22
  -1 -10   1    4.35    0.23
   1 -10  -1    4.49    0.13
  -1 -10   1    4.43    0.20
  -1 -10   1    4.85    0.19
  -1 -10   1    4.26    0.19
   0 -10  -1   30.59    0.88
   0 -10  -1   30.64    0.78
   0 -10   1   30.17    0.80
   0 -10   1   31.41    0.76
   0 -10   1   31.21    0.80
   0 -10  -1   31.96    0.79
   0  10  -1   32.05    0.75
   0  10   1   31.51    0.73
   0  10  -1   31.73    0.88
   1 -10   1   11.52    0.32
  -1 -10  -1   11.82    0.38
  -1 -10  -1   11.28    0.36
  -1 -10  -1   10.91    0.42
  -1  10  -1   12.11    0.30
  -1  10  -1   11.64    0.40
  -2 -10  -1   16.44    0.51
   2 -10   1   16.92    0.44
  -2 -10  -1   15.45    0.62
  -2 -10  -1   16.59    0.56
  -2  10  -1   16.08    0.41
  -2  10  -1   16.83    0.52
  -2  10  -1   16.62    0.41
  -3 -10  -1    5.45    0.28
  -3 -10  -1    5.53    0.33
  -3 -10  -1    5.81    0.30
  -3  10  -1    6.27    0.26
  -3  10  -1    5.86    0.21
  -4 -10  -1    3.11    0.23
  -4 -10  -1    3.15    0.23
  -4  10  -1    3.02    0.17
  -4 -11   1    1.37    0.18
  -4 -11   1    1.68    0.19
  -4  11   1    1.59    0.11
  -3 -11   1   10.15    0.43
  -3 -11   1   10.40    0.42
   3 -11  -1   10.53    0.31
  -3  11   1   11.28    0.38
  -2 -11   1    1.23    0.15
  -2 -11   1    1.68    0.14
  -2  11   1    1.57    0.13
  -1 -11   1    3.10    0.17
   1 -11  -1    3.25    0.11
  -1 -11   1    3.05    0.20
   1 -11  -1    3.34    0.11
   1 -11  -1    3.16    0.19
  -1 -11   1    3.23    0.16
   0 -11   1   82.35    2.00
   0 -11  -1   88.07    2.00
   0 -11  -1   82.90    2.12
   0 -11  -1   84.03    1.98
   0 -11   1   86.62    2.00
   0  11   1   83.13    1.88
   0  11  -1   78.02    2.09
   0  11  -1   82.57    1.89
  -1 -11  -1   83.28    2.03
   1 -11   1   85.25    1.98
  -1 -11  -1   81.31    2.13
  -1  11  -1   87.13    1.88
  -1  11  -1   81.52    2.10
  -2 -11  -1    7.99    0.31
  -2 -11  -1    7.61    0.36
   2 -11   1    7.97    0.25
  -2  11  -1    8.13    0.32
  -3 -11  -1    4.06    0.24
  -3 -11  -1    3.99    0.26
  -3  11  -1    3.91    0.16
  -3  11  -1    4.11    0.22
  -4 -11  -1    5.01    0.30
  -4 -11  -1    4.64    0.28
  -4  11  -1    4.36    0.21
  -4 -12   1    5.21    0.30
  -4 -12   1    4.70    0.30
  -4  12   1    4.78    0.20
  -3 -12   1    7.28    0.36
  -3 -12   1    6.34    0.32
  -3  12   1    6.93    0.29
  -2 -12   1    5.70    0.30
  -2 -12   1    5.86    0.27
  -2  12   1    5.74    0.27
  -1 -12   1    0.75    0.08
   1 -12  -1    0.80    0.06
  -1 -12   1    0.62    0.09
   1 -12  -1    0.61    0.06
  -1 -12   1    0.70    0.12
   0 -12   1   26.34    0.70
   0 -12  -1   27.21    0.69
   0 -12  -1   25.54    0.80
   0 -12  -1   25.90    0.68
   0  12  -1   25.63    0.79
  -1 -12  -1   31.49    0.97
   1 -12   1   33.99    0.83
  -1 -12  -1   32.94    0.88
   1 -12   1   33.29    0.83
  -1  12  -1   32.69    0.94
  -2 -12  -1    4.30    0.27
  -2 -12  -1    4.88    0.24
  -2  12  -1    4.97    0.25
  -3 -12  -1    4.15    0.27
  -3 -12  -1    4.23    0.25
  -3  12  -1    4.49    0.18
  -3  12  -1    4.64    0.24
  -4 -12  -1    0.65    0.14
  -4 -12  -1    0.65    0.14
  -4  12  -1    0.61    0.09
  -4 -13   1    8.70    0.42
  -4 -13   1    8.57    0.41
  -4  13   1    8.43    0.28
  -3 -13   1    3.99    0.25
  -3 -13   1    3.98    0.27
  -2 -13   1    8.55    0.35
  -2 -13   1    7.79    0.38
  -2  13   1    8.48    0.35
  -1 -13   1    4.18    0.25
   1 -13  -1    4.19    0.14
   1 -13  -1    4.37    0.14
  -1 -13   1    4.11    0.21
  -1  13   1    4.30    0.24
   0 -13   1    8.26    0.28
   0 -13  -1    8.42    0.37
   0 -13  -1    7.75    0.26
   0  13  -1    7.56    0.35
   1 -13   1   27.08    0.69
  -1 -13  -1   26.56    0.73
  -1 -13  -1   25.79    0.84
  -1  13  -1   25.61    0.80
  -2 -13  -1   16.96    0.63
  -2 -13  -1   16.76    0.55
  -2  13  -1   17.29    0.57
  -3 -13  -1    4.03    0.28
  -3 -13  -1    4.10    0.25
  -3  13  -1    4.35    0.24
  -3 -14   1    1.51    0.18
  -3 -14   1    1.49    0.19
  -2 -14   1    1.01    0.13
  -2 -14   1    0.91    0.15
  -2  14   1    1.21    0.15
  -1 -14   1    4.44    0.22
   1 -14  -1    4.22    0.15
   1 -14  -1    4.32    0.15
  -1  14   1    4.19    0.25
   0 -14  -1   15.73    0.58
   0 -14   1   16.37    0.48
   0 -14  -1   16.15    0.46
   1 -14   1   11.21    0.34
  -1 -14  -1   11.14    0.48
  -1 -14  -1   11.02    0.38
  -1  14  -1   11.03    0.44
  -2 -14  -1    3.21    0.25
  -2 -14  -1    3.26    0.21
  -2  14  -1    3.55    0.23
  -3 -14  -1    8.68    0.38
  -3 -14  -1    8.39    0.42
  -3  14  -1    7.70    0.36
  -2 -15   1    0.85    0.13
  -2 -15   1    0.64    0.14
  -2  15   1    0.91    0.14
   1 -15  -1    2.22    0.10
  -1 -15   1    2.42    0.17
   1  15  -1    2.28    0.20
  -1  15   1    2.46    0.20
   0 -15   1    3.65    0.18
   0 -15  -1    3.55    0.26
   0 -15  -1    3.80    0.17
   0  15  -1    3.70    0.25
  -1 -15  -1    2.80    0.18
   1 -15   1    2.90    0.15
  -1 -15  -1    3.11    0.25
  -1  15  -1    3.25    0.23
  -2 -15  -1    6.62    0.32
  -2 -15  -1    6.62    0.38
   2 -15   1    7.02    0.23
  -2  15  -1    7.08    0.34
  -1 -16   1   15.69    0.51
   1 -16  -1   15.94    0.40
   1  16  -1   14.90    0.59
  -1  16   1   14.89    0.58
   0 -16  -1    4.58    0.20
   0 -16   1    4.66    0.21
   0  16  -1    5.08    0.31
   1 -16   1    0.09    0.05
  -1 -16  -1    0.12    0.08
  -1 -16  -1    0.16    0.10
  -1  16  -1    0.04    0.09
  -6   0   2    4.57    0.27
   6   0  -2    4.52    0.30
   6   0  -2    4.51    0.29
   5   0  -2    0.59    0.12
   5   0  -2    0.77    0.10
   5   0  -2    0.70    0.12
  -5   0   2    0.63    0.11
   4   0  -2   19.44    0.59
   4   0  -2   18.09    0.60
   4   0  -2   18.66    0.58
  -4   0   2   18.35    0.54
  -4   0   2   19.42    0.48
   3   0  -2   16.52    0.48
  -3   0   2   16.52    0.47
   3   0  -2   16.19    0.39
   3   0  -2   15.76    0.48
   3   0  -2   15.92    0.48
   3   0  -2   15.67    0.51
  -3   0   2   15.93    0.40
   2   0  -2   84.88    2.40
   2   0  -2   87.89    2.07
  -2   0   2   86.57    1.96
  -2   0   2   87.52    2.06
   2   0  -2   87.51    2.09
   2   0  -2   86.87    2.07
   1   0  -2    7.72    0.22
  -1   0   2    7.27    0.19
   1   0  -2    7.67    0.22
  -1   0   2    7.63    0.20
   1   0  -2    7.49    0.20
   1   0  -2    7.68    0.19
  -1   0   2    7.33    0.22
   1   0  -2    7.65    0.22
  -1   0   2    7.28    0.22
   0   0   2   17.77    0.45
   0   0  -2   18.58    0.45
   0   0   2   18.25    0.43
   0   0  -2   17.87    0.42
   0   0  -2   18.06    0.45
   1   0   2  480.21   10.73
  -1   0  -2  497.98   13.23
  -1   0  -2  498.64   11.24
  -1   0  -2  491.43   11.32
  -1   0  -2  482.33   12.73
  -1   0  -2  482.79   10.70
  -1   0  -2  461.94   11.22
   1   0   2  493.15   11.24
  -2   0  -2   78.15    2.18
   2   0   2   81.71    1.99
  -2   0  -2   78.30    1.95
   2   0   2   81.80    1.96
  -2   0  -2   82.94    1.96
   2   0   2   83.28    1.85
  -2   0  -2   83.88    1.87
  -2   0  -2   82.70    2.29
   3   0   2   12.77    0.42
  -3   0  -2   13.45    0.40
  -3   0  -2   12.54    0.42
   3   0   2   13.36    0.38
   3   0   2   13.13    0.44
  -3   0  -2   12.84    0.39
  -3   0  -2   13.35    0.42
   3   0   2   13.19    0.44
  -4   0  -2   17.08    0.54
  -4   0  -2   17.29    0.52
  -4   0  -2   17.14    0.50
   4   0   2   16.72    0.57
   4   0   2   15.78    0.56
  -5   0  -2   10.54    0.41
   5   0   2   10.93    0.46
   6  -1  -2    2.14    0.22
   6  -1  -2    2.20    0.20
  -6  -1   2    2.15    0.21
   6   1  -2    1.83    0.21
  -6   1   2    2.26    0.19
   6   1  -2    1.93    0.22
   5  -1  -2    0.37    0.10
   5  -1  -2    0.46    0.11
  -5  -1   2    0.46    0.10
   5   1  -2    0.36    0.10
  -5   1   2    0.29    0.08
   5   1  -2    0.41    0.11
   5   1  -2    0.39    0.08
  -4  -1   2    6.93    0.21
  -4  -1   2    6.66    0.26
   4  -1  -2    6.27    0.25
   4  -1  -2    6.40    0.28
   4  -1  -2    6.42    0.28
   4   1  -2    6.25    0.29
   4   1  -2    6.75    0.29
  -4   1   2    6.70    0.26
   4   1  -2    6.83    0.28
   3  -1  -2  115.12    2.77
  -3  -1   2  116.67    2.64
  -3  -1   2  117.16    2.71
   3  -1  -2  116.66    2.76
   3  -1  -2  116.03    2.79
  -3  -1   2  118.30    2.77
   3  -1  -2  112.77    3.18
  -3   1   2  118.08    2.63
   3   1  -2  117.35    3.04
   3   1  -2  116.23    2.70
   3   1  -2  112.79    2.80
   3   1  -2  116.76    2.77
  -3   1   2  118.18    2.75
   3   1  -2  113.15    3.22
   3   1  -2  112.09    2.78
   2  -1  -2   25.11    0.71
   2  -1  -2   25.57    0.64
  -2  -1   2   25.47    0.60
   2  -1  -2   25.47    0.65
  -2  -1   2   24.33    0.65
  -2  -1   2   24.98    0.61
   2   1  -2   25.06    0.66
  -2   1   2   24.46    0.63
   2   1  -2   23.48    0.65
   2   1  -2   24.27    0.60
  -2   1   2   24.11    0.73
  -2   1   2   24.74    0.60
   2   1  -2   25.44    0.68
   2   1  -2   24.56    0.65
   2   1  -2   24.37    0.74
  -1  -1   2    5.22    0.17
   1  -1  -2    5.33    0.16
  -1  -1   2    5.41    0.17
   1  -1  -2    5.45    0.14
   1  -1  -2    5.55    0.17
  -1  -1   2    5.51    0.16
   1  -1  -2    5.37    0.17
  -1  -1   2    5.20    0.15
   1   1  -2    5.40    0.15
   1   1  -2    5.42    0.17
  -1   1   2    5.48    0.16
  -1   1   2    5.38    0.15
   1   1  -2    5.34    0.17
   1   1  -2    5.35    0.16
  -1   1   2    5.40    0.16
   1   1  -2    5.39    0.17
  -1   1   2    5.52    0.14
   0  -1   2   18.87    0.46
   0  -1   2   18.03    0.43
   0  -1  -2   18.74    0.46
   0  -1  -2   18.43    0.46
   0  -1  -2   18.50    0.43
   0  -1   2   18.65    0.46
   0  -1  -2   17.76    0.52
   0   1  -2   17.60    0.46
   0   1   2   17.87    0.43
   0   1   2   17.74    0.45
   0   1  -2   18.38    0.43
   0   1  -2   18.33    0.46
  -1  -1  -2  120.29    2.73
  -1  -1  -2  117.65    2.73
  -1  -1  -2  116.22    3.08
  -1  -1  -2  115.52    2.72
  -1  -1  -2  117.18    3.19
   1  -1   2  117.92    2.72
   1  -1   2  116.85    2.58
  -1   1  -2  117.16    2.73
   1   1   2  117.91    2.60
   1   1   2  114.21    2.72
   1   1   2  113.97    2.59
  -1   1  -2  112.24    2.71
  -1   1  -2  117.57    2.73
  -1   1  -2  114.68    2.59
   1   1   2  114.36    3.19
   2  -1   2   34.49    0.81
   2  -1   2   33.07    0.88
  -2  -1  -2   37.09    0.84
  -2  -1  -2   34.24    1.01
  -2  -1  -2   32.74    0.96
   2  -1   2   34.11    0.87
  -2  -1  -2   33.66    0.87
  -2  -1  -2   33.61    0.86
  -2   1  -2   33.13    0.95
  -2   1  -2   33.48    0.86
  -2   1  -2   33.96    0.85
  -2   1  -2   35.10    0.83
   2   1   2   34.26    0.82
  -2   1  -2   33.84    1.00
   2   1   2   34.95    0.88
   2   1   2   33.88    0.89
   2   1   2   33.66    1.00
   2   1   2   32.96    0.89
   3  -1   2   27.57    0.78
   3  -1   2   27.76    0.69
   3  -1   2   28.95    0.76
  -3  -1  -2   27.46    0.81
  -3  -1  -2   26.72    0.73
   3  -1   2   25.98    0.77
  -3  -1  -2   27.75    0.76
  -3  -1  -2   26.97    0.72
  -3   1  -2   27.46    0.72
   3   1   2   27.30    0.78
  -3   1  -2   28.09    0.75
  -3   1  -2   27.60    0.80
  -3   1  -2   28.10    0.72
   3   1   2   27.57    0.86
   3   1   2   28.92    0.70
   3   1   2   26.35    0.77
  -4  -1  -2    0.73    0.10
  -4  -1  -2    0.70    0.09
   4  -1   2    0.75    0.12
  -4  -1  -2    0.79    0.11
   4  -1   2    0.81    0.12
  -4   1  -2    0.70    0.10
   4   1   2    0.64    0.11
   4   1   2    0.69    0.11
  -4   1  -2    0.72    0.09
  -5  -1  -2    2.16    0.18
   5  -1   2    1.97    0.18
   5   1   2    2.10    0.22
  -5   1  -2    2.02    0.18
   5   1   2    1.80    0.20
   6  -2  -2    5.04    0.29
   6  -2  -2    4.70    0.30
  -6   2   2    4.67    0.27
   6   2  -2    5.18    0.31
  -5  -2   2   22.40    0.65
   5  -2  -2   21.03    0.69
   5  -2  -2   20.22    0.66
   5   2  -2   20.75    0.72
   5   2  -2   20.85    0.70
  -5   2   2   21.38    0.63
   5   2  -2   21.21    0.70
  -4  -2   2    4.12    0.20
   4  -2  -2    3.82    0.21
  -4  -2   2    3.87    0.16
   4  -2  -2    3.82    0.20
  -4  -2   2    3.71    0.20
   4   2  -2    3.89    0.22
   4   2  -2    4.04    0.22
  -4   2   2    3.96    0.19
   4   2  -2    3.99    0.21
  -3  -2   2   57.54    1.40
  -3  -2   2   57.35    1.38
   3  -2  -2   57.77    1.32
   3  -2  -2   58.10    1.44
  -3  -2   2   58.88    1.46
   3  -2  -2   60.12    1.45
  -3   2   2   58.22    1.36
  -3   2   2   58.90    1.42
   3   2  -2   58.97    1.57
   3   2  -2   57.83    1.68
   3   2  -2   57.88    1.47
   3   2  -2   56.96    1.48
  -2  -2   2  112.44    2.65
  -2  -2   2  113.07    2.62
   2  -2  -2  113.36    2.63
   2  -2  -2  113.18    2.91
  -2  -2   2  110.54    2.52
  -2  -2   2  110.22    2.65
   2  -2  -2  112.29    2.65
   2  -2  -2  112.81    2.62
   2   2  -2  116.70    2.96
   2   2  -2  110.28    2.65
   2   2  -2  111.67    2.65
  -2   2   2  112.64    2.61
   2   2  -2  106.95    3.09
   2   2  -2  113.28    2.68
  -2   2   2  111.56    3.07
  -2   2   2  109.61    2.49
   2   2  -2  109.91    2.62
   1  -2  -2  188.72    4.43
  -1  -2   2  196.08    4.48
   1  -2  -2  192.94    5.02
   1  -2  -2  189.44    4.42
  -1  -2   2  194.13    4.23
  -1  -2   2  196.98    4.44
  -1  -2   2  191.05    4.44
   1  -2  -2  188.93    4.44
   1   2  -2  191.10    4.46
   1   2  -2  184.01    4.44
  -1   2   2  187.38    4.42
  -1   2   2  187.63    4.23
   1   2  -2  185.17    4.44
  -1   2   2  196.57    5.02
   1   2  -2  198.28    4.45
   1   2  -2  192.42    4.23
  -1   2   2  193.43    4.41
  -1   2   2  193.93    5.20
  -1   2   2  192.04    4.44
   1   2  -2  191.14    4.48
   0  -2   2    0.48    0.04
   0  -2  -2    0.58    0.05
   0  -2   2    0.48    0.04
   0  -2   2    0.65    0.05
   0  -2  -2    0.57    0.04
   0   2   2    0.51    0.04
   0   2  -2    0.54    0.05
   0   2   2    0.62    0.05
   0   2   2    0.61    0.06
   0   2  -2    0.54    0.04
   0   2   2    0.48    0.04
   0   2   2    0.54    0.04
   0   2  -2    0.60    0.04
  -1  -2  -2  226.69    5.40
  -1  -2  -2  235.60    6.37
  -1  -2  -2  238.69    6.15
   1  -2   2  230.84    5.39
  -1  -2  -2  237.95    5.44
  -1  -2  -2  244.37    5.42
   1   2   2  240.86    6.13
   1   2   2  226.84    5.40
   1   2   2  230.54    6.36
   1   2   2  232.26    5.16
  -1   2  -2  229.22    5.15
  -1   2  -2  234.38    5.47
  -1   2  -2  232.56    5.39
   1   2   2  230.84    5.46
  -2  -2  -2  147.28    3.22
  -2  -2  -2  138.40    3.37
  -2  -2  -2  138.57    3.80
  -2  -2  -2  139.83    3.37
   2  -2   2  141.19    3.40
  -2  -2  -2  146.81    3.95
   2  -2   2  141.09    3.36
   2   2   2  140.95    3.20
   2   2   2  145.15    3.39
   2   2   2  151.81    3.79
   2   2   2  139.26    3.41
   2   2   2  141.98    3.95
  -2   2  -2  143.91    3.21
  -2   2  -2  144.55    3.35
  -2   2  -2  139.62    3.36
  -2   2  -2  148.97    3.20
   3  -2   2    2.66    0.16
  -3  -2  -2    2.64    0.15
   3  -2   2    2.62    0.16
  -3  -2  -2    2.35    0.14
   3  -2   2    2.61    0.12
   3  -2   2    2.45    0.15
  -3  -2  -2    2.56    0.17
  -3  -2  -2    2.51    0.15
  -3  -2  -2    2.54    0.16
  -3   2  -2    2.69    0.14
   3   2   2    2.47    0.14
  -3   2  -2    2.67    0.14
  -3   2  -2    2.47    0.13
  -3   2  -2    2.85    0.15
   3   2   2    2.83    0.17
   3   2   2    2.54    0.16
   3   2   2    2.55    0.16
   4  -2   2    3.93    0.23
  -4  -2  -2    4.44    0.22
  -4  -2  -2    4.26    0.20
  -4  -2  -2    4.03    0.21
   4  -2   2    4.17    0.23
   4   2   2    4.44    0.25
  -4   2  -2    3.94    0.19
   4   2   2    4.02    0.23
  -4   2  -2    3.95    0.21
   4   2   2    3.83    0.23
   5  -2   2    0.23    0.09
  -5   2  -2    0.29    0.10
   5   2   2    0.17    0.10
   6  -3  -2    2.44    0.22
   6  -3  -2    2.46    0.20
   6   3  -2    2.29    0.24
  -6   3   2    2.33    0.19
  -5  -3   2   34.91    0.94
   5  -3  -2   34.04    0.96
   5  -3  -2   34.81    0.99
   5   3  -2   34.68    1.02
   5   3  -2   33.30    1.01
  -5   3   2   33.71    0.92
   5   3  -2   33.19    1.08
  -4  -3   2    0.76    0.11
   4  -3  -2    0.70    0.11
  -4  -3   2    0.89    0.09
   4  -3  -2    0.73    0.10
  -4  -3   2    0.66    0.11
   4   3  -2    0.67    0.10
   4   3  -2    0.88    0.13
  -4   3   2    0.68    0.09
   4   3  -2    0.67    0.12
   3  -3  -2   16.14    0.45
   3  -3  -2   15.63    0.45
  -3  -3   2   16.04    0.48
   3  -3  -2   15.61    0.46
  -3  -3   2   15.44    0.43
  -3  -3   2   15.76    0.44
   3   3  -2   15.55    0.48
   3   3  -2   15.19    0.53
  -3   3   2   15.28    0.37
   3   3  -2   15.07    0.48
  -3   3   2   15.48    0.43
   3   3  -2   14.39    0.48
  -3   3   2   15.63    0.42
   2  -3  -2   44.35    1.08
   2  -3  -2   44.70    1.08
   2  -3  -2   44.24    1.08
  -2  -3   2   42.41    1.11
  -2  -3   2   44.96    1.12
  -2  -3   2   44.16    1.09
  -2   3   2   44.58    1.06
  -2   3   2   45.45    1.05
  -2   3   2   43.55    1.18
  -2   3   2   44.93    1.02
   2   3  -2   45.10    1.13
   2   3  -2   43.97    1.12
   2   3  -2   45.82    1.23
  -2   3   2   44.24    1.24
  -2   3   2   43.32    1.04
  -1  -3   2   16.16    0.44
   1  -3  -2   16.00    0.40
   1  -3  -2   16.03    0.40
   1  -3  -2   16.08    0.47
  -1  -3   2   15.95    0.41
  -1  -3   2   16.14    0.44
   1  -3  -2   15.95    0.41
  -1  -3   2   16.13    0.44
   1   3  -2   16.59    0.43
   1   3  -2   15.97    0.44
   1   3  -2   16.49    0.44
  -1   3   2   17.00    0.47
   1   3  -2   16.79    0.44
   1   3  -2   16.10    0.44
  -1   3   2   16.15    0.37
  -1   3   2   16.61    0.39
   1   3  -2   16.58    0.41
  -1   3   2   16.83    0.41
   0  -3  -2   96.13    2.30
   0  -3  -2   99.31    2.60
   0  -3   2   97.18    2.16
   0  -3  -2   94.30    2.26
   0   3   2   99.93    2.29
   0   3   2   99.36    2.66
   0   3  -2   98.14    2.17
   0   3   2   95.47    2.26
   0   3   2  102.48    2.59
   0   3  -2   97.11    2.30
   0   3  -2   93.86    2.27
  -1  -3  -2   55.43    1.34
  -1  -3  -2   57.64    1.35
   1  -3   2   57.98    1.25
  -1  -3  -2   57.14    1.53
  -1  -3  -2   57.65    1.56
  -1  -3  -2   56.90    1.35
  -1   3  -2   53.51    1.34
  -1   3  -2   55.02    1.26
   1   3   2   56.93    1.52
   1   3   2   54.68    1.28
   1   3   2   52.89    1.56
  -1   3  -2   54.16    1.32
   1   3   2   53.08    1.36
   2  -3   2   37.39    0.98
  -2  -3  -2   37.90    1.00
   2  -3   2   39.24    0.89
  -2  -3  -2   38.74    0.93
  -2  -3  -2   37.35    0.98
  -2  -3  -2   36.39    1.09
  -2  -3  -2   38.82    1.13
  -2  -3  -2   36.20    0.97
  -2   3  -2   38.17    0.92
  -2   3  -2   44.20    0.96
   2   3   2   38.44    1.00
   2   3   2   37.96    1.01
   2   3   2   37.76    1.14
  -2   3  -2   37.74    0.96
   2   3   2   40.13    1.09
  -3  -3  -2   54.69    1.54
  -3  -3  -2   55.40    1.33
   3  -3   2   54.00    1.37
  -3  -3  -2   55.13    1.38
  -3  -3  -2   56.40    1.62
   3  -3   2   55.37    1.40
  -3  -3  -2   55.72    1.40
  -3   3  -2   55.16    1.31
  -3   3  -2   54.38    1.35
   3   3   2   52.94    1.41
   3   3   2   53.05    1.61
   3   3   2   55.57    1.43
  -3   3  -2   54.43    1.36
  -4  -3  -2   15.19    0.52
  -4  -3  -2   14.52    0.47
   4  -3   2   14.49    0.50
  -4  -3  -2   14.67    0.47
   4   3   2   14.22    0.55
  -4   3  -2   14.20    0.46
   4   3   2   14.61    0.52
   4   3   2   14.37    0.52
  -4   3  -2   14.42    0.44
   5  -3   2    2.48    0.20
  -5  -3  -2    2.26    0.17
   5   3   2    2.40    0.22
  -5   3  -2    2.28    0.18
   6  -4  -2    0.54    0.11
   6  -4  -2    0.41    0.12
   6   4  -2    0.54    0.15
  -6   4   2    0.63    0.12
   5  -4  -2   36.99    1.03
   5  -4  -2   38.24    1.07
  -5   4   2   38.55    0.99
   5   4  -2   36.04    1.19
   5   4  -2   37.84    1.11
   4  -4  -2   19.94    0.60
  -4  -4   2   20.50    0.57
  -4  -4   2   20.18    0.63
  -4  -4   2   19.88    0.59
   4  -4  -2   19.10    0.58
   4   4  -2   20.55    0.65
  -4   4   2   19.81    0.56
   4   4  -2   19.98    0.64
   4   4  -2   20.60    0.69
  -3  -4   2   14.35    0.46
   3  -4  -2   15.08    0.44
  -3  -4   2   14.56    0.43
  -3  -4   2   14.68    0.43
   3  -4  -2   14.60    0.43
   3  -4  -2   15.04    0.42
   3   4  -2   14.01    0.51
   3   4  -2   14.92    0.48
  -3   4   2   15.09    0.38
  -3   4   2   14.57    0.37
   3   4  -2   14.84    0.48
  -3   4   2   14.81    0.40
   3   4  -2   14.53    0.48
  -2  -4   2   14.41    0.40
  -2  -4   2   14.15    0.42
  -2  -4   2   13.95    0.38
   2  -4  -2   13.64    0.36
   2  -4  -2   14.38    0.37
  -2  -4   2   14.06    0.42
   2  -4  -2   14.42    0.38
   2   4  -2   13.76    0.43
  -2   4   2   13.79    0.34
   2   4  -2   14.09    0.42
  -2   4   2   13.44    0.41
  -2   4   2   14.15    0.36
   2   4  -2   13.89    0.45
  -2   4   2   13.74    0.36
  -2   4   2   13.73    0.40
   1  -4  -2    7.54    0.20
   1  -4  -2    7.58    0.21
  -1  -4   2    7.39    0.24
  -1  -4   2    7.48    0.25
  -1  -4   2    7.51    0.25
   1  -4  -2    7.67    0.27
   1  -4  -2    7.56    0.23
   1   4  -2    7.82    0.25
   1   4  -2    8.32    0.25
   1   4  -2    8.21    0.23
  -1   4   2    8.41    0.26
  -1   4   2    8.23    0.23
   0  -4  -2   33.56    0.85
   0  -4  -2   34.25    0.96
   0  -4   2   34.44    0.77
   0  -4  -2   34.31    0.81
   0  -4   2   33.82    0.83
   0  -4   2   32.57    0.82
   0   4  -2   33.26    0.82
   0   4  -2   33.45    0.85
   0   4   2   35.26    0.95
   0   4  -2   33.47    0.78
   0   4   2   33.44    0.93
  -1  -4  -2    1.41    0.09
  -1  -4  -2    1.49    0.09
   1  -4   2    1.48    0.05
  -1  -4  -2    1.43    0.09
  -1  -4  -2    1.50    0.11
   1  -4   2    1.27    0.08
   1   4   2    1.18    0.08
  -1   4  -2    1.25    0.06
   1   4   2    1.24    0.09
   1   4   2    1.45    0.10
   1   4   2    1.09    0.08
  -1   4  -2    1.19    0.08
  -1   4  -2    1.25    0.07
  -2  -4  -2   52.22    1.49
  -2  -4  -2   53.08    1.23
  -2  -4  -2   49.87    1.46
   2  -4   2   50.26    1.28
   2  -4   2   51.67    1.27
  -2  -4  -2   50.73    1.30
  -2  -4  -2   53.67    1.31
  -2  -4  -2   48.42    1.29
   2   4   2   51.54    1.50
   2   4   2   51.03    1.32
  -2   4  -2   52.73    1.20
   2   4   2   53.56    1.45
  -2   4  -2   51.44    1.27
  -2   4  -2   52.67    1.26
  -2   4  -2   52.51    1.21
  -3  -4  -2   10.97    0.39
  -3  -4  -2   10.86    0.41
  -3  -4  -2   10.76    0.37
  -3  -4  -2   10.93    0.36
  -3  -4  -2   11.83    0.43
   3  -4   2   10.88    0.37
   3   4   2   11.70    0.41
  -3   4  -2   11.02    0.34
   3   4   2   10.62    0.42
  -3   4  -2   10.43    0.34
   3   4   2   11.34    0.41
  -4  -4  -2    4.54    0.25
  -4  -4  -2    4.90    0.26
  -4  -4  -2    4.50    0.23
   4  -4   2    4.02    0.22
   4   4   2    4.41    0.26
  -4   4  -2    4.95    0.21
  -4   4  -2    4.08    0.21
   4   4   2    4.71    0.26
   5  -4   2    0.11    0.08
  -5  -4  -2    0.15    0.08
  -5   4  -2    0.12    0.08
   6  -5  -2    2.40    0.22
   6  -5  -2    2.48    0.19
  -6   5   2    2.80    0.20
   5  -5  -2    5.46    0.28
   5  -5  -2    5.85    0.26
   5   5  -2    5.61    0.31
   5   5  -2    5.49    0.31
  -5   5   2    5.79    0.26
  -4  -5   2    3.63    0.23
   4  -5  -2    3.63    0.18
  -4  -5   2    3.45    0.20
   4  -5  -2    3.47    0.20
  -4  -5   2    3.98    0.19
   4   5  -2    3.65    0.23
   4   5  -2    3.64    0.23
   4   5  -2    3.84    0.24
  -4   5   2    3.32    0.17
   3  -5  -2   11.78    0.35
  -3  -5   2   12.15    0.38
  -3  -5   2   12.06    0.42
  -3  -5   2   11.96    0.39
   3  -5  -2   12.09    0.37
   3  -5  -2   12.25    0.37
  -3   5   2   12.99    0.33
   3   5  -2   12.89    0.44
   3   5  -2   12.38    0.46
  -3   5   2   12.68    0.36
   3   5  -2   12.51    0.42
  -3   5   2   12.80    0.34
  -3   5   2   12.61    0.34
   3   5  -2   12.63    0.43
  -2  -5   2   53.20    1.26
  -2  -5   2   51.86    1.35
   2  -5  -2   56.36    1.28
   2  -5  -2   53.57    1.28
  -2  -5   2   55.94    1.37
  -2  -5   2   54.25    1.34
  -2  -5   2   53.19    1.35
  -2   5   2   53.89    1.46
   2   5  -2   56.07    1.52
  -2   5   2   53.84    1.30
   2   5  -2   52.93    1.36
  -2   5   2   53.19    1.20
   2   5  -2   53.26    1.35
  -1  -5   2  317.46    7.19
   1  -5  -2  308.76    7.14
  -1  -5   2  294.03    7.18
  -1  -5   2  308.11    6.84
   1  -5  -2  314.84    8.14
   1  -5  -2  308.99    7.22
  -1  -5   2  314.62    7.24
   1   5  -2  309.34    7.25
  -1   5   2  317.31    8.13
   1   5  -2  308.53    7.18
   1   5  -2  317.58    6.86
   0  -5   2   63.55    1.53
   0  -5  -2   63.47    1.57
   0  -5   2   63.87    1.54
   0  -5  -2   64.77    1.51
   0  -5   2   64.28    1.43
   0   5   2   65.56    1.76
   0   5  -2   64.93    1.53
   0   5  -2   64.06    1.57
   0   5  -2   65.18    1.45
  -1  -5  -2   30.52    0.80
   1  -5   2   30.09    0.76
  -1  -5  -2   29.18    0.90
  -1  -5  -2   29.73    0.77
  -1   5  -2   31.80    0.75
   1   5   2   29.15    0.79
   1   5   2   30.92    0.74
  -1   5  -2   30.68    0.79
   1   5   2   32.31    0.90
  -1   5  -2   31.57    0.71
   1   5   2   29.93    0.89
   2  -5   2    6.10    0.21
  -2  -5  -2    5.60    0.23
  -2  -5  -2    5.45    0.22
   2  -5   2    6.23    0.21
  -2  -5  -2    5.55    0.26
  -2  -5  -2    6.00    0.25
  -2   5  -2    5.61    0.21
   2   5   2    5.77    0.24
  -2   5  -2    5.66    0.19
  -2   5  -2    5.63    0.19
   2   5   2    5.73    0.25
  -2   5  -2    5.82    0.19
   3  -5   2   29.56    0.80
  -3  -5  -2   28.95    0.82
  -3  -5  -2   28.66    0.82
  -3  -5  -2   29.24    0.92
  -3  -5  -2   31.21    0.78
   3   5   2   29.43    0.85
   3   5   2   29.04    0.94
   3   5   2   28.83    0.84
  -3   5  -2   29.45    0.75
  -3   5  -2   29.69    0.78
  -4  -5  -2    0.32    0.10
   4  -5   2    0.25    0.08
  -4  -5  -2    0.42    0.09
  -4  -5  -2    0.28    0.09
   4   5   2    0.31    0.09
  -4   5  -2    0.25    0.08
   4   5   2    0.20    0.10
  -4   5  -2    0.50    0.08
   5  -5   2    0.85    0.13
  -5  -5  -2    0.93    0.14
  -5   5  -2    0.46    0.11
   5  -6  -2   22.21    0.65
   5  -6  -2   23.22    0.70
   5   6  -2   21.98    0.80
  -5   6   2   22.00    0.64
   4  -6  -2    8.62    0.33
  -4  -6   2    9.54    0.34
   4  -6  -2    8.84    0.30
  -4  -6   2    9.43    0.38
   4   6  -2    8.65    0.40
  -4   6   2    8.76    0.30
   4   6  -2    9.43    0.39
   3  -6  -2    8.52    0.27
   3  -6  -2    8.30    0.28
  -3  -6   2    8.41    0.31
  -3  -6   2    8.35    0.29
   3  -6  -2    8.40    0.25
  -3  -6   2    8.37    0.33
   3   6  -2    8.66    0.34
  -3   6   2    8.50    0.25
  -3   6   2    8.49    0.28
   3   6  -2    9.09    0.34
   3   6  -2    8.21    0.35
  -3   6   2    8.73    0.25
  -2  -6   2    0.64    0.08
   2  -6  -2    0.63    0.05
  -2  -6   2    0.77    0.07
  -2  -6   2    0.55    0.08
  -2  -6   2    0.64    0.09
   2  -6  -2    0.62    0.05
  -2  -6   2    0.62    0.08
   2   6  -2    0.78    0.09
   2   6  -2    0.88    0.08
  -2   6   2    0.88    0.08
  -2   6   2    0.78    0.07
   2   6  -2    0.83    0.09
   1  -6  -2   24.80    0.66
  -1  -6   2   24.54    0.66
   1  -6  -2   24.70    0.58
  -1  -6   2   24.42    0.59
  -1  -6   2   24.88    0.66
  -1  -6   2   23.91    0.67
   1  -6  -2   24.38    0.75
   1   6  -2   25.35    0.61
   1   6  -2   24.97    0.66
   1   6  -2   24.69    0.65
  -1   6   2   25.39    0.74
   0  -6   2   34.71    0.86
   0  -6  -2   35.43    0.90
   0  -6  -2   34.67    0.85
   0  -6  -2   34.31    1.02
   0  -6  -2   34.95    0.84
   0  -6   2   34.29    0.86
   0   6  -2   34.17    0.89
   0   6   2   34.43    1.00
   0   6  -2   35.42    0.85
   0   6  -2   33.90    0.81
   1  -6   2    5.57    0.19
  -1  -6  -2    5.47    0.25
  -1  -6  -2    5.56    0.21
  -1  -6  -2    5.50    0.23
  -1  -6  -2    6.20    0.21
   1   6   2    5.44    0.19
  -1   6  -2    5.81    0.17
  -1   6  -2    5.63    0.21
   1   6   2    5.55    0.21
   1   6   2    5.57    0.22
  -2  -6  -2   10.57    0.35
  -2  -6  -2   10.87    0.37
   2  -6   2   10.97    0.32
   2  -6   2   10.56    0.32
  -2  -6  -2   10.99    0.37
  -2  -6  -2   10.01    0.40
   2   6   2   10.19    0.36
  -2   6  -2   10.53    0.29
   2   6   2   10.52    0.39
  -2   6  -2   10.04    0.30
  -2   6  -2    9.97    0.33
   3  -6   2    3.62    0.18
  -3  -6  -2    3.50    0.20
  -3  -6  -2    3.53    0.20
  -3  -6  -2    3.49    0.22
  -3   6  -2    3.38    0.17
  -3   6  -2    3.56    0.17
   3   6   2    3.32    0.21
   3   6   2    3.60    0.22
  -4  -6  -2    5.41    0.29
   4  -6   2    5.28    0.24
  -4  -6  -2    5.46    0.29
  -4  -6  -2    5.18    0.26
  -4   6  -2    5.21    0.23
   4   6   2    4.53    0.28
  -4   6  -2    4.95    0.23
  -5  -6  -2    1.44    0.17
   5  -6   2    1.28    0.15
  -5   6  -2    1.45    0.16
   5  -7  -2   23.05    0.65
   5  -7  -2   23.77    0.72
   5   7  -2   23.53    0.85
  -5   7   2   23.65    0.67
   4  -7  -2    0.62    0.07
  -4  -7   2    0.68    0.12
   4  -7  -2    0.45    0.09
  -4  -7   2    0.75    0.11
  -4   7   2    0.51    0.08
   4   7  -2    0.56    0.12
   3  -7  -2    6.25    0.22
   3  -7  -2    6.01    0.22
  -3  -7   2    6.02    0.26
  -3  -7   2    6.08    0.27
  -3   7   2    6.37    0.21
   3   7  -2    5.61    0.29
  -3   7   2    6.32    0.23
   3   7  -2    6.62    0.29
  -3   7   2    6.12    0.19
   2  -7  -2   22.93    0.55
  -2  -7   2   23.51    0.65
  -2  -7   2   22.77    0.65
  -2  -7   2   22.45    0.57
   2  -7  -2   22.75    0.55
  -2  -7   2   22.15    0.64
  -2  -7   2   22.76    0.64
   2   7  -2   22.47    0.59
  -2   7   2   21.90    0.68
   2   7  -2   21.79    0.64
   2   7  -2   22.03    0.63
  -2   7   2   22.29    0.60
  -1  -7   2   68.09    1.65
  -1  -7   2   67.83    1.68
   1  -7  -2   67.97    1.88
  -1  -7   2   68.37    1.64
   1  -7  -2   70.20    1.66
  -1  -7   2   62.86    1.63
  -1   7   2   68.44    1.86
   1   7  -2   66.91    1.55
   1   7  -2   65.80    1.65
   1   7  -2   67.01    1.62
   0  -7  -2   45.12    1.08
   0  -7   2   46.03    1.11
   0  -7  -2   45.13    1.16
   0  -7  -2   45.03    1.09
   0  -7   2   44.03    1.10
   0  -7  -2   44.06    1.31
   0   7  -2   45.38    1.08
   0   7  -2   44.99    1.15
   0   7  -2   46.19    1.04
  -1  -7  -2   27.24    0.76
   1  -7   2   28.20    0.68
  -1  -7  -2   26.02    0.85
   1  -7   2   28.21    0.69
  -1  -7  -2   26.80    0.71
  -1  -7  -2   27.48    0.72
   1   7   2   26.46    0.72
  -1   7  -2   26.57    0.64
   1   7   2   27.35    0.81
  -1   7  -2   27.58    0.74
   1   7   2   26.17    0.67
  -2  -7  -2    3.09    0.18
  -2  -7  -2    2.92    0.17
  -2  -7  -2    3.09    0.20
   2  -7   2    3.36    0.15
   2  -7   2    3.01    0.13
  -2  -7  -2    2.93    0.16
  -2   7  -2    3.17    0.13
   2   7   2    3.31    0.18
  -2   7  -2    3.12    0.12
  -2   7  -2    3.18    0.16
   2   7   2    3.12    0.18
  -3  -7  -2   18.11    0.59
   3  -7   2   19.05    0.53
  -3  -7  -2   18.23    0.66
  -3  -7  -2   17.56    0.57
  -3   7  -2   18.72    0.54
  -3   7  -2   18.06    0.51
   3   7   2   18.91    0.66
   4  -7   2    7.25    0.30
  -4  -7  -2    7.46    0.37
  -4  -7  -2    7.76    0.34
  -4  -7  -2    7.61    0.35
  -4   7  -2    7.36    0.29
   4   7   2    7.62    0.38
  -4   7  -2    8.16    0.30
   5  -7   2   12.18    0.45
  -5  -7  -2   13.14    0.50
  -5   7  -2   12.79    0.46
   5  -8  -2   12.10    0.44
   5   8  -2   11.48    0.52
  -5   8   2   11.90    0.40
  -4  -8   2    2.17    0.17
   4  -8  -2    2.38    0.15
  -4  -8   2    2.42    0.20
  -4   8   2    2.56    0.14
   4   8  -2    2.07    0.20
   3  -8  -2    2.94    0.13
  -3  -8   2    2.89    0.18
   3  -8  -2    2.78    0.13
  -3  -8   2    2.83    0.19
   3   8  -2    3.12    0.20
  -3   8   2    2.95    0.14
  -3   8   2    2.84    0.11
  -2  -8   2   22.47    0.68
  -2  -8   2   23.67    0.68
   2  -8  -2   24.03    0.58
   2  -8  -2   24.84    0.58
   2   8  -2   23.39    0.66
   2   8  -2   23.74    0.68
  -2   8   2   23.52    0.65
  -2   8   2   24.00    0.73
   1  -8  -2   13.43    0.42
   1  -8  -2   12.83    0.47
  -1  -8   2   13.15    0.40
  -1  -8   2   12.88    0.40
  -1  -8   2   12.94    0.40
  -1  -8   2   13.06    0.43
   1   8  -2   13.48    0.39
   1   8  -2   13.41    0.37
   1   8  -2   13.33    0.40
   0  -8  -2    4.74    0.16
   0  -8  -2    4.58    0.24
   0  -8   2    4.79    0.18
   0  -8  -2    4.83    0.22
   0  -8   2    4.71    0.17
   0  -8  -2    4.71    0.17
   0   8  -2    4.62    0.21
   0   8  -2    4.90    0.16
   1  -8   2   31.85    0.79
  -1  -8  -2   32.04    0.81
   1  -8   2   32.69    0.77
  -1  -8  -2   29.37    0.98
  -1  -8  -2   30.47    0.87
  -1  -8  -2   31.85    0.83
   1   8   2   31.00    0.77
   1   8   2   31.56    0.83
   1   8   2   30.76    0.93
  -1   8  -2   30.92    0.84
  -1   8  -2   31.63    0.74
  -2  -8  -2    5.10    0.23
   2  -8   2    5.42    0.18
   2  -8   2    5.26    0.19
  -2  -8  -2    4.83    0.24
  -2  -8  -2    5.04    0.28
  -2   8  -2    5.01    0.17
  -2   8  -2    5.35    0.18
   2   8   2    5.32    0.25
  -2   8  -2    4.97    0.22
  -3  -8  -2    0.18    0.08
  -3  -8  -2    0.12    0.07
  -3  -8  -2    0.02    0.07
   3  -8   2    0.20    0.05
   3   8   2    0.01    0.07
  -3   8  -2    0.20    0.06
  -3   8  -2    0.10    0.06
  -4  -8  -2    5.37    0.32
  -4  -8  -2    5.97    0.31
  -4  -8  -2    5.30    0.29
   4  -8   2    5.72    0.24
  -4   8  -2    5.76    0.25
   4   8   2    5.89    0.33
  -4   8  -2    6.03    0.26
  -5  -8  -2    0.98    0.15
   5  -8   2    1.10    0.13
  -5   8  -2    1.31    0.15
   5  -9  -2   13.30    0.47
  -5   9   2   13.58    0.44
   5   9  -2   12.71    0.57
  -4  -9   2    0.89    0.13
  -4  -9   2    0.83    0.14
   4  -9  -2    0.93    0.11
  -4   9   2    0.85    0.09
   4   9  -2    1.01    0.16
   3  -9  -2   23.08    0.60
  -3  -9   2   22.39    0.71
   3  -9  -2   23.84    0.60
  -3  -9   2   22.67    0.71
  -3   9   2   22.56    0.56
   3   9  -2   23.55    0.80
  -3   9   2   24.28    0.64
  -2  -9   2   25.42    0.78
  -2  -9   2   27.84    0.77
  -2   9   2   28.28    0.75
  -1  -9   2   10.55    0.35
   1  -9  -2   11.07    0.38
  -1  -9   2   11.30    0.35
  -1  -9   2   11.04    0.36
   1  -9  -2   10.91    0.28
   1   9  -2   11.01    0.33
   1   9  -2   11.12    0.33
   0  -9  -2   36.73    1.17
   0  -9   2   38.48    0.97
   0  -9  -2   37.84    1.04
   0  -9   2   39.69    0.96
   0  -9  -2   38.21    0.94
   0  -9   2   38.81    0.97
   0  -9  -2   39.49    0.96
   0   9  -2   40.01    0.91
   0   9  -2   37.19    1.03
  -1  -9  -2   56.68    1.40
   1  -9   2   55.82    1.37
  -1  -9  -2   52.91    1.65
  -1  -9  -2   54.63    1.47
  -1  -9  -2   57.85    1.41
   1  -9   2   57.85    1.35
  -1   9  -2   56.07    1.44
  -1   9  -2   57.70    1.29
   1   9   2   57.85    1.33
   1   9   2   57.42    1.62
   2  -9   2   10.60    0.27
   2  -9   2    9.90    0.27
   2  -9   2    9.84    0.31
  -2  -9  -2    9.81    0.35
  -2  -9  -2    9.28    0.38
  -2  -9  -2    9.32    0.43
  -2   9  -2    9.51    0.35
  -3  -9  -2    4.07    0.27
   3  -9   2    3.73    0.15
  -3  -9  -2    3.69    0.23
  -3  -9  -2    3.69    0.22
  -3   9  -2    3.26    0.16
  -3   9  -2    3.88    0.20
  -4  -9  -2   17.86    0.71
  -4  -9  -2   18.82    0.65
   4  -9   2   18.55    0.53
  -4  -9  -2   18.35    0.64
  -4   9  -2   18.55    0.55
   5 -10  -2    3.58    0.22
  -5  10   2    3.61    0.20
   4 -10  -2    9.77    0.34
  -4 -10   2    9.78    0.41
  -4 -10   2    9.82    0.42
  -4  10   2   10.24    0.31
  -3 -10   2    1.85    0.16
   3 -10  -2    2.02    0.10
   3 -10  -2    2.06    0.10
  -3 -10   2    1.97    0.17
  -3  10   2    2.07    0.14
  -2 -10   2    0.72    0.11
  -2 -10   2    0.68    0.10
  -2  10   2    1.04    0.11
  -1 -10   2    6.87    0.27
  -1 -10   2    7.46    0.26
   1 -10  -2    7.34    0.20
   1 -10  -2    7.15    0.30
   0 -10  -2   13.50    0.39
   0 -10   2   13.66    0.38
   0 -10   2   13.18    0.40
   0 -10  -2   13.58    0.47
   0 -10  -2   13.43    0.38
   0 -10   2   13.92    0.40
   0 -10  -2   13.00    0.53
   0  10  -2   13.93    0.37
   0  10   2   13.52    0.35
   0  10  -2   13.65    0.46
   1 -10   2   85.22    1.97
  -1 -10  -2   78.36    2.35
  -1 -10  -2   84.92    2.00
  -1 -10  -2   80.91    2.09
  -1  10  -2   84.20    1.86
  -1  10  -2   80.14    2.05
  -2 -10  -2   13.35    0.49
  -2 -10  -2   13.73    0.45
  -2 -10  -2   13.17    0.55
  -2  10  -2   12.92    0.44
  -3 -10  -2    1.46    0.19
  -3 -10  -2    1.49    0.17
  -3 -10  -2    1.36    0.15
  -3  10  -2    1.70    0.14
  -3  10  -2    1.43    0.11
   4 -10   2    7.36    0.23
  -4 -10  -2    7.12    0.36
  -4 -10  -2    7.30    0.37
  -4 -10  -2    7.89    0.42
  -4  10  -2    7.34    0.29
  -4 -11   2    3.14    0.23
  -4 -11   2    3.26    0.24
   4 -11  -2    3.25    0.16
  -4  11   2    3.13    0.15
  -3 -11   2   19.69    0.66
  -3 -11   2   19.49    0.65
   3 -11  -2   20.24    0.51
  -3  11   2   20.71    0.60
  -2 -11   2   10.26    0.39
  -2 -11   2   10.41    0.41
  -2  11   2   10.71    0.38
   1 -11  -2    8.55    0.34
   1 -11  -2    8.74    0.23
  -1 -11   2    8.66    0.31
   1  11  -2    8.11    0.34
   0 -11  -2    2.04    0.11
   0 -11   2    2.29    0.13
   0 -11  -2    1.96    0.16
   0 -11   2    2.27    0.10
   0 -11  -2    1.88    0.12
   0  11   2    1.91    0.11
   0  11  -2    2.05    0.16
  -1 -11  -2   12.07    0.39
  -1 -11  -2   11.95    0.46
   1 -11   2   12.48    0.36
  -1 -11  -2   11.81    0.52
  -1  11  -2   12.31    0.44
  -2 -11  -2    4.00    0.25
  -2 -11  -2    3.90    0.21
  -2 -11  -2    4.07    0.29
  -2  11  -2    4.36    0.23
  -3 -11  -2    4.85    0.29
  -3 -11  -2    5.11    0.27
  -3 -11  -2    5.24    0.34
  -3  11  -2    5.87    0.27
  -4 -11  -2    0.37    0.12
  -4 -11  -2    0.49    0.13
  -4 -12   2    3.98    0.27
  -4 -12   2    4.11    0.27
  -4  12   2    3.92    0.17
  -3 -12   2    8.85    0.39
  -3 -12   2    8.35    0.37
  -2 -12   2   10.40    0.43
  -2 -12   2   10.98    0.41
  -2  12   2   11.66    0.41
   1 -12  -2   10.00    0.26
   1 -12  -2   10.23    0.27
   1 -12  -2    9.70    0.39
  -1 -12   2    9.99    0.35
   1  12  -2    9.08    0.39
   0 -12  -2    2.05    0.12
   0 -12   2    2.28    0.14
   0 -12   2    2.23    0.10
   0 -12  -2    2.42    0.19
   0  12  -2    1.85    0.16
  -1 -12  -2   40.11    1.03
  -1 -12  -2   40.17    1.14
  -1  12  -2   37.69    1.09
  -2 -12  -2   24.28    0.72
  -2 -12  -2   23.90    0.79
  -2 -12  -2   25.32    0.91
  -2  12  -2   24.32    0.74
  -3 -12  -2    2.02    0.22
  -3 -12  -2    1.69    0.18
  -3  12  -2    2.11    0.17
  -4 -12  -2    1.68    0.20
  -4 -12  -2    1.55    0.20
  -4 -13   2    4.01    0.28
  -4 -13   2    3.80    0.27
  -4  13   2    4.38    0.17
  -3 -13   2    7.95    0.38
  -3 -13   2    7.89    0.36
  -2 -13   2    7.38    0.32
  -2  13   2    7.41    0.32
   1 -13  -2    8.21    0.36
   1 -13  -2    8.50    0.23
   1 -13  -2    8.16    0.23
  -1 -13   2    7.72    0.31
   1  13  -2    7.56    0.36
   0 -13  -2    4.39    0.27
   0 -13  -2    4.71    0.19
   0 -13   2    4.52    0.20
   0  13  -2    4.56    0.26
  -1 -13  -2    0.42    0.09
  -1 -13  -2    0.52    0.11
   1 -13   2    0.47    0.08
  -1  13  -2    0.49    0.11
  -2 -13  -2   16.20    0.61
  -2 -13  -2   15.97    0.53
  -2  13  -2   16.55    0.56
  -3 -13  -2    3.85    0.28
  -3 -13  -2    3.52    0.24
  -3  13  -2    3.46    0.22
  -3 -14   2    1.67    0.20
  -3 -14   2    1.34    0.17
  -2 -14   2    8.57    0.36
   2  14  -2    8.73    0.40
  -2  14   2    8.18    0.36
  -1 -14   2    7.41    0.30
   1 -14  -2    7.67    0.22
   1 -14  -2    7.97    0.36
   1 -14  -2    7.30    0.21
   1  14  -2    6.82    0.35
   0 -14   2    0.94    0.11
   0 -14  -2    1.01    0.15
   0 -14  -2    1.01    0.10
   0  14  -2    0.92    0.14
  -1 -14  -2    0.32    0.08
   1 -14   2    0.39    0.07
  -1 -14  -2    0.18    0.09
  -1  14  -2    0.23    0.09
  -2 -14  -2   31.63    1.01
  -2 -14  -2   31.42    0.91
  -2  14  -2   32.24    0.95
  -3 -14  -2    8.61    0.39
  -3 -14  -2    8.27    0.43
  -3  14  -2    8.42    0.38
  -2 -15   2    4.89    0.27
   2  15  -2    4.95    0.31
  -2  15   2    5.02    0.28
  -1 -15   2    1.66    0.14
  -1  15   2    2.02    0.19
   1  15  -2    1.39    0.18
   0 -15  -2   11.79    0.36
   0 -15   2   11.60    0.39
   0 -15  -2   11.37    0.48
   0  15  -2   10.48    0.46
  -1 -15  -2    3.97    0.28
  -1 -15  -2    4.41    0.22
   1 -15   2    4.35    0.20
  -1  15  -2    4.57    0.27
   2 -15   2    5.15    0.21
  -2 -15  -2    5.11    0.27
  -2 -15  -2    4.64    0.32
  -2  15  -2    5.30    0.29
  -1 -16   2    7.68    0.33
  -1  16   2    8.14    0.39
   1  16  -2    7.85    0.39
   0 -16  -2    3.18    0.26
   0 -16  -2    3.35    0.17
   0 -16   2    3.57    0.19
   0  16  -2    3.03    0.24
  -1 -16  -2    7.34    0.40
   1 -16   2    7.63    0.28
  -1 -16  -2    7.52    0.31
  -1  16  -2    7.41    0.37
  -6   0   3    1.16    0.15
   6   0  -3    1.38    0.18
   6   0  -3    1.09    0.17
   5   0  -3   12.23    0.46
  -5   0   3   13.12    0.44
   5   0  -3   12.24    0.48
   5   0  -3   12.10    0.44
  -4   0   3    1.22    0.11
   4   0  -3    0.95    0.12
   4   0  -3    1.07    0.13
   4   0  -3    1.15    0.10
   3   0  -3   54.31    1.38
  -3   0   3   56.03    1.36
   3   0  -3   53.09    1.55
  -3   0   3   54.77    1.30
   3   0  -3   56.16    1.37
   3   0  -3   53.33    1.38
   2   0  -3  297.35    6.80
  -2   0   3  302.55    6.83
   2   0  -3  297.29    6.89
   2   0  -3  295.86    6.83
   2   0  -3  286.41    6.81
  -2   0   3  290.71    6.53
   2   0  -3  295.39    8.05
   2   0  -3  294.94    6.83
  -1   0   3   29.78    0.73
   1   0  -3   29.60    0.70
  -1   0   3   29.40    0.69
  -1   0   3   28.45    0.70
   1   0  -3   29.14    0.73
  -1   0   3   28.87    0.73
   0   0   3   20.30    0.52
   0   0  -3   20.79    0.49
   0   0  -3   19.58    0.52
   0   0   3   20.10    0.49
   0   0  -3   20.73    0.52
   1   0   3    0.66    0.06
  -1   0  -3    0.56    0.07
  -1   0  -3    0.48    0.06
  -1   0  -3    0.49    0.06
  -1   0  -3    0.52    0.06
   2   0   3   17.48    0.52
  -2   0  -3   18.06    0.58
  -2   0  -3   17.92    0.50
  -2   0  -3   17.55    0.49
  -2   0  -3   16.42    0.54
   2   0   3   17.91    0.51
   2   0   3   17.60    0.46
  -3   0  -3    4.67    0.22
   3   0   3    5.27    0.20
  -3   0  -3    4.75    0.22
  -3   0  -3    4.46    0.20
  -3   0  -3    5.08    0.22
   3   0   3    4.77    0.24
  -4   0  -3   13.04    0.43
  -4   0  -3   12.64    0.44
  -4   0  -3   11.98    0.41
   4   0   3   11.60    0.46
  -5   0  -3   -0.01    0.07
   5   0   3    0.02    0.08
   6  -1  -3   10.50    0.45
   6  -1  -3   11.05    0.48
  -6  -1   3   10.44    0.43
  -6   1   3   10.55    0.43
   6   1  -3   10.97    0.49
   6   1  -3   10.41    0.46
   5  -1  -3    3.98    0.24
   5  -1  -3    3.86    0.23
  -5  -1   3    3.76    0.22
   5   1  -3    4.19    0.25
   5   1  -3    4.73    0.26
  -5   1   3    4.25    0.22
   5   1  -3    4.12    0.22
   4  -1  -3   10.97    0.39
   4  -1  -3    9.87    0.34
   4  -1  -3    9.98    0.37
  -4  -1   3   10.74    0.36
   4   1  -3    9.93    0.38
   4   1  -3    9.95    0.38
   4   1  -3   10.01    0.39
   3  -1  -3   16.39    0.51
   3  -1  -3   15.98    0.50
   3  -1  -3   16.01    0.49
   3  -1  -3   16.78    0.49
  -3  -1   3   16.54    0.50
  -3  -1   3   16.49    0.47
  -3   1   3   16.98    0.48
   3   1  -3   17.10    0.42
   3   1  -3   17.40    0.51
  -3   1   3   17.21    0.46
   3   1  -3   17.06    0.41
   3   1  -3   17.69    0.49
   3   1  -3   16.76    0.55
   3   1  -3   16.87    0.51
   3   1  -3   16.47    0.51
  -2  -1   3  142.74    3.38
   2  -1  -3  145.58    3.76
   2  -1  -3  141.65    3.93
   2  -1  -3  136.04    3.37
   2  -1  -3  147.27    3.40
  -2  -1   3  144.47    3.22
   2  -1  -3  146.29    3.38
   2   1  -3  145.86    3.96
   2   1  -3  141.52    3.34
  -2   1   3  147.22    3.37
   2   1  -3  145.64    3.34
   2   1  -3  144.95    3.38
  -2   1   3  144.48    3.21
   2   1  -3  141.57    3.39
   2   1  -3  143.03    3.42
   1  -1  -3   53.66    1.37
   1  -1  -3   51.66    1.20
   1  -1  -3   50.16    1.22
  -1  -1   3   50.87    1.21
  -1  -1   3   52.20    1.23
  -1  -1   3   50.85    1.23
  -1  -1   3   51.34    1.17
  -1   1   3   51.50    1.20
  -1   1   3   50.10    1.16
  -1   1   3   48.93    1.22
   1   1  -3   50.02    1.23
   1   1  -3   50.24    1.21
   0  -1  -3   24.77    0.71
   0  -1   3   24.76    0.62
   0  -1  -3   25.45    0.70
   0  -1   3   24.53    0.58
   0  -1  -3   25.06    0.61
   0  -1  -3   25.34    0.62
   0   1   3   23.46    0.58
   0   1  -3   24.77    0.58
   0   1  -3   23.82    0.62
   0   1  -3   23.86    0.61
   0   1   3   23.11    0.61
  -1  -1  -3  108.26    2.61
  -1  -1  -3  113.70    3.07
  -1  -1  -3  110.75    2.96
  -1  -1  -3  110.73    2.62
   1  -1   3  112.16    2.61
   1  -1   3  107.67    2.48
  -1   1  -3  114.38    2.62
  -1   1  -3  111.88    2.48
   1   1   3  112.85    2.49
  -1   1  -3  107.74    2.61
   1   1   3  110.56    2.61
   2  -1   3  104.75    2.46
  -2  -1  -3  100.34    2.43
  -2  -1  -3   95.24    2.72
  -2  -1  -3  105.24    2.84
  -2  -1  -3  101.42    2.43
   2  -1   3  103.54    2.43
   2  -1   3  103.95    2.29
   2   1   3  103.68    2.30
  -2   1  -3  103.17    2.42
  -2   1  -3  101.48    2.32
   2   1   3   99.40    2.47
  -2   1  -3   99.70    2.42
  -2   1  -3   96.50    2.71
  -3  -1  -3   11.51    0.38
  -3  -1  -3   12.30    0.40
   3  -1   3   10.31    0.39
  -3  -1  -3   10.88    0.37
   3  -1   3   11.91    0.35
  -3  -1  -3   11.18    0.40
  -3   1  -3   11.34    0.39
  -3   1  -3   13.01    0.38
   3   1   3   11.65    0.36
   3   1   3   10.87    0.41
  -3   1  -3   11.51    0.38
  -3   1  -3   11.36    0.37
  -4  -1  -3    2.82    0.18
  -4  -1  -3    2.86    0.19
  -4  -1  -3    2.83    0.17
   4  -1   3    2.63    0.20
   4   1   3    2.72    0.20
  -4   1  -3    2.83    0.18
  -4   1  -3    3.05    0.17
  -5  -1  -3    0.46    0.10
   5  -1   3    0.31    0.11
  -5   1  -3    0.54    0.12
   5   1   3    0.53    0.12
   6  -2  -3    1.54    0.18
   6  -2  -3    1.87    0.21
  -6   2   3    1.50    0.17
   6   2  -3    1.45    0.19
  -5  -2   3   11.56    0.41
   5  -2  -3   10.92    0.43
   5  -2  -3   10.74    0.41
  -5   2   3   10.95    0.40
   5   2  -3   11.52    0.46
   5   2  -3   11.25    0.45
   5   2  -3   10.90    0.44
   4  -2  -3    4.66    0.23
  -4  -2   3    4.59    0.16
  -4  -2   3    4.73    0.22
  -4  -2   3    4.53    0.23
   4  -2  -3    4.35    0.21
   4   2  -3    4.27    0.24
   4   2  -3    4.42    0.23
   4   2  -3    4.24    0.22
  -4   2   3    4.46    0.20
  -3  -2   3    8.47    0.28
  -3  -2   3    8.87    0.31
   3  -2  -3    8.13    0.29
   3  -2  -3    8.14    0.28
   3   2  -3    8.18    0.31
   3   2  -3    8.22    0.24
   3   2  -3    8.25    0.31
  -3   2   3    8.37    0.27
   3   2  -3    8.33    0.32
  -3   2   3    8.24    0.27
   3   2  -3    8.31    0.28
  -2  -2   3   26.35    0.64
  -2  -2   3   25.97    0.69
   2  -2  -3   26.45    0.67
   2  -2  -3   26.20    0.71
   2  -2  -3   24.48    0.66
   2  -2  -3   26.07    0.67
   2   2  -3   25.83    0.70
   2   2  -3   25.97    0.64
   2   2  -3   25.42    0.69
  -2   2   3   25.87    0.65
   2   2  -3   25.59    0.69
  -2   2   3   25.78    0.62
   2   2  -3   25.53    0.64
   1  -2  -3  146.85    3.84
   1  -2  -3  139.86    3.29
   1  -2  -3  144.03    3.73
  -1  -2   3  140.85    3.16
   1  -2  -3  142.14    3.84
  -1  -2   3  144.78    3.31
  -1  -2   3  138.87    3.31
  -1  -2   3  137.85    3.32
   1  -2  -3  140.64    3.30
  -1   2   3  145.99    3.29
   1   2  -3  139.79    3.32
  -1   2   3  140.10    3.14
  -1   2   3  139.63    3.29
   1   2  -3  141.27    3.31
   1   2  -3  143.10    3.15
   0  -2  -3    4.77    0.18
   0  -2   3    4.48    0.14
   0  -2  -3    4.60    0.15
   0  -2   3    4.41    0.16
   0  -2  -3    4.30    0.15
   0   2  -3    4.61    0.16
   0   2   3    4.33    0.17
   0   2   3    4.65    0.14
   0   2  -3    4.81    0.15
   0   2  -3    4.21    0.16
   1  -2   3    4.87    0.18
  -1  -2  -3    4.69    0.20
  -1  -2  -3    4.58    0.18
  -1  -2  -3    4.83    0.19
  -1  -2  -3    4.69    0.17
   1  -2   3    4.60    0.15
   1   2   3    4.62    0.16
  -1   2  -3    4.49    0.17
  -1   2  -3    4.87    0.18
   1   2   3    4.84    0.17
   1   2   3    4.51    0.19
  -1   2  -3    4.73    0.16
   1   2   3    4.97    0.20
   2  -2   3  178.09    4.00
  -2  -2  -3  182.11    4.24
  -2  -2  -3  173.34    4.22
  -2  -2  -3  186.76    4.96
  -2  -2  -3  171.20    4.76
   2  -2   3  179.54    4.27
   2  -2   3  187.92    4.22
   2   2   3  177.45    4.28
   2   2   3  175.61    4.95
  -2   2  -3  180.13    4.03
  -2   2  -3  178.10    4.23
  -2   2  -3  182.30    4.01
   2   2   3  184.20    4.02
  -2   2  -3  180.79    4.21
  -3  -2  -3    4.17    0.20
  -3  -2  -3    3.82    0.21
  -3  -2  -3    4.34    0.22
   3  -2   3    4.03    0.21
  -3  -2  -3    3.95    0.19
  -3   2  -3    4.52    0.20
  -3   2  -3    5.46    0.21
   3   2   3    4.26    0.22
   3   2   3    4.31    0.23
   3   2   3    4.66    0.19
  -3   2  -3    4.49    0.20
  -4  -2  -3   22.58    0.66
  -4  -2  -3   23.11    0.73
   4  -2   3   22.06    0.71
  -4  -2  -3   22.17    0.66
  -4   2  -3   22.46    0.64
  -4   2  -3   22.03    0.65
   4   2   3   21.93    0.72
   5  -2   3    2.08    0.19
  -5  -2  -3    1.97    0.16
   5   2   3    1.51    0.20
  -5   2  -3    2.08    0.18
   6  -3  -3    3.68    0.26
   6  -3  -3    3.25    0.23
  -6   3   3    3.78    0.24
   6   3  -3    4.15    0.28
   5  -3  -3    5.11    0.26
  -5  -3   3    5.36    0.26
   5  -3  -3    5.07    0.27
  -5   3   3    4.98    0.24
   5   3  -3    5.51    0.29
   5   3  -3    5.52    0.30
   5   3  -3    5.00    0.27
  -4  -3   3   43.93    1.10
  -4  -3   3   44.38    1.08
   4  -3  -3   43.30    1.15
  -4  -3   3   44.53    1.16
   4  -3  -3   41.79    1.13
   4   3  -3   42.75    1.31
  -4   3   3   43.05    1.07
   4   3  -3   41.82    1.18
   4   3  -3   43.80    1.19
  -3  -3   3   14.45    0.40
   3  -3  -3   14.52    0.43
   3  -3  -3   14.26    0.43
  -3  -3   3   13.85    0.45
   3  -3  -3   13.93    0.42
  -3   3   3   14.49    0.40
   3   3  -3   14.57    0.47
  -3   3   3   14.72    0.40
   3   3  -3   14.25    0.50
   3   3  -3   15.15    0.46
   3   3  -3   14.27    0.46
  -2  -3   3   21.29    0.58
  -2  -3   3   21.23    0.54
  -2  -3   3   20.30    0.58
   2  -3  -3   22.02    0.51
   2  -3  -3   21.66    0.56
   2  -3  -3   21.20    0.56
   2  -3  -3   21.27    0.60
   2   3  -3   20.22    0.55
   2   3  -3   20.49    0.59
   2   3  -3   20.69    0.59
  -2   3   3   21.31    0.51
  -2   3   3   21.72    0.54
  -2   3   3   20.98    0.51
  -1  -3   3   87.95    2.07
  -1  -3   3   86.37    2.09
   1  -3  -3   86.00    2.05
   1  -3  -3   87.97    2.32
   1  -3  -3   87.94    2.04
  -1  -3   3   86.91    1.96
  -1  -3   3   83.26    2.07
   1   3  -3   88.02    1.97
   1   3  -3   84.83    2.07
  -1   3   3   87.84    2.03
  -1   3   3   81.96    1.93
  -1   3   3   92.68    2.32
  -1   3   3   90.44    2.05
   1   3  -3   86.42    2.06
   0  -3   3  133.60    3.21
   0  -3   3  123.88    3.05
   0  -3  -3  142.70    3.73
   0  -3  -3  134.83    3.22
   0  -3  -3  141.20    3.65
   0  -3  -3  139.26    3.20
   0   3   3  135.19    3.75
   0   3   3  137.03    3.05
   0   3  -3  138.67    3.21
   0   3  -3  145.21    3.06
   0   3  -3  140.68    3.23
   1  -3   3    4.36    0.17
  -1  -3  -3    4.30    0.17
  -1  -3  -3    4.21    0.19
  -1  -3  -3    4.50    0.17
  -1  -3  -3    4.37    0.18
  -1  -3  -3    4.59    0.18
   1   3   3    4.39    0.19
  -1   3  -3    4.18    0.15
   1   3   3    4.42    0.19
  -1   3  -3    4.31    0.17
   1   3   3    4.19    0.16
  -1   3  -3    4.44    0.16
   1   3   3    4.39    0.15
  -2  -3  -3  106.70    2.69
  -2  -3  -3  116.09    3.15
  -2  -3  -3  111.97    2.70
   2  -3   3  113.47    2.72
   2  -3   3  118.21    2.53
  -2  -3  -3  110.30    3.04
   2  -3   3  114.36    2.68
   2   3   3  110.91    2.73
  -2   3  -3  112.95    2.56
  -2   3  -3  114.86    2.55
  -2   3  -3  111.59    2.67
   2   3   3  113.26    2.56
  -2   3  -3  111.53    2.69
   2   3   3  110.73    3.15
   3  -3   3   21.95    0.67
  -3  -3  -3   22.91    0.73
  -3  -3  -3   21.81    0.65
  -3  -3  -3   24.02    0.77
  -3  -3  -3   23.08    0.68
  -3  -3  -3   22.96    0.64
  -3   3  -3   22.62    0.64
   3   3   3   24.06    0.63
   3   3   3   22.34    0.76
   3   3   3   24.43    0.71
  -3   3  -3   23.03    0.63
  -4  -3  -3    7.13    0.31
  -4  -3  -3    7.60    0.34
   4  -3   3    7.26    0.33
   4   3   3    7.65    0.35
   4   3   3    7.87    0.36
  -4   3  -3    6.95    0.30
  -4   3  -3    7.76    0.29
  -5  -3  -3    0.57    0.11
   5  -3   3    0.58    0.12
   5   3   3    0.65    0.14
  -5   3  -3    0.32    0.10
   6  -4  -3    4.72    0.29
   6  -4  -3    4.81    0.26
  -6   4   3    4.67    0.26
   6   4  -3    4.82    0.31
   5  -4  -3    6.64    0.29
   5  -4  -3    6.67    0.31
  -5   4   3    6.30    0.28
   5   4  -3    6.11    0.32
   5   4  -3    6.79    0.34
  -4  -4   3   36.10    0.97
   4  -4  -3   33.31    0.91
  -4  -4   3   34.69    0.89
   4  -4  -3   35.19    0.94
  -4  -4   3   35.03    0.91
   4   4  -3   34.36    0.99
   4   4  -3   33.27    1.08
   4   4  -3   34.92    0.99
  -4   4   3   33.82    0.87
  -3  -4   3    7.66    0.30
   3  -4  -3    8.04    0.26
  -3  -4   3    7.72    0.26
  -3  -4   3    7.72    0.28
   3  -4  -3    8.24    0.27
   3  -4  -3    8.03    0.28
  -3   4   3    7.76    0.24
   3   4  -3    7.38    0.30
   3   4  -3    7.55    0.32
   3   4  -3    7.66    0.31
   3   4  -3    7.93    0.30
   2  -4  -3   10.73    0.31
  -2  -4   3   10.63    0.32
   2  -4  -3   11.13    0.35
   2  -4  -3   11.07    0.32
  -2  -4   3   10.61    0.36
   2  -4  -3   10.88    0.30
  -2  -4   3   10.89    0.36
   2   4  -3   11.48    0.33
   2   4  -3   10.92    0.36
  -2   4   3   11.81    0.34
  -2   4   3   11.34    0.29
   2   4  -3   11.27    0.36
  -2   4   3   11.39    0.29
  -1  -4   3   60.68    1.49
   1  -4  -3   62.67    1.68
  -1  -4   3   61.37    1.41
  -1  -4   3   63.35    1.51
  -1  -4   3   61.48    1.50
   1  -4  -3   62.29    1.48
   1  -4  -3   61.55    1.46
  -1   4   3   59.91    1.38
  -1   4   3   65.22    1.67
   1   4  -3   60.77    1.42
   1   4  -3   62.67    1.52
  -1   4   3   60.79    1.44
   1   4  -3   60.04    1.49
   1   4  -3   60.77    1.50
   0  -4   3  100.34    2.20
   0  -4   3   85.83    2.31
   0  -4  -3   98.28    2.64
   0  -4  -3   98.38    2.34
   0  -4  -3   98.31    2.30
   0   4  -3  100.37    2.20
   0   4   3  100.59    2.70
   0   4  -3   97.85    2.32
   0   4  -3   97.05    2.34
   0   4   3  105.55    2.64
  -1  -4  -3   87.07    2.17
  -1  -4  -3   90.72    2.20
   1  -4   3   94.07    2.04
  -1  -4  -3   92.52    2.19
  -1  -4  -3   88.33    2.48
  -1   4  -3   91.11    2.16
  -1   4  -3   89.91    2.06
   1   4   3   91.53    2.55
   1   4   3   90.62    2.21
   1   4   3   97.31    2.48
   1   4   3   92.95    2.08
  -1   4  -3   90.72    2.19
  -2  -4  -3    0.89    0.10
  -2  -4  -3    1.09    0.12
   2  -4   3    1.02    0.07
  -2  -4  -3    0.77    0.09
   2  -4   3    0.64    0.08
  -2  -4  -3    0.87    0.11
  -2  -4  -3    1.15    0.10
   2  -4   3    0.79    0.09
  -2   4  -3    0.82    0.09
   2   4   3    0.84    0.10
  -2   4  -3    0.79    0.08
   2   4   3    0.98    0.11
  -2   4  -3    0.82    0.08
  -3  -4  -3    3.95    0.21
  -3  -4  -3    3.68    0.22
   3  -4   3    4.05    0.20
  -3  -4  -3    3.63    0.20
   3   4   3    4.02    0.19
   3   4   3    3.71    0.22
  -3   4  -3    3.79    0.18
   3   4   3    3.71    0.22
  -3   4  -3    4.00    0.19
   4  -4   3   20.04    0.65
  -4  -4  -3   20.91    0.64
  -4  -4  -3   20.67    0.70
   4   4   3   20.15    0.73
  -4   4  -3   20.26    0.61
  -4   4  -3   20.66    0.60
   4   4   3   20.63    0.69
  -5  -4  -3    2.88    0.21
   5  -4   3    2.77    0.21
  -5   4  -3    3.23    0.22
   6  -5  -3    3.90    0.26
   6  -5  -3    3.38    0.21
  -6   5   3    3.13    0.22
   5  -5  -3    3.42    0.21
   5  -5  -3    3.05    0.18
   5   5  -3    3.03    0.23
  -5   5   3    3.38    0.19
   5   5  -3    3.19    0.23
  -4  -5   3   69.43    1.70
  -4  -5   3   68.37    1.76
   4  -5  -3   68.11    1.69
   4  -5  -3   67.50    1.72
  -4  -5   3   69.96    1.67
   4   5  -3   66.43    2.02
   4   5  -3   70.41    1.79
  -4   5   3   68.80    1.62
   4   5  -3   68.70    1.79
   3  -5  -3   10.15    0.33
  -3  -5   3   10.38    0.33
  -3  -5   3    9.74    0.33
  -3  -5   3   10.22    0.37
   3  -5  -3   10.12    0.32
   3   5  -3    9.52    0.39
  -3   5   3   10.19    0.29
   3   5  -3    9.89    0.37
   3   5  -3   10.14    0.38
   3   5  -3   10.84    0.39
  -3   5   3   10.37    0.31
  -3   5   3   10.83    0.27
  -3   5   3   10.22    0.27
  -2  -5   3   22.99    0.66
   2  -5  -3   23.49    0.61
  -2  -5   3   22.95    0.61
   2  -5  -3   23.70    0.60
  -2  -5   3   24.06    0.66
   2  -5  -3   23.96    0.70
   2  -5  -3   24.01    0.61
   2   5  -3   24.11    0.67
   2   5  -3   23.67    0.66
  -2   5   3   23.36    0.56
   2   5  -3   24.10    0.64
  -2   5   3   24.94    0.69
  -2   5   3   24.42    0.60
   1  -5  -3   50.90    1.23
  -1  -5   3   51.47    1.29
   1  -5  -3   51.07    1.28
   1  -5  -3   52.25    1.45
  -1  -5   3   50.48    1.30
  -1  -5   3   51.22    1.28
   1   5  -3   51.81    1.30
   1   5  -3   52.92    1.29
   1   5  -3   53.00    1.29
  -1   5   3   51.96    1.16
   1   5  -3   54.28    1.22
  -1   5   3   55.56    1.44
   0  -5  -3   90.14    2.53
   0  -5  -3   92.20    2.24
   0  -5  -3   94.32    2.19
   0  -5   3   96.02    2.09
   0  -5   3   93.35    2.23
   0   5  -3   89.97    2.24
   0   5   3   95.60    2.56
   0   5   3   96.51    2.52
   0   5  -3   94.28    2.10
   0   5  -3   90.81    2.20
   1  -5   3   18.49    0.50
  -1  -5  -3   18.47    0.53
  -1  -5  -3   18.61    0.53
  -1  -5  -3   17.52    0.60
  -1  -5  -3   18.09    0.51
  -1   5  -3   18.98    0.50
  -1   5  -3   18.78    0.52
   1   5   3   18.74    0.49
  -1   5  -3   19.06    0.47
   1   5   3   18.52    0.58
   1   5   3   18.33    0.52
  -2  -5  -3    6.15    0.25
  -2  -5  -3    5.60    0.27
   2  -5   3    5.43    0.22
  -2  -5  -3    5.69    0.25
   2  -5   3    5.75    0.22
  -2  -5  -3    5.54    0.23
  -2  -5  -3    5.83    0.24
  -2   5  -3    5.89    0.21
   2   5   3    5.87    0.25
  -2   5  -3    5.67    0.22
   2   5   3    5.67    0.26
  -2   5  -3    5.71    0.20
  -3  -5  -3    1.64    0.14
   3  -5   3    1.99    0.14
  -3  -5  -3    2.04    0.17
  -3  -5  -3    2.11    0.16
   3   5   3    2.12    0.17
  -3   5  -3    2.24    0.14
  -3   5  -3    2.49    0.15
   3   5   3    2.17    0.17
   4  -5   3    0.76    0.11
  -4  -5  -3    0.75    0.13
  -4  -5  -3    0.46    0.10
   4   5   3    0.67    0.12
  -4   5  -3    0.61    0.10
  -4   5  -3    0.60    0.09
  -5  -5  -3    6.55    0.32
   5  -5   3    6.51    0.32
  -5   5  -3    6.04    0.30
   5  -6  -3   21.38    0.68
   5  -6  -3   21.03    0.62
   5   6  -3   22.04    0.79
  -5   6   3   22.02    0.63
   4  -6  -3   47.52    1.20
  -4  -6   3   48.14    1.30
  -4  -6   3   48.97    1.24
   4  -6  -3   48.96    1.24
  -4   6   3   47.55    1.16
   4   6  -3   45.35    1.47
   4   6  -3   49.74    1.33
  -3  -6   3    5.15    0.21
  -3  -6   3    4.78    0.24
   3  -6  -3    5.04    0.19
  -3  -6   3    5.16    0.22
   3  -6  -3    4.96    0.19
   3   6  -3    4.99    0.24
   3   6  -3    4.66    0.25
  -3   6   3    5.09    0.17
  -3   6   3    5.07    0.16
   3   6  -3    5.10    0.25
  -3   6   3    4.81    0.18
  -2  -6   3    7.01    0.27
   2  -6  -3    6.89    0.27
   2  -6  -3    6.56    0.21
  -2  -6   3    6.88    0.27
  -2  -6   3    6.76    0.23
   2  -6  -3    6.81    0.21
   2  -6  -3    6.85    0.23
  -2  -6   3    6.98    0.27
   2   6  -3    6.85    0.25
   2   6  -3    6.65    0.27
  -2   6   3    7.00    0.25
  -2   6   3    6.93    0.18
   2   6  -3    7.18    0.27
  -1  -6   3    9.73    0.27
   1  -6  -3   10.05    0.36
  -1  -6   3    9.52    0.31
   1  -6  -3    9.55    0.31
  -1  -6   3    9.14    0.31
   1  -6  -3    9.32    0.26
   1   6  -3    9.98    0.29
  -1   6   3   10.20    0.35
   1   6  -3    9.52    0.31
   1   6  -3    9.79    0.32
   1   6  -3   10.20    0.31
   0  -6   3   93.29    2.28
   0  -6   3   95.87    2.30
   0  -6  -3   92.86    2.26
   0  -6  -3   96.52    2.63
   0  -6  -3   97.06    2.33
   0   6  -3   96.17    2.32
   0   6   3   99.83    2.64
   0   6  -3   97.35    2.17
   0   6  -3   97.45    2.28
  -1  -6  -3   37.95    0.96
  -1  -6  -3   36.99    0.99
  -1  -6  -3   35.81    1.12
   1  -6   3   37.53    0.95
   1   6   3   37.69    0.91
  -1   6  -3   38.56    0.98
  -1   6  -3   38.99    0.94
  -1   6  -3   37.73    0.89
   1   6   3   38.19    0.98
   1   6   3   39.07    1.11
  -2  -6  -3    2.61    0.15
  -2  -6  -3    2.96    0.18
  -2  -6  -3    2.54    0.16
   2  -6   3    2.70    0.14
   2  -6   3    2.97    0.14
  -2  -6  -3    2.47    0.17
  -2   6  -3    2.15    0.13
  -2   6  -3    2.33    0.12
   2   6   3    2.25    0.15
   2   6   3    2.62    0.16
  -2   6  -3    2.54    0.13
  -3  -6  -3    4.36    0.23
  -3  -6  -3    4.06    0.22
   3  -6   3    4.11    0.20
  -3  -6  -3    4.26    0.25
  -3   6  -3    4.10    0.19
   3   6   3    3.90    0.24
  -3   6  -3    4.23    0.20
   4  -6   3    2.38    0.17
  -4  -6  -3    2.47    0.19
  -4  -6  -3    2.40    0.19
  -4  -6  -3    2.61    0.21
  -4   6  -3    2.51    0.16
   4   6   3    2.07    0.16
   4   6   3    2.56    0.21
  -4   6  -3    2.54    0.17
  -5  -6  -3    0.21    0.09
   5  -6   3    0.23    0.09
  -5   6  -3    0.11    0.08
   5  -7  -3    4.46    0.24
  -5   7   3    3.96    0.21
   5   7  -3    4.15    0.28
  -4  -7   3   27.82    0.78
   4  -7  -3   27.32    0.76
  -4  -7   3   28.03    0.84
  -4   7   3   27.33    0.71
   4   7  -3   27.09    0.93
   3  -7  -3    8.40    0.27
   3  -7  -3    8.48    0.27
  -3  -7   3    8.16    0.31
  -3  -7   3    8.32    0.34
  -3   7   3    8.09    0.24
  -3   7   3    8.75    0.26
   3   7  -3    8.19    0.34
  -2  -7   3    0.52    0.08
   2  -7  -3    0.47    0.05
  -2  -7   3    0.56    0.09
   2  -7  -3    0.44    0.08
  -2  -7   3    0.47    0.08
   2  -7  -3    0.41    0.05
   2  -7  -3    0.49    0.07
   2   7  -3    0.60    0.09
   2   7  -3    0.51    0.08
  -2   7   3    0.62    0.08
  -1  -7   3   13.11    0.35
   1  -7  -3   12.91    0.34
  -1  -7   3   12.35    0.40
   1  -7  -3   13.16    0.40
  -1  -7   3   13.24    0.40
   1  -7  -3   13.40    0.47
   1   7  -3   13.41    0.37
   1   7  -3   13.76    0.42
   1   7  -3   13.66    0.41
   1   7  -3   13.40    0.40
   0  -7   3    7.56    0.24
   0  -7  -3    7.25    0.31
   0  -7  -3    7.50    0.23
   0  -7   3    7.38    0.24
   0  -7  -3    7.73    0.28
   0   7  -3    7.05    0.22
   0   7   3    7.07    0.24
   0   7  -3    6.79    0.23
   0   7  -3    6.91    0.27
  -1  -7  -3    4.77    0.22
  -1  -7  -3    4.74    0.25
   1  -7   3    4.91    0.18
  -1  -7  -3    5.27    0.20
  -1  -7  -3    4.86    0.21
   1  -7   3    5.14    0.19
  -1   7  -3    5.11    0.17
   1   7   3    5.05    0.22
   1   7   3    4.84    0.21
   1   7   3    5.04    0.19
  -1   7  -3    4.62    0.21
  -2  -7  -3   15.12    0.47
  -2  -7  -3   14.68    0.56
   2  -7   3   15.21    0.44
   2  -7   3   14.97    0.44
  -2  -7  -3   15.20    0.50
  -2   7  -3   14.74    0.46
   2   7   3   15.48    0.53
  -3  -7  -3    6.81    0.31
  -3  -7  -3    6.86    0.31
   3  -7   3    7.15    0.27
  -3  -7  -3    6.43    0.34
   3   7   3    7.17    0.34
  -3   7  -3    7.20    0.28
  -3   7  -3    6.58    0.26
   4  -7   3    1.13    0.13
  -4  -7  -3    1.34    0.17
  -4  -7  -3    1.21    0.17
  -4  -7  -3    1.26    0.16
   4   7   3    1.36    0.17
  -4   7  -3    1.26    0.14
  -4   7  -3    1.45    0.15
   5  -7   3    1.62    0.17
  -5  -7  -3    1.63    0.19
  -5   7  -3    1.28    0.16
   5  -8  -3   31.00    0.89
  -5   8   3   31.26    0.83
   5   8  -3   31.30    1.08
  -4  -8   3    4.07    0.25
   4  -8  -3    4.21    0.20
  -4  -8   3    3.98    0.22
  -4   8   3    3.91    0.17
   4   8  -3    4.20    0.27
  -3  -8   3    4.65    0.23
   3  -8  -3    5.04    0.19
  -3  -8   3    4.92    0.25
   3  -8  -3    4.94    0.19
  -3   8   3    5.56    0.20
  -3   8   3    5.26    0.17
   2  -8  -3   12.38    0.44
   2  -8  -3   12.16    0.38
  -2  -8   3   11.68    0.41
   2  -8  -3   12.13    0.32
   2   8  -3   12.64    0.41
  -1  -8   3   30.91    0.82
   1  -8  -3   29.43    0.95
  -1  -8   3   31.94    0.83
   1  -8  -3   32.05    0.84
   1  -8  -3   30.67    0.75
   1   8  -3   31.26    0.85
   1   8  -3   31.20    0.81
   1   8  -3   30.31    0.83
   1   8  -3   31.29    0.77
   0  -8   3   44.76    1.09
   0  -8  -3   43.23    1.14
   0  -8  -3   43.31    1.29
   0  -8  -3   42.02    1.06
   0  -8  -3   43.36    1.07
   0  -8   3   43.33    1.09
   0   8   3   44.12    1.22
   0   8  -3   42.55    1.13
   0   8  -3   43.89    1.02
   1  -8   3   22.47    0.58
   1  -8   3   21.43    0.59
  -1  -8  -3   21.16    0.65
  -1  -8  -3   22.46    0.61
  -1  -8  -3   21.56    0.62
  -1  -8  -3   20.33    0.73
   1   8   3   22.58    0.69
   1   8   3   22.22    0.57
  -1   8  -3   21.92    0.63
  -1   8  -3   22.54    0.55
   2  -8   3   25.21    0.67
  -2  -8  -3   24.30    0.71
  -2  -8  -3   24.54    0.74
  -2  -8  -3   24.06    0.84
  -2   8  -3   24.76    0.70
   2   8   3   25.33    0.81
   3  -8   3    0.56    0.08
  -3  -8  -3    0.56    0.10
  -3  -8  -3    0.71    0.12
  -3  -8  -3    0.62    0.13
  -3   8  -3    0.80    0.11
  -4  -8  -3    8.19    0.42
  -4  -8  -3    8.52    0.38
   4  -8   3    8.17    0.32
  -4  -8  -3    8.42    0.38
  -4   8  -3    8.18    0.32
  -4   8  -3    8.81    0.34
   5  -9  -3    7.10    0.31
  -5   9   3    7.15    0.28
   5   9  -3    6.52    0.38
  -4  -9   3    3.61    0.25
   4  -9  -3    3.92    0.19
  -4  -9   3    3.91    0.22
  -4   9   3    3.78    0.17
   4   9  -3    4.11    0.28
   3  -9  -3    9.09    0.27
  -3  -9   3    8.52    0.35
  -3  -9   3    8.62    0.36
   3  -9  -3    8.93    0.27
  -3   9   3    8.66    0.24
  -3   9   3    9.00    0.30
  -2  -9   3    3.11    0.18
   2  -9  -3    3.10    0.16
   2  -9  -3    2.91    0.10
   2   9  -3    2.90    0.18
  -1  -9   3   37.53    0.98
  -1  -9   3   38.85    0.98
   1  -9  -3   37.82    0.90
   1  -9  -3   36.61    1.00
   1  -9  -3   36.70    1.14
  -1  -9   3   37.34    0.98
   1   9  -3   36.66    1.01
   0  -9  -3    5.59    0.30
   0  -9  -3    6.14    0.22
   0  -9  -3    5.30    0.20
   0  -9   3    5.64    0.22
   0  -9   3    5.69    0.21
   0  -9  -3    5.55    0.25
   0   9  -3    6.09    0.26
   0   9  -3    6.30    0.20
  -1  -9  -3   28.80    0.78
  -1  -9  -3   30.19    0.86
   1  -9   3   30.06    0.77
  -1  -9  -3   27.74    0.96
   1  -9   3   30.28    0.75
  -1   9  -3   29.55    0.82
  -2  -9  -3   62.52    1.60
  -2  -9  -3   62.11    1.65
   2  -9   3   67.11    1.54
  -2  -9  -3   62.14    1.87
   2  -9   3   64.04    1.54
  -2   9  -3   60.33    1.60
  -3  -9  -3    3.60    0.24
  -3  -9  -3    3.72    0.27
  -3  -9  -3    3.31    0.22
   3  -9   3    3.85    0.17
  -3   9  -3    3.70    0.21
  -4  -9  -3    2.75    0.22
  -4  -9  -3    2.59    0.22
  -4  -9  -3    3.00    0.25
   4  -9   3    2.67    0.17
  -4   9  -3    2.76    0.19
   5 -10  -3    4.77    0.25
  -5  10   3    5.47    0.24
  -4 -10   3    3.98    0.24
  -4 -10   3    3.90    0.26
   4 -10  -3    3.89    0.18
  -4  10   3    4.10    0.17
  -3 -10   3    3.37    0.21
  -3 -10   3    3.10    0.21
   3 -10  -3    3.46    0.14
   3 -10  -3    3.37    0.14
  -3  10   3    3.47    0.17
  -2 -10   3   20.48    0.63
   2 -10  -3   20.77    0.61
   2  10  -3   21.13    0.65
  -1 -10   3    1.61    0.13
   1 -10  -3    1.51    0.13
   1 -10  -3    1.44    0.07
   1 -10  -3    1.41    0.15
   1 -10  -3    1.52    0.08
   1  10  -3    1.69    0.14
   0 -10  -3    0.25    0.05
   0 -10  -3    0.32    0.06
   0 -10   3    0.28    0.06
   0 -10  -3    0.23    0.08
   0 -10   3    0.29    0.07
   0 -10  -3    0.21    0.08
   0  10  -3    0.38    0.08
  -1 -10  -3   26.44    0.93
  -1 -10  -3   27.39    0.82
   1 -10   3   28.96    0.71
  -1 -10  -3   27.57    0.75
  -1  10  -3   28.27    0.80
   2 -10   3   30.49    0.77
  -2 -10  -3   27.29    0.89
   2 -10   3   31.74    0.76
  -2 -10  -3   31.19    0.85
  -2 -10  -3   30.00    1.02
  -2  10  -3   29.63    0.86
  -3 -10  -3    1.36    0.19
   3 -10   3    1.28    0.09
  -3 -10  -3    1.15    0.16
  -3 -10  -3    1.09    0.15
  -3  10  -3    1.38    0.15
  -4 -10  -3    2.26    0.23
   4 -10   3    1.86    0.13
  -4 -10  -3    2.00    0.21
  -4 -11   3    8.26    0.37
   4 -11  -3    8.33    0.29
  -4 -11   3    7.95    0.39
  -4  11   3    8.69    0.27
   3 -11  -3    8.40    0.24
  -3 -11   3    8.15    0.36
  -2 -11   3   27.01    0.79
   2  11  -3   26.99    0.81
   1 -11  -3    2.70    0.11
   1 -11  -3    2.50    0.18
  -1 -11   3    2.69    0.16
   1 -11  -3    2.56    0.10
   1 -11  -3    2.69    0.21
   1  11  -3    2.77    0.19
   0 -11   3   12.22    0.35
   0 -11  -3   11.47    0.35
   0 -11   3   11.78    0.38
   0 -11  -3   11.98    0.36
   0 -11  -3   11.64    0.50
   0 -11  -3   10.96    0.43
   0  11  -3   10.83    0.42
  -1 -11  -3   12.86    0.55
  -1 -11  -3   12.53    0.48
  -1 -11  -3   13.19    0.42
   1 -11   3   13.39    0.36
  -1  11  -3   12.76    0.46
   2 -11   3   13.92    0.34
  -2 -11  -3   13.11    0.46
  -2 -11  -3   12.86    0.50
  -2 -11  -3   12.67    0.57
  -2  11  -3   12.88    0.47
  -3 -11  -3    8.76    0.38
   3 -11   3    9.21    0.25
  -3 -11  -3    8.79    0.41
  -3  11  -3    9.05    0.37
  -4 -11  -3   -0.01    0.09
  -4 -11  -3    0.04    0.09
   4 -12  -3    1.93    0.12
  -4 -12   3    2.02    0.21
  -4  12   3    2.02    0.12
  -3 -12   3   10.47    0.43
  -2 -12   3   25.39    0.75
  -2  12   3   24.31    0.73
   2  12  -3   24.85    0.78
   1 -12  -3   16.85    0.58
  -1 -12   3   16.63    0.54
   1 -12  -3   18.11    0.46
   1 -12  -3   17.27    0.44
   1  12  -3   17.26    0.59
   0 -12  -3    4.27    0.25
   0 -12  -3    5.17    0.32
   0 -12   3    4.94    0.22
   0 -12  -3    4.59    0.19
   0 -12   3    5.01    0.18
   0  12  -3    4.81    0.26
  -1 -12  -3    4.63    0.31
  -1 -12  -3    4.48    0.27
  -1 -12  -3    4.82    0.22
  -1  12  -3    4.86    0.26
  -2 -12  -3    9.41    0.37
  -2 -12  -3    9.55    0.43
  -2  12  -3    9.73    0.39
  -3 -12  -3    4.66    0.28
  -3 -12  -3    4.98    0.31
  -3  12  -3    5.23    0.27
  -4 -13   3    1.69    0.21
   4  13  -3    1.51    0.19
  -4  13   3    1.68    0.11
  -3 -13   3    9.81    0.42
   3  13  -3   10.55    0.44
  -2 -13   3    1.89    0.17
  -2  13   3    1.93    0.16
   2  13  -3    1.78    0.19
   1 -13  -3    2.33    0.11
   1 -13  -3    2.32    0.10
  -1 -13   3    2.32    0.17
   1 -13  -3    2.47    0.19
   1  13  -3    2.26    0.19
   0 -13  -3   13.22    0.39
   0 -13   3   13.90    0.37
   0 -13  -3   12.68    0.50
   0 -13   3   13.14    0.43
   0  13  -3   12.17    0.48
  -1 -13  -3    1.38    0.13
  -1 -13  -3    1.52    0.18
  -1  13  -3    1.47    0.16
  -2 -13  -3   12.67    0.45
  -2 -13  -3   11.70    0.50
  -2  13  -3   12.02    0.47
  -3 -13  -3   13.58    0.52
  -3 -13  -3   13.42    0.57
  -3  13  -3   13.74    0.50
  -3 -14   3    4.59    0.28
   3  14  -3    5.50    0.31
  -2 -14   3    6.13    0.31
  -2  14   3    6.57    0.31
   2  14  -3    6.39    0.34
  -1 -14   3    2.49    0.17
   1 -14  -3    2.41    0.11
   1 -14  -3    2.39    0.20
   1  14  -3    2.30    0.20
   0 -14  -3    5.87    0.23
   0 -14  -3    6.26    0.34
   0 -14   3    6.42    0.27
   0  14  -3    5.94    0.31
  -1 -14  -3    4.48    0.29
   1 -14   3    4.41    0.21
  -1 -14  -3    4.30    0.22
  -1  14  -3    4.49    0.27
  -2 -14  -3    2.06    0.18
  -2 -14  -3    1.85    0.22
  -2  14  -3    2.01    0.20
  -2 -15   3    0.10    0.08
   2  15  -3    0.16    0.10
  -2  15   3    0.22    0.09
   1 -15  -3    5.40    0.31
  -1 -15   3    5.52    0.27
   1 -15  -3    5.62    0.18
   1  15  -3    5.16    0.31
   0 -15  -3   10.94    0.47
   0 -15  -3    9.77    0.33
   0 -15   3   10.22    0.37
   0  15  -3   10.81    0.45
  -1 -15  -3    1.58    0.14
   1 -15   3    1.69    0.13
  -1 -15  -3    1.77    0.21
  -1  15  -3    1.75    0.19
  -2 -15  -3    5.09    0.33
  -2  15  -3    5.27    0.30
   1 -16  -3    3.23    0.25
   1  16  -3    2.62    0.23
   0 -16  -3    1.68    0.13
   0 -16  -3    1.52    0.20
   0 -16   3    1.68    0.15
   0  16  -3    1.42    0.19
   6   0  -4    0.50    0.13
   6   0  -4    0.33    0.11
  -6   0   4    0.40    0.11
  -5   0   4   11.60    0.42
   5   0  -4   11.94    0.45
   5   0  -4   11.76    0.42
   5   0  -4   11.77    0.46
   4   0  -4    0.42    0.07
   4   0  -4    0.73    0.11
  -4   0   4    0.71    0.10
   4   0  -4    0.69    0.10
   3   0  -4   54.90    1.42
  -3   0   4   56.97    1.40
   3   0  -4   55.66    1.42
   3   0  -4   54.84    1.59
   3   0  -4   57.57    1.41
  -3   0   4   55.35    1.33
   2   0  -4    5.38    0.21
   2   0  -4    5.55    0.15
  -2   0   4    5.33    0.19
  -2   0   4    5.29    0.20
   2   0  -4    5.22    0.21
  -1   0   4  190.67    4.27
  -1   0   4  191.67    4.48
   1   0  -4  193.34    4.50
   1   0  -4  195.22    4.49
   0   0   4    7.89    0.25
   0   0   4    7.70    0.23
   0   0  -4    7.84    0.24
   0   0  -4    7.92    0.25
  -1   0  -4    1.23    0.10
   1   0   4    1.24    0.08
  -1   0  -4    1.33    0.09
  -1   0  -4    1.46    0.11
  -1   0  -4    1.44    0.10
   1   0   4    1.40    0.10
  -2   0  -4   -0.02    0.03
   2   0   4    0.01    0.03
  -2   0  -4    0.01    0.04
  -2   0  -4   -0.04    0.04
   2   0   4    0.05    0.05
   3   0   4    0.13    0.07
  -3   0  -4    0.03    0.05
  -3   0  -4    0.21    0.07
   4   0   4    1.20    0.16
  -4   0  -4    1.25    0.13
  -4   0  -4    1.37    0.14
   5   0   4    0.13    0.10
  -5   0  -4   -0.08    0.06
   6  -1  -4    1.42    0.19
   6  -1  -4    1.02    0.15
  -6  -1   4    1.00    0.15
  -6   1   4    0.99    0.15
   6   1  -4    1.27    0.18
   6   1  -4    0.85    0.16
  -5  -1   4    2.25    0.17
   5  -1  -4    1.96    0.20
   5  -1  -4    1.92    0.17
   5   1  -4    2.19    0.16
   5   1  -4    2.05    0.18
  -5   1   4    2.20    0.17
   5   1  -4    2.52    0.19
   4  -1  -4   28.92    0.82
   4  -1  -4   28.32    0.85
  -4  -1   4   30.54    0.79
   4  -1  -4   28.70    0.83
   4   1  -4   29.56    0.84
   4   1  -4   28.47    0.84
   4   1  -4   28.33    0.90
  -4   1   4   28.84    0.77
   3  -1  -4    0.43    0.05
   3  -1  -4    0.38    0.04
   3  -1  -4    0.35    0.07
   3  -1  -4    0.39    0.07
   3  -1  -4    0.44    0.07
  -3  -1   4    0.41    0.07
  -3  -1   4    0.33    0.07
  -3   1   4    0.44    0.07
   3   1  -4    0.37    0.03
   3   1  -4    0.25    0.06
   3   1  -4    0.25    0.06
  -3   1   4    0.36    0.06
   3   1  -4    0.29    0.07
   3   1  -4    0.39    0.04
   3   1  -4    0.35    0.06
  -2  -1   4  151.31    3.40
   2  -1  -4  150.87    3.99
   2  -1  -4  151.41    3.52
   2  -1  -4  150.44    3.57
   2  -1  -4  151.01    4.15
  -2  -1   4  154.74    3.58
   2  -1  -4  151.81    3.57
  -2   1   4  146.71    3.52
  -2   1   4  149.41    3.39
   2   1  -4  158.11    3.58
   2   1  -4  149.85    3.58
   2   1  -4  151.88    3.61
   2   1  -4  150.77    3.53
   2   1  -4  159.92    3.54
  -2   1   4  151.32    3.56
   1  -1  -4   93.30    2.48
   1  -1  -4   91.13    2.20
  -1  -1   4   90.24    2.09
   1  -1  -4   91.44    2.18
  -1   1   4   95.65    2.18
  -1   1   4   93.23    2.09
   1   1  -4   96.15    2.19
   1   1  -4   90.89    2.21
   0  -1  -4   51.68    1.24
   0  -1  -4   51.76    1.44
   0  -1  -4   52.00    1.41
   0  -1  -4   50.39    1.24
   0  -1   4   51.56    1.24
   0  -1   4   51.39    1.18
   0   1  -4   48.77    1.24
   0   1  -4   51.69    1.24
   0   1   4   48.82    1.17
   1  -1   4   19.35    0.54
   1  -1   4   19.25    0.50
  -1  -1  -4   19.17    0.54
  -1  -1  -4   20.24    0.54
  -1  -1  -4   19.90    0.61
  -1  -1  -4   19.95    0.62
   1   1   4   19.63    0.50
  -1   1  -4   19.35    0.54
  -1   1  -4   19.71    0.54
   2  -1   4   20.20    0.60
   2  -1   4   21.07    0.59
  -2  -1  -4   21.74    0.67
   2  -1   4   20.35    0.53
  -2  -1  -4   20.69    0.59
  -2  -1  -4   21.07    0.58
  -2  -1  -4   19.41    0.64
   2   1   4   19.77    0.60
   2   1   4   19.90    0.54
  -2   1  -4   19.83    0.57
  -2   1  -4   20.69    0.58
  -2   1  -4   19.52    0.63
  -3  -1  -4    5.19    0.25
   3  -1   4    5.20    0.25
  -3  -1  -4    4.88    0.23
  -3  -1  -4    5.44    0.25
   3   1   4    5.43    0.22
   3   1   4    5.46    0.27
  -3   1  -4    4.39    0.22
  -3   1  -4    4.63    0.23
  -4  -1  -4    4.90    0.24
   4  -1   4    4.34    0.27
  -4  -1  -4    4.93    0.26
   4   1   4    5.13    0.28
  -4   1  -4    5.02    0.24
  -5  -1  -4    7.88    0.34
   5  -1   4    8.18    0.40
  -5   1  -4    7.74    0.33
   5   1   4    8.13    0.41
   6  -2  -4    7.82    0.37
   6  -2  -4    8.00    0.39
   6   2  -4    8.30    0.40
  -6   2   4    8.30    0.36
   5  -2  -4    6.77    0.32
  -5  -2   4    6.55    0.30
   5  -2  -4    6.16    0.29
  -5   2   4    6.99    0.29
   5   2  -4    6.42    0.31
   5   2  -4    6.75    0.34
   5   2  -4    6.83    0.33
  -4  -2   4    0.07    0.05
   4  -2  -4    0.18    0.06
   4  -2  -4    0.16    0.06
  -4   2   4    0.12    0.06
   4   2  -4    0.11    0.07
   4   2  -4    0.10    0.06
   4   2  -4    0.20    0.07
   3  -2  -4   12.52    0.36
  -3  -2   4   12.55    0.38
  -3  -2   4   12.82    0.41
   3  -2  -4   12.64    0.39
   3  -2  -4   12.59    0.40
   3  -2  -4   12.78    0.36
   3   2  -4   12.47    0.44
   3   2  -4   12.17    0.42
  -3   2   4   11.73    0.36
  -3   2   4   12.40    0.38
   3   2  -4   12.17    0.33
   3   2  -4   12.39    0.33
   3   2  -4   12.19    0.41
   2  -2  -4    0.05    0.03
   2  -2  -4    0.02    0.02
   2  -2  -4    0.14    0.02
   2  -2  -4    0.02    0.02
  -2  -2   4    0.01    0.04
   2  -2  -4    0.04    0.03
  -2  -2   4    0.07    0.03
   2   2  -4    0.06    0.04
   2   2  -4    0.09    0.04
  -2   2   4    0.08    0.02
  -2   2   4    0.07    0.03
   2   2  -4    0.08    0.03
  -2   2   4    0.07    0.03
   2   2  -4    0.10    0.04
   1  -2  -4    1.59    0.09
  -1  -2   4    1.60    0.09
   1  -2  -4    1.63    0.10
   1  -2  -4    1.71    0.08
  -1  -2   4    1.49    0.10
  -1   2   4    1.67    0.08
   1   2  -4    1.55    0.10
  -1   2   4    1.60    0.09
   1   2  -4    1.62    0.08
   0  -2   4   23.83    0.62
   0  -2  -4   24.48    0.70
   0  -2   4   24.41    0.58
   0  -2  -4   24.97    0.61
   0  -2  -4   24.42    0.62
   0  -2  -4   22.04    0.69
   0   2  -4   23.88    0.58
   0   2  -4   22.58    0.62
   0   2  -4   22.83    0.61
   0   2   4   22.00    0.57
  -1  -2  -4   69.25    1.65
   1  -2   4   68.27    1.55
  -1  -2  -4   69.52    1.91
   1  -2   4   68.51    1.64
  -1  -2  -4   64.80    1.85
  -1  -2  -4   63.39    1.64
  -1   2  -4   67.27    1.64
  -1   2  -4   67.77    1.64
   1   2   4   67.98    1.55
   2  -2   4   64.25    1.48
  -2  -2  -4   67.07    1.85
   2  -2   4   62.40    1.60
  -2  -2  -4   64.33    1.59
   2  -2   4   65.91    1.59
  -2  -2  -4   61.29    1.78
  -2  -2  -4   62.87    1.59
  -2   2  -4   63.84    1.58
  -2   2  -4   62.12    1.57
   2   2   4   65.34    1.50
   2   2   4   63.42    1.62
  -3  -2  -4   77.21    2.17
  -3  -2  -4   77.79    1.94
  -3  -2  -4   81.12    1.96
   3  -2   4   75.61    1.97
   3   2   4   77.81    1.99
  -3   2  -4   77.64    1.93
  -3   2  -4   76.76    2.15
   3   2   4   80.39    1.84
  -4  -2  -4    0.73    0.12
   4  -2   4    0.83    0.13
  -4  -2  -4    0.91    0.12
   4   2   4    0.96    0.15
  -4   2  -4    0.85    0.11
   5  -2   4    5.85    0.33
  -5  -2  -4    6.20    0.30
   5   2   4    5.52    0.33
   6  -3  -4    0.47    0.12
   6  -3  -4    0.49    0.11
  -6   3   4    0.33    0.10
   6   3  -4    0.42    0.12
   5  -3  -4    0.12    0.08
   5  -3  -4    0.09    0.07
  -5  -3   4    0.09    0.07
   5   3  -4    0.13    0.08
   5   3  -4    0.00    0.08
  -5   3   4    0.05    0.05
   5   3  -4    0.00    0.06
   4  -3  -4   12.48    0.43
   4  -3  -4   11.84    0.40
  -4  -3   4   12.93    0.41
  -4   3   4   12.31    0.39
   4   3  -4   12.13    0.45
   4   3  -4   12.63    0.46
   4   3  -4   11.81    0.47
   3  -3  -4    7.02    0.22
   3  -3  -4    6.47    0.25
  -3  -3   4    7.06    0.28
  -3  -3   4    6.75    0.25
   3  -3  -4    6.86    0.26
  -3   3   4    6.48    0.22
   3   3  -4    6.66    0.28
   3   3  -4    6.69    0.21
   3   3  -4    6.49    0.29
  -3   3   4    6.51    0.23
   3   3  -4    6.19    0.27
   2  -3  -4    5.88    0.20
   2  -3  -4    5.76    0.21
  -2  -3   4    5.66    0.23
  -2  -3   4    5.65    0.20
   2  -3  -4    5.83    0.17
   2  -3  -4    5.62    0.20
   2   3  -4    5.48    0.19
  -2   3   4    5.45    0.18
   2   3  -4    5.29    0.22
  -2   3   4    5.33    0.19
   2   3  -4    5.30    0.22
  -2   3   4    5.46    0.16
  -1  -3   4   36.47    0.88
   1  -3  -4   36.74    1.04
  -1  -3   4   36.52    0.94
   1  -3  -4   36.99    0.92
   1  -3  -4   36.34    0.91
  -1  -3   4   36.04    0.95
  -1   3   4   36.90    0.86
   1   3  -4   37.10    0.92
   1   3  -4   37.86    0.95
  -1   3   4   37.70    0.91
  -1   3   4   39.31    1.04
   0  -3   4    9.16    0.29
   0  -3  -4    9.17    0.28
   0  -3  -4    9.50    0.33
   0  -3  -4   10.15    0.30
   0  -3  -4    9.19    0.28
   0  -3   4    9.26    0.26
   0   3  -4    8.94    0.29
   0   3  -4    9.14    0.27
   0   3   4    9.53    0.33
   0   3   4    8.81    0.31
   0   3   4    8.98    0.26
   0   3  -4    8.92    0.28
   1  -3   4   27.05    0.71
  -1  -3  -4   27.58    0.72
   1  -3   4   27.15    0.65
  -1  -3  -4   26.61    0.71
  -1  -3  -4   25.93    0.80
  -1  -3  -4   27.34    0.80
  -1   3  -4   26.46    0.71
   1   3   4   25.54    0.81
  -1   3  -4   26.45    0.66
  -1   3  -4   27.04    0.70
   1   3   4   26.70    0.66
  -2  -3  -4    2.45    0.15
   2  -3   4    2.46    0.15
  -2  -3  -4    2.48    0.14
  -2  -3  -4    2.54    0.16
  -2  -3  -4    2.22    0.15
   2  -3   4    2.32    0.14
   2   3   4    2.53    0.13
  -2   3  -4    2.94    0.15
  -2   3  -4    2.67    0.15
   2   3   4    2.84    0.17
   2   3   4    2.79    0.17
  -3  -3  -4   35.16    1.06
  -3  -3  -4   35.23    0.97
   3  -3   4   34.68    0.97
  -3  -3  -4   33.64    0.95
   3   3   4   35.84    0.90
   3   3   4   36.40    1.01
   3   3   4   33.87    1.09
  -3   3  -4   34.51    0.93
  -3   3  -4   34.03    1.02
  -4  -3  -4    1.92    0.17
   4  -3   4    1.63    0.17
  -4  -3  -4    1.84    0.16
   4   3   4    2.16    0.20
  -4   3  -4    2.01    0.15
  -5  -3  -4    5.64    0.30
   5  -3   4    6.05    0.33
   6  -4  -4    3.39    0.24
   6  -4  -4    2.86    0.21
  -6   4   4    3.35    0.22
   6   4  -4    3.34    0.26
   5  -4  -4    7.02    0.32
   5  -4  -4    6.83    0.30
   5   4  -4    7.44    0.35
   5   4  -4    6.86    0.34
  -4  -4   4   33.80    0.89
  -4  -4   4   34.77    0.96
   4  -4  -4   33.95    0.92
   4  -4  -4   33.26    0.90
   4   4  -4   33.87    0.97
   4   4  -4   34.62    0.86
  -4   4   4   33.30    0.86
   4   4  -4   32.14    1.06
   4   4  -4   32.21    0.96
   3  -4  -4   73.13    1.76
   3  -4  -4   70.65    1.76
  -3  -4   4   71.34    1.71
   3  -4  -4   73.15    1.93
  -3  -4   4   71.70    1.81
   3   4  -4   72.44    1.82
   3   4  -4   69.86    2.08
  -3   4   4   71.84    1.67
   3   4  -4   77.03    2.00
   3   4  -4   70.45    1.82
   3   4  -4   72.97    1.75
  -2  -4   4   62.92    1.47
   2  -4  -4   62.73    1.71
   2  -4  -4   63.19    1.50
  -2  -4   4   61.37    1.56
   2  -4  -4   63.10    1.52
   2   4  -4   63.05    1.53
   2   4  -4   62.49    1.57
   2   4  -4   63.57    1.58
  -2   4   4   62.64    1.49
  -2   4   4   63.48    1.70
  -2   4   4   62.30    1.43
  -2   4   4   63.25    1.49
  -1  -4   4    4.29    0.18
  -1  -4   4    3.96    0.17
   1  -4  -4    4.00    0.15
  -1  -4   4    4.04    0.18
   1  -4  -4    4.04    0.18
  -1  -4   4    4.38    0.16
   1  -4  -4    4.23    0.16
   1   4  -4    4.02    0.16
   1   4  -4    3.86    0.17
  -1   4   4    3.95    0.14
   1   4  -4    4.44    0.16
  -1   4   4    4.45    0.18
  -1   4   4    3.77    0.13
   0  -4  -4   54.09    1.35
   0  -4   4   52.09    1.34
   0  -4  -4   54.27    1.50
   0  -4  -4   54.08    1.33
   0  -4  -4   53.93    1.53
   0   4  -4   54.93    1.27
   0   4  -4   54.55    1.34
   0   4   4   57.85    1.55
   0   4  -4   53.22    1.34
   0   4   4   59.36    1.53
   0   4   4   52.73    1.25
   1  -4   4   17.80    0.45
  -1  -4  -4   18.70    0.51
   1  -4   4   17.09    0.49
  -1  -4  -4   17.81    0.50
  -1  -4  -4   16.66    0.57
  -1   4  -4   16.85    0.49
   1   4   4   17.69    0.47
  -1   4  -4   17.34    0.45
   1   4   4   17.12    0.46
  -1   4  -4   17.60    0.49
   1   4   4   17.12    0.56
   2  -4   4    3.19    0.13
  -2  -4  -4    3.17    0.19
  -2  -4  -4    2.97    0.17
  -2  -4  -4    3.26    0.18
  -2  -4  -4    3.00    0.16
   2  -4   4    3.04    0.17
  -2   4  -4    2.83    0.15
   2   4   4    3.05    0.19
   2   4   4    2.98    0.18
  -2   4  -4    3.06    0.16
   2   4   4    2.99    0.15
   3  -4   4   41.70    1.14
  -3  -4  -4   42.99    1.14
  -3  -4  -4   42.89    1.27
  -3  -4  -4   41.56    1.13
   3   4   4   42.06    1.31
   3   4   4   42.19    1.06
  -3   4  -4   41.88    1.11
   3   4   4   43.26    1.18
  -4  -4  -4    4.73    0.28
   4  -4   4    4.61    0.26
  -4  -4  -4    5.18    0.26
   4   4   4    5.04    0.29
  -4   4  -4    5.37    0.24
   5  -4   4    0.63    0.13
  -5  -4  -4    0.71    0.13
   6  -5  -4    1.74    0.16
   6  -5  -4    1.94    0.21
  -6   5   4    1.74    0.18
   5  -5  -4    7.57    0.30
   5  -5  -4    7.96    0.34
   5   5  -4    7.81    0.38
   5   5  -4    7.53    0.37
  -4  -5   4    7.61    0.30
  -4  -5   4    7.84    0.34
   4  -5  -4    7.14    0.29
  -4   5   4    7.40    0.27
   4   5  -4    7.66    0.34
   4   5  -4    7.65    0.27
   4   5  -4    7.03    0.34
   4   5  -4    7.50    0.34
  -3  -5   4   66.54    1.69
  -3  -5   4   64.67    1.58
   3  -5  -4   66.48    1.62
   3  -5  -4   64.27    1.63
   3  -5  -4   68.00    1.79
   3   5  -4   68.02    1.71
   3   5  -4   66.59    1.63
  -3   5   4   66.73    1.53
  -3   5   4   67.33    1.56
   3   5  -4   66.31    1.69
   2  -5  -4    7.71    0.24
  -2  -5   4    7.63    0.29
   2  -5  -4    8.13    0.29
  -2  -5   4    7.29    0.28
  -2  -5   4    7.70    0.26
   2  -5  -4    7.99    0.25
   2   5  -4    7.70    0.29
   2   5  -4    7.72    0.30
   2   5  -4    7.66    0.26
  -2   5   4    7.64    0.22
  -2   5   4    7.74    0.27
   1  -5  -4   10.30    0.29
   1  -5  -4   10.02    0.36
  -1  -5   4   10.39    0.29
   1  -5  -4   10.27    0.31
  -1  -5   4   10.32    0.33
  -1  -5   4    9.94    0.33
  -1  -5   4    9.93    0.33
  -1   5   4   10.15    0.31
   1   5  -4    9.81    0.30
   1   5  -4    9.61    0.32
   1   5  -4    9.47    0.32
  -1   5   4    9.86    0.26
  -1   5   4   10.36    0.35
   0  -5  -4   17.72    0.50
   0  -5   4   17.97    0.50
   0  -5  -4   17.15    0.57
   0  -5  -4   17.57    0.48
   0  -5   4   18.09    0.45
   0   5  -4   17.35    0.50
   0   5   4   18.03    0.55
   0   5  -4   17.53    0.49
   0   5  -4   18.39    0.46
   0   5   4   17.33    0.44
  -1  -5  -4   22.23    0.64
  -1  -5  -4   23.74    0.66
  -1  -5  -4   22.35    0.74
  -1  -5  -4   24.85    0.67
  -1  -5  -4   25.20    0.70
   1  -5   4   20.32    0.63
   1  -5   4   25.48    0.58
   1   5   4   23.12    0.66
   1   5   4   23.99    0.74
   1   5   4   23.41    0.60
  -1   5  -4   24.03    0.60
  -1   5  -4   23.91    0.65
  -1   5  -4   23.88    0.63
   1   5   4   23.85    0.61
   2  -5   4   47.29    1.24
  -2  -5  -4   48.15    1.26
  -2  -5  -4   46.99    1.41
  -2  -5  -4   50.48    1.42
  -2  -5  -4   47.39    1.24
   2   5   4   48.96    1.17
   2   5   4   48.42    1.44
  -2   5  -4   47.59    1.23
   2   5   4   49.62    1.28
  -3  -5  -4    8.75    0.38
   3  -5   4    8.53    0.34
  -3  -5  -4    8.30    0.34
  -3  -5  -4    9.08    0.35
   3   5   4    8.31    0.38
  -3   5  -4    8.56    0.32
   3   5   4    8.15    0.31
  -4  -5  -4    1.21    0.15
   4  -5   4    1.24    0.15
  -4  -5  -4    1.28    0.17
  -4   5  -4    1.47    0.13
   4   5   4    1.13    0.15
  -5  -5  -4    1.42    0.17
   5  -5   4    1.41    0.18
   5  -6  -4    2.74    0.19
   5   6  -4    1.94    0.19
   4  -6  -4   56.12    1.44
  -4  -6   4   58.41    1.51
   4   6  -4   55.09    1.71
   4   6  -4   57.61    1.43
   4   6  -4   56.75    1.53
  -4   6   4   56.47    1.36
   3  -6  -4   28.04    0.77
  -3  -6   4   28.81    0.77
  -3  -6   4   28.80    0.84
   3  -6  -4   29.04    0.77
   3   6  -4   29.59    0.85
  -3   6   4   29.24    0.83
   3   6  -4   29.96    0.84
  -3   6   4   29.16    0.71
  -3   6   4   30.18    0.72
   3   6  -4   29.48    0.79
  -2  -6   4   14.27    0.45
   2  -6  -4   14.21    0.39
   2  -6  -4   14.53    0.47
  -2  -6   4   13.92    0.45
   2  -6  -4   14.21    0.40
  -2   6   4   14.05    0.45
   2   6  -4   14.26    0.46
   2   6  -4   13.47    0.44
   2   6  -4   13.51    0.43
  -2   6   4   13.79    0.35
  -1  -6   4    1.67    0.12
  -1  -6   4    1.82    0.13
   1  -6  -4    1.89    0.13
   1  -6  -4    1.97    0.11
   1  -6  -4    1.86    0.09
  -1  -6   4    1.67    0.09
  -1  -6   4    1.73    0.12
   1   6  -4    1.76    0.11
   1   6  -4    1.95    0.12
   1   6  -4    1.98    0.12
  -1   6   4    1.94    0.08
  -1   6   4    2.09    0.09
   0  -6  -4    0.57    0.07
   0  -6   4    0.84    0.09
   0  -6  -4    0.47    0.08
   0  -6   4    0.71    0.06
   0  -6  -4    0.65    0.08
   0   6  -4    0.90    0.07
   0   6  -4    0.85    0.08
   0   6  -4    0.77    0.09
   0   6   4    0.81    0.06
   0   6   4    0.73    0.07
  -1  -6  -4    9.54    0.34
  -1  -6  -4    9.48    0.40
  -1  -6  -4   10.27    0.36
  -1  -6  -4    9.58    0.33
  -1   6  -4   10.44    0.34
   1   6   4   10.38    0.35
   1   6   4   10.31    0.32
  -1   6  -4   10.32    0.30
   1   6   4   10.40    0.37
  -1   6  -4   10.45    0.32
   2  -6   4    6.54    0.25
  -2  -6  -4    6.10    0.31
  -2  -6  -4    6.35    0.28
  -2  -6  -4    5.36    0.25
   2   6   4    6.56    0.29
  -2   6  -4    6.56    0.26
   2   6   4    6.75    0.24
  -3  -6  -4   11.59    0.43
  -3  -6  -4   11.29    0.43
  -3  -6  -4   11.40    0.48
   3  -6   4   11.39    0.40
   3   6   4   11.21    0.47
  -3   6  -4   11.43    0.40
   3   6   4   11.70    0.39
  -4  -6  -4    0.68    0.12
  -4  -6  -4    0.59    0.13
   4  -6   4    0.85    0.13
  -4   6  -4    0.82    0.12
   4   6   4    0.63    0.13
   5  -7  -4    3.99    0.23
   5   7  -4    4.33    0.28
  -4  -7   4   71.07    1.82
   4  -7  -4   67.16    1.73
   4   7  -4   69.45    2.08
  -4   7   4   69.12    1.64
   4   7  -4   71.93    1.75
  -3  -7   4   34.53    1.01
   3  -7  -4   36.84    0.93
   3  -7  -4   35.64    0.93
  -3   7   4   37.00    0.87
  -3   7   4   37.74    0.91
   3   7  -4   36.45    1.02
   3   7  -4   36.72    0.97
   2  -7  -4   12.47    0.35
   2  -7  -4   13.13    0.38
  -2  -7   4   11.94    0.42
  -2  -7   4   11.11    0.36
   2  -7  -4   12.59    0.44
  -2   7   4   12.32    0.31
   2   7  -4   12.76    0.43
   2   7  -4   13.08    0.41
   2   7  -4   12.54    0.42
  -2   7   4   12.86    0.43
  -1  -7   4   29.30    0.80
   1  -7  -4   29.93    0.81
   1  -7  -4   28.76    0.75
   1  -7  -4   30.28    0.92
  -1  -7   4   29.81    0.81
   1   7  -4   31.73    0.76
  -1   7   4   29.94    0.70
  -1   7   4   31.44    0.84
   1   7  -4   30.22    0.82
   1   7  -4   29.42    0.80
   0  -7  -4   35.28    1.11
   0  -7   4   37.27    0.96
   0  -7  -4   36.31    0.93
   0  -7  -4   37.36    0.99
   0   7  -4   37.24    0.90
   0   7  -4   38.64    0.95
   0   7   4   37.53    1.07
   0   7  -4   36.71    0.98
  -1  -7  -4   38.73    1.21
  -1  -7  -4   38.95    1.07
   1  -7   4   40.63    1.03
  -1  -7  -4   39.12    1.03
  -1   7  -4   39.85    1.05
   1   7   4   41.24    1.19
  -1   7  -4   42.32    0.97
  -2  -7  -4    5.53    0.25
  -2  -7  -4    5.45    0.26
   2  -7   4    5.51    0.23
  -2  -7  -4    5.55    0.30
   2   7   4    6.58    0.29
  -2   7  -4    6.11    0.25
  -3  -7  -4    9.75    0.39
  -3  -7  -4    9.61    0.40
   3  -7   4    9.99    0.36
  -3  -7  -4   10.12    0.45
   3   7   4    9.39    0.35
   3   7   4   10.40    0.44
  -3   7  -4    9.62    0.36
  -4  -7  -4    1.69    0.19
  -4  -7  -4    2.01    0.23
   4  -7   4    1.90    0.16
  -4   7  -4    1.85    0.16
   4   7   4    1.80    0.19
   5  -8  -4    5.50    0.27
   5   8  -4    5.52    0.34
   4  -8  -4   12.56    0.40
  -4  -8   4   11.62    0.47
   4   8  -4   11.37    0.50
   4   8  -4   11.90    0.42
  -4   8   4   11.99    0.36
   3  -8  -4   20.45    0.54
  -3  -8   4   19.77    0.63
   3  -8  -4   19.38    0.54
   3   8  -4   20.01    0.60
  -3   8   4   19.38    0.49
  -2  -8   4    7.65    0.31
   2  -8  -4    8.11    0.29
   2  -8  -4    7.94    0.33
   2  -8  -4    7.84    0.24
  -2   8   4    7.73    0.21
   2   8  -4    7.85    0.30
  -1  -8   4    2.59    0.15
   1  -8  -4    2.38    0.15
   1  -8  -4    2.71    0.18
   1  -8  -4    2.74    0.11
  -1  -8   4    2.76    0.16
  -1  -8   4    2.67    0.15
   1   8  -4    2.53    0.16
   0  -8  -4    2.46    0.16
   0  -8  -4    2.66    0.13
   0  -8   4    2.68    0.14
   0  -8  -4    2.43    0.18
   0  -8   4    2.81    0.15
   0   8   4    2.35    0.13
   0   8  -4    2.50    0.13
   0   8  -4    2.23    0.15
  -1  -8  -4   21.76    0.77
   1  -8   4   24.05    0.63
  -1  -8  -4   22.23    0.69
  -1  -8  -4   23.93    0.65
  -1   8  -4   22.70    0.67
  -2  -8  -4   22.88    0.67
  -2  -8  -4   22.20    0.79
  -2  -8  -4   21.98    0.70
   2  -8   4   23.13    0.64
  -2   8  -4   22.62    0.67
   3  -8   4   27.61    0.77
  -3  -8  -4   26.47    0.93
  -3  -8  -4   26.32    0.83
  -3  -8  -4   26.58    0.81
  -3   8  -4   28.03    0.79
  -4  -8  -4    0.95    0.15
   4  -8   4    1.14    0.13
  -4  -8  -4    1.01    0.16
  -4  -8  -4    1.32    0.19
  -4   8  -4    1.37    0.16
   5  -9  -4    1.22    0.14
  -5   9   4    1.10    0.12
  -4  -9   4    7.59    0.37
   4  -9  -4    8.17    0.30
   4   9  -4    7.86    0.40
  -4   9   4    7.68    0.26
   4   9  -4    7.96    0.33
  -3  -9   4    0.41    0.10
   3  -9  -4    0.51    0.06
   3   9  -4    0.46    0.09
  -3   9   4    0.34    0.05
   2  -9  -4    8.63    0.37
   2  -9  -4    8.99    0.32
  -2  -9   4    8.01    0.33
   2  -9  -4    8.24    0.25
   2   9  -4    8.19    0.33
   1  -9  -4    4.89    0.27
  -1  -9   4    5.21    0.23
   1  -9  -4    5.35    0.18
   1   9  -4    4.70    0.23
   0  -9  -4   12.79    0.40
   0  -9   4   14.21    0.42
   0  -9  -4   14.04    0.54
   0  -9  -4   14.32    0.47
   0  -9  -4   14.16    0.42
   0   9  -4   13.48    0.46
  -1  -9  -4   16.48    0.56
   1  -9   4   18.23    0.50
  -1  -9  -4   17.21    0.51
  -1  -9  -4   15.68    0.63
  -1   9  -4   16.95    0.54
   2  -9   4   51.56    1.29
  -2  -9  -4   49.87    1.55
  -2  -9  -4   50.33    1.32
  -2  -9  -4   50.18    1.38
  -2   9  -4   51.24    1.33
   3  -9   4    8.52    0.31
  -3  -9  -4    7.89    0.36
  -3  -9  -4    8.27    0.43
  -3  -9  -4    8.01    0.38
  -3   9  -4    8.56    0.35
   4  -9   4    2.33    0.17
  -4  -9  -4    2.31    0.23
  -4  -9  -4    2.38    0.21
   4   9   4    2.30    0.18
  -4   9  -4    2.63    0.20
  -5  10   4    5.07    0.23
  -4 -10   4    1.11    0.16
   4 -10  -4    1.19    0.12
  -4  10   4    1.42    0.10
   4  10  -4    1.55    0.16
  -3 -10   4   18.07    0.62
   3 -10  -4   18.77    0.50
  -3  10   4   18.50    0.46
   3  10  -4   18.80    0.60
  -2 -10   4   12.97    0.46
   2 -10  -4   12.98    0.43
   2 -10  -4   12.65    0.35
   2 -10  -4   13.08    0.50
   2  10  -4   12.95    0.46
  -1 -10   4    2.20    0.15
   1 -10  -4    2.20    0.10
   1 -10  -4    2.46    0.17
   1 -10  -4    2.24    0.19
   1  10  -4    2.27    0.16
   0 -10  -4   20.56    0.55
   0 -10  -4   20.31    0.73
   0 -10  -4   19.47    0.63
   0  10  -4   19.34    0.62
  -1 -10  -4    1.01    0.11
  -1 -10  -4    1.01    0.15
  -1 -10  -4    1.09    0.14
  -1  10  -4    0.83    0.11
  -2 -10  -4   17.06    0.67
   2 -10   4   15.95    0.48
  -2 -10  -4   17.35    0.54
  -2 -10  -4   15.45    0.57
  -2  10  -4   16.12    0.54
  -3 -10  -4    3.80    0.26
  -3 -10  -4    4.49    0.26
   3 -10   4    4.21    0.20
  -3  10  -4    4.07    0.24
  -4 -10  -4    3.19    0.25
   4 -10   4    3.25    0.19
  -4 -10  -4    3.42    0.25
  -4  10  -4    3.44    0.23
   4  10   4    3.25    0.22
   4 -11  -4    6.77    0.25
  -4 -11   4    6.21    0.34
  -4  11   4    6.31    0.22
   4  11  -4    6.54    0.32
   3 -11  -4    4.20    0.16
  -3 -11   4    4.36    0.26
   3  11  -4    3.98    0.24
   2 -11  -4   26.60    0.67
  -2 -11   4   27.49    0.81
   2 -11  -4   27.97    0.79
   2  11  -4   27.09    0.82
   1 -11  -4   14.16    0.40
   1 -11  -4   15.30    0.59
  -1 -11   4   14.73    0.49
   1 -11  -4   14.68    0.51
   1 -11  -4   14.98    0.41
   1  11  -4   14.29    0.50
   0 -11   4    2.13    0.15
   0 -11  -4    2.13    0.21
   0 -11  -4    2.24    0.18
   0 -11  -4    2.12    0.12
   0  11  -4    2.10    0.16
  -1 -11  -4    4.51    0.21
  -1 -11  -4    4.98    0.31
  -1 -11  -4    4.22    0.25
  -1  11  -4    4.24    0.24
  -2 -11  -4    5.36    0.26
   2 -11   4    5.46    0.21
  -2 -11  -4    5.11    0.34
  -2 -11  -4    5.64    0.30
  -2  11  -4    5.50    0.27
   3 -11   4    0.71    0.08
  -3 -11  -4    0.89    0.16
  -3 -11  -4    0.83    0.14
  -3  11  -4    0.73    0.13
   4 -12  -4    0.29    0.07
  -4 -12   4    0.41    0.13
  -4  12   4    0.44    0.07
   4  12  -4    0.62    0.13
  -3 -12   4    2.29    0.20
   3 -12  -4    2.45    0.10
   3  12  -4    2.56    0.20
   2 -12  -4    8.86    0.36
  -2 -12   4    8.78    0.36
   2  12  -4    8.25    0.37
   1 -12  -4   13.61    0.38
  -1 -12   4   12.55    0.45
   1 -12  -4   12.74    0.55
   1 -12  -4   12.45    0.36
   1 -12  -4   13.14    0.48
   0 -12   4    1.13    0.12
   0 -12  -4    1.06    0.17
   0 -12  -4    1.18    0.15
   0 -12  -4    1.01    0.10
   0  12  -4    1.02    0.14
  -1 -12  -4   11.89    0.54
  -1 -12  -4   10.51    0.45
  -1 -12  -4   11.16    0.39
  -1  12  -4   11.24    0.43
  -2 -12  -4    0.29    0.09
  -2 -12  -4    0.42    0.11
   2 -12   4    0.28    0.05
  -2  12  -4    0.15    0.08
  -3 -12  -4    5.50    0.33
  -3 -12  -4    5.34    0.30
  -3  12  -4    5.34    0.29
  -3 -13   4    0.44    0.12
   3  13  -4    0.34    0.11
   2 -13  -4    4.67    0.25
  -2 -13   4    4.29    0.25
   2  13  -4    4.18    0.26
   1 -13  -4   29.94    0.73
  -1 -13   4   28.73    0.84
   1 -13  -4   29.33    0.89
   1  13  -4   27.86    0.88
   0 -13   4    1.00    0.12
   0 -13  -4    1.00    0.15
   0 -13  -4    1.11    0.10
   0 -13  -4    0.98    0.18
   0  13  -4    1.18    0.16
   1 -13   4    3.96    0.15
  -1 -13  -4    3.93    0.21
   1 -13   4    4.25    0.15
  -1 -13  -4    4.01    0.27
  -1  13  -4    3.86    0.24
  -2 -13  -4    0.70    0.14
  -2 -13  -4    1.09    0.14
  -2  13  -4    1.41    0.16
  -3 -14   4    5.58    0.31
   3  14  -4    5.43    0.32
  -2 -14   4    3.15    0.22
   2  14  -4    3.97    0.26
  -1 -14   4    5.88    0.28
   1 -14  -4    5.95    0.32
   1 -14  -4    5.69    0.20
   1  14  -4    5.58    0.31
   0 -14  -4    2.98    0.16
   0 -14   4    2.92    0.19
   0 -14  -4    2.89    0.23
   0  14  -4    2.68    0.21
  -1 -14  -4    4.52    0.29
   1 -14   4    3.98    0.22
  -1 -14  -4    4.60    0.23
  -1  14  -4    4.46    0.27
  -2 -14  -4    1.92    0.19
  -2 -14  -4    1.99    0.23
  -2  14  -4    2.13    0.19
  -2 -15   4    5.38    0.29
  -2  15   4    5.41    0.29
   2  15  -4    5.07    0.32
   1 -15  -4    7.08    0.23
  -1 -15   4    7.60    0.33
   1 -15  -4    7.80    0.38
   1  15  -4    6.96    0.36
   0 -15   4    1.65    0.15
   0 -15  -4    1.82    0.22
   0 -15  -4    1.58    0.12
   0  15  -4    1.59    0.19
  -1 -15  -4    0.46    0.13
   1 -15   4    0.31    0.09
  -1 -15  -4    0.39    0.09
  -1  15  -4    0.28    0.11
   6   0  -5   10.61    0.46
   6   0  -5   11.44    0.49
  -6   0   5   11.17    0.44
   5   0  -5    7.36    0.29
   5   0  -5    6.87    0.34
   5   0  -5    7.45    0.34
   4   0  -5    1.03    0.13
   4   0  -5    0.90    0.12
   4   0  -5    1.11    0.10
  -4   0   5    1.11    0.12
   3   0  -5   43.33    1.11
   3   0  -5   40.80    1.23
  -3   0   5   43.32    1.09
   3   0  -5   42.34    1.11
   3   0  -5   41.58    1.11
  -3   0   5   40.96    1.03
  -2   0   5    3.88    0.17
   2   0  -5    3.68    0.18
  -2   0   5    3.71    0.15
   2   0  -5    3.75    0.13
   1   0  -5  232.49    5.30
   1   0  -5  226.25    5.30
  -1   0   5  224.30    5.05
   0   0  -5    9.24    0.29
   0   0   5    9.36    0.28
   0   0  -5    9.02    0.30
  -1   0  -5    1.19    0.11
  -1   0  -5    1.12    0.09
   1   0   5    1.29    0.09
  -1   0  -5    1.25    0.11
  -1   0  -5    1.22    0.10
  -2   0  -5   19.49    0.66
   2   0   5   21.99    0.56
  -2   0  -5   20.59    0.59
  -2   0  -5   20.37    0.60
  -3   0  -5   13.70    0.46
  -3   0  -5   14.25    0.51
   3   0   5   14.26    0.51
   4   0   5    0.30    0.10
  -4   0  -5    0.22    0.08
   5   0   5    3.44    0.27
  -5   0  -5    3.37    0.23
   6  -1  -5    5.65    0.33
  -6  -1   5    5.77    0.31
   6  -1  -5    5.98    0.32
   6   1  -5    5.96    0.35
  -6   1   5    5.85    0.30
   6   1  -5    5.58    0.32
   5  -1  -5   16.20    0.57
  -5  -1   5   16.61    0.54
   5  -1  -5   16.37    0.50
   5  -1  -5   16.13    0.56
  -5   1   5   17.02    0.54
   5   1  -5   16.14    0.59
   5   1  -5   15.92    0.57
   5   1  -5   16.57    0.57
   4  -1  -5    2.80    0.18
   4  -1  -5    2.66    0.13
  -4  -1   5    2.83    0.17
   4  -1  -5    2.62    0.18
   4   1  -5    2.76    0.19
   4   1  -5    2.54    0.17
  -4   1   5    2.67    0.16
   4   1  -5    2.55    0.19
   3  -1  -5    0.34    0.05
   3  -1  -5    0.30    0.05
   3  -1  -5    0.33    0.08
   3  -1  -5    0.22    0.06
  -3  -1   5    0.29    0.06
  -3  -1   5    0.30    0.07
   3   1  -5    0.30    0.06
   3   1  -5    0.40    0.08
   3   1  -5    0.32    0.04
   3   1  -5    0.30    0.07
  -3   1   5    0.26    0.06
  -3   1   5    0.40    0.07
   3   1  -5    0.22    0.07
   3   1  -5    0.31    0.04
  -2  -1   5   25.06    0.69
   2  -1  -5   24.64    0.61
  -2  -1   5   23.88    0.63
   2  -1  -5   24.55    0.68
   2  -1  -5   24.57    0.72
  -2   1   5   25.14    0.63
  -2   1   5   25.74    0.67
   2   1  -5   25.68    0.63
  -2   1   5   24.60    0.61
   2   1  -5   25.11    0.69
   1  -1  -5   52.45    1.26
   1  -1  -5   51.39    1.28
  -1  -1   5   52.42    1.22
   1  -1  -5   52.77    1.44
  -1   1   5   51.36    1.21
   1   1  -5   50.73    1.29
   1   1  -5   52.31    1.26
   0  -1   5    3.84    0.15
   0  -1  -5    4.08    0.17
   0  -1  -5    3.90    0.19
   0  -1  -5    4.21    0.16
   0  -1  -5    3.93    0.18
   0   1  -5    4.04    0.17
   0   1   5    3.68    0.15
   0   1  -5    3.73    0.17
  -1  -1  -5    6.68    0.27
  -1  -1  -5    6.25    0.24
   1  -1   5    6.52    0.22
  -1  -1  -5    6.10    0.24
  -1  -1  -5    6.21    0.27
   1   1   5    6.50    0.22
  -1   1  -5    6.71    0.24
  -1   1  -5    6.85    0.25
  -2  -1  -5   11.21    0.43
  -2  -1  -5   12.33    0.45
   2  -1   5   11.80    0.35
  -2  -1  -5   11.69    0.39
  -2  -1  -5   11.73    0.39
   2   1   5   11.65    0.36
  -2   1  -5   11.27    0.42
  -2   1  -5   11.78    0.39
  -2   1  -5   11.32    0.38
   2   1   5   11.20    0.41
   3  -1   5    5.17    0.26
  -3  -1  -5    4.33    0.22
  -3  -1  -5    4.42    0.24
   3   1   5    4.92    0.26
  -3   1  -5    4.47    0.24
  -3   1  -5    4.34    0.22
  -4  -1  -5    6.74    0.33
  -4  -1  -5    6.40    0.30
   4  -1   5    7.05    0.34
  -4   1  -5    6.74    0.30
   4   1   5    6.27    0.34
   5  -1   5    2.00    0.22
  -5  -1  -5    2.29    0.20
   5   1   5    2.05    0.23
  -5   1  -5    2.07    0.18
   6  -2  -5    2.31    0.20
   6  -2  -5    2.47    0.22
  -6   2   5    2.30    0.19
   6   2  -5    2.36    0.22
   5  -2  -5    4.41    0.25
   5  -2  -5    3.63    0.22
  -5  -2   5    3.90    0.23
   5   2  -5    3.93    0.25
   5   2  -5    4.08    0.23
   5   2  -5    4.15    0.26
  -5   2   5    3.74    0.21
   4  -2  -5   14.09    0.47
  -4  -2   5   14.12    0.45
   4  -2  -5   14.40    0.49
   4   2  -5   14.58    0.51
  -4   2   5   14.25    0.44
   4   2  -5   14.45    0.50
   4   2  -5   13.99    0.51
   3  -2  -5   10.98    0.34
  -3  -2   5   11.35    0.39
   3  -2  -5   11.31    0.35
   3  -2  -5   11.54    0.38
  -3  -2   5   11.70    0.36
   3  -2  -5   11.37    0.38
  -3   2   5   11.13    0.35
   3   2  -5   11.59    0.43
  -3   2   5   11.88    0.37
   3   2  -5   11.80    0.41
   3   2  -5   11.67    0.31
   3   2  -5   11.38    0.40
   2  -2  -5    3.89    0.17
   2  -2  -5    3.58    0.14
   2  -2  -5    3.67    0.17
  -2  -2   5    3.88    0.16
   2  -2  -5    3.72    0.13
  -2  -2   5    3.94    0.19
   2   2  -5    3.72    0.18
  -2   2   5    3.52    0.12
  -2   2   5    3.79    0.16
  -2   2   5    3.53    0.15
   2   2  -5    3.86    0.14
   1  -2  -5   75.89    1.80
   1  -2  -5   75.85    1.82
  -1  -2   5   74.21    1.73
   1  -2  -5   75.57    2.05
   1  -2  -5   77.32    2.09
  -1   2   5   74.71    1.72
   1   2  -5   75.96    1.81
   1   2  -5   74.08    1.83
   0  -2   5   90.11    2.17
   0  -2  -5   88.70    2.46
   0  -2  -5   92.24    2.18
   0  -2  -5   92.90    2.52
   0  -2  -5   87.43    2.17
   0  -2   5   91.40    2.06
   0   2  -5   92.56    2.18
   0   2   5   88.17    2.05
   0   2  -5   92.56    2.18
   1  -2   5    0.38    0.07
  -1  -2  -5    0.38    0.07
  -1  -2  -5    0.38    0.07
  -1  -2  -5    0.31    0.06
  -1  -2  -5    0.37    0.06
   1  -2   5    0.42    0.06
  -1   2  -5    0.46    0.07
  -1   2  -5    0.42    0.07
   1   2   5    0.43    0.06
  -2  -2  -5    1.85    0.15
  -2  -2  -5    1.72    0.13
   2  -2   5    1.82    0.11
  -2  -2  -5    1.62    0.13
  -2  -2  -5    1.62    0.14
  -2   2  -5    1.28    0.12
  -2   2  -5    1.58    0.12
   2   2   5    1.60    0.11
   2   2   5    1.76    0.14
  -3  -2  -5    7.02    0.31
  -3  -2  -5    6.75    0.29
   3  -2   5    7.06    0.32
  -3  -2  -5    6.91    0.32
  -3   2  -5    7.22    0.31
   3   2   5    6.71    0.32
  -3   2  -5    6.78    0.28
   3   2   5    6.95    0.27
   4  -2   5    2.16    0.19
  -4  -2  -5    2.13    0.19
  -4  -2  -5    1.97    0.17
   4   2   5    2.24    0.23
  -4   2  -5    1.89    0.16
   5  -2   5    6.02    0.35
  -5  -2  -5    6.77    0.33
  -5   2  -5    6.38    0.31
   6  -3  -5    1.09    0.15
   6  -3  -5    0.84    0.15
   6   3  -5    0.90    0.16
  -6   3   5    0.83    0.14
  -5  -3   5    8.36    0.35
   5  -3  -5    7.40    0.33
   5  -3  -5    8.20    0.36
   5   3  -5    8.81    0.39
   5   3  -5    8.20    0.37
  -5   3   5    8.59    0.33
   5   3  -5    8.95    0.40
   4  -3  -5   16.62    0.54
  -4  -3   5   17.11    0.52
  -4   3   5   16.65    0.50
   4   3  -5   16.61    0.60
   4   3  -5   17.37    0.57
   4   3  -5   17.22    0.58
  -3  -3   5    0.88    0.11
  -3  -3   5    0.62    0.08
   3  -3  -5    0.58    0.06
   3  -3  -5    0.51    0.08
   3  -3  -5    0.50    0.08
   3   3  -5    0.66    0.06
  -3   3   5    0.46    0.07
   3   3  -5    0.55    0.09
   3   3  -5    0.54    0.09
   2  -3  -5   62.04    1.50
  -2  -3   5   62.31    1.54
  -2  -3   5   57.96    1.43
   2  -3  -5   60.68    1.67
   2  -3  -5   61.44    1.46
   2   3  -5   60.76    1.53
  -2   3   5   61.13    1.45
  -2   3   5   61.20    1.41
   2   3  -5   60.92    1.48
  -2   3   5   62.73    1.48
  -1  -3   5   34.94    0.90
   1  -3  -5   35.08    0.88
   1  -3  -5   34.04    1.00
   1  -3  -5   34.41    0.87
   1  -3  -5   35.65    0.97
  -1  -3   5   35.14    0.84
   1   3  -5   34.87    0.88
   1   3  -5   33.63    0.90
  -1   3   5   33.66    0.82
   0  -3  -5    9.14    0.30
   0  -3  -5    9.96    0.32
   0  -3   5    9.48    0.28
   0  -3  -5    8.56    0.34
   0  -3   5    8.94    0.30
   0  -3  -5    9.34    0.30
   0   3  -5    9.11    0.30
   0   3   5    9.21    0.27
   0   3  -5    8.63    0.30
  -1  -3  -5   27.89    0.84
  -1  -3  -5   26.91    0.75
  -1  -3  -5   25.79    0.74
   1  -3   5   28.31    0.75
  -1  -3  -5   26.47    0.85
   1  -3   5   28.16    0.69
   1   3   5   27.97    0.70
  -1   3  -5   28.76    0.75
  -1   3  -5   27.99    0.74
  -2  -3  -5    8.18    0.33
  -2  -3  -5    8.57    0.32
  -2  -3  -5    7.56    0.33
  -2  -3  -5    7.79    0.30
   2   3   5    7.40    0.27
   2   3   5    7.81    0.32
  -2   3  -5    7.61    0.29
  -2   3  -5    8.40    0.30
   3  -3   5   28.83    0.86
  -3  -3  -5   28.96    0.93
  -3  -3  -5   30.73    0.85
  -3  -3  -5   27.98    0.83
   3   3   5   29.99    0.78
   3   3   5   29.85    0.89
  -3   3  -5   28.70    0.90
  -3   3  -5   28.95    0.82
  -4  -3  -5   23.33    0.79
   4  -3   5   21.34    0.73
  -4  -3  -5   22.32    0.70
  -4   3  -5   21.99    0.68
  -5  -3  -5    2.16    0.20
   5  -3   5    2.42    0.22
   6  -4  -5    2.25    0.21
   6  -4  -5    2.37    0.19
  -6   4   5    2.72    0.21
   6   4  -5    2.45    0.23
   5  -4  -5    0.23    0.09
   5   4  -5    0.23    0.09
  -5   4   5    0.19    0.07
   4  -4  -5   11.93    0.42
   4   4  -5   12.50    0.46
   4   4  -5   11.75    0.46
  -4   4   5   11.66    0.38
   4   4  -5   12.24    0.48
   3  -4  -5   39.82    1.06
   3  -4  -5   37.06    0.99
  -3  -4   5   37.85    0.96
  -3  -4   5   37.75    1.03
   3  -4  -5   38.62    0.99
   3   4  -5   37.58    0.95
   3   4  -5   36.87    1.03
   3   4  -5   37.79    1.04
  -3   4   5   37.08    0.92
   2  -4  -5   10.85    0.34
  -2  -4   5   11.56    0.35
   2  -4  -5   11.24    0.38
  -2  -4   5   10.89    0.38
   2  -4  -5   12.03    0.32
   2   4  -5   10.66    0.38
   2   4  -5   10.93    0.34
  -2   4   5   10.92    0.32
  -2   4   5   11.25    0.31
   1  -4  -5    5.42    0.23
   1  -4  -5    5.08    0.19
   1  -4  -5    5.43    0.19
  -1  -4   5    5.25    0.19
  -1  -4   5    5.22    0.21
   1   4  -5    4.79    0.21
  -1   4   5    4.98    0.18
  -1   4   5    5.07    0.22
  -1   4   5    5.11    0.17
   1   4  -5    4.99    0.20
   0  -4  -5   24.41    0.76
   0  -4   5   24.22    0.67
   0  -4  -5   25.71    0.72
   0  -4  -5   25.53    0.67
   0  -4  -5   25.44    0.67
   0  -4   5   25.94    0.62
   0   4  -5   22.89    0.67
   0   4   5   23.92    0.61
   0   4  -5   24.30    0.67
  -1  -4  -5   29.58    0.80
  -1  -4  -5   28.49    0.91
   1  -4   5   29.95    0.80
  -1  -4  -5   29.54    0.81
   1   4   5   30.01    0.75
   1   4   5   29.89    0.92
  -1   4  -5   30.43    0.80
  -1   4  -5   30.65    0.80
  -2  -4  -5    7.28    0.29
  -2  -4  -5    7.37    0.29
  -2  -4  -5    7.01    0.32
   2   4   5    7.07    0.32
   2   4   5    7.66    0.32
   2   4   5    7.05    0.26
  -2   4  -5    6.72    0.27
   3  -4   5    6.01    0.29
  -3  -4  -5    6.04    0.28
  -3  -4  -5    6.58    0.30
  -3  -4  -5    6.20    0.31
  -3   4  -5    5.99    0.27
   3   4   5    6.14    0.26
  -4  -4  -5   11.35    0.49
  -4  -4  -5   11.66    0.45
   4  -4   5   11.78    0.47
  -4   4  -5   11.86    0.43
   5  -5  -5    4.44    0.25
   5   5  -5    4.66    0.29
  -5   5   5    4.83    0.23
   5   5  -5    4.81    0.29
   4  -5  -5    1.64    0.13
  -4   5   5    1.57    0.12
   4   5  -5    1.60    0.17
   4   5  -5    1.56    0.17
   4   5  -5    1.40    0.15
   3  -5  -5  160.02    3.86
   3  -5  -5  164.84    4.33
  -3  -5   5  161.55    3.92
  -3  -5   5  164.58    3.72
  -3   5   5  160.50    3.66
   3   5  -5  163.16    3.92
   3   5  -5  164.76    3.86
   3   5  -5  169.06    3.97
   2  -5  -5   40.14    1.00
   2  -5  -5   39.99    1.15
  -2  -5   5   40.02    0.99
   2  -5  -5   39.76    1.01
  -2  -5   5   39.66    1.07
  -2   5   5   42.13    1.14
  -2   5   5   39.62    0.95
   2   5  -5   41.25    1.07
   2   5  -5   40.53    1.03
  -1  -5   5   21.19    0.56
  -1  -5   5   21.64    0.62
  -1  -5   5   21.98    0.62
   1  -5  -5   22.22    0.59
  -1  -5   5   22.08    0.62
   1  -5  -5   21.68    0.58
   1  -5  -5   21.67    0.68
  -1   5   5   21.78    0.54
   1   5  -5   22.46    0.62
  -1   5   5   21.08    0.56
   1   5  -5   21.87    0.60
   0  -5  -5    2.62    0.17
   0  -5  -5    2.48    0.13
   0  -5  -5    2.42    0.14
   0  -5   5    2.72    0.15
   0   5  -5    2.81    0.15
   0   5  -5    3.04    0.15
   0   5   5    2.70    0.12
   0   5   5    2.59    0.14
   0   5  -5    2.77    0.13
  -1  -5  -5   22.93    0.67
   1  -5   5   25.32    0.61
  -1  -5  -5   22.13    0.77
  -1  -5  -5   25.59    0.73
  -1  -5  -5   23.32    0.68
   1  -5   5   24.32    0.67
  -1   5  -5   24.05    0.66
  -1   5  -5   24.69    0.62
   1   5   5   23.84    0.62
  -1   5  -5   23.71    0.67
   1   5   5   25.00    0.77
  -2  -5  -5    8.01    0.36
  -2  -5  -5    7.92    0.32
  -2  -5  -5    7.53    0.31
  -2   5  -5    7.63    0.30
   2   5   5    8.55    0.35
   2   5   5    7.81    0.28
  -3  -5  -5    4.25    0.24
  -3  -5  -5    4.01    0.23
   3  -5   5    3.89    0.23
  -3  -5  -5    4.63    0.27
  -3   5  -5    3.93    0.21
   3   5   5    4.26    0.21
   3   5   5    4.03    0.25
   4  -5   5   18.55    0.64
  -4  -5  -5   18.64    0.64
  -4  -5  -5   19.44    0.72
  -4   5  -5   19.05    0.60
   5  -6  -5    0.07    0.07
  -5   6   5   -0.02    0.05
   5   6  -5   -0.01    0.08
   4  -6  -5   11.36    0.41
  -4  -6   5   12.67    0.47
   4   6  -5   12.15    0.50
   4   6  -5   12.59    0.48
  -4   6   5   12.12    0.38
   4   6  -5   12.88    0.40
   3  -6  -5   85.60    2.09
  -3  -6   5   86.47    2.17
   3  -6  -5   89.35    2.35
   3   6  -5   86.92    2.19
   3   6  -5   87.00    2.17
   3   6  -5   83.96    2.10
  -3   6   5   85.33    1.97
  -2  -6   5   29.99    0.76
   2  -6  -5   30.28    0.89
   2  -6  -5   30.32    0.77
   2  -6  -5   29.16    0.76
  -2  -6   5   28.25    0.83
  -2   6   5   29.41    0.71
   2   6  -5   28.62    0.79
   2   6  -5   29.91    0.82
   2   6  -5   28.97    0.83
   1  -6  -5   26.74    0.84
  -1  -6   5   26.91    0.76
   1  -6  -5   27.34    0.73
  -1  -6   5   28.03    0.76
   1  -6  -5   26.56    0.71
  -1  -6   5   26.68    0.75
   1   6  -5   28.15    0.75
  -1   6   5   27.87    0.80
  -1   6   5   27.14    0.66
   1   6  -5   27.62    0.75
   0  -6  -5   21.61    0.73
   0  -6  -5   22.31    0.64
   0  -6  -5   22.52    0.61
   0  -6   5   23.67    0.57
   0  -6   5   22.50    0.63
   0   6  -5   21.61    0.63
   0   6  -5   22.79    0.58
   0   6   5   21.38    0.56
   0   6   5   22.80    0.69
   0   6  -5   22.68    0.62
  -1  -6  -5    3.92    0.20
  -1  -6  -5    4.10    0.19
  -1  -6  -5    3.60    0.23
  -1   6  -5    4.16    0.20
   1   6   5    4.11    0.21
   1   6   5    3.92    0.17
  -2  -6  -5   31.87    0.88
  -2  -6  -5   30.32    0.99
  -2  -6  -5   29.82    0.86
   2   6   5   31.74    0.99
  -2   6  -5   29.89    0.85
   2   6   5   30.39    0.80
  -3  -6  -5   18.20    0.67
  -3  -6  -5   17.48    0.59
   3  -6   5   16.52    0.56
  -3  -6  -5   16.65    0.58
   3   6   5   17.36    0.53
  -3   6  -5   17.79    0.56
   3   6   5   18.13    0.66
  -4  -6  -5    8.12    0.42
  -4  -6  -5    8.27    0.38
   4  -6   5    8.39    0.37
   4   6   5    8.87    0.43
  -4   6  -5    8.67    0.36
   5  -7  -5    0.68    0.12
  -5   7   5    0.38    0.08
   4  -7  -5    2.92    0.17
  -4  -7   5    2.62    0.20
   4   7  -5    2.96    0.18
   4   7  -5    2.53    0.22
  -4   7   5    2.46    0.14
  -3  -7   5   46.78    1.28
   3  -7  -5   47.16    1.20
   3  -7  -5   48.97    1.36
   3   7  -5   47.56    1.23
  -3   7   5   47.41    1.12
   2  -7  -5   27.40    0.86
   2  -7  -5   27.62    0.72
  -2  -7   5   27.22    0.80
   2  -7  -5   28.74    0.75
   2   7  -5   28.88    0.81
  -2   7   5   28.52    0.68
   2   7  -5   27.83    0.77
  -1  -7   5   19.73    0.59
   1  -7  -5   19.94    0.57
   1  -7  -5   19.50    0.53
   1  -7  -5   19.07    0.65
   1   7  -5   18.97    0.57
  -1   7   5   18.77    0.48
  -1   7   5   19.44    0.59
   1   7  -5   20.41    0.58
   0  -7  -5    4.83    0.26
   0  -7  -5    4.91    0.23
   0  -7   5    5.04    0.22
   0  -7  -5    5.02    0.20
   0   7   5    5.17    0.22
   0   7  -5    4.69    0.22
   0   7   5    4.89    0.18
  -1  -7  -5    6.96    0.27
  -1  -7  -5    6.65    0.29
  -1  -7  -5    7.46    0.34
   1   7   5    6.51    0.24
  -1   7  -5    6.58    0.27
   1   7   5    6.95    0.30
  -2  -7  -5    4.76    0.25
  -2  -7  -5    5.08    0.29
  -2  -7  -5    4.63    0.24
   2   7   5    4.54    0.21
   2   7   5    4.47    0.25
  -2   7  -5    4.76    0.23
  -3  -7  -5   16.83    0.59
   3  -7   5   16.64    0.56
  -3  -7  -5   17.69    0.59
  -3  -7  -5   17.32    0.67
  -3   7  -5   16.79    0.56
   3   7   5   17.76    0.54
   4  -7   5    6.34    0.31
  -4  -7  -5    6.42    0.34
  -4   7  -5    6.49    0.31
   5  -8  -5    0.74    0.12
  -5   8   5    0.70    0.10
  -4  -8   5   10.32    0.43
   4  -8  -5    9.77    0.35
   4   8  -5   10.02    0.37
  -4   8   5    9.80    0.32
   4   8  -5   10.32    0.46
  -3  -8   5    2.68    0.20
   3  -8  -5    2.70    0.14
   3  -8  -5    2.63    0.17
   3   8  -5    2.25    0.16
  -3   8   5    2.71    0.12
   2  -8  -5   12.36    0.40
  -2  -8   5   12.30    0.44
   2  -8  -5   12.37    0.36
   2  -8  -5   12.64    0.47
   2   8  -5   12.74    0.42
  -2   8   5   11.98    0.32
   1  -8  -5   17.42    0.49
   1  -8  -5   17.97    0.63
  -1  -8   5   17.41    0.55
   1  -8  -5   17.53    0.54
  -1   8   5   18.60    0.45
   1   8  -5   17.75    0.55
   0  -8  -5    6.71    0.25
   0  -8  -5    6.89    0.29
   0  -8  -5    6.43    0.33
   0   8   5    7.27    0.23
   0   8  -5    7.46    0.29
  -1  -8  -5    1.59    0.13
  -1  -8  -5    1.28    0.14
  -1  -8  -5    1.52    0.16
   1   8   5    1.53    0.11
  -1   8  -5    1.63    0.14
  -2  -8  -5    1.20    0.14
  -2  -8  -5    1.43    0.18
  -2  -8  -5    1.28    0.15
   2   8   5    1.21    0.12
  -2   8  -5    1.48    0.15
  -3  -8  -5   26.09    0.82
  -3  -8  -5   24.75    0.79
   3  -8   5   25.44    0.76
  -3  -8  -5   25.18    0.91
  -3   8  -5   27.35    0.78
   3   8   5   26.18    0.74
  -4  -8  -5    1.07    0.16
   4  -8   5    0.97    0.14
  -4   8  -5    0.87    0.14
   5  -9  -5    4.83    0.25
  -5   9   5    4.66    0.23
   4  -9  -5    8.45    0.31
  -4  -9   5    8.83    0.40
  -4   9   5    8.15    0.28
   4   9  -5    8.37    0.42
   4   9  -5    8.48    0.34
   3  -9  -5    1.75    0.11
  -3  -9   5    1.74    0.18
  -3   9   5    1.88    0.10
   3   9  -5    1.69    0.15
   2  -9  -5   28.96    0.79
   2  -9  -5   27.52    0.72
  -2  -9   5   27.23    0.82
   2  -9  -5   28.05    0.90
   2   9  -5   28.44    0.81
  -2   9   5   28.00    0.67
   1  -9  -5   18.30    0.50
   1  -9  -5   19.01    0.57
  -1  -9   5   18.29    0.57
   1  -9  -5   18.49    0.66
  -1   9   5   18.17    0.46
   1   9  -5   17.73    0.57
   0  -9  -5    4.10    0.26
   0  -9  -5    4.10    0.18
   0  -9  -5    4.41    0.23
   0   9   5    4.26    0.16
   0   9  -5    4.27    0.22
  -1  -9  -5    0.24    0.07
  -1  -9  -5    0.06    0.07
  -1  -9  -5    0.14    0.07
  -1   9  -5    0.07    0.06
   1   9   5    0.06    0.04
  -2  -9  -5   11.09    0.50
  -2  -9  -5   10.92    0.44
  -2  -9  -5   10.94    0.41
   2  -9   5   11.26    0.38
   2   9   5   10.94    0.37
  -2   9  -5   10.83    0.41
  -3  -9  -5   17.84    0.65
   3  -9   5   19.27    0.59
  -3  -9  -5   19.20    0.63
  -3   9  -5   18.19    0.61
   3   9   5   17.80    0.57
   4  -9   5    4.86    0.26
  -4  -9  -5    4.81    0.31
  -4   9  -5    5.72    0.29
   4 -10  -5    6.34    0.25
  -4 -10   5    7.03    0.35
   4  10  -5    6.46    0.30
  -4  10   5    6.19    0.23
  -3 -10   5    4.73    0.27
   3 -10  -5    4.74    0.19
  -3  10   5    4.57    0.16
   3  10  -5    4.63    0.25
  -2 -10   5    0.19    0.08
   2 -10  -5    0.20    0.07
   2 -10  -5    0.11    0.04
   2 -10  -5    0.14    0.07
   2  10  -5    0.10    0.06
  -2  10   5    0.16    0.04
   1 -10  -5   36.00    0.89
   1 -10  -5   34.77    1.12
   1 -10  -5   36.27    0.98
  -1 -10   5   34.79    0.97
  -1  10   5   34.19    0.83
   1  10  -5   34.17    0.98
   0 -10  -5   10.26    0.41
   0 -10  -5   11.28    0.48
   0 -10  -5   10.72    0.35
   0  10  -5   10.69    0.40
  -1 -10  -5    0.35    0.09
  -1 -10  -5    0.70    0.14
  -1 -10  -5    0.47    0.09
  -1  10  -5    0.49    0.10
  -2 -10  -5    6.00    0.28
  -2 -10  -5    5.70    0.31
  -2 -10  -5    6.39    0.37
   2 -10   5    5.93    0.25
   2  10   5    5.73    0.25
  -2  10  -5    5.56    0.28
  -3 -10  -5    5.56    0.32
   3 -10   5    5.71    0.26
  -3 -10  -5    6.11    0.31
  -3  10  -5    5.97    0.30
   3  10   5    5.73    0.27
   4 -11  -5    4.65    0.21
  -4 -11   5    4.70    0.29
  -4  11   5    4.43    0.18
   4  11  -5    5.01    0.27
   3 -11  -5    2.94    0.14
  -3 -11   5    2.85    0.22
   3  11  -5    3.06    0.21
  -3  11   5    2.85    0.12
   2 -11  -5    7.63    0.37
   2 -11  -5    7.70    0.32
   2 -11  -5    7.23    0.24
  -2 -11   5    7.69    0.34
  -2  11   5    7.12    0.21
   2  11  -5    7.74    0.34
   1 -11  -5   22.34    0.68
  -1 -11   5   21.31    0.66
   1 -11  -5   21.76    0.78
   1 -11  -5   21.36    0.57
   1  11  -5   20.20    0.67
  -1  11   5   20.85    0.53
   0 -11  -5    1.29    0.11
   0 -11  -5    1.01    0.14
   0 -11  -5    1.23    0.18
   0  11  -5    0.88    0.12
  -1 -11  -5    4.48    0.30
  -1 -11  -5    4.23    0.22
  -1 -11  -5    4.35    0.26
   2 -11   5    2.97    0.17
  -2 -11  -5    3.27    0.21
  -2 -11  -5    3.21    0.24
  -2  11  -5    3.24    0.22
  -3 -11  -5    0.45    0.12
   3 -11   5    0.54    0.09
  -3 -11  -5    0.56    0.13
  -3  11  -5    0.52    0.13
   3  11   5    0.55    0.10
   4 -12  -5    8.96    0.30
  -4 -12   5    8.92    0.43
   4  12  -5    9.13    0.40
  -4  12   5    8.72    0.28
   3 -12  -5    9.15    0.27
  -3 -12   5    9.12    0.41
   3  12  -5    8.60    0.39
  -3  12   5    8.86    0.26
  -2 -12   5    1.28    0.15
   2 -12  -5    1.31    0.15
   2 -12  -5    1.07    0.17
   2 -12  -5    1.20    0.08
   2  12  -5    1.04    0.15
  -2  12   5    1.11    0.07
   1 -12  -5   13.11    0.55
   1 -12  -5   12.63    0.47
   1 -12  -5   11.90    0.36
  -1 -12   5   12.35    0.45
   1  12  -5   11.90    0.47
  -1  12   5   12.02    0.34
   0 -12  -5   20.29    0.78
   0 -12  -5   20.09    0.57
   0 -12   5   20.24    0.62
   0 -12  -5   20.17    0.67
   0  12  -5   19.07    0.65
  -1 -12  -5    0.67    0.10
  -1 -12  -5    0.46    0.11
  -1  12  -5    0.62    0.12
  -2 -12  -5    4.80    0.30
   2 -12   5    4.96    0.21
  -2 -12  -5    5.13    0.27
  -2  12  -5    5.04    0.28
   3 -12   5    2.45    0.14
  -3 -12  -5    1.99    0.23
  -3 -12  -5    1.92    0.20
   3  12   5    2.10    0.17
  -3  12  -5    2.12    0.22
  -3 -13   5    1.72    0.20
   3  13  -5    1.82    0.20
  -3  13   5    1.82    0.09
  -2 -13   5    6.96    0.34
   2 -13  -5    7.18    0.22
   2 -13  -5    7.29    0.33
  -2  13   5    7.46    0.21
   2  13  -5    7.88    0.36
  -1 -13   5    0.83    0.13
   1 -13  -5    0.79    0.16
   1 -13  -5    0.91    0.14
   1 -13  -5    1.08    0.09
   1  13  -5    0.85    0.14
  -1  13   5    0.86    0.07
   0 -13   5    1.47    0.15
   0 -13  -5    1.24    0.17
   0 -13  -5    1.81    0.13
   0  13  -5    1.71    0.18
  -1 -13  -5    5.51    0.26
  -1 -13  -5    5.51    0.32
  -1  13  -5    5.90    0.31
   2 -13   5    7.66    0.26
  -2 -13  -5    7.69    0.34
  -2 -13  -5    7.58    0.40
  -2  13  -5    8.23    0.37
   3  14  -5    2.92    0.23
  -2 -14   5    2.53    0.20
   2  14  -5    2.17    0.20
   1 -14  -5    2.89    0.23
  -1 -14   5    2.84    0.20
   1 -14  -5    2.82    0.14
  -1  14   5    2.99    0.13
   1  14  -5    2.66    0.21
   0 -14  -5   16.37    0.61
   0 -14  -5   15.73    0.49
   0 -14   5   15.66    0.53
   0  14  -5   16.35    0.59
  -1 -14  -5    4.09    0.23
  -1 -14  -5    4.14    0.29
   1 -14   5    3.82    0.16
  -1  14  -5    4.13    0.26
   1 -15  -5    1.78    0.11
   1 -15  -5    1.73    0.20
  -1 -15   5    1.59    0.17
   1  15  -5    1.82    0.21
  -1  15   5    1.67    0.10
   0 -15  -5    7.96    0.41
   0 -15  -5    8.69    0.32
   0 -15   5    8.28    0.35
   0  15  -5    8.54    0.40
   6   0  -6    0.14    0.10
   6   0  -6    0.20    0.11
  -6   0   6    0.23    0.10
   5   0  -6    0.28    0.10
   5   0  -6    0.35    0.10
  -5   0   6    0.40    0.10
   5   0  -6    0.38    0.07
   4   0  -6   16.01    0.55
   4   0  -6   16.10    0.53
  -4   0   6   16.23    0.50
   4   0  -6   16.04    0.54
   3   0  -6    7.03    0.29
   3   0  -6    7.25    0.30
  -3   0   6    7.15    0.26
   3   0  -6    7.14    0.20
  -3   0   6    7.19    0.28
   2   0  -6    0.02    0.03
  -2   0   6    0.00    0.03
   2   0  -6    0.00    0.04
  -2   0   6   -0.01    0.04
   1   0  -6   16.52    0.44
   1   0  -6   15.17    0.47
  -1   0   6   15.48    0.43
   0   0  -6   18.29    0.54
   0   0   6   18.76    0.50
   0   0  -6   18.41    0.52
   1   0   6   51.12    1.22
  -1   0  -6   50.33    1.30
  -1   0  -6   53.10    1.50
  -1   0  -6   49.18    1.29
  -1   0  -6   50.27    1.46
   2   0   6    3.68    0.18
  -2   0  -6    3.55    0.20
  -2   0  -6    3.22    0.18
  -2   0  -6    3.34    0.20
  -3   0  -6    1.70    0.16
   3   0   6    1.88    0.17
  -3   0  -6    1.52    0.14
  -4   0  -6    0.22    0.09
   4   0   6    0.30    0.11
   6  -1  -6    4.41    0.30
   6  -1  -6    4.44    0.28
  -6  -1   6    4.81    0.28
   6   1  -6    4.20    0.28
  -6   1   6    4.06    0.26
   6   1  -6    4.30    0.30
   5  -1  -6    1.85    0.19
   5  -1  -6    1.82    0.10
  -5  -1   6    2.09    0.17
   5  -1  -6    1.60    0.17
   5   1  -6    1.85    0.20
   5   1  -6    2.07    0.15
  -5   1   6    2.30    0.17
   5   1  -6    1.79    0.19
   4  -1  -6    2.94    0.20
  -4  -1   6    2.84    0.17
   4  -1  -6    2.81    0.14
  -4   1   6    2.97    0.17
   4   1  -6    2.64    0.19
   4   1  -6    2.77    0.17
   4   1  -6    3.07    0.21
  -3  -1   6   23.52    0.64
   3  -1  -6   23.42    0.72
   3  -1  -6   23.71    0.69
  -3  -1   6   24.46    0.69
   3  -1  -6   23.83    0.57
   3  -1  -6   23.48    0.69
  -3   1   6   23.32    0.63
   3   1  -6   22.84    0.75
   3   1  -6   23.78    0.59
   3   1  -6   23.03    0.70
  -2  -1   6   16.28    0.47
   2  -1  -6   17.17    0.45
  -2  -1   6   17.19    0.51
   2  -1  -6   16.45    0.53
   2  -1  -6   17.35    0.51
  -2   1   6   16.91    0.47
  -2   1   6   17.05    0.50
   2   1  -6   16.52    0.52
   2   1  -6   17.62    0.46
   1  -1  -6   23.36    0.73
  -1  -1   6   24.01    0.62
   1  -1  -6   23.48    0.63
   1  -1  -6   23.76    0.66
   1   1  -6   24.25    0.67
  -1   1   6   23.83    0.61
   1   1  -6   24.94    0.64
   0  -1  -6   53.23    1.55
   0  -1  -6   56.17    1.58
   0  -1   6   54.62    1.29
   0  -1  -6   53.23    1.37
   0  -1  -6   55.05    1.36
   0   1   6   54.45    1.29
   0   1  -6   55.35    1.38
   0   1  -6   56.34    1.37
  -1  -1  -6   32.69    1.02
  -1  -1  -6   33.43    0.90
   1  -1   6   35.54    0.85
  -1  -1  -6   32.95    0.91
  -1  -1  -6   34.92    1.04
  -1   1  -6   32.56    0.90
   1   1   6   34.91    0.85
  -1   1  -6   34.59    0.91
   2  -1   6    6.72    0.25
  -2  -1  -6    6.32    0.27
  -2  -1  -6    6.90    0.29
  -2  -1  -6    6.33    0.30
  -2   1  -6    6.53    0.30
  -2   1  -6    6.41    0.28
  -2   1  -6    6.27    0.27
   2   1   6    7.03    0.26
   3  -1   6    4.54    0.26
  -3  -1  -6    4.75    0.26
  -3  -1  -6    4.65    0.24
  -3   1  -6    4.70    0.23
  -3   1  -6    4.37    0.25
   3   1   6    4.73    0.27
  -4  -1  -6    5.46    0.28
   4  -1   6    6.02    0.33
   4   1   6    5.82    0.34
  -4   1  -6    5.23    0.27
   6  -2  -6    2.69    0.24
   6  -2  -6    3.13    0.23
   6   2  -6    2.72    0.24
  -6   2   6    3.04    0.22
   5  -2  -6    2.54    0.20
   5   2  -6    2.83    0.21
   5   2  -6    2.80    0.22
   5   2  -6    2.76    0.19
  -5   2   6    2.94    0.19
   4  -2  -6   48.52    1.31
  -4  -2   6   49.98    1.24
   4   2  -6   48.96    1.33
   4   2  -6   48.99    1.47
   4   2  -6   49.85    1.34
  -4   2   6   48.45    1.22
   3  -2  -6   24.72    0.74
   3  -2  -6   26.27    0.74
  -3  -2   6   26.71    0.75
   3  -2  -6   25.84    0.74
  -3  -2   6   25.26    0.69
  -3   2   6   25.15    0.67
   3   2  -6   25.62    0.65
   3   2  -6   25.66    0.75
   2  -2  -6    1.33    0.10
   2  -2  -6    1.25    0.07
   2  -2  -6    1.19    0.10
   2  -2  -6    1.24    0.08
  -2  -2   6    1.30    0.10
  -2  -2   6    1.37    0.11
  -2   2   6    1.22    0.09
   2   2  -6    1.14    0.08
   2   2  -6    1.21    0.11
  -2   2   6    1.22    0.11
   1  -2  -6   16.31    0.45
  -1  -2   6   16.14    0.45
   1  -2  -6   16.67    0.51
   1  -2  -6   15.66    0.53
   1  -2  -6   16.23    0.48
  -1   2   6   16.06    0.44
   1   2  -6   16.18    0.49
   1   2  -6   16.50    0.46
   0  -2  -6   63.41    1.74
   0  -2  -6   60.71    1.51
   0  -2  -6   61.58    1.51
   0  -2  -6   58.97    1.71
   0  -2   6   61.68    1.43
   0   2  -6   59.80    1.52
   0   2  -6   59.85    1.51
   0   2   6   60.47    1.42
  -1  -2  -6    8.43    0.35
   1  -2   6    8.59    0.28
  -1  -2  -6    8.40    0.31
  -1  -2  -6    8.93    0.34
  -1  -2  -6    8.46    0.31
  -1   2  -6    7.95    0.30
   1   2   6    8.18    0.28
  -1   2  -6    8.76    0.32
  -2  -2  -6   10.69    0.39
  -2  -2  -6   11.40    0.41
  -2  -2  -6   10.48    0.44
   2   2   6   11.88    0.37
   2   2   6   12.39    0.43
  -2   2  -6   11.52    0.39
   3  -2   6    1.17    0.15
  -3  -2  -6    1.00    0.14
  -3  -2  -6    1.05    0.13
  -3   2  -6    0.98    0.13
  -3   2  -6    1.24    0.14
   3   2   6    1.08    0.15
  -4  -2  -6    4.51    0.26
   4  -2   6    4.35    0.28
  -4  -2  -6    4.85    0.29
  -4   2  -6    4.17    0.24
   6  -3  -6    2.76    0.24
   6   3  -6    2.91    0.25
  -6   3   6    2.90    0.21
   5  -3  -6    9.15    0.40
  -5  -3   6    9.57    0.38
   5   3  -6    9.50    0.42
  -5   3   6    9.54    0.36
   5   3  -6    9.81    0.41
   5   3  -6    9.08    0.42
   4  -3  -6   11.05    0.40
  -4  -3   6   10.48    0.38
  -4   3   6   10.29    0.36
   4   3  -6   10.86    0.44
   4   3  -6   10.16    0.42
   4   3  -6   10.66    0.42
   3  -3  -6    1.38    0.12
  -3  -3   6    1.27    0.14
  -3  -3   6    1.48    0.12
   3  -3  -6    1.22    0.10
   3   3  -6    1.50    0.15
  -3   3   6    1.41    0.11
   3   3  -6    1.39    0.09
  -2  -3   6   18.69    0.52
   2  -3  -6   18.20    0.59
   2  -3  -6   19.40    0.50
   2  -3  -6   18.92    0.55
  -2  -3   6   18.29    0.57
  -2   3   6   19.05    0.50
   2   3  -6   18.38    0.51
   2   3  -6   19.73    0.58
  -2   3   6   19.16    0.53
   1  -3  -6    2.23    0.11
  -1  -3   6    2.13    0.12
   1  -3  -6    1.93    0.12
   1  -3  -6    2.01    0.11
   1  -3  -6    2.00    0.13
   1   3  -6    2.18    0.12
   1   3  -6    2.10    0.14
  -1   3   6    2.15    0.11
   0  -3   6   61.13    1.39
   0  -3  -6   56.89    1.66
   0  -3  -6   57.67    1.46
   0  -3  -6   57.07    1.46
   0   3   6   59.14    1.38
   0   3  -6   59.43    1.48
   0   3  -6   59.76    1.47
  -1  -3  -6    5.11    0.26
  -1  -3  -6    5.14    0.23
   1  -3   6    5.44    0.21
  -1  -3  -6    5.24    0.23
  -1  -3  -6    5.74    0.25
   1   3   6    4.81    0.20
  -1   3  -6    4.90    0.22
  -1   3  -6    5.18    0.23
  -2  -3  -6    6.04    0.27
  -2  -3  -6    5.53    0.29
  -2  -3  -6    6.00    0.27
   2   3   6    6.10    0.29
   2   3   6    5.86    0.24
  -2   3  -6    5.63    0.26
  -3  -3  -6    0.02    0.05
   3  -3   6    0.02    0.06
  -3  -3  -6    0.04    0.07
  -3   3  -6    0.17    0.07
  -3   3  -6    0.03    0.06
  -4  -3  -6    2.13    0.18
  -4  -3  -6    2.14    0.21
   4  -3   6    2.25    0.20
  -4   3  -6    1.92    0.17
   5  -4  -6    1.24    0.15
   5   4  -6    1.30    0.17
  -5   4   6    1.51    0.15
   4  -4  -6    8.88    0.36
  -4  -4   6    9.20    0.35
   4   4  -6    9.52    0.40
  -4   4   6    8.88    0.32
   4   4  -6    9.23    0.39
   4   4  -6    8.88    0.40
  -3  -4   6   14.52    0.49
   3  -4  -6   14.14    0.45
   3  -4  -6   14.04    0.46
  -3  -4   6   13.65    0.44
   3   4  -6   14.29    0.41
  -3   4   6   14.30    0.41
   3   4  -6   13.81    0.49
   3   4  -6   14.65    0.50
   2  -4  -6   61.31    1.70
  -2  -4   6   61.93    1.46
   2  -4  -6   60.84    1.52
   2  -4  -6   62.96    1.49
  -2  -4   6   60.80    1.56
   2   4  -6   61.06    1.56
  -2   4   6   59.36    1.43
   2   4  -6   61.38    1.51
  -2   4   6   61.71    1.49
  -1  -4   6   50.96    1.20
   1  -4  -6   49.14    1.43
   1  -4  -6   49.92    1.26
   1  -4  -6   49.85    1.25
  -1   4   6   50.92    1.18
   1   4  -6   51.08    1.29
   1   4  -6   49.61    1.26
   0  -4  -6   14.41    0.44
   0  -4   6   13.87    0.44
   0  -4   6   14.02    0.39
   0  -4  -6   13.95    0.43
   0  -4  -6   13.67    0.43
   0  -4  -6   12.92    0.49
   0   4   6   13.34    0.39
   0   4  -6   13.73    0.44
   0   4  -6   13.80    0.43
  -1  -4  -6    2.21    0.15
  -1  -4  -6    1.73    0.13
  -1  -4  -6    2.41    0.17
  -1  -4  -6    2.19    0.15
  -1   4  -6    2.41    0.15
   1   4   6    2.38    0.13
  -1   4  -6    2.43    0.15
  -2  -4  -6   18.84    0.59
  -2  -4  -6   19.30    0.59
  -2  -4  -6   18.24    0.66
   2   4   6   19.35    0.54
  -2   4  -6   18.23    0.57
  -3  -4  -6    6.76    0.32
  -3  -4  -6    7.03    0.31
  -3  -4  -6    6.90    0.35
   3  -4   6    6.56    0.32
  -3   4  -6    6.68    0.30
   3   4   6    6.61    0.28
   4  -4   6   17.85    0.64
  -4  -4  -6   18.57    0.70
  -4  -4  -6   18.48    0.63
  -4   4  -6   17.71    0.60
   5  -5  -6   10.03    0.40
  -5   5   6    9.72    0.37
   5   5  -6    9.98    0.44
   4  -5  -6    0.83    0.11
   4   5  -6    0.84    0.14
   4   5  -6    0.78    0.12
  -4   5   6    0.81    0.10
   3  -5  -6    7.42    0.29
  -3  -5   6    7.40    0.33
   3  -5  -6    7.42    0.29
  -3  -5   6    7.69    0.29
   3   5  -6    7.94    0.27
   3   5  -6    7.93    0.34
   3   5  -6    8.08    0.34
  -3   5   6    7.71    0.26
  -2  -5   6  106.77    2.63
  -2  -5   6  108.34    2.48
   2  -5  -6  107.34    2.92
   2  -5  -6  110.98    2.57
   2  -5  -6  107.13    2.58
   2   5  -6  106.93    2.59
  -2   5   6  105.66    2.44
   2   5  -6  109.83    2.64
  -1  -5   6    1.97    0.12
   1  -5  -6    1.82    0.14
   1  -5  -6    1.92    0.12
   1  -5  -6    1.70    0.11
   1   5  -6    2.06    0.13
  -1   5   6    1.83    0.10
   1   5  -6    1.80    0.13
   0  -5   6    8.63    0.27
   0  -5   6    8.33    0.30
   0  -5  -6    7.63    0.29
   0  -5  -6    8.36    0.25
   0  -5  -6    7.79    0.29
   0  -5  -6    7.67    0.34
   0   5   6    7.66    0.26
   0   5  -6    8.12    0.30
   0   5  -6    7.84    0.29
  -1  -5  -6    3.43    0.19
  -1  -5  -6    3.67    0.18
  -1  -5  -6    3.26    0.18
  -1  -5  -6    3.34    0.21
   1   5   6    3.03    0.16
  -1   5  -6    3.42    0.19
  -2  -5  -6    1.40    0.17
  -2  -5  -6    1.40    0.15
  -2  -5  -6    1.53    0.14
   2   5   6    1.69    0.13
  -2   5  -6    1.53    0.13
  -3  -5  -6    3.74    0.23
  -3  -5  -6    3.69    0.25
   3  -5   6    3.59    0.23
  -3  -5  -6    4.06    0.24
  -3   5  -6    3.37    0.21
   3   5   6    3.55    0.20
  -4  -5  -6    2.46    0.21
   4  -5   6    2.52    0.21
  -4   5  -6    2.55    0.20
   5  -6  -6    2.60    0.19
  -5   6   6    2.88    0.18
   4  -6  -6    5.33    0.25
  -4   6   6    5.11    0.22
   4   6  -6    4.76    0.29
   3  -6  -6   42.65    1.18
  -3  -6   6   39.99    1.13
   3  -6  -6   39.90    1.06
   3   6  -6   40.76    1.06
   3   6  -6   42.32    1.14
  -3   6   6   39.51    0.99
   2  -6  -6   43.57    1.13
   2  -6  -6   45.02    1.30
  -2  -6   6   43.97    1.19
   2  -6  -6   46.07    1.13
   2   6  -6   45.11    1.15
   2   6  -6   43.97    1.19
  -2   6   6   44.62    1.06
   1  -6  -6   24.86    0.80
   1  -6  -6   25.27    0.70
   1  -6  -6   24.99    0.69
   1   6  -6   25.60    0.72
   1   6  -6   25.51    0.71
  -1   6   6   26.06    0.64
   0  -6  -6    3.79    0.23
   0  -6  -6    4.20    0.20
   0  -6  -6    4.16    0.19
   0   6   6    4.24    0.17
   0   6  -6    4.49    0.21
   0   6   6    4.42    0.21
  -1  -6  -6    8.54    0.33
  -1  -6  -6    8.14    0.32
  -1  -6  -6    8.46    0.38
   1   6   6    8.71    0.35
  -1   6  -6    8.29    0.32
   1   6   6    8.62    0.29
  -2  -6  -6    0.62    0.12
  -2  -6  -6    0.82    0.12
  -2  -6  -6    0.61    0.10
   2   6   6    0.79    0.12
  -2   6  -6    0.82    0.11
   2   6   6    0.99    0.11
  -3  -6  -6    5.22    0.28
  -3  -6  -6    5.02    0.31
  -3  -6  -6    4.91    0.27
   3  -6   6    4.87    0.26
   3   6   6    4.83    0.30
  -3   6  -6    4.54    0.25
   3   6   6    5.05    0.25
   4  -6   6   19.08    0.66
  -4  -6  -6   18.41    0.66
  -4   6  -6   18.78    0.62
   5  -7  -6    6.66    0.31
  -5   7   6    6.91    0.29
   4  -7  -6    0.09    0.06
  -4   7   6    0.11    0.05
   4   7  -6   -0.07    0.07
   3  -7  -6    3.50    0.20
  -3  -7   6    3.30    0.22
   3  -7  -6    3.32    0.17
  -3   7   6    3.51    0.15
   3   7  -6    3.58    0.19
   2  -7  -6   49.58    1.45
   2  -7  -6   49.53    1.25
   2  -7  -6   52.00    1.27
  -2  -7   6   51.78    1.34
  -2   7   6   48.61    1.17
   2   7  -6   48.51    1.28
   1  -7  -6   13.18    0.50
   1  -7  -6   13.83    0.43
  -1  -7   6   13.47    0.46
   1  -7  -6   12.90    0.40
  -1   7   6   12.51    0.36
   1   7  -6   13.07    0.43
   0  -7  -6   35.73    1.12
   0  -7  -6   35.03    0.94
   0  -7  -6   36.18    0.98
   0   7  -6   35.78    0.97
   0   7   6   37.04    0.88
  -1  -7  -6   25.32    0.87
  -1  -7  -6   25.40    0.74
  -1  -7  -6   25.40    0.76
  -1   7  -6   26.35    0.75
   1   7   6   26.16    0.68
  -2  -7  -6    1.52    0.16
  -2  -7  -6    1.27    0.17
  -2  -7  -6    1.37    0.15
   2   7   6    1.64    0.13
  -2   7  -6    1.29    0.14
  -3  -7  -6    1.88    0.19
  -3  -7  -6    1.94    0.22
  -3  -7  -6    1.52    0.18
   3  -7   6    1.91    0.17
  -3   7  -6    1.97    0.17
   3   7   6    2.07    0.16
  -4  -7  -6   15.09    0.60
   4  -7   6   16.16    0.58
  -4   7  -6   16.16    0.56
   5  -8  -6    2.14    0.17
  -5   8   6    2.05    0.15
   4  -8  -6    4.97    0.23
  -4   8   6    4.81    0.21
   4   8  -6    4.86    0.31
  -3  -8   6    8.07    0.36
   3  -8  -6    8.44    0.30
  -3   8   6    8.21    0.27
   3   8  -6    8.55    0.33
   2  -8  -6   38.75    1.18
   2  -8  -6   40.02    1.03
   2  -8  -6   37.92    0.99
  -2  -8   6   37.98    1.08
  -2   8   6   39.09    0.93
   2   8  -6   38.86    1.05
  -1  -8   6    9.44    0.37
   1  -8  -6    9.61    0.42
   1  -8  -6    9.71    0.36
   1  -8  -6    9.59    0.32
  -1   8   6    9.94    0.29
   1   8  -6   10.37    0.37
   0  -8  -6   21.08    0.60
   0  -8  -6   21.37    0.64
   0  -8  -6   20.64    0.73
   0   8  -6   20.53    0.63
   0   8   6   20.52    0.55
  -1  -8  -6    4.07    0.27
  -1  -8  -6    4.59    0.22
  -1  -8  -6    4.07    0.23
   1   8   6    4.13    0.19
  -1   8  -6    4.62    0.23
  -2  -8  -6    1.05    0.16
  -2  -8  -6    1.17    0.14
  -2  -8  -6    1.27    0.15
   2   8   6    0.94    0.11
  -2   8  -6    0.58    0.11
  -3  -8  -6   14.70    0.55
  -3  -8  -6   14.86    0.54
   3  -8   6   13.86    0.50
  -3   8  -6   15.02    0.52
   3   8   6   13.58    0.48
  -5   9   6    5.38    0.25
   4  -9  -6    3.34    0.19
  -4   9   6    3.43    0.17
   3  -9  -6   17.13    0.51
  -3  -9   6   17.48    0.61
  -3   9   6   17.62    0.47
   3   9  -6   18.03    0.57
   2  -9  -6    1.61    0.11
  -2  -9   6    1.47    0.16
   2  -9  -6    1.78    0.14
   2  -9  -6    1.59    0.16
  -2   9   6    1.57    0.10
   2   9  -6    1.78    0.15
   1  -9  -6    4.55    0.23
   1  -9  -6    4.27    0.27
  -1  -9   6    4.61    0.24
   1  -9  -6    4.53    0.19
   1   9  -6    4.37    0.23
  -1   9   6    4.53    0.17
   0  -9  -6   11.99    0.50
   0  -9  -6   11.43    0.37
   0  -9  -6   11.35    0.42
   0   9   6   10.54    0.34
   0   9  -6   11.09    0.41
  -1  -9  -6    2.13    0.18
  -1  -9  -6    2.14    0.21
  -1  -9  -6    2.24    0.16
   1   9   6    2.01    0.13
  -1   9  -6    1.86    0.16
  -2  -9  -6    2.44    0.22
  -2  -9  -6    2.34    0.18
  -2  -9  -6    2.37    0.19
  -2   9  -6    2.17    0.17
   2   9   6    2.49    0.16
   3  -9   6    0.73    0.12
  -3  -9  -6    0.60    0.13
  -3  -9  -6    0.81    0.15
  -3   9  -6    0.62    0.13
   3   9   6    0.82    0.13
  -4 -10   6    4.65    0.30
   4 -10  -6    4.63    0.22
  -4  10   6    4.55    0.20
   3 -10  -6    6.82    0.25
  -3 -10   6    6.36    0.33
  -3  10   6    6.70    0.23
   3  10  -6    7.23    0.31
  -2 -10   6    1.92    0.17
   2 -10  -6    1.96    0.15
   2 -10  -6    1.68    0.11
   2 -10  -6    1.76    0.17
   2  10  -6    1.67    0.15
  -2  10   6    1.86    0.10
   1 -10  -6   15.55    0.61
   1 -10  -6   15.42    0.52
   1 -10  -6   15.01    0.45
  -1 -10   6   14.95    0.52
  -1  10   6   14.80    0.41
   1  10  -6   15.26    0.52
   0 -10  -6   29.73    0.87
   0 -10  -6   28.66    0.79
   0 -10  -6   29.45    1.00
   0  10  -6   29.39    0.86
   0  10   6   28.34    0.74
  -1 -10  -6    4.82    0.24
  -1 -10  -6    4.94    0.32
  -1 -10  -6    5.04    0.28
   1  10   6    4.95    0.22
  -1  10  -6    4.97    0.26
   2 -10   6    1.08    0.12
  -2 -10  -6    1.25    0.17
  -2 -10  -6    1.44    0.16
   2  10   6    1.04    0.12
  -2  10  -6    1.25    0.16
  -3 -10  -6    0.74    0.15
   3 -10   6    0.81    0.12
  -3 -10  -6    0.71    0.14
  -3  10  -6    0.76    0.14
   3  10   6    0.77    0.12
   4 -11  -6    5.34    0.23
  -4 -11   6    5.12    0.32
  -4  11   6    5.07    0.21
   3 -11  -6   10.08    0.33
  -3 -11   6    9.97    0.44
   3  11  -6   10.23    0.41
  -3  11   6   10.36    0.30
   2 -11  -6    6.42    0.23
  -2 -11   6    6.20    0.31
   2 -11  -6    6.30    0.34
   2 -11  -6    6.18    0.29
  -2  11   6    5.75    0.20
   2  11  -6    6.27    0.30
   1 -11  -6    5.11    0.21
   1 -11  -6    5.25    0.27
  -1 -11   6    5.01    0.26
   1 -11  -6    5.14    0.32
   1  11  -6    5.01    0.27
  -1  11   6    4.90    0.18
   0 -11  -6   16.11    0.66
   0 -11  -6   16.52    0.50
   0 -11  -6   16.32    0.57
   0  11   6   15.66    0.46
   0  11  -6   16.48    0.56
  -1 -11  -6    8.80    0.40
  -1 -11  -6    8.85    0.35
   1  11   6    9.22    0.32
  -1  11  -6    9.14    0.38
  -2 -11  -6    1.31    0.16
   2 -11   6    1.59    0.14
  -2 -11  -6    1.28    0.18
   2  11   6    1.20    0.13
  -2  11  -6    1.32    0.16
  -3 -12   6    1.20    0.17
   3 -12  -6    1.22    0.10
   3  12  -6    1.22    0.16
  -3  12   6    1.03    0.08
  -2 -12   6    3.79    0.25
   2 -12  -6    4.00    0.24
   2 -12  -6    4.02    0.17
   2 -12  -6    4.32    0.29
   2  12  -6    4.43    0.26
  -2  12   6    4.02    0.16
  -1 -12   6    5.44    0.28
   1 -12  -6    5.39    0.22
   1 -12  -6    5.76    0.30
   1 -12  -6    5.76    0.35
  -1  12   6    5.63    0.20
   1  12  -6    5.66    0.29
   0 -12   6    0.07    0.08
   0 -12  -6    0.13    0.06
   0 -12  -6    0.03    0.07
   0  12  -6   -0.01    0.07
   0  12   6    0.05    0.05
  -1 -12  -6    0.25    0.11
  -1 -12  -6    0.22    0.08
  -1  12  -6    0.27    0.09
   1  12   6    0.16    0.06
  -2 -12  -6    3.85    0.27
  -2 -12  -6    3.33    0.23
   2 -12   6    3.63    0.20
   2  12   6    3.55    0.21
  -2  12  -6    3.70    0.25
  -3 -13   6    3.36    0.26
   3 -13  -6    4.01    0.17
   3  13  -6    4.04    0.26
  -3  13   6    3.92    0.16
   2 -13  -6    7.62    0.26
  -2 -13   6    7.98    0.37
   2 -13  -6    8.16    0.43
   2  13  -6    7.85    0.37
  -2  13   6    7.76    0.25
   1 -13  -6    2.65    0.15
  -1 -13   6    2.65    0.20
   1 -13  -6    2.69    0.21
  -1  13   6    2.56    0.13
   1  13  -6    2.45    0.20
   0 -13  -6   20.17    0.71
   0 -13  -6   20.26    0.60
   0 -13   6   20.50    0.66
   0  13   6   20.09    0.56
   0  13  -6   20.65    0.69
  -1 -13  -6    1.63    0.20
  -1 -13  -6    1.53    0.16
   1  13   6    1.33    0.13
  -1  13  -6    1.63    0.19
  -2 -14   6   -0.02    0.08
   2 -14  -6    0.01    0.05
  -2  14   6    0.03    0.04
   2  14  -6   -0.05    0.08
  -1 -14   6    4.53    0.27
   1 -14  -6    4.62    0.20
   1 -14  -6    4.93    0.30
  -1  14   6    4.79    0.19
   1  14  -6    4.82    0.29
   0 -14   6    0.78    0.13
   0 -14  -6    0.67    0.14
   0 -14  -6    0.70    0.11
   0  14  -6    0.75    0.14
   0  14   6    0.68    0.09
  -1 -14  -6   12.41    0.55
   1  14   6   13.16    0.43
  -1  14  -6   14.00    0.54
  -6   0   7    0.58    0.12
  -5   0   7    8.45    0.35
   5   0  -7    7.77    0.31
   5   0  -7    8.12    0.38
   4   0  -7    1.11    0.11
  -4   0   7    0.79    0.11
   4   0  -7    0.94    0.13
  -3   0   7    3.35    0.18
   3   0  -7    3.49    0.13
   3   0  -7    3.23    0.20
   3   0  -7    3.44    0.19
  -2   0   7   26.53    0.71
  -2   0   7   27.68    0.76
   2   0  -7   27.17    0.77
   2   0  -7   27.47    0.70
  -1   0   7    9.30    0.30
   1   0  -7    9.11    0.30
   1   0  -7    8.87    0.33
   0   0   7    0.03    0.04
   0   0  -7    0.07    0.05
   0   0  -7    0.04    0.05
  -1   0  -7    6.58    0.30
  -1   0  -7    5.77    0.25
  -1   0  -7    5.74    0.26
   1   0   7    5.92    0.24
  -1   0  -7    6.16    0.29
  -2   0  -7   21.54    0.65
  -2   0  -7   21.50    0.73
   3   0   7   13.89    0.53
  -3   0  -7   13.58    0.53
  -3   0  -7   12.95    0.48
   4   0   7    3.10    0.25
  -4   0  -7    2.82    0.21
   5  -1  -7    6.11    0.32
   5  -1  -7    5.96    0.21
  -5  -1   7    5.70    0.28
   5   1  -7    6.17    0.33
  -5   1   7    5.91    0.28
   4  -1  -7    3.53    0.16
  -4  -1   7    3.52    0.20
   4  -1  -7    3.65    0.22
   4   1  -7    3.14    0.19
   4   1  -7    3.24    0.22
  -4   1   7    3.30    0.19
  -3  -1   7   31.10    0.84
   3  -1  -7   32.43    0.93
   3  -1  -7   31.67    0.95
   3  -1  -7   32.04    0.90
   3   1  -7   31.92    0.91
  -3   1   7   31.20    0.83
   3   1  -7   33.07    0.80
   2  -1  -7   11.74    0.34
  -2  -1   7   11.70    0.40
  -2  -1   7   11.24    0.36
   2  -1  -7   11.30    0.41
   2  -1  -7   11.24    0.39
  -2   1   7   11.39    0.36
   2   1  -7   11.21    0.40
  -2   1   7   11.19    0.38
   2   1  -7   11.57    0.34
   1  -1  -7    3.28    0.15
   1  -1  -7    3.13    0.18
   1  -1  -7    3.46    0.18
  -1  -1   7    3.38    0.16
   1   1  -7    2.95    0.15
   1   1  -7    3.54    0.19
  -1   1   7    3.29    0.16
   0  -1  -7   31.23    0.97
   0  -1  -7   31.91    0.97
   0  -1  -7   31.07    0.87
   0  -1   7   31.88    0.80
   0  -1  -7   32.06    0.85
   0   1   7   31.26    0.80
   0   1  -7   31.03    0.85
   0   1  -7   32.33    0.88
  -1  -1  -7    0.63    0.10
  -1  -1  -7    0.42    0.08
  -1  -1  -7    0.26    0.08
   1  -1   7    0.45    0.08
   1   1   7    0.44    0.07
  -1   1  -7    0.34    0.08
  -1   1  -7    0.53    0.09
  -2  -1  -7   10.87    0.40
  -2  -1  -7    9.55    0.37
  -2  -1  -7    9.17    0.41
   2   1   7   10.74    0.35
  -2   1  -7    9.93    0.37
  -2   1  -7   10.15    0.42
  -3  -1  -7    6.53    0.31
  -3  -1  -7    6.33    0.34
   3  -1   7    7.08    0.35
  -3   1  -7    6.38    0.33
  -3   1  -7    6.39    0.30
   3   1   7    6.98    0.35
   4  -1   7    1.21    0.18
  -4  -1  -7    1.49    0.17
  -4   1  -7    1.32    0.16
   5  -2  -7    8.77    0.39
  -5  -2   7    8.22    0.35
   5   2  -7    7.92    0.39
   5   2  -7    8.49    0.39
  -5   2   7    7.85    0.34
  -4  -2   7    3.58    0.20
   4  -2  -7    3.52    0.22
  -4   2   7    3.27    0.19
   4   2  -7    3.63    0.22
   4   2  -7    3.60    0.23
  -3  -2   7    5.80    0.25
   3  -2  -7    5.73    0.27
   3  -2  -7    6.14    0.25
   3  -2  -7    5.83    0.21
   3   2  -7    5.87    0.28
  -3   2   7    5.72    0.23
   3   2  -7    5.80    0.20
   2  -2  -7   15.16    0.42
  -2  -2   7   14.98    0.49
  -2  -2   7   15.18    0.45
   2  -2  -7   14.35    0.50
   2  -2  -7   15.66    0.49
   2  -2  -7   14.97    0.48
   2   2  -7   15.74    0.51
   2   2  -7   15.64    0.44
  -2   2   7   15.60    0.44
   1  -2  -7   11.40    0.35
  -1  -2   7   11.36    0.35
   1  -2  -7   10.52    0.41
   1  -2  -7   10.71    0.37
  -1   2   7   11.33    0.34
   1   2  -7   11.12    0.39
   1   2  -7   10.85    0.35
   0  -2  -7   23.42    0.77
   0  -2  -7   25.36    0.76
   0  -2  -7   23.21    0.69
   0  -2   7   24.29    0.64
   0  -2  -7   24.39    0.68
   0   2   7   24.29    0.64
   0   2  -7   23.82    0.70
   0   2  -7   24.07    0.68
   1  -2   7   24.04    0.64
  -1  -2  -7   22.78    0.69
  -1  -2  -7   23.23    0.70
  -1  -2  -7   23.68    0.78
  -1   2  -7   23.55    0.69
  -1   2  -7   24.69    0.70
   1   2   7   24.16    0.64
  -2  -2  -7    3.95    0.23
  -2  -2  -7    4.15    0.25
  -2  -2  -7    4.02    0.22
   2   2   7    3.67    0.20
  -2   2  -7    3.73    0.23
  -2   2  -7    3.47    0.20
  -3  -2  -7    4.14    0.26
   3  -2   7    4.41    0.27
  -3  -2  -7    4.26    0.24
  -3   2  -7    4.01    0.23
  -3   2  -7    4.46    0.26
  -4  -2  -7    1.99    0.19
   4  -2   7    1.83    0.22
  -4   2  -7    2.17    0.18
   5  -3  -7    0.39    0.10
   5   3  -7    0.27    0.10
  -5   3   7    0.11    0.07
  -4  -3   7    0.70    0.11
   4  -3  -7    0.95    0.13
   4   3  -7    1.00    0.15
  -4   3   7    0.64    0.10
   4   3  -7    0.81    0.12
  -3  -3   7   56.50    1.44
   3  -3  -7   54.33    1.41
  -3  -3   7   54.41    1.34
   3  -3  -7   53.63    1.52
   3   3  -7   56.21    1.34
  -3   3   7   52.19    1.32
   3   3  -7   54.40    1.44
   2  -3  -7    6.78    0.22
   2  -3  -7    6.45    0.27
  -2  -3   7    6.56    0.25
   2  -3  -7    6.39    0.22
   2  -3  -7    6.28    0.27
   2  -3  -7    6.43    0.22
  -2  -3   7    6.54    0.29
  -2   3   7    6.82    0.24
   2   3  -7    6.71    0.24
   2   3  -7    6.74    0.29
  -1  -3   7   11.53    0.36
   1  -3  -7   11.34    0.42
   1  -3  -7   11.35    0.35
   1  -3  -7   11.74    0.39
   1  -3  -7   11.71    0.38
  -1   3   7   10.32    0.34
   1   3  -7   11.11    0.36
   1   3  -7   10.65    0.39
   0  -3   7   13.75    0.41
   0  -3  -7   13.51    0.44
   0  -3  -7   12.81    0.49
   0  -3  -7   13.46    0.43
   0   3  -7   13.76    0.45
   0   3  -7   13.70    0.44
   0   3   7   14.18    0.41
  -1  -3  -7   47.52    1.28
  -1  -3  -7   49.80    1.29
  -1  -3  -7   48.60    1.46
  -1   3  -7   48.61    1.28
   1   3   7   50.97    1.21
  -2  -3  -7    0.27    0.09
  -2  -3  -7    0.34    0.09
  -2  -3  -7    0.35    0.08
  -2   3  -7    0.55    0.09
   2   3   7    0.47    0.09
  -3  -3  -7    4.70    0.29
  -3  -3  -7    5.11    0.27
   3  -3   7    4.72    0.27
  -3   3  -7    4.78    0.25
  -3   3  -7    4.71    0.27
   4  -3   7    3.11    0.25
  -4  -3  -7    3.23    0.23
  -4   3  -7    3.28    0.22
   5  -4  -7    8.75    0.39
   5   4  -7    9.80    0.44
  -5   4   7    9.10    0.36
   4  -4  -7   12.90    0.46
  -4   4   7   12.68    0.42
   4   4  -7   12.94    0.50
   4   4  -7   13.33    0.52
  -3  -4   7    4.53    0.22
  -3  -4   7    5.34    0.27
   3  -4  -7    4.74    0.23
   3  -4  -7    4.70    0.22
   3   4  -7    4.86    0.20
  -3   4   7    4.73    0.20
   3   4  -7    5.00    0.26
   2  -4  -7   76.01    1.91
   2  -4  -7   78.32    1.87
   2  -4  -7   74.94    2.14
  -2  -4   7   77.48    1.83
  -2  -4   7   77.85    1.95
  -2   4   7   79.31    1.81
   2   4  -7   78.03    1.95
   2   4  -7   78.10    1.89
   1  -4  -7   22.48    0.74
   1  -4  -7   24.08    0.66
   1  -4  -7   22.39    0.66
  -1  -4   7   24.03    0.62
   1  -4  -7   22.79    0.64
  -1   4   7   22.08    0.60
   1   4  -7   23.86    0.68
   1   4  -7   22.75    0.65
   0  -4  -7   13.34    0.51
   0  -4  -7   14.62    0.46
   0  -4  -7   13.24    0.45
   0  -4   7   14.78    0.42
   0  -4  -7   13.58    0.44
   0   4  -7   13.34    0.44
   0   4  -7   13.93    0.46
   0   4   7   13.89    0.41
  -1  -4  -7   18.54    0.60
  -1  -4  -7   19.47    0.69
  -1  -4  -7   19.57    0.60
   1   4   7   20.11    0.55
  -1   4  -7   19.90    0.60
  -2  -4  -7    2.21    0.17
  -2  -4  -7    2.44    0.18
  -2  -4  -7    2.47    0.20
   2   4   7    2.42    0.16
  -2   4  -7    1.96    0.16
  -3  -4  -7    2.41    0.21
  -3  -4  -7    2.36    0.19
   3  -4   7    2.12    0.19
  -3   4  -7    2.79    0.21
  -3   4  -7    2.66    0.19
  -4  -4  -7    2.20    0.20
   4  -4   7    2.06    0.22
  -4   4  -7    2.21    0.19
   5  -5  -7   11.02    0.44
  -5   5   7   10.97    0.40
   4  -5  -7    0.14    0.07
   4   5  -7    0.14    0.08
   4   5  -7    0.12    0.08
  -4   5   7    0.16    0.06
   3  -5  -7    5.21    0.24
   3  -5  -7    5.03    0.24
  -3  -5   7    5.39    0.27
  -3   5   7    4.82    0.21
   3   5  -7    5.07    0.21
  -2  -5   7   53.06    1.28
   2  -5  -7   52.30    1.30
   2  -5  -7   52.45    1.50
  -2  -5   7   53.50    1.39
   2  -5  -7   52.22    1.33
  -2   5   7   50.40    1.25
   2   5  -7   50.79    1.32
   2   5  -7   53.51    1.38
   1  -5  -7   29.10    0.82
   1  -5  -7   30.64    0.95
   1  -5  -7   30.84    0.83
  -1  -5   7   31.68    0.79
  -1   5   7   30.03    0.77
   1   5  -7   30.88    0.86
   1   5  -7   30.39    0.83
   0  -5  -7   14.94    0.47
   0  -5  -7   14.32    0.54
   0  -5  -7   14.28    0.47
   0  -5  -7   15.55    0.46
   0   5   7   14.87    0.43
   0   5  -7   14.62    0.47
  -1  -5  -7    0.52    0.10
  -1  -5  -7    0.55    0.10
  -1  -5  -7    0.29    0.09
  -1   5  -7    0.36    0.09
   1   5   7    0.57    0.08
  -2  -5  -7    8.62    0.41
  -2  -5  -7    8.63    0.36
  -2  -5  -7    8.85    0.36
   2   5   7    8.10    0.31
  -2   5  -7    7.81    0.33
  -3  -5  -7    6.05    0.34
   3  -5   7    5.27    0.30
  -3  -5  -7    5.88    0.30
  -3   5  -7    6.18    0.29
  -4  -5  -7    0.10    0.09
   4  -5   7    0.05    0.09
  -4   5  -7    0.15    0.09
   5  -6  -7    0.49    0.11
  -5   6   7    0.57    0.10
   4  -6  -7   11.45    0.42
   4   6  -7   11.20    0.49
  -4   6   7   11.34    0.38
   3  -6  -7    5.76    0.26
   3  -6  -7    6.35    0.28
  -3  -6   7    6.11    0.30
  -3   6   7    5.70    0.23
   3   6  -7    5.93    0.24
  -2  -6   7    6.13    0.29
   2  -6  -7    6.55    0.30
   2  -6  -7    6.52    0.26
   2  -6  -7    5.95    0.24
   2   6  -7    6.38    0.26
  -2   6   7    5.83    0.22
   1  -6  -7   13.75    0.44
   1  -6  -7   13.90    0.52
   1  -6  -7   13.78    0.44
   1   6  -7   13.91    0.45
  -1   6   7   13.87    0.40
   0  -6  -7    4.98    0.28
   0  -6  -7    4.94    0.23
   0  -6  -7    5.23    0.24
   0   6   7    5.48    0.21
   0   6  -7    5.32    0.24
  -1  -6  -7    5.55    0.26
  -1  -6  -7    5.32    0.30
  -1  -6  -7    5.70    0.27
  -1   6  -7    5.80    0.27
   1   6   7    6.14    0.24
  -2  -6  -7    3.55    0.25
  -2  -6  -7    3.23    0.22
  -2  -6  -7    3.35    0.21
   2   6   7    3.34    0.19
  -2   6  -7    3.27    0.21
   3  -6   7    2.03    0.19
  -3  -6  -7    2.35    0.21
  -3  -6  -7    2.47    0.20
  -3   6  -7    2.40    0.19
   3   6   7    2.22    0.17
   5  -7  -7    2.20    0.18
  -5   7   7    2.11    0.16
   4  -7  -7   11.74    0.42
  -4   7   7   12.16    0.39
   3  -7  -7    8.75    0.33
  -3  -7   7    8.87    0.39
   3   7  -7    9.08    0.33
  -3   7   7    9.10    0.30
  -2  -7   7   15.08    0.53
   2  -7  -7   15.20    0.47
   2  -7  -7   15.73    0.56
   2  -7  -7   15.49    0.48
   2   7  -7   14.95    0.49
  -2   7   7   15.59    0.44
   1  -7  -7   44.92    1.18
   1  -7  -7   44.61    1.15
   1  -7  -7   43.07    1.34
  -1  -7   7   45.46    1.22
  -1   7   7   45.84    1.08
   1   7  -7   43.53    1.17
   0  -7  -7   10.66    0.38
   0  -7  -7   11.39    0.47
   0  -7  -7   11.00    0.40
   0   7  -7   11.35    0.40
   0   7   7   11.33    0.35
  -1  -7  -7   12.24    0.52
  -1  -7  -7   11.97    0.43
  -1  -7  -7   12.24    0.45
  -1   7  -7   12.28    0.44
   1   7   7   12.17    0.39
  -2  -7  -7    4.08    0.24
  -2  -7  -7    3.80    0.27
  -2  -7  -7    3.92    0.25
  -2   7  -7    3.88    0.23
   2   7   7    4.05    0.21
  -3  -7  -7    1.80    0.20
  -3  -7  -7    1.66    0.19
   3  -7   7    1.28    0.16
   3   7   7    1.38    0.16
  -3   7  -7    1.45    0.17
  -5   8   7    9.28    0.35
   4  -8  -7    8.00    0.32
  -4   8   7    7.76    0.29
  -3  -8   7    3.27    0.23
   3  -8  -7    3.61    0.19
  -3   8   7    3.33    0.16
   3   8  -7    3.17    0.19
   2  -8  -7    6.43    0.26
   2  -8  -7    6.73    0.33
  -2  -8   7    6.92    0.32
   2  -8  -7    6.88    0.27
   2   8  -7    6.39    0.28
  -2   8   7    6.19    0.23
  -1  -8   7   35.78    1.00
   1  -8  -7   34.64    0.93
   1  -8  -7   34.68    1.11
   1  -8  -7   35.94    0.97
  -1   8   7   34.35    0.87
   1   8  -7   34.68    0.97
   0  -8  -7   10.52    0.40
   0  -8  -7   10.60    0.37
   0  -8  -7   10.41    0.46
   0   8   7    9.85    0.33
   0   8  -7   10.39    0.39
  -1  -8  -7    3.09    0.20
  -1  -8  -7    3.58    0.26
  -1  -8  -7    3.93    0.23
  -1   8  -7    3.44    0.22
   1   8   7    3.44    0.18
  -2  -8  -7    6.00    0.32
  -2  -8  -7    6.61    0.31
  -2   8  -7    6.16    0.30
   2   8   7    6.41    0.27
   3  -8   7    0.16    0.09
  -3  -8  -7    0.20    0.10
  -3  -8  -7    0.16    0.10
  -3   8  -7    0.35    0.11
   3   8   7    0.16    0.08
   4  -9  -7    1.28    0.14
  -4   9   7    1.59    0.12
   3  -9  -7    7.57    0.29
  -3  -9   7    7.96    0.37
  -3   9   7    7.03    0.26
   3   9  -7    7.34    0.32
  -2  -9   7    7.94    0.37
   2  -9  -7    9.72    0.35
   2  -9  -7    9.18    0.32
   2  -9  -7    8.89    0.41
   2   9  -7    8.41    0.35
  -2   9   7    9.10    0.29
   1  -9  -7   23.61    0.71
   1  -9  -7   23.14    0.67
  -1  -9   7   23.73    0.73
   1  -9  -7   23.68    0.83
   1   9  -7   24.29    0.72
  -1   9   7   23.36    0.62
   0  -9  -7   10.12    0.47
   0  -9  -7   10.83    0.38
   0  -9  -7   10.02    0.41
   0   9  -7   10.63    0.41
   0   9   7   10.77    0.34
  -1  -9  -7   10.52    0.43
  -1  -9  -7   10.58    0.49
  -1  -9  -7   10.71    0.40
  -1   9  -7   10.13    0.41
   1   9   7   10.01    0.35
  -2  -9  -7    0.66    0.13
  -2  -9  -7    0.62    0.12
  -2   9  -7    0.86    0.14
   2   9   7    0.80    0.11
   3  -9   7    0.46    0.11
  -3  -9  -7    0.60    0.14
  -3  -9  -7    0.80    0.15
   3   9   7    0.58    0.11
  -3   9  -7    0.68    0.14
   4 -10  -7    4.49    0.23
  -4  10   7    4.88    0.21
   3 -10  -7    8.33    0.30
  -3 -10   7    7.83    0.39
   3  10  -7    8.41    0.35
  -3  10   7    7.88    0.27
  -2 -10   7   12.84    0.50
   2 -10  -7   12.38    0.53
   2 -10  -7   12.64    0.41
   2 -10  -7   12.84    0.45
   2  10  -7   12.86    0.46
  -2  10   7   13.06    0.37
   1 -10  -7    4.26    0.28
  -1 -10   7    4.43    0.26
   1 -10  -7    4.52    0.24
   1 -10  -7    4.10    0.20
  -1  10   7    4.04    0.18
   1  10  -7    3.91    0.24
   0 -10  -7    6.69    0.38
   0 -10  -7    6.54    0.28
   0 -10  -7    6.75    0.32
   0  10   7    6.19    0.24
   0  10  -7    6.06    0.30
  -1 -10  -7    4.05    0.26
  -1 -10  -7    4.19    0.24
  -1  10  -7    4.07    0.25
   1  10   7    4.17    0.21
  -2 -10  -7    3.54    0.26
  -2 -10  -7    4.00    0.25
  -2  10  -7    4.04    0.25
   2  10   7    3.53    0.21
  -4  11   7    4.32    0.20
   3 -11  -7    2.75    0.16
  -3 -11   7    2.60    0.22
   3  11  -7    2.55    0.19
  -3  11   7    2.52    0.14
  -2 -11   7    1.99    0.21
   2 -11  -7    1.85    0.13
   2 -11  -7    2.00    0.22
   2  11  -7    1.81    0.17
  -2  11   7    1.67    0.11
   1 -11  -7    3.00    0.25
   1 -11  -7    3.31    0.22
   1 -11  -7    2.82    0.17
  -1 -11   7    2.72    0.21
  -1  11   7    3.08    0.15
   1  11  -7    3.04    0.21
   0 -11  -7    4.73    0.28
   0 -11  -7    4.91    0.24
   0  11  -7    4.70    0.27
   0  11   7    4.89    0.21
  -1 -11  -7   12.58    0.46
  -1 -11  -7   12.36    0.51
   1  11   7   12.64    0.42
  -1  11  -7   13.03    0.49
  -2 -11  -7    2.12    0.23
  -2 -11  -7    1.89    0.20
   2 -11   7    1.80    0.16
   2  11   7    2.14    0.17
  -2  11  -7    2.12    0.21
  -3 -12   7    0.86    0.16
   3 -12  -7    0.77    0.10
  -3  12   7    0.78    0.08
   3  12  -7    0.63    0.13
   2 -12  -7   10.52    0.35
  -2 -12   7   10.94    0.46
   2 -12  -7   10.89    0.51
   2  12  -7   10.34    0.43
  -2  12   7   10.82    0.33
   1 -12  -7    5.57    0.24
   1 -12  -7    6.08    0.31
  -1 -12   7    6.21    0.31
  -1  12   7    5.72    0.22
   1  12  -7    5.47    0.30
   0 -12  -7    0.94    0.12
   0 -12   7    1.00    0.14
   0 -12  -7    0.77    0.14
   0  12   7    0.92    0.10
   0  12  -7    0.91    0.15
  -1 -12  -7    9.80    0.45
  -1 -12  -7   10.08    0.40
   1  12   7    9.95    0.36
  -1  12  -7    9.39    0.42
  -2 -13   7    0.27    0.11
   2 -13  -7    0.25    0.07
   2  13  -7    0.30    0.11
  -2  13   7    0.26    0.06
   1 -13  -7    3.37    0.18
   1 -13  -7    3.26    0.24
  -1 -13   7    3.40    0.24
   1  13  -7    3.24    0.24
  -1  13   7    3.38    0.17
   0 -13  -7    4.15    0.28
   0 -13  -7    4.79    0.24
   0 -13   7    4.59    0.27
   0  13   7    4.14    0.20
   0  13  -7    4.18    0.27
  -1 -13  -7    5.94    0.35
   1  13   7    5.29    0.25
  -1  13  -7    4.99    0.30
  -1 -14   7    5.00    0.29
   1 -14  -7    4.62    0.29
   1  14  -7    4.19    0.28
  -1  14   7    4.39    0.20
   5   0  -8   23.61    0.80
  -5   0   8   24.65    0.74
   4   0  -8   12.18    0.43
   4   0  -8   11.61    0.46
  -4   0   8   11.36    0.41
   3   0  -8   11.03    0.41
   3   0  -8   10.83    0.42
  -3   0   8   10.67    0.37
   3   0  -8   10.37    0.39
   2   0  -8   35.98    0.93
  -2   0   8   36.07    0.93
   2   0  -8   36.89    1.01
   1   0  -8    0.99    0.10
   1   0  -8    1.03    0.12
  -1   0   8    1.05    0.11
   0   0  -8    0.20    0.07
   0   0  -8    0.20    0.07
   0   0  -8    0.30    0.07
   0   0   8    0.14    0.06
  -1   0  -8    2.67    0.20
  -1   0  -8    2.52    0.17
  -1   0  -8    2.93    0.19
   1   0   8    2.64    0.16
  -2   0  -8    2.53    0.21
  -2   0  -8    1.91    0.16
  -3   0  -8   -0.04    0.07
   3   0   8   -0.03    0.07
  -3   0  -8    0.00    0.06
   5  -1  -8    0.92    0.15
  -5  -1   8    0.80    0.13
  -5   1   8    0.76    0.12
   5   1  -8    1.29    0.18
  -4  -1   8    3.93    0.22
   4  -1  -8    3.33    0.17
   4  -1  -8    3.61    0.23
  -4   1   8    3.66    0.21
   4   1  -8    4.18    0.26
   4   1  -8    4.01    0.22
  -3  -1   8    3.16    0.18
   3  -1  -8    3.16    0.20
   3  -1  -8    3.06    0.18
   3  -1  -8    3.23    0.17
  -3   1   8    2.51    0.16
   3   1  -8    2.70    0.20
   3   1  -8    2.71    0.13
   2  -1  -8    6.67    0.30
   2  -1  -8    7.40    0.25
  -2  -1   8    7.32    0.28
   2  -1  -8    7.07    0.30
   2   1  -8    6.68    0.30
   2   1  -8    7.03    0.25
  -2   1   8    6.88    0.27
   1  -1  -8   21.60    0.73
  -1  -1   8   22.45    0.62
   1  -1  -8   22.89    0.63
   1  -1  -8   22.36    0.67
  -1   1   8   22.41    0.62
   1   1  -8   23.23    0.64
   1   1  -8   22.91    0.68
   0  -1  -8    2.77    0.18
   0  -1  -8    2.54    0.16
   0  -1  -8    2.30    0.18
   0  -1   8    2.75    0.16
   0   1  -8    2.55    0.16
   0   1  -8    3.26    0.20
   0   1   8    2.64    0.15
   1  -1   8    0.27    0.07
  -1  -1  -8    0.26    0.09
  -1  -1  -8    0.30    0.08
  -1  -1  -8    0.37    0.09
  -1   1  -8    0.27    0.08
  -1   1  -8    0.25    0.08
  -1   1  -8    0.20    0.08
   1   1   8    0.23    0.07
  -2  -1  -8   11.80    0.49
  -2  -1  -8   11.55    0.43
  -2   1  -8   10.91    0.42
  -2   1  -8   11.56    0.48
   3  -1   8    0.64    0.14
  -3  -1  -8    0.55    0.11
  -3   1  -8    0.87    0.13
  -3   1  -8    0.63    0.13
   5  -2  -8    0.24    0.10
  -5  -2   8    0.34    0.10
  -5   2   8    0.23    0.08
   5   2  -8    0.18    0.10
  -4  -2   8    0.31    0.08
   4  -2  -8    0.20    0.08
  -4   2   8    0.40    0.09
   4   2  -8    0.47    0.10
   4   2  -8    0.47    0.11
   3  -2  -8    5.98    0.28
   3  -2  -8    5.75    0.22
   3  -2  -8    5.97    0.26
  -3  -2   8    5.95    0.26
   3   2  -8    5.84    0.21
   3   2  -8    5.56    0.29
  -3   2   8    5.27    0.24
  -2  -2   8   38.11    1.05
  -2  -2   8   38.82    0.97
   2  -2  -8   38.04    1.04
   2  -2  -8   37.91    0.97
   2  -2  -8   36.50    1.12
  -2   2   8   36.89    0.96
   2   2  -8   39.32    1.06
   2   2  -8   38.00    0.98
  -1  -2   8   10.82    0.35
   1  -2  -8   10.33    0.35
   1  -2  -8   10.40    0.38
   1  -2  -8   10.40    0.42
   1   2  -8   11.22    0.40
  -1   2   8   10.10    0.34
   1   2  -8   10.60    0.36
   0  -2  -8    5.98    0.30
   0  -2   8    6.46    0.25
   0  -2  -8    5.98    0.28
   0  -2  -8    6.71    0.27
   0   2  -8    6.70    0.29
   0   2   8    6.13    0.25
   0   2  -8    6.39    0.27
  -1  -2  -8   31.72    0.91
  -1  -2  -8   32.00    1.03
  -1  -2  -8   32.54    0.91
   1   2   8   32.95    0.85
  -1   2  -8   30.59    0.89
  -2  -2  -8    3.26    0.21
  -2  -2  -8    3.37    0.24
  -2   2  -8    3.23    0.22
  -2   2  -8    3.45    0.21
   3  -2   8    2.92    0.24
  -3  -2  -8    2.87    0.21
  -3   2  -8    3.21    0.21
  -3   2  -8    2.77    0.22
   5  -3  -8    1.93    0.20
  -5   3   8    1.93    0.17
   4  -3  -8   30.20    0.91
  -4  -3   8   31.09    0.86
  -4   3   8   29.96    0.84
   4   3  -8   31.37    1.01
   4   3  -8   31.40    0.95
   3  -3  -8    0.24    0.07
  -3  -3   8    0.29    0.08
   3  -3  -8    0.17    0.06
  -3   3   8    0.09    0.05
   3   3  -8    0.14    0.07
   3   3  -8    0.12    0.05
   2  -3  -8    0.00    0.03
  -2  -3   8    0.02    0.07
   2  -3  -8   -0.03    0.04
   2  -3  -8   -0.01    0.05
   2  -3  -8    0.00    0.03
   2  -3  -8   -0.02    0.06
  -2  -3   8    0.05    0.05
   2   3  -8    0.04    0.05
   2   3  -8    0.06    0.07
  -2   3   8    0.00    0.04
   1  -3  -8   92.14    2.59
   1  -3  -8   90.75    2.27
  -1  -3   8   92.73    2.17
   1  -3  -8   92.45    2.30
   1   3  -8   99.14    2.33
   1   3  -8   93.62    2.28
  -1   3   8   91.73    2.17
   0  -3  -8    2.96    0.19
   0  -3  -8    3.63    0.19
   0  -3  -8    3.35    0.22
   0   3   8    3.13    0.17
   0   3  -8    3.17    0.19
   0   3  -8    3.03    0.19
  -1  -3  -8   10.44    0.40
  -1  -3  -8   11.02    0.47
  -1  -3  -8   11.30    0.42
  -1   3  -8   11.17    0.41
   1   3   8   11.15    0.37
  -2  -3  -8    5.13    0.28
  -2  -3  -8    4.47    0.25
  -2  -3  -8    5.07    0.30
  -2   3  -8    4.60    0.25
   2   3   8    5.36    0.25
  -3  -3  -8    3.65    0.24
   3  -3   8    3.45    0.25
  -3   3  -8    3.72    0.23
   5  -4  -8   23.39    0.76
  -5   4   8   22.98    0.70
   4  -4  -8    1.29    0.15
  -4   4   8    1.46    0.14
   4   4  -8    1.16    0.16
   3  -4  -8    0.94    0.12
   3  -4  -8    1.04    0.12
  -3  -4   8    0.85    0.11
   3   4  -8    1.07    0.15
  -3   4   8    0.95    0.11
   3   4  -8    1.06    0.11
  -2  -4   8    8.07    0.30
   2  -4  -8    7.87    0.34
   2  -4  -8    8.11    0.32
  -2  -4   8    8.40    0.35
   2  -4  -8    7.71    0.27
   2   4  -8    7.46    0.29
  -2   4   8    7.38    0.28
   2   4  -8    7.50    0.33
   1  -4  -8   16.56    0.49
   1  -4  -8   15.81    0.49
   1  -4  -8   15.82    0.58
   1  -4  -8   15.57    0.52
  -1   4   8   16.12    0.47
   1   4  -8   16.15    0.50
   1   4  -8   16.21    0.54
   0  -4  -8    5.86    0.27
   0  -4  -8    5.69    0.30
   0  -4  -8    5.98    0.26
   0   4   8    5.76    0.24
   0   4  -8    5.34    0.25
  -1  -4  -8    8.76    0.41
  -1  -4  -8    9.45    0.36
  -1  -4  -8    9.49    0.37
  -1   4  -8    8.09    0.34
   1   4   8    8.71    0.32
  -2  -4  -8    5.02    0.27
  -2  -4  -8    5.32    0.29
  -2  -4  -8    5.58    0.32
  -2   4  -8    5.53    0.28
   2   4   8    5.56    0.26
  -3  -4  -8    2.48    0.20
   3  -4   8    2.25    0.21
  -3   4  -8    2.35    0.18
   5  -5  -8    3.43    0.24
  -5   5   8    3.17    0.21
   4  -5  -8    1.41    0.16
  -4   5   8    1.44    0.13
   3  -5  -8   10.73    0.40
   3  -5  -8   10.50    0.39
   3   5  -8   10.24    0.35
  -3   5   8    9.99    0.35
   2  -5  -8   18.93    0.54
   2  -5  -8   17.77    0.57
   2  -5  -8   18.06    0.63
  -2  -5   8   18.96    0.62
  -2   5   8   18.06    0.52
   2   5  -8   18.10    0.55
   1  -5  -8   50.60    1.53
   1  -5  -8   52.04    1.35
   1  -5  -8   52.36    1.33
   1   5  -8   52.51    1.34
  -1   5   8   51.70    1.26
   0  -5  -8    5.34    0.25
   0  -5  -8    5.16    0.25
   0  -5  -8    5.08    0.29
   0   5   8    5.15    0.22
   0   5  -8    5.28    0.25
  -1  -5  -8    1.84    0.18
  -1  -5  -8    1.58    0.14
  -1  -5  -8    2.21    0.17
  -1   5  -8    1.52    0.16
   1   5   8    1.71    0.14
  -2  -5  -8    7.12    0.38
  -2  -5  -8    6.95    0.33
  -2  -5  -8    6.82    0.33
   2   5   8    7.86    0.31
  -2   5  -8    7.35    0.33
   3  -5   8    0.62    0.13
  -3  -5  -8    0.47    0.12
  -3   5  -8    0.65    0.12
   5  -6  -8   33.97    0.99
  -5   6   8   32.70    0.92
   4  -6  -8    1.05    0.14
  -4   6   8    0.94    0.12
   3  -6  -8    5.32    0.25
  -3   6   8    4.89    0.22
   3   6  -8    5.05    0.23
  -2  -6   8    7.69    0.35
   2  -6  -8    6.72    0.29
   2  -6  -8    7.67    0.29
   2  -6  -8    7.35    0.34
   2   6  -8    7.53    0.30
  -2   6   8    7.61    0.27
   1  -6  -8    8.28    0.38
   1  -6  -8    8.60    0.33
   1  -6  -8    8.11    0.32
  -1   6   8    8.69    0.30
   1   6  -8    8.77    0.33
   0  -6  -8   31.46    0.89
   0  -6  -8   31.41    0.89
   0  -6  -8   31.69    1.03
   0   6   8   31.50    0.82
   0   6  -8   30.98    0.89
  -1  -6  -8    4.91    0.31
  -1  -6  -8    5.13    0.26
  -1  -6  -8    4.78    0.26
   1   6   8    4.94    0.23
  -1   6  -8    5.20    0.27
  -2  -6  -8    0.76    0.13
  -2  -6  -8    0.88    0.14
  -2   6  -8    0.83    0.13
   2   6   8    0.79    0.12
   3  -6   8    5.22    0.30
  -3  -6  -8    5.22    0.31
  -3   6  -8    4.99    0.28
  -5   7   8    2.16    0.17
   4  -7  -8    5.26    0.27
  -4   7   8    5.41    0.24
  -3  -7   8   10.70    0.45
   3  -7  -8   10.58    0.39
   3   7  -8   10.88    0.38
  -3   7   8   10.36    0.35
   2  -7  -8    6.11    0.27
   2  -7  -8    6.53    0.32
   2  -7  -8    6.26    0.26
  -2  -7   8    6.56    0.32
   2   7  -8    6.09    0.27
  -2   7   8    6.05    0.24
   1  -7  -8   23.39    0.69
   1  -7  -8   22.96    0.68
   1  -7  -8   23.34    0.80
   1   7  -8   22.74    0.69
  -1   7   8   23.30    0.63
   0  -7  -8    8.74    0.42
   0  -7  -8    8.94    0.35
   0  -7  -8    9.15    0.37
   0   7  -8    8.56    0.35
   0   7   8    8.75    0.31
  -1  -7  -8    1.46    0.16
  -1  -7  -8    1.71    0.20
  -1  -7  -8    1.95    0.17
   1   7   8    1.82    0.14
  -1   7  -8    1.45    0.16
  -2  -7  -8    0.70    0.13
  -2  -7  -8    0.73    0.13
   2   7   8    0.82    0.12
  -2   7  -8    0.67    0.13
  -3  -7  -8    3.04    0.24
  -3   7  -8    3.04    0.23
   4  -8  -8    3.37    0.21
  -4   8   8    3.12    0.18
  -3  -8   8   10.09    0.44
   3  -8  -8   10.12    0.38
  -3   8   8   10.61    0.35
   3   8  -8   11.09    0.39
   2  -8  -8   19.35    0.58
  -2  -8   8   18.53    0.64
   2  -8  -8   18.87    0.68
   2  -8  -8   19.25    0.58
  -2   8   8   18.31    0.53
   2   8  -8   18.19    0.59
   1  -8  -8   10.30    0.45
  -1  -8   8    9.52    0.40
   1  -8  -8    9.47    0.37
   1  -8  -8    9.95    0.37
   1   8  -8    9.45    0.37
  -1   8   8    9.49    0.32
   0  -8  -8   16.94    0.58
   0  -8  -8   17.70    0.56
   0  -8  -8   16.69    0.67
   0   8  -8   16.88    0.57
   0   8   8   17.10    0.51
  -1  -8  -8   18.44    0.63
  -1  -8  -8   18.31    0.60
  -1   8  -8   17.86    0.61
   1   8   8   17.95    0.55
  -2  -8  -8    3.39    0.23
  -2  -8  -8    2.55    0.22
   2   8   8    3.02    0.20
  -2   8  -8    2.93    0.22
   4  -9  -8    6.09    0.28
  -4   9   8    5.97    0.25
  -3  -9   8    3.76    0.27
   3  -9  -8    4.16    0.22
   3   9  -8    4.14    0.23
  -3   9   8    3.78    0.18
   2  -9  -8   10.51    0.47
   2  -9  -8   10.47    0.37
  -2  -9   8   10.60    0.44
   2  -9  -8   11.25    0.40
  -2   9   8   10.01    0.34
   2   9  -8   10.48    0.40
   1  -9  -8    5.21    0.32
   1  -9  -8    5.42    0.27
   1  -9  -8    5.49    0.25
  -1  -9   8    5.56    0.30
   1   9  -8    5.48    0.27
  -1   9   8    5.53    0.23
   0  -9  -8   10.08    0.38
   0  -9  -8    9.70    0.48
   0  -9  -8    9.64    0.41
   0   9  -8    9.96    0.40
   0   9   8   10.01    0.34
  -1  -9  -8   11.94    0.44
  -1  -9  -8   11.20    0.47
   1   9   8   11.52    0.40
  -1   9  -8   10.82    0.44
  -2  -9  -8    6.60    0.34
  -2  -9  -8    7.29    0.37
  -2   9  -8    7.03    0.35
   2   9   8    6.58    0.30
  -4  10   8    4.92    0.22
   3 -10  -8    5.65    0.26
  -3 -10   8    6.11    0.33
   3  10  -8    5.98    0.29
  -3  10   8    5.40    0.23
   2 -10  -8    4.64    0.30
   2 -10  -8    4.74    0.23
  -2 -10   8    4.65    0.29
   2  10  -8    4.31    0.25
  -2  10   8    4.65    0.20
  -1 -10   8    4.39    0.27
   1 -10  -8    4.49    0.23
   1 -10  -8    4.44    0.26
   1 -10  -8    4.55    0.31
   1  10  -8    4.43    0.25
  -1  10   8    4.55    0.20
   0 -10  -8   13.83    0.48
   0 -10  -8   13.23    0.51
   0  10  -8   13.16    0.50
   0  10   8   13.83    0.43
  -1 -10  -8    2.81    0.20
  -1 -10  -8    2.59    0.21
   1  10   8    2.87    0.18
  -1  10  -8    2.41    0.20
  -2 -10  -8    2.60    0.22
  -2 -10  -8    2.08    0.23
   2  10   8    2.33    0.18
  -2  10  -8    2.12    0.20
  -3 -11   8    9.10    0.43
   3 -11  -8    8.58    0.33
   3  11  -8    7.96    0.36
  -3  11   8    8.57    0.30
   2 -11  -8    6.99    0.38
  -2 -11   8    7.09    0.36
   2 -11  -8    6.37    0.27
   2  11  -8    6.39    0.32
  -2  11   8    6.52    0.25
   1 -11  -8    1.77    0.15
  -1 -11   8    2.04    0.21
   1 -11  -8    1.95    0.18
   1  11  -8    1.64    0.18
  -1  11   8    1.92    0.13
   0 -11  -8    4.48    0.24
   0 -11  -8    4.20    0.27
   0  11   8    4.29    0.21
   0  11  -8    3.96    0.25
  -1 -11  -8    0.56    0.12
  -1 -11  -8    0.46    0.13
   1  11   8    0.61    0.10
  -1  11  -8    0.36    0.12
  -2 -12   8    5.75    0.33
   2 -12  -8    5.99    0.25
  -2  12   8    5.59    0.23
   2  12  -8    5.17    0.30
   1 -12  -8    1.29    0.17
   1 -12  -8    1.16    0.13
  -1 -12   8    1.02    0.16
   1  12  -8    1.03    0.15
  -1  12   8    0.99    0.11
   0 -12  -8    7.17    0.32
   0 -12  -8    6.90    0.36
   0 -12   8    7.51    0.36
   0  12  -8    6.59    0.34
   0  12   8    7.00    0.28
   1 -13  -8   12.98    0.53
  -1 -13   8   14.14    0.54
   1  13  -8   12.64    0.52
  -1  13   8   13.07    0.41
  -5   0   9    3.72    0.24
   5   0  -9    3.72    0.27
   4   0  -9    0.02    0.08
  -4   0   9    0.08    0.07
   4   0  -9    0.01    0.06
   3   0  -9    0.89    0.12
  -3   0   9    0.92    0.12
   3   0  -9    0.92    0.14
   2   0  -9    5.55    0.28
   2   0  -9    5.91    0.29
  -2   0   9    5.74    0.25
   2   0  -9    5.71    0.23
  -1   0   9    0.51    0.09
   1   0  -9    0.57    0.11
   1   0  -9    0.46    0.10
   0   0  -9   18.57    0.58
   0   0   9   19.21    0.56
   0   0  -9   18.31    0.67
   0   0  -9   19.36    0.63
  -1   0  -9    0.07    0.07
  -1   0  -9    0.02    0.07
  -2   0  -9    0.07    0.07
  -3   0  -9    5.09    0.29
  -5  -1   9   17.80    0.61
   5  -1  -9   17.99    0.66
  -5   1   9   18.28    0.60
   5   1  -9   18.51    0.68
   4  -1  -9   13.72    0.46
   4  -1  -9   13.78    0.53
  -4  -1   9   13.56    0.48
  -4   1   9   14.05    0.48
   4   1  -9   14.06    0.52
   4   1  -9   13.66    0.53
   3  -1  -9    4.99    0.27
  -3  -1   9    4.59    0.23
   3  -1  -9    4.93    0.23
   3  -1  -9    4.76    0.24
   3   1  -9    4.69    0.27
  -3   1   9    4.47    0.23
   2  -1  -9   10.22    0.43
   2  -1  -9   10.90    0.36
   2  -1  -9   10.69    0.42
  -2  -1   9   10.95    0.38
   2   1  -9   11.09    0.36
  -2   1   9   11.43    0.38
   2   1  -9   11.83    0.44
   1  -1  -9   25.36    0.84
   1  -1  -9   25.32    0.72
  -1  -1   9   25.69    0.71
   1  -1  -9   26.43    0.78
   1   1  -9   25.13    0.78
   1   1  -9   26.20    0.73
  -1   1   9   25.49    0.71
   0  -1  -9    6.45    0.28
   0  -1  -9    6.34    0.31
   0  -1   9    6.99    0.28
   0  -1  -9    6.48    0.33
   0   1  -9    6.52    0.28
   0   1   9    6.40    0.27
   0   1  -9    6.91    0.32
  -1  -1  -9    6.66    0.31
  -1  -1  -9    6.35    0.29
  -1  -1  -9    6.23    0.33
  -1   1  -9    6.50    0.33
   1   1   9    5.97    0.27
  -1   1  -9    5.90    0.28
  -2  -1  -9    1.98    0.18
  -2   1  -9    2.15    0.17
   3  -1   9    0.69    0.15
  -3  -1  -9    0.73    0.14
  -3   1  -9    0.65    0.13
   5  -2  -9    2.97    0.24
  -5   2   9    3.00    0.21
   4  -2  -9    9.66    0.42
  -4  -2   9    9.51    0.38
  -4   2   9    9.48    0.37
   4   2  -9   10.07    0.44
  -3  -2   9    8.08    0.33
   3  -2  -9    8.38    0.30
   3  -2  -9    8.65    0.35
   3  -2  -9    7.96    0.36
   3   2  -9    8.80    0.39
  -3   2   9    8.56    0.32
   2  -2  -9    0.78    0.12
  -2  -2   9    0.65    0.10
   2  -2  -9    0.49    0.10
   2  -2  -9    0.57    0.08
   2   2  -9    0.42    0.10
   2   2  -9    0.71    0.10
  -2   2   9    0.72    0.10
  -1  -2   9    1.35    0.13
   1  -2  -9    1.20    0.14
   1  -2  -9    1.46    0.15
   1  -2  -9    1.27    0.13
  -1   2   9    1.44    0.13
   1   2  -9    1.25    0.15
   1   2  -9    1.52    0.13
   0  -2  -9   64.22    1.64
   0  -2  -9   60.53    1.85
   0  -2  -9   65.23    1.66
   0   2   9   65.03    1.55
   0   2  -9   63.31    1.63
  -1  -2  -9    0.20    0.08
  -1  -2  -9    0.08    0.08
  -1  -2  -9    0.13    0.08
  -1   2  -9    0.17    0.08
   1   2   9    0.26    0.08
  -1   2  -9    0.09    0.07
  -2  -2  -9    1.84    0.17
  -2   2  -9    1.91    0.17
   3  -2   9    5.49    0.33
  -3  -2  -9    4.84    0.29
  -3   2  -9    4.92    0.28
   5  -3  -9    2.90    0.23
  -5   3   9    2.83    0.21
   4  -3  -9    2.85    0.21
  -4   3   9    2.92    0.19
   3  -3  -9    0.38    0.10
   3  -3  -9    0.46    0.09
  -3  -3   9    0.33    0.08
  -3   3   9    0.38    0.08
   3   3  -9    0.46    0.11
   2  -3  -9   14.95    0.56
  -2  -3   9   15.70    0.49
   2  -3  -9   15.61    0.47
   2  -3  -9   15.33    0.53
   2   3  -9   15.74    0.55
   2   3  -9   15.53    0.48
  -2   3   9   14.79    0.47
   1  -3  -9    6.85    0.33
   1  -3  -9    6.25    0.27
   1  -3  -9    6.69    0.30
  -1   3   9    6.36    0.26
   1   3  -9    6.48    0.28
   0  -3  -9   11.17    0.43
   0  -3  -9   11.59    0.41
   0  -3  -9   10.96    0.48
   0   3   9   11.16    0.38
   0   3  -9   11.30    0.41
  -1  -3  -9    5.09    0.26
  -1  -3  -9    5.05    0.30
  -1  -3  -9    4.77    0.27
   1   3   9    5.04    0.24
  -1   3  -9    4.51    0.25
  -2  -3  -9   10.22    0.42
  -2   3  -9    9.93    0.41
   3  -3   9    1.59    0.20
  -3  -3  -9    1.54    0.19
  -3   3  -9    1.68    0.18
   5  -4  -9    0.18    0.10
  -5   4   9    0.09    0.08
   4  -4  -9    3.83    0.24
  -4   4   9    3.79    0.21
   3  -4  -9   17.56    0.59
   3  -4  -9   17.54    0.61
   3   4  -9   18.13    0.53
  -3   4   9   17.75    0.54
   2  -4  -9    4.97    0.25
   2  -4  -9    4.45    0.20
   2  -4  -9    4.17    0.24
  -2   4   9    4.00    0.20
   2   4  -9    4.13    0.21
   1  -4  -9   26.51    0.80
   1  -4  -9   26.79    0.77
   1  -4  -9   27.02    0.90
  -1   4   9   27.03    0.74
   1   4  -9   27.54    0.78
   0  -4  -9   33.18    0.96
   0  -4  -9   33.88    1.11
   0  -4  -9   34.19    0.98
   0   4   9   35.82    0.91
   0   4  -9   35.38    0.97
  -1  -4  -9    1.14    0.14
  -1  -4  -9    1.09    0.16
  -1  -4  -9    1.35    0.16
   1   4   9    1.18    0.14
  -1   4  -9    1.15    0.14
  -2  -4  -9    7.62    0.36
  -2   4  -9    7.42    0.34
   3  -4   9    3.49    0.27
  -3  -4  -9    2.98    0.23
  -3   4  -9    3.47    0.24
   5  -5  -9   27.50    0.89
  -5   5   9   28.76    0.82
   4  -5  -9   21.13    0.69
  -4   5   9   20.92    0.63
   3  -5  -9    0.53    0.10
  -3   5   9    0.45    0.08
   3   5  -9    0.38    0.08
   2  -5  -9    5.80    0.28
   2  -5  -9    5.58    0.24
   2  -5  -9    5.34    0.29
  -2  -5   9    6.28    0.31
  -2   5   9    4.79    0.23
   2   5  -9    5.48    0.25
   1  -5  -9    4.11    0.22
   1  -5  -9    4.51    0.24
   1  -5  -9    4.31    0.26
   1   5  -9    4.54    0.23
  -1   5   9    4.54    0.21
   0  -5  -9    0.59    0.13
   0  -5  -9    0.72    0.12
   0  -5  -9    0.77    0.12
   0   5  -9    0.77    0.12
   0   5   9    0.74    0.10
  -1  -5  -9    7.67    0.34
  -1  -5  -9    7.66    0.35
   1   5   9    7.89    0.31
  -1   5  -9    7.16    0.33
  -2  -5  -9    6.18    0.33
  -2  -5  -9    5.79    0.31
  -2   5  -9    5.73    0.30
   2   5   9    5.84    0.28
   4  -6  -9    7.98    0.36
  -4   6   9    8.23    0.33
   3  -6  -9    9.73    0.39
   3   6  -9    9.50    0.35
  -3   6   9    9.81    0.35
   2  -6  -9    6.26    0.26
  -2  -6   9    6.33    0.32
   2  -6  -9    6.59    0.33
   2  -6  -9    6.47    0.29
  -2   6   9    5.88    0.25
   2   6  -9    6.54    0.28
   1  -6  -9    4.82    0.24
   1  -6  -9    4.93    0.25
   1  -6  -9    5.03    0.29
  -1   6   9    4.53    0.22
   1   6  -9    4.27    0.23
   0  -6  -9    3.42    0.25
   0  -6  -9    3.36    0.21
   0  -6  -9    3.50    0.22
   0   6   9    3.43    0.19
   0   6  -9    3.74    0.22
  -1  -6  -9    3.35    0.22
  -1  -6  -9    3.57    0.23
  -1   6  -9    3.53    0.23
   1   6   9    3.77    0.21
  -2  -6  -9    1.95    0.21
  -2  -6  -9    1.97    0.21
   2   6   9    2.09    0.17
  -2   6  -9    2.26    0.20
   4  -7  -9   16.51    0.57
  -4   7   9   16.02    0.51
   3  -7  -9    0.66    0.11
  -3   7   9    0.62    0.09
   3   7  -9    0.54    0.10
  -2  -7   9   13.70    0.52
   2  -7  -9   13.28    0.47
   2  -7  -9   13.06    0.54
   2  -7  -9   13.48    0.45
   2   7  -9   13.15    0.46
  -2   7   9   13.05    0.42
   1  -7  -9    6.44    0.29
   1  -7  -9    6.77    0.31
   1  -7  -9    6.24    0.35
  -1   7   9    7.14    0.28
   1   7  -9    7.12    0.31
   0  -7  -9   11.92    0.53
   0  -7  -9   11.73    0.44
   0  -7  -9   11.58    0.45
   0   7  -9   11.32    0.44
   0   7   9   12.16    0.40
  -1  -7  -9   15.10    0.55
  -1  -7  -9   15.51    0.55
   1   7   9   14.55    0.49
  -1   7  -9   14.69    0.54
  -2  -7  -9    7.69    0.39
  -2  -7  -9    7.84    0.38
  -2   7  -9    7.73    0.37
   2   7   9    8.59    0.35
   4  -8  -9   15.85    0.56
  -4   8   9   16.67    0.52
   3  -8  -9    1.12    0.14
  -3   8   9    0.76    0.10
   3   8  -9    0.67    0.12
  -2  -8   9    3.28    0.25
   2  -8  -9    3.06    0.24
   2  -8  -9    3.25    0.20
   2   8  -9    3.30    0.21
  -2   8   9    3.42    0.18
   1  -8  -9    2.03    0.17
   1  -8  -9    2.20    0.17
   1  -8  -9    2.30    0.21
  -1  -8   9    2.26    0.23
   1   8  -9    1.92    0.16
  -1   8   9    2.09    0.15
   0  -8  -9   18.68    0.63
   0  -8  -9   17.88    0.61
   0   8   9   19.26    0.56
   0   8  -9   18.38    0.62
  -1  -8  -9    2.10    0.21
  -1  -8  -9    1.73    0.19
   1   8   9    2.25    0.16
  -1   8  -9    1.44    0.18
  -2  -8  -9    6.18    0.33
  -2  -8  -9    6.21    0.35
  -2   8  -9    5.41    0.31
   2   8   9    5.96    0.29
   3  -9  -9    4.43    0.24
   3   9  -9    3.98    0.23
  -3   9   9    4.26    0.21
  -2  -9   9    2.16    0.22
   2  -9  -9    1.89    0.22
   2  -9  -9    1.76    0.15
  -2   9   9    1.84    0.14
   2   9  -9    1.87    0.18
   1  -9  -9   14.94    0.53
   1  -9  -9   15.42    0.52
  -1  -9   9   14.67    0.57
  -1   9   9   15.27    0.47
   1   9  -9   15.05    0.54
   0  -9  -9    4.99    0.29
   0  -9  -9    5.42    0.28
   0   9  -9    5.17    0.29
   0   9   9    5.02    0.24
  -1  -9  -9   12.94    0.49
  -1  -9  -9   12.68    0.51
  -1   9  -9   12.32    0.49
   1   9   9   11.82    0.43
   3 -10  -9    1.75    0.16
  -3  10   9    1.74    0.13
   3  10  -9    1.88    0.17
  -2 -10   9    2.57    0.22
   2 -10  -9    2.32    0.17
  -2  10   9    2.43    0.15
   2  10  -9    2.82    0.20
   1 -10  -9    4.95    0.26
   1 -10  -9    5.20    0.29
  -1 -10   9    5.70    0.32
  -1  10   9    5.50    0.24
   1  10  -9    5.18    0.29
   0 -10  -9    6.01    0.32
   0 -10  -9    5.98    0.29
   0  10  -9    5.19    0.30
   0  10   9    5.38    0.25
  -1 -10  -9    3.49    0.24
  -1 -10  -9    3.23    0.25
   1  10   9    3.32    0.21
  -1  10  -9    3.42    0.24
   2 -11  -9    2.96    0.19
  -2 -11   9    3.10    0.26
  -2  11   9    2.59    0.16
   2  11  -9    2.39    0.20
  -1 -11   9   11.74    0.49
   1 -11  -9   10.78    0.41
   1 -11  -9   10.60    0.45
  -1  11   9   10.28    0.37
   1  11  -9   11.07    0.45
   0 -11  -9    0.78    0.15
   0 -11  -9    0.77    0.13
   0  11  -9    0.76    0.14
  -4   0  10   22.89    0.71
   4   0 -10   24.58    0.80
   3   0 -10   16.59    0.59
  -3   0  10   15.54    0.52
   3   0 -10   15.78    0.58
   2   0 -10    0.16    0.06
  -2   0  10    0.14    0.07
   2   0 -10    0.08    0.07
   2   0 -10    0.12    0.08
  -1   0  10   44.09    1.12
   1   0 -10   42.64    1.15
   1   0 -10   44.48    1.22
   1   0 -10   41.15    1.32
   0   0 -10    3.67    0.22
   0   0 -10    3.80    0.24
   0   0 -10    3.42    0.25
  -1   0 -10    0.35    0.10
  -2   0 -10    2.89    0.22
  -4  -1  10    3.57    0.22
   4  -1 -10    3.28    0.25
  -4   1  10    3.50    0.22
   4   1 -10    3.10    0.24
   3  -1 -10    4.33    0.25
   3  -1 -10    4.50    0.27
  -3  -1  10    4.33    0.23
   3  -1 -10    4.20    0.22
   3   1 -10    4.33    0.25
  -3   1  10    4.32    0.23
   3   1 -10    4.60    0.28
   2  -1 -10    4.71    0.27
   2  -1 -10    5.21    0.23
   2  -1 -10    5.34    0.29
  -2  -1  10    5.00    0.25
   2   1 -10    4.85    0.28
  -2   1  10    4.78    0.24
   2   1 -10    4.94    0.23
   1  -1 -10    4.16    0.26
   1  -1 -10    3.88    0.21
  -1  -1  10    4.55    0.23
   1  -1 -10    4.61    0.27
  -1   1  10    4.51    0.23
   1   1 -10    4.30    0.22
   1   1 -10    4.78    0.27
   1   1 -10    4.27    0.26
   0  -1 -10    8.98    0.43
   0  -1 -10    9.17    0.37
   0  -1 -10    8.78    0.39
   0   1 -10    9.40    0.37
   0   1  10    9.92    0.36
  -1  -1 -10   29.69    0.89
  -1   1 -10   29.45    0.88
  -2  -1 -10    0.05    0.08
  -2   1 -10    0.02    0.08
   4  -2 -10   12.21    0.50
  -4   2  10   11.47    0.43
  -3  -2  10    6.14    0.28
   3  -2 -10    6.17    0.32
   3  -2 -10    5.92    0.24
   3  -2 -10    5.62    0.30
  -3   2  10    6.22    0.28
   3   2 -10    6.41    0.34
   2  -2 -10    3.58    0.18
   2  -2 -10    3.37    0.22
   2  -2 -10    3.67    0.23
   2   2 -10    3.25    0.18
  -2   2  10    3.08    0.19
   2   2 -10    3.66    0.24
   1  -2 -10    3.66    0.21
   1  -2 -10    3.76    0.24
   1  -2 -10    3.79    0.25
   1   2 -10    3.76    0.21
  -1   2  10    3.51    0.20
   0  -2 -10    8.55    0.38
   0  -2 -10    8.18    0.41
   0  -2 -10    7.92    0.34
   0   2 -10    8.46    0.35
   0   2  10    8.85    0.34
  -1  -2 -10    4.35    0.26
  -1   2 -10    3.99    0.24
  -2  -2 -10   10.97    0.45
  -2   2 -10   10.73    0.44
   4  -3 -10    1.52    0.19
  -4   3  10    1.20    0.14
   3  -3 -10    4.91    0.28
  -3   3  10    5.64    0.26
   2  -3 -10    7.44    0.36
   2  -3 -10    7.68    0.30
   2  -3 -10    7.75    0.35
  -2   3  10    7.85    0.31
   2   3 -10    7.89    0.31
   1  -3 -10    6.02    0.33
   1  -3 -10    6.29    0.31
   1  -3 -10    6.51    0.28
  -1   3  10    6.14    0.27
   1   3 -10    6.11    0.28
   0  -3 -10   15.66    0.56
   0  -3 -10   15.42    0.62
   0  -3 -10   15.69    0.53
   0   3 -10   15.20    0.53
   0   3  10   15.67    0.50
  -1  -3 -10   17.60    0.61
  -1  -3 -10   18.09    0.63
   1   3  10   17.88    0.56
  -1   3 -10   16.83    0.59
  -2  -3 -10    0.84    0.15
  -2   3 -10    0.86    0.14
   4  -4 -10   25.30    0.82
  -4   4  10   25.96    0.76
   3  -4 -10    7.17    0.34
  -3   4  10    6.48    0.29
   2  -4 -10    1.89    0.17
   2  -4 -10    1.78    0.17
   2  -4 -10    1.90    0.14
   2   4 -10    1.65    0.15
  -2   4  10    1.47    0.14
   1  -4 -10   11.47    0.50
   1  -4 -10   11.96    0.45
   1  -4 -10   11.65    0.42
   1   4 -10   11.36    0.42
  -1   4  10   11.04    0.40
   0  -4 -10    0.33    0.09
   0  -4 -10    0.19    0.09
   0   4  10    0.19    0.08
   0   4 -10    0.31    0.10
  -1  -4 -10    0.64    0.13
  -1  -4 -10    0.53    0.12
  -1   4 -10    0.54    0.11
   1   4  10    0.71    0.12
  -2  -4 -10    6.04    0.32
  -2   4 -10    5.57    0.30
   4  -5 -10    4.50    0.28
  -4   5  10    4.18    0.24
   3  -5 -10    9.70    0.41
  -3   5  10    9.40    0.36
   2  -5 -10    3.43    0.24
   2  -5 -10    3.53    0.23
   2   5 -10    3.88    0.22
  -2   5  10    3.39    0.20
   1  -5 -10    2.82    0.23
   1  -5 -10    2.94    0.21
   1  -5 -10    2.69    0.18
  -1   5  10    2.57    0.17
   1   5 -10    2.56    0.19
   0  -5 -10    0.93    0.14
   0  -5 -10    0.95    0.13
   0   5 -10    0.81    0.13
   0   5  10    0.90    0.12
  -1  -5 -10    7.14    0.34
  -1  -5 -10    7.02    0.35
  -1   5 -10    6.54    0.33
   1   5  10    7.21    0.31
  -2  -5 -10    0.09    0.09
  -2   5 -10    0.08    0.08
   4  -6 -10   27.05    0.83
  -4   6  10   24.74    0.75
   3  -6 -10   12.52    0.47
  -3   6  10   11.28    0.41
   2  -6 -10    5.21    0.27
   2  -6 -10    4.76    0.30
  -2   6  10    4.80    0.24
   2   6 -10    4.71    0.25
   1  -6 -10    8.72    0.35
   1  -6 -10    8.58    0.37
   1  -6 -10    8.58    0.42
   1   6 -10    8.12    0.35
  -1   6  10    7.88    0.32
   0  -6 -10    5.01    0.28
   0  -6 -10    4.98    0.27
   0   6 -10    4.97    0.27
   0   6  10    4.66    0.24
  -1  -6 -10    0.77    0.13
  -1  -6 -10    0.74    0.13
  -1   6 -10    0.72    0.13
   1   6  10    0.72    0.12
   3  -7 -10   12.10    0.46
  -3   7  10   11.63    0.41
   2  -7 -10    5.43    0.32
   2  -7 -10    5.13    0.27
  -2   7  10    5.22    0.25
   2   7 -10    5.36    0.27
   1  -7 -10    1.25    0.15
   1  -7 -10    1.19    0.15
   1   7 -10    1.02    0.15
  -1   7  10    1.36    0.14
   0  -7 -10    6.03    0.31
   0  -7 -10    5.86    0.31
   0   7  10    5.63    0.27
   0   7 -10    5.72    0.30
  -1  -7 -10    1.91    0.21
  -1  -7 -10    1.70    0.20
   1   7  10    2.07    0.17
  -1   7 -10    1.75    0.19
   3  -8 -10   20.86    0.68
  -3   8  10   21.03    0.62
   2  -8 -10    9.06    0.38
  -2   8  10    9.60    0.35
   2   8 -10    8.80    0.38
   1  -8 -10    5.55    0.28
   1  -8 -10    5.11    0.28
  -1  -8  10    5.07    0.31
  -1   8  10    5.66    0.26
   1   8 -10    4.88    0.28
   0  -8 -10    4.53    0.27
   0  -8 -10    4.62    0.27
   0   8  10    4.55    0.24
   0   8 -10    4.61    0.27
  -1  -8 -10    2.15    0.22
  -1  -8 -10    2.03    0.22
   1   8  10    1.96    0.18
  -1   8 -10    1.91    0.21
  -3   9  10    3.13    0.19
   2  -9 -10    1.56    0.17
   2   9 -10    1.07    0.15
  -2   9  10    1.14    0.13
   1  -9 -10    2.09    0.19
  -1  -9  10    2.25    0.25
   1  -9 -10    2.23    0.19
   1   9 -10    2.08    0.19
  -1   9  10    2.18    0.16
   0  -9 -10    5.14    0.29
   0  -9 -10    5.40    0.31
   0   9 -10    4.98    0.30
   0   9  10    4.96    0.26
  -2  10  10    6.45    0.28
   2  10 -10    5.74    0.31
   1 -10 -10    6.12    0.30
  -1 -10  10    6.83    0.37
   1 -10 -10    6.24    0.33
   1  10 -10    5.28    0.31
  -1  10  10    6.02    0.28
   4   0 -11    9.27    0.45
  -4   0  11    9.84    0.41
  -3   0  11    1.87    0.18
   3   0 -11    1.66    0.20
  -2   0  11    3.19    0.20
   2   0 -11    3.30    0.24
   2   0 -11    2.96    0.18
   2   0 -11    3.03    0.23
   1   0 -11    3.78    0.22
   0   0 -11    0.06    0.07
  -1   0 -11    4.14    0.26
   4  -1 -11    0.96    0.17
  -4   1  11    0.73    0.13
   3  -1 -11   13.75    0.55
  -3   1  11   14.01    0.49
   3   1 -11   13.54    0.54
   2  -1 -11    3.93    0.21
   2  -1 -11    4.38    0.28
   2  -1 -11    4.02    0.26
  -2   1  11    3.85    0.23
   2   1 -11    4.23    0.27
   2   1 -11    4.16    0.22
   1  -1 -11    0.65    0.13
   1  -1 -11    0.80    0.12
  -1   1  11    0.70    0.12
   1   1 -11    0.80    0.12
   0  -1 -11   13.64    0.50
   0   1 -11   13.90    0.50
  -1  -1 -11   10.47    0.44
  -1   1 -11   10.78    0.44
   4  -2 -11    5.56    0.33
  -4   2  11    5.24    0.28
   3  -2 -11    0.53    0.13
  -3   2  11    0.69    0.12
   2  -2 -11    7.09    0.37
   2  -2 -11    7.85    0.37
   2   2 -11    7.42    0.31
  -2   2  11    7.64    0.32
   1  -2 -11    3.89    0.23
   1  -2 -11    4.07    0.26
  -1   2  11    4.13    0.23
   1   2 -11    4.69    0.24
   0  -2 -11    7.64    0.38
   0  -2 -11    7.48    0.35
   0   2 -11    8.15    0.35
  -1  -2 -11    6.51    0.34
  -1   2 -11    6.92    0.34
   4  -3 -11    0.06    0.09
  -4   3  11    0.01    0.07
   3  -3 -11   20.29    0.70
  -3   3  11   20.36    0.64
   2  -3 -11    9.35    0.41
   2  -3 -11    8.75    0.42
   2   3 -11    9.06    0.35
  -2   3  11    8.78    0.36
   1  -3 -11    4.09    0.23
   1  -3 -11    4.68    0.28
   1   3 -11    4.13    0.23
  -1   3  11    3.65    0.22
   0  -3 -11    5.73    0.29
   0  -3 -11    5.63    0.32
   0   3  11    5.26    0.27
   0   3 -11    5.55    0.29
  -1  -3 -11    2.44    0.21
  -1   3 -11    2.23    0.19
   4  -4 -11    1.35    0.19
  -4   4  11    1.19    0.15
   3  -4 -11   17.60    0.62
  -3   4  11   15.85    0.54
   2  -4 -11    5.59    0.31
   2  -4 -11    5.84    0.33
  -2   4  11    5.65    0.27
   2   4 -11    5.85    0.28
   1  -4 -11    2.66    0.21
   1  -4 -11    2.51    0.19
   1   4 -11    2.47    0.19
  -1   4  11    2.72    0.19
   0  -4 -11    1.29    0.16
   0  -4 -11    1.35    0.18
   0   4 -11    1.13    0.15
   0   4  11    1.31    0.15
  -1  -4 -11    2.03    0.21
  -1   4 -11    2.98    0.22
   3  -5 -11   12.38    0.50
  -3   5  11   12.42    0.45
   2  -5 -11    4.99    0.29
   2   5 -11    5.06    0.26
  -2   5  11    5.69    0.27
   1  -5 -11    4.01    0.26
   1  -5 -11    3.85    0.23
   1   5 -11    3.99    0.24
  -1   5  11    4.25    0.23
   0  -5 -11    7.24    0.35
   0  -5 -11    8.16    0.39
   0   5 -11    7.81    0.36
   0   5  11    7.85    0.33
  -1  -5 -11    3.74    0.25
  -1   5 -11    3.20    0.23
   3  -6 -11    3.72    0.26
  -3   6  11    3.49    0.22
   2  -6 -11   17.97    0.63
  -2   6  11   17.46    0.56
   2   6 -11   17.37    0.58
   1  -6 -11    2.55    0.21
   1  -6 -11    2.44    0.19
   1   6 -11    2.38    0.20
  -1   6  11    2.66    0.19
   0  -6 -11    1.68    0.20
   0  -6 -11    2.03    0.19
   0   6 -11    1.85    0.20
   0   6  11    1.96    0.17
   2  -7 -11   17.20    0.61
   2   7 -11   16.94    0.58
  -2   7  11   17.52    0.56
   1  -7 -11    1.21    0.16
   1  -7 -11    1.44    0.18
   1   7 -11    1.05    0.15
  -1   7  11    1.07    0.13
   0  -7 -11    4.45    0.28
   0  -7 -11    4.43    0.28
   0   7  11    4.73    0.25
   0   7 -11    4.45    0.28
   2  -8 -11    0.43    0.11
  -2   8  11    0.14    0.08
   2   8 -11    0.33    0.11
   1  -8 -11    5.09    0.29
   1  -8 -11    4.94    0.29
  -1   8  11    5.06    0.26
   1   8 -11    5.12    0.29
   1   0 -12    0.11    0.07
   0   0 -12    2.15    0.19
   3  -1 -12    5.96    0.35
  -3   1  12    6.14    0.31
   1  -1 -12    5.75    0.29
   1   1 -12    5.56    0.29
   0  -1 -12    1.99    0.18
   0   1 -12    1.81    0.19
   3  -2 -12    7.34    0.39
  -3   2  12    7.73    0.35
   2  -2 -12   29.90    0.94
  -2   2  12   28.48    0.85
   1  -2 -12    3.29    0.22
   1   2 -12    3.70    0.23
   0  -2 -12    5.22    0.29
   0   2 -12    5.05    0.28
   3  -3 -12    0.60    0.14
  -3   3  12    0.69    0.13
   2  -3 -12    2.54    0.23
   2   3 -12    2.54    0.19
  -2   3  12    2.20    0.19
   1  -3 -12    0.94    0.14
   1  -3 -12    1.37    0.19
  -1   3  12    1.29    0.16
   1   3 -12    1.45    0.17
   0  -3 -12    3.41    0.24
   0   3 -12    3.69    0.24
   2  -4 -12    2.67    0.23
  -2   4  12    2.42    0.19
   2   4 -12    2.28    0.19
   1  -4 -12    6.76    0.36
   1  -4 -12    6.67    0.32
   1   4 -12    6.67    0.32
  -1   4  12    6.77    0.32
   2  -5 -12    1.45    0.19
  -2   5  12    1.74    0.18
   2   5 -12    1.83    0.19
   1  -5 -12    4.99    0.31
   1  -5 -12    4.72    0.27
  -1   5  12    4.89    0.27
   1   5 -12    4.41    0.27
   0   0   0    0.00    0.00
;
_shelx_hkl_checksum              25458
_shelx_res_file
;
TITL 17zs_af_a5_0m in P2(1)
    shelx.res
    created by SHELXL-2016/6 at 14:34:30 on 23-Oct-2018
CELL 0.71073 4.914 12.945 9.763 90 103.474 90
ZERR 2 0.0001 0.0003 0.0003 0 0.001 0
LATT -1
SYMM -X,0.5+Y,-Z
SFAC C H N O S
UNIT 22 32 4 6 2
EQIV $1 -X,0.5+Y,1-Z
EQIV $2 1-X,-0.5+Y,1-Z
EQIV $3 1-X,0.5+Y,1-Z
L.S. 14
PLAN  20
SIZE 0.07 0.14 0.19
TEMP -173.16
HTAB C2 O2_$1
HTAB C6 O1_$2
HTAB C11 O2_$3
HTAB O3 O2
MPLA C5 N2 C4 N1 C8 C9
MPLA C1 C2 C3 O3
BOND $H
CONF
fmap 2
acta
MERG 0
REM <olex2.extras>
REM <HklSrc "%.\\17zs_af_a5_0m.hkl">
REM </olex2.extras>
WGHT    0.044100    0.052600
FVAR       0.32225
O1    4    0.317688    0.725668    0.498039    11.00000    0.02778    0.01643 =
         0.02210   -0.00311    0.01037   -0.00325
O2    4    0.101599    0.377316    0.383926    11.00000    0.02141    0.01395 =
         0.02208    0.00056    0.00849   -0.00179
C5    1    0.198800    0.549219    0.457689    11.00000    0.01557    0.01306 =
         0.01523    0.00045    0.00364    0.00004
N2    3    0.482131    0.643602    0.328019    11.00000    0.01641    0.01364 =
         0.01717   -0.00038    0.00535   -0.00222
C1    1   -0.134847    0.584425    0.775995    11.00000    0.04356    0.02118 =
         0.02520    0.00234    0.01929    0.00346
AFIX 137
H1A   2   -0.030796    0.526690    0.828470    11.00000   -1.50000
H1B   2   -0.324936    0.561794    0.730933    11.00000   -1.50000
H1C   2   -0.143850    0.641443    0.840824    11.00000   -1.50000
AFIX   0
C2    1    0.012334    0.620580    0.664122    11.00000    0.02412    0.01767 =
         0.01757   -0.00061    0.00898    0.00174
AFIX  23
H2A   2   -0.093981    0.679108    0.612254    11.00000   -1.20000
H2B   2    0.200516    0.646446    0.711133    11.00000   -1.20000
AFIX   0
C3    1    0.043485    0.538837    0.560662    11.00000    0.01500    0.01540 =
         0.01662    0.00272    0.00216    0.00255
C4    1    0.224196    0.461249    0.373491    11.00000    0.01326    0.01617 =
         0.01644    0.00347    0.00205    0.00246
N1    3    0.390860    0.467558    0.277900    11.00000    0.01798    0.01376 =
         0.01610   -0.00054    0.00556    0.00204
C6    1    0.431177    0.370428    0.203815    11.00000    0.01983    0.01271 =
         0.02170   -0.00148    0.00800    0.00328
AFIX  23
H6A   2    0.434322    0.311261    0.268416    11.00000   -1.20000
H6B   2    0.614315    0.372912    0.178006    11.00000   -1.20000
AFIX   0
C7    1    0.201651    0.353654    0.071839    11.00000    0.02516    0.02345 =
         0.02166   -0.00425    0.00564    0.00332
AFIX 137
H7A   2    0.020823    0.347983    0.097378    11.00000   -1.50000
H7B   2    0.238772    0.289922    0.025153    11.00000   -1.50000
H7C   2    0.197113    0.412224    0.007745    11.00000   -1.50000
AFIX   0
C8    1    0.506188    0.559633    0.245472    11.00000    0.01351    0.01631 =
         0.01777    0.00072    0.00271    0.00181
C9    1    0.330771    0.645300    0.434833    11.00000    0.01503    0.01661 =
         0.01518    0.00146    0.00208    0.00123
O3    4   -0.083205    0.452210    0.573015    11.00000    0.02485    0.01427 =
         0.02344   -0.00083    0.01221   -0.00151
AFIX 147
H3    2   -0.053435    0.409823    0.513011    11.00000   -1.50000
AFIX   0
C11   1    0.603033    0.743990    0.299709    11.00000    0.02283    0.01648 =
         0.02180    0.00031    0.00895   -0.00575
AFIX  23
H11A  2    0.771894    0.731567    0.263124    11.00000   -1.20000
H11B  2    0.660559    0.783241    0.388804    11.00000   -1.20000
AFIX   0
C12   1    0.395526    0.807124    0.194136    11.00000    0.03335    0.01719 =
         0.03204    0.00738    0.01628    0.00443
AFIX 137
H12A  2    0.334132    0.767587    0.106781    11.00000   -1.50000
H12B  2    0.484358    0.871449    0.174372    11.00000   -1.50000
H12C  2    0.233420    0.823310    0.232739    11.00000   -1.50000
AFIX   0
S1    5    0.668444    0.566059    0.113831    11.00000    0.02685    0.01990 =
         0.02328    0.00158    0.01508    0.00100
HKLF 4
REM  17zs_af_a5_0m in P2(1)
REM R1 =  0.0265 for    8469 Fo > 4sig(Fo)  and  0.0270 for all    8623 data
REM    158 parameters refined using      1 restraints
END
WGHT      0.0442      0.0805
REM Highest difference peak  0.209,  deepest hole -0.262,  1-sigma level  0.054
Q1    1   0.3116  0.3625  0.1505  11.00000  0.05    0.21
Q2    1   0.5141  0.5654  0.0481  11.00000  0.05    0.21
Q3    1   0.6010  0.5611  0.1804  11.00000  0.05    0.21
Q4    1   0.0405  0.3821  0.4606  11.00000  0.05    0.18
Q5    1   0.0698  0.5536  0.4803  11.00000  0.05    0.18
Q6    1   0.4011  0.4197  0.2408  11.00000  0.05    0.17
Q7    1   0.1587  0.5197  0.4081  11.00000  0.05    0.17
Q8    1   0.8382  0.5524  0.2041  11.00000  0.05    0.16
Q9    1   0.2054  0.5999  0.4277  11.00000  0.05    0.15
Q10   1   0.2739  0.5846  0.4665  11.00000  0.05    0.14
Q11   1   0.5402  0.6890  0.3186  11.00000  0.05    0.14
Q12   1   0.3280  0.5963 -0.0282  11.00000  0.05    0.14
Q13   1  -0.3689  0.5945  0.6908  11.00000  0.05    0.14
Q14   1   1.0485  0.5677  0.1954  11.00000  0.05    0.14
Q15   1   0.8275  0.7091  0.3177  11.00000  0.05    0.14
Q16   1  -0.0355  0.4989  0.5556  11.00000  0.05    0.13
Q17   1   0.8956  0.5655  0.1458  11.00000  0.05    0.13
Q18   1   1.0121  0.5719  0.0602  11.00000  0.05    0.13
Q19   1   0.6816  0.5615  0.0166  11.00000  0.05    0.13
Q20   1   0.3172  0.7729  0.1665  11.00000  0.05    0.13
;
_shelx_res_checksum              44188
loop_
_space_group_symop_operation_xyz
'x, y, z'
'-x, y+1/2, -z'
loop_
_atom_site_type_symbol
_atom_site_label
_atom_site_fract_x
_atom_site_fract_y
_atom_site_fract_z
_atom_site_U_iso_or_equiv
_atom_site_adp_type
_atom_site_calc_flag
_atom_site_occupancy
O O1 0.3177(3) 0.72567(12) 0.49804(17) 0.0214(4) Uani d 1
O O2 0.1016(3) 0.37732(11) 0.38393(16) 0.0186(3) Uani d 1
C C5 0.1988(4) 0.54922(16) 0.4577(2) 0.0146(4) Uani d 1
N N2 0.4821(4) 0.64360(14) 0.32802(19) 0.0155(4) Uani d 1
C C1 -0.1348(5) 0.58442(19) 0.7760(3) 0.0281(6) Uani d 1
H H1A -0.030796 0.526690 0.828470 0.042 Uiso calc 1
H H1B -0.324936 0.561794 0.730933 0.042 Uiso calc 1
H H1C -0.143850 0.641443 0.840824 0.042 Uiso calc 1
C C2 0.0123(4) 0.62058(18) 0.6641(2) 0.0191(5) Uani d 1
H H2A -0.093981 0.679108 0.612254 0.023 Uiso calc 1
H H2B 0.200516 0.646446 0.711133 0.023 Uiso calc 1
C C3 0.0435(4) 0.53884(15) 0.5607(2) 0.0159(4) Uani d 1
C C4 0.2242(4) 0.46125(17) 0.3735(2) 0.0155(4) Uani d 1
N N1 0.3909(3) 0.46756(14) 0.27790(19) 0.0157(4) Uani d 1
C C6 0.4312(4) 0.37043(16) 0.2038(2) 0.0176(5) Uani d 1
H H6A 0.434322 0.311261 0.268416 0.021 Uiso calc 1
H H6B 0.614315 0.372912 0.178006 0.021 Uiso calc 1
C C7 0.2017(4) 0.35365(19) 0.0718(2) 0.0234(5) Uani d 1
H H7A 0.020823 0.347983 0.097378 0.035 Uiso calc 1
H H7B 0.238772 0.289922 0.025153 0.035 Uiso calc 1
H H7C 0.197113 0.412224 0.007745 0.035 Uiso calc 1
C C8 0.5062(4) 0.55963(19) 0.2455(2) 0.0160(4) Uani d 1
C C9 0.3308(4) 0.64530(17) 0.4348(2) 0.0158(4) Uani d 1
O O3 -0.0832(3) 0.45221(11) 0.57302(17) 0.0198(3) Uani d 1
H H3 -0.053435 0.409823 0.513011 0.030 Uiso calc 1
C C11 0.6030(4) 0.74399(18) 0.2997(2) 0.0198(5) Uani d 1
H H11A 0.771894 0.731567 0.263124 0.024 Uiso calc 1
H H11B 0.660559 0.783241 0.388804 0.024 Uiso calc 1
C C12 0.3955(5) 0.80712(19) 0.1941(3) 0.0261(5) Uani d 1
H H12A 0.334132 0.767587 0.106781 0.039 Uiso calc 1
H H12B 0.484358 0.871449 0.174372 0.039 Uiso calc 1
H H12C 0.233420 0.823310 0.232739 0.039 Uiso calc 1
S S1 0.66844(10) 0.56606(5) 0.11383(6) 0.02182(15) Uani d 1
loop_
_atom_site_aniso_label
_atom_site_aniso_U_11
_atom_site_aniso_U_22
_atom_site_aniso_U_33
_atom_site_aniso_U_12
_atom_site_aniso_U_13
_atom_site_aniso_U_23
O1 0.0278(8) 0.0164(8) 0.0221(8) -0.0033(6) 0.0104(7) -0.0031(6)
O2 0.0214(7) 0.0139(7) 0.0221(8) -0.0018(6) 0.0085(6) 0.0006(6)
C5 0.0156(8) 0.0131(12) 0.0152(9) 0.0000(8) 0.0036(7) 0.0004(8)
N2 0.0164(8) 0.0136(9) 0.0172(10) -0.0022(7) 0.0053(7) -0.0004(7)
C1 0.0436(13) 0.0212(14) 0.0252(12) 0.0035(10) 0.0193(11) 0.0023(9)
C2 0.0241(10) 0.0177(11) 0.0176(11) 0.0017(9) 0.0090(9) -0.0006(8)
C3 0.0150(9) 0.0154(11) 0.0166(10) 0.0025(8) 0.0022(8) 0.0027(8)
C4 0.0133(9) 0.0162(10) 0.0164(10) 0.0025(8) 0.0020(8) 0.0035(8)
N1 0.0180(9) 0.0138(9) 0.0161(9) 0.0020(7) 0.0056(7) -0.0005(7)
C6 0.0198(10) 0.0127(11) 0.0217(11) 0.0033(8) 0.0080(9) -0.0015(8)
C7 0.0252(11) 0.0235(13) 0.0217(12) 0.0033(9) 0.0056(9) -0.0043(10)
C8 0.0135(8) 0.0163(10) 0.0178(10) 0.0018(9) 0.0027(8) 0.0007(9)
C9 0.0150(9) 0.0166(11) 0.0152(11) 0.0012(8) 0.0021(8) 0.0015(9)
O3 0.0249(8) 0.0143(8) 0.0234(9) -0.0015(6) 0.0122(7) -0.0008(6)
C11 0.0228(10) 0.0165(11) 0.0218(12) -0.0057(8) 0.0089(9) 0.0003(9)
C12 0.0334(12) 0.0172(12) 0.0320(14) 0.0044(10) 0.0163(11) 0.0074(10)
S1 0.0268(3) 0.0199(3) 0.0233(3) 0.0010(2) 0.0151(2) 0.0016(2)
loop_
_atom_type_symbol
_atom_type_description
_atom_type_scat_dispersion_real
_atom_type_scat_dispersion_imag
_atom_type_scat_source
C C 0.0033 0.0016 'International Tables Vol C Tables 4.2.6.8 and 6.1.1.4'
H H 0.0000 0.0000 'International Tables Vol C Tables 4.2.6.8 and 6.1.1.4'
N N 0.0061 0.0033 'International Tables Vol C Tables 4.2.6.8 and 6.1.1.4'
O O 0.0106 0.0060 'International Tables Vol C Tables 4.2.6.8 and 6.1.1.4'
S S 0.1246 0.1234 'International Tables Vol C Tables 4.2.6.8 and 6.1.1.4'
loop_
_geom_angle_atom_site_label_1
_geom_angle_atom_site_label_2
_geom_angle_atom_site_label_3
_geom_angle
C3 C5 C4 118.13(18)
C3 C5 C9 122.15(18)
C4 C5 C9 119.72(18)
C8 N2 C9 125.18(18)
C8 N2 C11 119.42(17)
C9 N2 C11 115.24(18)
C2 C1 H1A 109.5
C2 C1 H1B 109.5
H1A C1 H1B 109.5
C2 C1 H1C 109.5
H1A C1 H1C 109.5
H1B C1 H1C 109.5
C3 C2 C1 114.14(19)
C3 C2 H2A 108.7
C1 C2 H2A 108.7
C3 C2 H2B 108.7
C1 C2 H2B 108.7
H2A C2 H2B 107.6
O3 C3 C5 120.04(19)
O3 C3 C2 114.87(18)
C5 C3 C2 125.08(18)
O2 C4 N1 118.5(2)
O2 C4 C5 122.33(19)
N1 C4 C5 119.19(18)
C4 N1 C8 122.91(18)
C4 N1 C6 116.51(17)
C8 N1 C6 120.51(17)
N1 C6 C7 112.16(17)
N1 C6 H6A 109.2
C7 C6 H6A 109.2
N1 C6 H6B 109.2
C7 C6 H6B 109.2
H6A C6 H6B 107.9
C6 C7 H7A 109.5
C6 C7 H7B 109.5
H7A C7 H7B 109.5
C6 C7 H7C 109.5
H7A C7 H7C 109.5
H7B C7 H7C 109.5
N2 C8 N1 116.74(17)
N2 C8 S1 122.36(17)
N1 C8 S1 120.90(17)
O1 C9 N2 119.02(19)
O1 C9 C5 125.34(19)
N2 C9 C5 115.63(18)
C3 O3 H3 109.5
N2 C11 C12 111.45(17)
N2 C11 H11A 109.3
C12 C11 H11A 109.3
N2 C11 H11B 109.3
C12 C11 H11B 109.3
H11A C11 H11B 108.0
C11 C12 H12A 109.5
C11 C12 H12B 109.5
H12A C12 H12B 109.5
C11 C12 H12C 109.5
H12A C12 H12C 109.5
H12B C12 H12C 109.5
loop_
_geom_bond_atom_site_label_1
_geom_bond_atom_site_label_2
_geom_bond_distance
O1 C9 1.219(3)
O2 C4 1.258(3)
C5 C3 1.403(3)
C5 C4 1.427(3)
C5 C9 1.444(3)
N2 C8 1.375(3)
N2 C9 1.415(3)
N2 C11 1.481(3)
C1 C2 1.518(3)
C1 H1A 0.9800
C1 H1B 0.9800
C1 H1C 0.9800
C2 C3 1.495(3)
C2 H2A 0.9900
C2 H2B 0.9900
C3 O3 1.302(2)
C4 N1 1.380(3)
N1 C8 1.388(3)
N1 C6 1.487(3)
C6 C7 1.517(3)
C6 H6A 0.9900
C6 H6B 0.9900
C7 H7A 0.9800
C7 H7B 0.9800
C7 H7C 0.9800
C8 S1 1.665(2)
O3 H3 0.8400
C11 C12 1.510(3)
C11 H11A 0.9900
C11 H11B 0.9900
C12 H12A 0.9800
C12 H12B 0.9800
C12 H12C 0.9800
loop_
_geom_hbond_atom_site_label_D
_geom_hbond_atom_site_label_H
_geom_hbond_atom_site_label_A
_geom_hbond_site_symmetry_A
_geom_hbond_distance_DH
_geom_hbond_distance_HA
_geom_hbond_distance_DA
_geom_hbond_angle_DHA
C2 H2A O2 2_556 0.99 2.57 3.385(3) 139.9
C6 H6A O1 2_646 0.99 2.57 3.440(3) 146.3
C11 H11B O2 2_656 0.99 2.56 3.541(3) 169.8
O3 H3 O2 . 0.84 1.67 2.440(2) 151.0
loop_
_geom_torsion_atom_site_label_1
_geom_torsion_atom_site_label_2
_geom_torsion_atom_site_label_3
_geom_torsion_atom_site_label_4
_geom_torsion
C4 C5 C3 O3 -3.1(3)
C9 C5 C3 O3 176.66(18)
C4 C5 C3 C2 175.57(18)
C9 C5 C3 C2 -4.6(3)
C1 C2 C3 O3 6.4(3)
C1 C2 C3 C5 -172.34(19)
C3 C5 C4 O2 3.6(3)
C9 C5 C4 O2 -176.22(18)
C3 C5 C4 N1 -175.80(18)
C9 C5 C4 N1 4.4(3)
O2 C4 N1 C8 171.61(18)
C5 C4 N1 C8 -9.0(3)
O2 C4 N1 C6 -5.3(3)
C5 C4 N1 C6 174.09(16)
C4 N1 C6 C7 87.0(2)
C8 N1 C6 C7 -90.0(2)
C9 N2 C8 N1 -5.4(3)
C11 N2 C8 N1 179.47(16)
C9 N2 C8 S1 175.37(14)
C11 N2 C8 S1 0.2(3)
C4 N1 C8 N2 9.3(3)
C6 N1 C8 N2 -173.90(16)
C4 N1 C8 S1 -171.45(15)
C6 N1 C8 S1 5.3(3)
C8 N2 C9 O1 -177.70(19)
C11 N2 C9 O1 -2.4(3)
C8 N2 C9 C5 1.3(3)
C11 N2 C9 C5 176.63(16)
C3 C5 C9 O1 -1.6(3)
C4 C5 C9 O1 178.24(19)
C3 C5 C9 N2 179.51(18)
C4 C5 C9 N2 -0.7(3)
C8 N2 C11 C12 88.9(2)
C9 N2 C11 C12 -86.7(2)

_cod_database_fobs_code 2021368
