#------------------------------------------------------------------------------
#$Date: 2018-11-22 05:47:53 +0200 (Thu, 22 Nov 2018) $
#$Revision: 212108 $
#$URL: file:///home/coder/svn-repositories/cod/cif/2/02/13/2021366.cif $
#------------------------------------------------------------------------------
#
# This file is available in the Crystallography Open Database (COD),
# http://www.crystallography.net/. The original data for this entry
# were provided by IUCr Journals, http://journals.iucr.org/.
#
# The file may be used within the scientific community so long as
# proper attribution is given to the journal article from which the
# data were obtained.
#
data_2021366
loop_
_publ_author_name
'Vande Velde, Christophe M. L.'
'Zeller, Matthias'
'Azov, Vladimir A.'
_publ_section_title
;
 Comparison of computationally cheap methods for providing insight into
 the crystal packing of highly bromomethylated azobenzenes
;
_journal_coeditor_code           KY3150
_journal_issue                   12
_journal_name_full               'Acta Crystallographica Section C'
_journal_page_first
;
;
_journal_paper_doi               10.1107/S2053229618015309
_journal_volume                  74
_journal_year                    2018
_chemical_formula_iupac          'C14 H9 Br5 N2'
_chemical_formula_moiety         'C14 H9 Br5 N2'
_chemical_formula_sum            'C14 H9 Br5 N2'
_chemical_formula_weight         604.78
_chemical_melting_point          415.6(5)
_chemical_name_systematic
;
(<i>E</i>)-[3-(Dibromomethyl)phenyl][3-(tribromomethyl)phenyl]diazene
;
_space_group_crystal_system      triclinic
_space_group_IT_number           2
_space_group_name_Hall           '-P 1'
_space_group_name_H-M_alt        'P -1'
_symmetry_space_group_name_Hall  '-P 1'
_symmetry_space_group_name_H-M   'P -1'
_atom_sites_solution_hydrogens   geom
_atom_sites_solution_primary     direct
_atom_sites_solution_secondary   difmap
_audit_creation_method           SHELXL-2018/3
_cell_angle_alpha                103.257(2)
_cell_angle_beta                 102.974(2)
_cell_angle_gamma                91.703(2)
_cell_formula_units_Z            2
_cell_length_a                   7.0161(11)
_cell_length_b                   8.5634(13)
_cell_length_c                   14.897(2)
_cell_measurement_reflns_used    1139
_cell_measurement_temperature    100(2)
_cell_measurement_theta_max      31.11
_cell_measurement_theta_min      2.45
_cell_volume                     845.8(2)
_computing_cell_refinement
;
SAINT (Bruker, 2009)
;
_computing_data_collection
;
APEX2 (Bruker, 2009)
;
_computing_data_reduction
;
SAINT (Bruker, 2009)
;
_computing_publication_material
;
SHELXL2018 (Sheldrick, 2015)
;
_computing_structure_refinement
;
SHELXL2018 (Sheldrick, 2015) and
<i>shelXle</i>(H\"ubschle <i>et al.</i>, 2011)
;
_computing_structure_solution
;
SHELXS2013 (Sheldrick, 2008)
;
_diffrn_ambient_temperature      100(2)
_diffrn_measured_fraction_theta_full 0.997
_diffrn_measured_fraction_theta_max 0.898
_diffrn_measurement_device_type  'Bruker SMART 1000'
_diffrn_measurement_method       '\w scans'
_diffrn_radiation_type           MoK\a
_diffrn_radiation_wavelength     0.71073
_diffrn_reflns_av_R_equivalents  0.0662
_diffrn_reflns_av_unetI/netI     0.0679
_diffrn_reflns_limit_h_max       9
_diffrn_reflns_limit_h_min       -10
_diffrn_reflns_limit_k_max       12
_diffrn_reflns_limit_k_min       -12
_diffrn_reflns_limit_l_max       21
_diffrn_reflns_limit_l_min       0
_diffrn_reflns_number            15148
_diffrn_reflns_theta_full        25.242
_diffrn_reflns_theta_max         31.317
_diffrn_reflns_theta_min         1.446
_diffrn_source                   'sealed tube'
_exptl_absorpt_coefficient_mu    11.871
_exptl_absorpt_correction_T_max  0.052
_exptl_absorpt_correction_T_min  0.014
_exptl_absorpt_correction_type   multi-scan
_exptl_absorpt_process_details
;
(TWINABS; Sheldrick, 2012)
;
_exptl_crystal_colour            orange
_exptl_crystal_density_diffrn    2.375
_exptl_crystal_density_method    'not measured'
_exptl_crystal_description       block
_exptl_crystal_F_000             564
_exptl_crystal_size_max          0.450
_exptl_crystal_size_mid          0.430
_exptl_crystal_size_min          0.210
_refine_diff_density_max         1.809
_refine_diff_density_min         -1.559
_refine_ls_extinction_method     none
_refine_ls_goodness_of_fit_ref   0.989
_refine_ls_hydrogen_treatment    constr
_refine_ls_matrix_type           full
_refine_ls_number_parameters     213
_refine_ls_number_reflns         8987
_refine_ls_number_restraints     58
_refine_ls_restrained_S_all      0.991
_refine_ls_R_factor_all          0.0674
_refine_ls_R_factor_gt           0.0507
_refine_ls_shift/su_max          0.001
_refine_ls_shift/su_mean         0.000
_refine_ls_structure_factor_coef Fsqd
_refine_ls_weighting_details
'w=1/[\s^2^(Fo^2^)+(0.0797P)^2^] where P=(Fo^2^+2Fc^2^)/3'
_refine_ls_weighting_scheme      calc
_refine_ls_wR_factor_gt          0.1287
_refine_ls_wR_factor_ref         0.1365
_reflns_number_gt                6827
_reflns_number_total             8987
_reflns_threshold_expression     'I > 2\s(I)'
_cod_data_source_file            ky3150sup1.cif
_cod_data_source_block           9
_cod_depositor_comments
;
The following automatic conversions were performed:

'_chemical_melting_point' value '142-143 C' was changed to '415.6(5)'
- it was converted from degrees Celsius(C) to Kelvins(K), the average
value was taken and precision was estimated.

Automatic conversion script
Id: cif_fix_values 4973 2017-02-22 13:04:09Z antanas 
;
_cod_database_code               2021366
_shelx_space_group_comment
;
The symmetry employed for this shelxl refinement is uniquely defined
by the following loop, which should always be used as a source of
symmetry information in preference to the above space-group names.
They are only intended as comments.
;
_shelx_estimated_absorpt_t_min   0.076
_shelx_estimated_absorpt_t_max   0.189
_shelx_hkl_file
;
   1   0   0 43.7709 1.65768   1
   1   0   0 41.5695 1.58807   2
   2   0   0 119.747 4.35611   1
   2   0   0 111.062 4.07565   2
   3   0   0 278.972 9.80523   2
   3   0   0 295.474 10.3510   1
   4   0   0 94.8192 4.00005   2
   4   0   0 107.988 4.45417   1
   5   0   0 157.159 6.17778   1
   5   0   0 131.329 6.49109   2
   6   0   0 24.9093 2.95936   2
   6   0   0 32.7872 2.51056   1
   7   0   0 10.2992 2.80642   2
   7   0   0 11.6945 3.19656   1
   8   0   0 16.4760 3.17657   2
   8   0   0 23.8738 5.62120   1
   9   0   0 -1.7655 3.13504   2
   9   0   0 1.32349 6.09667   1
  -9   1   0 32.2145 3.78994   2
  -9   1   0 49.8455 7.30220   1
  -8   1   0 3.07726 2.87690   2
  -8   1   0 10.1326 5.55453   1
  -7   1   0 2.63008 4.67422   1
  -7   1   0 -4.5820 2.62180   2
  -6   1   0 246.064 11.1251   2
  -6   1   0 273.974 10.0516   1
  -5   1   0 87.6594 4.17844   1
  -5   1   0 77.7808 3.85231   2
  -4   1   0 8.64424 1.53203   1
  -4   1   0 10.7105 1.55770   2
  -3   1   0 535.172 21.9861   1
  -3   1   0 485.102 16.7064   2
  -3  -1   3 522.442 33.0435  -2
  -3   1   0 522.442 33.0435   1
  -2   1   0 19.8145 1.53146   2
  -2   1   0 24.1715 1.68649   1
  -1   1   0 85.8973 3.20155   2
  -1   1   0 89.6230 3.83525   1
  -1  -1   1 320.492 20.0900  -2
  -1   1   0 320.492 20.0900   1
   0   1   0 1364.54 46.0748  -2
   0   1   0 1364.54 46.0748   1
   1   1   0 967.656 51.8821   2
   1   1   0 1160.40 46.7791   1
   2   1   0 5425.61 182.639   1
   2   1   0 4828.94 162.586   2
   3   1   0 4.00635 1.02938   1
   3   1   0 1.93723 0.80349   2
   4   1   0 233.874 8.52058   2
   4   1   0 263.494 9.44866   1
   5   1   0 239.534 10.8916   2
   5   1   0 291.750 10.5223   1
   6   1   0 1.06291 2.51523   2
   6   1   0 1.58819 2.75717   1
   7   1   0 0.14304 2.90859   2
   7   1   0 0.88834 4.26501   1
   8   1   0 9.43528 3.23515   2
   8   1   0 19.7062 6.03120   1
   9   1   0 2.02771 6.26425   1
   9   1   0 -0.0456 3.26038   2
  -9   2   0 133.142 12.6059   1
  -9   2   0 98.5620 10.4112   2
  -8   2   0 1.96801 2.79243   2
  -8   2   0 5.94622 5.22233   1
  -7   2   0 4.67370 2.70992   2
  -7   2   0 10.3229 2.88743   1
  -6   2   0 158.784 6.49586   1
  -6   2   0 132.559 6.84713   2
  -5   2   0 87.2080 4.18501   2
  -5   2   0 103.359 4.71026   1
  -4   2   0 440.762 15.4593   1
  -4   2   0 408.389 14.3357   2
  -3   2   0 11.3013 1.39598   2
  -3   2   0 6.23460 1.76074   1
  -3  -2   3 8.16232 4.55397  -2
  -3   2   0 8.16232 4.55397   1
  -2   2   0 79.2875 3.35042   2
  -2  -2   2 420.143 26.6403  -2
  -2   2   0 420.143 26.6403   1
  -2   2   0 81.1949 3.87364   1
  -1   2   0 1328.24 71.1917   1
  -1  -2   1 1671.69 72.6563  -2
  -1   2   0 1671.69 72.6563   1
  -1   2   0 1264.85 77.5867   2
   0   2   0 82.8883 3.14211  -2
   0   2   0 82.8883 3.14211   1
  -1   2   1 725.885 29.5121  -2
   1   2   0 725.885 29.5121   1
   1   2   0 41.1232 3.56530   1
   1   2   0 52.6309 3.50085   2
   2   2   0 3475.74 139.830   1
   2   2   0 3046.38 185.919   2
   3   2   0 15.6503 1.58119   2
   3   2   0 12.7990 1.27580   1
   4   2   0 55.3204 2.80367   1
   4   2   0 47.9337 3.48959   2
   5   2   0 13.7785 2.88575   1
   5   2   0 11.6821 2.75133   2
   6   2   0 50.5211 4.04179   2
   6   2   0 57.6785 4.54079   1
   7   2   0 170.975 8.69528   2
   7   2   0 205.487 10.6662   1
   8   2   0 2.13775 3.54005   1
   8   2   0 1.28823 3.23054   2
   9   2   0 -1.6633 6.01379   1
   9   2   0 -0.7567 3.13197   2
  -9   3   0 67.7894 8.33215   1
  -9   3   0 58.4523 7.60788   2
  -8   3   0 1.78893 2.98504   1
  -8   3   0 3.51554 5.07617   2
  -7   3   0 234.396 10.7343   2
  -7   3   0 275.877 12.6110   1
  -6   3   0 57.8683 4.11856   1
  -6   3   0 56.0941 3.31024   2
  -5   3   0 1.30597 2.02310   1
  -5   3   0 0.45254 1.83096   2
  -4   3   0 985.162 43.3709   2
  -4   3   0 1008.19 34.5325   1
  -3   3   0 157.031 6.10499   2
  -3  -3   3 179.337 12.9188  -2
  -3   3   0 179.337 12.9188   1
  -3   3   0 169.878 7.62658   1
  -2   3   0 17.4145 2.96039   2
  -2  -3   2 589.736 26.1489  -2
  -2   3   0 589.736 26.1489   1
  -2   3   0 13.8838 2.31010   1
  -1  -3   1 474.281 19.5676  -2
  -1   3   0 474.281 19.5676   1
   0   3   0 291.493 10.2147  -2
   0   3   0 291.493 10.2147   1
  -1   3   1 379.763 15.7095  -2
   1   3   0 379.763 15.7095   1
   1   3   0 260.450 16.8664   1
   2   3   0 201.343 11.6668   2
  -2   3   2 1160.63 72.0839  -2
   2   3   0 1160.63 72.0839   1
   2   3   0 219.010 9.50669   1
   3   3   0 4.16350 1.20845   1
   3   3   0 3.41701 1.30652   2
   4   3   0 1031.73 35.1762   1
   4   3   0 903.407 37.2485   2
   5   3   0 3.14167 2.68140   2
   5   3   0 5.08061 2.90211   1
   6   3   0 57.5319 4.47373   2
   6   3   0 71.3569 5.18565   1
   7   3   0 55.3633 4.44029   2
   7   3   0 63.5884 5.15451   1
   8   3   0 1.48903 3.15804   2
   8   3   0 -0.1311 3.60843   1
   9   3   0 42.7417 4.50634   2
  -9   4   0 0.47331 5.66176   1
  -9   4   0 4.15439 5.38863   2
  -8   4   0 0.23748 3.01722   1
  -8   4   0 0.15499 4.86322   2
  -7   4   0 251.025 11.6040   1
  -7   4   0 222.327 16.1076   2
  -6   4   0 4.72738 2.11558   2
  -6   4   0 8.46619 2.87978   1
  -5   4   0 179.872 7.25282   1
  -5   4   0 164.449 6.67218   2
  -4   4   0 295.223 10.6750   1
  -4   4   0 284.767 10.4199   2
  -3   4   0 40.3947 2.57236   2
  -3   4   0 42.8808 3.07326   1
  -3  -4   3 250.895 17.3068  -2
  -3   4   0 250.895 17.3068   1
  -2   4   0 1061.28 57.3174   1
  -2   4   0 1046.49 64.7948   2
  -2  -4   2 3394.54 147.669  -2
  -2   4   0 3394.54 147.669   1
  -1  -4   1 417.472 17.4669  -2
  -1   4   0 417.472 17.4669   1
   0   4   0 548.444 18.9313  -2
   0   4   0 548.444 18.9313   1
  -1   4   1 679.782 23.3628  -2
   1   4   0 679.782 23.3628   1
  -2   4   2 64.4280 4.34107  -2
   2   4   0 64.4280 4.34107   1
   2   4   0 1.18876 2.08952   2
   2   4   0 3.27753 2.90696   1
   3   4   0 43.7567 2.64788   1
   3   4   0 39.4993 2.87206   2
   4   4   0 277.106 13.1658   1
   4   4   0 253.395 11.4726   2
   5   4   0 19.7330 3.05896   2
   5   4   0 21.4149 3.31385   1
   6   4   0 59.1078 4.83736   1
   6   4   0 50.9777 4.23280   2
   7   4   0 18.1272 3.83475   1
   7   4   0 18.7850 3.59972   2
   8   4   0 31.9715 4.13521   2
   8   4   0 41.5274 4.89273   1
  -9   5   0 8.00801 5.55764   2
  -9   5   0 0.36591 4.04284   1
  -8   5   0 0.20471 3.10160   1
  -8   5   0 7.09088 4.92562   2
  -7   5   0 63.4328 4.82330   1
  -7   5   0 54.8302 6.62624   2
  -6   5   0 1.75283 2.88273   2
  -6   5   0 4.86617 2.93766   1
  -5   5   0 500.874 17.6196   1
  -5   5   0 491.811 20.8026   2
  -4   5   0 95.7666 4.61010   2
  -4   5   0 99.4898 4.53588   1
  -3  -5   3 97.2550 6.18795  -2
  -3   5   0 97.2550 6.18795   1
  -3   5   0 8.78863 2.00811   2
  -3   5   0 10.9254 2.79124   1
  -2   5   0 582.355 36.8680   2
  -2  -5   2 1016.84 44.6007  -2
  -2   5   0 1016.84 44.6007   1
  -2   5   0 603.572 33.1029   1
  -1  -5   1 22.6030 3.50135  -2
  -1   5   0 22.6030 3.50135   1
   0   5   0 197.323 7.40690  -2
   0   5   0 197.323 7.40690   1
  -1   5   1 47.9374 3.30199  -2
   1   5   0 47.9374 3.30199   1
   2   5   0 96.8658 6.91754   2
  -2   5   2 118.086 6.25402  -2
   2   5   0 118.086 6.25402   1
   2   5   0 100.497 8.57262   1
  -3   5   3 32.1313 7.27664  -2
   3   5   0 32.1313 7.27664   1
   3   5   0 18.7341 2.19452   2
   3   5   0 22.7379 4.87609   1
   4   5   0 12.8604 2.92928   2
   4   5   0 12.2320 3.01433   1
   5   5   0 71.7979 4.91705   2
   5   5   0 84.4413 5.91975   1
   6   5   0 145.120 8.29661   1
   6   5   0 130.574 7.16913   2
   7   5   0 7.07311 3.40970   2
   7   5   0 7.30901 3.81112   1
   8   5   0 1.22677 3.27516   2
   8   5   0 2.26355 4.08214   1
  -9   6   0 9.17372 4.26575   1
  -8   6   0 1.04051 5.06774   2
  -8   6   0 4.33465 4.28924   1
  -7   6   0 4.93679 4.13317   1
  -7   6   0 5.25161 4.47848   2
  -6   6   0 32.6107 3.80258   2
  -6   6   0 35.2816 3.71370   1
  -5   6   0 360.852 15.6420   1
  -5   6   0 344.429 16.1948   2
  -4   6   0 35.1460 2.85217   2
  -4   6   0 34.4711 2.55397   1
  -3  -6   3 354.035 16.4425  -2
  -3   6   0 354.035 16.4425   1
  -3   6   0 281.234 10.4791   2
  -3   6   0 319.031 18.2613   1
  -2   6   0 263.568 15.3659   1
  -2  -6   2 317.851 14.8459  -2
  -2   6   0 317.851 14.8459   1
  -1  -6   1 289.360 12.7838  -2
  -1   6   0 289.360 12.7838   1
   0   6   0 513.114 17.9343  -2
   0   6   0 513.114 17.9343   1
  -1   6   1 769.231 26.5431  -2
   1   6   0 769.231 26.5431   1
  -2   6   2 45.8481 4.28137  -2
   2   6   0 45.8481 4.28137   1
   2   6   0 -0.3310 4.04495   1
   2   6   0 -1.9788 2.69677   2
   3   6   0 7.27603 3.27644   2
  -3   6   3 123.971 11.3049  -2
   3   6   0 123.971 11.3049   1
   3   6   0 5.09010 4.69849   1
   4   6   0 14.0110 3.22398   1
   4   6   0 13.1654 3.05455   2
   5   6   0 76.5797 5.48858   2
   5   6   0 82.7077 5.99999   1
   6   6   0 14.6522 3.38395   2
   6   6   0 13.9822 3.65622   1
   7   6   0 27.4466 4.41074   1
   7   6   0 22.6882 3.78235   2
   8   6   0 29.2173 6.86791   1
   8   6   0 29.6553 6.47688   2
  -8   7   0 2.48310 4.36763   1
  -7   7   0 2.08794 4.22855   1
  -7   7   0 -2.5130 3.39404   2
  -6   7   0 4.14450 3.30106   2
  -6   7   0 -2.8434 3.59025   1
  -5   7   0 7.19703 3.07215   2
  -5   7   0 10.8377 3.71176   1
  -4   7   0 12.7277 3.00373   2
  -4   7   0 10.9737 2.47957   1
  -3  -7   3 577.529 36.5748  -2
  -3   7   0 577.529 36.5748   1
  -3   7   0 432.542 28.1473   2
  -3   7   0 504.074 28.1996   1
  -2  -7   2 126.249 5.91439  -2
  -2   7   0 126.249 5.91439   1
  -1  -7   1 20.7618 4.37929  -2
  -1   7   0 20.7618 4.37929   1
   0   7   0 613.085 21.3041  -2
   0   7   0 613.085 21.3041   1
  -1   7   1 76.4108 4.49681  -2
   1   7   0 76.4108 4.49681   1
  -2   7   2 2.98897 5.81227  -2
   2   7   0 2.98897 5.81227   1
   3   7   0 0.51024 4.87318   1
   3   7   0 9.89007 3.84794   2
  -3   7   3 64.0003 10.1182  -2
   3   7   0 64.0003 10.1182   1
   4   7   0 3.85170 3.11956   1
   4   7   0 4.67245 3.69110   2
   5   7   0 8.10173 3.24850   2
   5   7   0 8.11558 3.55153   1
   6   7   0 47.8654 4.89714   1
   6   7   0 42.6866 4.39216   2
   7   7   0 27.9583 4.52780   1
   7   7   0 26.3057 3.92457   2
  -7   8   0 13.0760 4.37340   1
  -7   8   0 11.9950 5.45878   2
  -6   8   0 -1.6704 5.01235   2
  -6   8   0 3.52410 3.92755   1
  -5   8   0 0.40216 3.97885   1
  -5   8   0 5.43489 4.69738   2
  -4   8   0 22.3398 5.47960   2
  -4   8   0 27.1670 4.40473   1
  -3   8   0 111.605 8.50747   1
  -3  -8   3 280.902 19.5690  -2
  -3   8   0 280.902 19.5690   1
  -3   8   0 102.744 9.67972   2
  -2  -8   2 6.85323 4.49804  -2
  -2   8   0 6.85323 4.49804   1
  -1  -8   1 267.294 16.1579  -2
  -1   8   0 267.294 16.1579   1
   0   8   0 4.15558 2.54535  -2
   0   8   0 4.15558 2.54535   1
  -1   8   1 234.547 9.12533  -2
   1   8   0 234.547 9.12533   1
  -2   8   2 335.038 16.6279  -2
   2   8   0 335.038 16.6279   1
   3   8   0 -3.6070 4.51324   1
   3   8   0 0.06332 3.88202   2
  -3   8   3 24.8383 11.2622  -2
   3   8   0 24.8383 11.2622   1
   4   8   0 -1.0051 3.58829   1
   4   8   0 1.00224 4.16401   2
   5   8   0 28.1400 4.37639   1
   5   8   0 27.9518 5.31954   2
   6   8   0 -2.8726 3.72994   1
   6   8   0 -1.2210 4.29581   2
  -7   9   0 67.5973 8.14242   2
  -6   9   0 5.06412 5.02549   2
  -6   9   0 6.37595 4.23335   1
  -5   9   0 -1.3936 5.10595   2
  -5   9   0 0.02457 3.94111   1
  -4   9   0 1.05477 4.07944   1
  -4   9   0 2.40264 4.98755   2
  -3   9   0 4.61344 4.80755   2
  -3  -9   3 3.72031 7.83896  -2
  -3   9   0 3.72031 7.83896   1
  -3   9   0 4.96029 4.18016   1
  -2  -9   2 97.9044 6.51176  -2
  -2   9   0 97.9044 6.51176   1
  -1  -9   1 150.153 10.5126  -2
  -1   9   0 150.153 10.5126   1
   0   9   0 1.55916 3.74458  -2
   0   9   0 1.55916 3.74458   1
  -1   9   1 36.1711 7.03411  -2
   1   9   0 36.1711 7.03411   1
  -2   9   2 5.96049 7.74961  -2
   2   9   0 5.96049 7.74961   1
   3   9   0 78.2626 7.61206   2
   3   9   0 88.0605 8.93256   1
   4   9   0 71.3805 8.54511   1
   4   9   0 63.7371 6.61103   2
   5   9   0 18.1154 6.09997   1
   5   9   0 16.2192 5.07880   2
  -5  10   0 21.7246 5.04476   1
  -5  10   0 16.9234 5.96149   2
  -4  10   0 -0.5852 5.20900   2
  -4  10   0 -2.6294 4.41332   1
  -3  10   0 -1.2262 4.81891   2
  -3  10   0 1.67293 4.36539   1
  -2 -10   2 14.6992 5.29355  -2
  -2  10   0 14.6992 5.29355   1
  -1 -10   1 27.5031 4.92725  -2
  -1  10   0 27.5031 4.92725   1
   0  10   0 133.127 10.9381  -2
   0  10   0 133.127 10.9381   1
  -1  10   1 94.4514 9.64360  -2
   1  10   0 94.4514 9.64360   1
  -2  10   2 -5.2260 7.92997  -2
   2  10   0 -5.2260 7.92997   1
   3  10   0 70.0438 6.92323   2
   3  10   0 58.7511 7.53337   1
   4  10   0 37.5533 7.02710   1
   4  10   0 47.2976 6.31028   2
  -4  11   0 19.0745 5.14862   1
  -3 -11   3 8.07408 9.48574  -2
  -3  11   0 8.07408 9.48574   1
  -2 -11   2 43.2189 9.38071  -2
  -2  11   0 43.2189 9.38071   1
  -1 -11   1 14.6184 7.00258  -2
  -1  11   0 14.6184 7.00258   1
   0  11   0 75.9803 8.52955  -2
   0  11   0 75.9803 8.52955   1
  -2  11   2 22.9944 8.83574  -2
   2  11   0 22.9944 8.83574   1
   3  11   0 2.19744 5.22539   2
  -1 -12   1 13.0389 6.40957  -2
  -1  12   0 13.0389 6.40957   1
   0 -12   1 105.192 9.82448  -2
   0 -12   1 105.192 9.82448   1
  -1 -12   2 27.9846 7.09654  -2
   1 -12   1 27.9846 7.09654   1
  -2 -12   3 9.99495 8.19139  -2
   2 -12   1 9.99495 8.19139   1
  -3 -11   1 1.15730 5.10818   2
  -2  11   1 128.452 12.5481  -2
  -2 -11   1 128.452 12.5481   1
   0 -11   1 131.576 11.1264  -2
   0 -11   1 131.576 11.1264   1
  -1 -11   2 27.9110 4.94502  -2
   1 -11   1 27.9110 4.94502   1
  -2 -11   3 57.7801 6.19518  -2
   2 -11   1 57.7801 6.19518   1
   3 -11   1 83.5147 7.82797   1
   4 -11   1 3.30317 4.70523   1
  -4 -10   1 13.8762 5.77343   1
  -4 -10   1 10.3398 5.05249   2
  -3 -10   1 20.8380 5.08722   2
  -3 -10   1 13.4201 5.38775   1
  -2  10   1 15.5181 8.07005  -2
  -2 -10   1 15.5181 8.07005   1
   0 -10   1 417.957 17.8574  -2
   0 -10   1 417.957 17.8574   1
  -1 -10   2 74.8456 5.78333  -2
   1 -10   1 74.8456 5.78333   1
  -2 -10   3 230.829 11.1738  -2
   2 -10   1 230.829 11.1738   1
   3 -10   1 39.9715 5.48805   1
   4 -10   1 6.99813 5.03237   2
   4 -10   1 4.06359 4.39061   1
   5 -10   1 83.0286 8.98131   2
   5 -10   1 77.1258 7.16770   1
  -5  -9   1 17.8426 6.31284   1
  -5  -9   1 15.7922 4.63237   2
  -4  -9   1 73.8489 8.46468   1
  -4  -9   1 80.2733 7.69124   2
  -3  -9   1 13.9720 5.34664   1
  -3  -9   1 14.6001 4.18967   2
  -2   9   1 10.8265 7.56193  -2
  -2  -9   1 10.8265 7.56193   1
  -1   9   0 115.698 10.6392  -2
  -1  -9   1 115.698 10.6392   1
   0  -9   1 272.749 12.0576  -2
   0  -9   1 272.749 12.0576   1
  -1  -9   2 106.103 6.23758  -2
   1  -9   1 106.103 6.23758   1
  -2  -9   3 405.413 17.5936  -2
   2  -9   1 405.413 17.5936   1
  -3  -9   4 2.43646 8.16227  -2
   3  -9   1 2.43646 8.16227   1
   3  -9   1 2.04796 3.65713   1
   4  -9   1 65.5495 6.37759   1
   4  -9   1 69.3723 7.89534   2
   5  -9   1 77.8967 7.42977   1
   5  -9   1 73.4388 8.31606   2
   6  -9   1 -0.9201 4.87094   2
   6  -9   1 2.18175 4.36310   1
  -7  -8   1 12.7297 5.32530   1
  -6  -8   1 46.6207 5.99607   2
  -6  -8   1 48.7693 4.98110   1
  -5  -8   1 6.74595 3.62907   1
  -5  -8   1 4.14373 4.06137   2
  -4  -8   1 129.196 7.85675   1
  -4  -8   1 116.371 8.55303   2
  -3  -8   1 7.11866 4.58612   1
  -3  -8   1 11.0074 3.96815   2
  -3   8   2 22.8432 10.7334  -2
  -3  -8   1 22.8432 10.7334   1
  -2   8   1 212.418 11.6325  -2
  -2  -8   1 212.418 11.6325   1
  -1   8   0 214.192 10.0740  -2
  -1  -8   1 214.192 10.0740   1
   0  -8   1 123.038 8.68598  -2
   0  -8   1 123.038 8.68598   1
  -1  -8   2 67.1259 5.14290  -2
   1  -8   1 67.1259 5.14290   1
  -2  -8   3 625.281 26.0367  -2
   2  -8   1 625.281 26.0367   1
  -3  -8   4 114.882 10.5964  -2
   3  -8   1 114.882 10.5964   1
   3  -8   1 13.5711 4.54136   2
   3  -8   1 23.5627 4.30482   1
   4  -8   1 41.6313 3.51573   1
   4  -8   1 39.6285 6.19029   2
   5  -8   1 15.4311 4.38647   1
   5  -8   1 19.6591 5.61602   2
   6  -8   1 20.6954 5.83529   2
   6  -8   1 16.6718 4.38716   1
   7  -8   1 55.2774 7.09830   2
   7  -8   1 67.3666 6.52150   1
  -7  -7   1 29.0683 3.93987   2
  -7  -7   1 31.2980 4.51140   1
  -6  -7   1 10.2612 3.68876   1
  -6  -7   1 9.94556 3.43699   2
  -5  -7   1 120.565 7.02994   2
  -5  -7   1 127.601 7.63120   1
  -4  -7   1 767.550 34.4856   1
  -4  -7   1 707.723 39.1463   2
  -3  -7   1 45.9350 6.48082   1
  -3  -7   1 37.3051 4.64941   2
  -3   7   2 112.704 11.6055  -2
  -3  -7   1 112.704 11.6055   1
  -2   7   1 177.340 7.58782  -2
  -2  -7   1 177.340 7.58782   1
  -1   7   0 19.2658 3.21937  -2
  -1  -7   1 19.2658 3.21937   1
   0  -7   1 13.2589 2.23834  -2
   0  -7   1 13.2589 2.23834   1
  -1  -7   2 181.283 8.80102  -2
   1  -7   1 181.283 8.80102   1
  -2  -7   3 456.949 19.3773  -2
   2  -7   1 456.949 19.3773   1
   3  -7   1 50.0406 6.25720   2
   3  -7   1 67.6702 6.40841   1
  -3  -7   4 71.6502 7.82300  -2
   3  -7   1 71.6502 7.82300   1
   4  -7   1 68.7929 4.45308   1
   4  -7   1 62.7695 3.90772   2
   5  -7   1 1.15293 2.88174   2
   5  -7   1 1.61482 3.50232   1
   6  -7   1 8.55337 3.35495   2
   6  -7   1 10.6836 4.19355   1
   7  -7   1 65.3620 6.41547   1
   8  -7   1 -0.0148 4.02575   1
  -8  -6   1 1.69912 3.84344   1
  -8  -6   1 3.05644 5.57324   2
  -7  -6   1 7.54852 3.38351   2
  -7  -6   1 5.98928 3.83115   1
  -6  -6   1 6.98276 3.20996   2
  -6  -6   1 6.86663 3.64218   1
  -5  -6   1 90.5156 6.37633   1
  -5  -6   1 75.2430 5.19480   2
  -4  -6   1 38.2535 3.88254   1
  -4  -6   1 36.1077 3.63800   2
  -3  -6   1 374.559 24.7839   1
  -3   6   2 552.230 35.8475  -2
  -3  -6   1 552.230 35.8475   1
  -3  -6   1 351.010 20.0863   2
  -2  -6   1 1245.17 77.2724   1
  -2   6   1 1969.12 80.1060  -2
  -2  -6   1 1969.12 80.1060   1
  -2  -6   1 1279.40 69.1396   2
  -1   6   0 283.066 10.4808  -2
  -1  -6   1 283.066 10.4808   1
   0  -6   1 0.07229 1.66449  -2
   0  -6   1 0.07229 1.66449   1
  -1  -6   2 445.226 18.7905  -2
   1  -6   1 445.226 18.7905   1
  -2  -6   3 49.2004 3.68567  -2
   2  -6   1 49.2004 3.68567   1
  -3  -6   4 18.3391 4.72814  -2
   3  -6   1 18.3391 4.72814   1
   3  -6   1 3.95480 2.95396   1
   3  -6   1 3.23975 2.35046   2
   4  -6   1 112.816 5.38496   2
   4  -6   1 130.096 5.48881   1
   5  -6   1 3.78709 2.10158   1
   5  -6   1 3.02909 2.27823   2
   6  -6   1 0.05464 3.89791   1
   6  -6   1 -1.4482 2.86590   2
   7  -6   1 1.58261 4.10327   1
   8  -6   1 4.45072 3.92728   1
   9  -6   1 49.4774 5.70221   1
  -8  -5   1 29.4523 4.55405   1
  -8  -5   1 23.5226 3.83300   2
  -7  -5   1 5.27179 3.33247   2
  -7  -5   1 8.68394 3.75284   1
  -6  -5   1 15.0886 3.62498   1
  -6  -5   1 11.0579 3.21298   2
  -5  -5   1 90.2871 5.59405   2
  -5  -5   1 102.421 6.60390   1
  -4  -5   1 7.36499 2.92054   1
  -4  -5   1 7.19913 2.56209   2
  -3  -5   1 301.232 13.3069   1
  -3  -5   1 273.925 15.9458   2
  -3   5   2 891.397 55.9472  -2
  -3  -5   1 891.397 55.9472   1
  -2   5   1 1256.77 51.3474  -2
  -2  -5   1 1256.77 51.3474   1
  -2  -5   1 836.859 52.2959   1
  -2  -5   1 799.940 43.5316   2
  -1   5   0 26.3823 2.70244  -2
  -1  -5   1 26.3823 2.70244   1
   0  -5   1 1089.95 37.1600  -2
   0  -5   1 1089.95 37.1600   1
  -1  -5   2 450.953 18.8948  -2
   1  -5   1 450.953 18.8948   1
  -2  -5   3 20.7855 3.67724  -2
   2  -5   1 20.7855 3.67724   1
   2  -5   1 10.6422 2.62907   1
   3  -5   1 549.868 30.3754   1
   3  -5   1 486.357 17.2485   2
  -3  -5   4 615.763 27.3955  -2
   3  -5   1 615.763 27.3955   1
   4  -5   1 87.9938 4.28282   1
   4  -5   1 78.0936 4.10576   2
   5  -5   1 7.30090 2.13393   2
   5  -5   1 7.93317 2.23891   1
   6  -5   1 11.7828 2.98344   1
   6  -5   1 12.2406 2.49583   2
   7  -5   1 4.45971 3.06345   1
   7  -5   1 7.97746 4.57139   2
   8  -5   1 3.72254 5.19309   2
   8  -5   1 4.43045 4.10436   1
   9  -5   1 15.7824 5.97478   2
  -8  -4   1 68.7883 5.58405   1
  -8  -4   1 58.2621 4.82801   2
  -7  -4   1 0.87121 3.41676   1
  -7  -4   1 -0.0549 3.19426   2
  -6  -4   1 24.7002 3.71277   1
  -6  -4   1 23.7798 3.45930   2
  -5  -4   1 55.0323 4.39544   1
  -5  -4   1 53.0557 3.99759   2
  -4  -4   1 68.0705 4.98600   1
  -4  -4   1 58.2639 3.15656   2
  -3  -4   1 242.552 8.99955   1
  -3  -4   1 205.435 12.1409   2
  -2   4   1 212.252 9.55104  -2
  -2  -4   1 212.252 9.55104   1
  -2  -4   1 19.3493 2.68229   2
  -2  -4   1 23.6672 3.95774   1
  -1   4   0 441.421 15.3691  -2
  -1  -4   1 441.421 15.3691   1
   0  -4   1 3073.00 103.717  -2
   0  -4   1 3073.00 103.717   1
  -1  -4   2 658.600 22.5590  -2
   1  -4   1 658.600 22.5590   1
   2  -4   1 5.66822 2.10789   1
  -2  -4   3 121.626 6.53369  -2
   2  -4   1 121.626 6.53369   1
   2  -4   1 7.23741 3.01785   2
   3  -4   1 6.04754 1.69119   2
   3  -4   1 6.76214 1.76911   1
  -3  -4   4 71.6032 7.72154  -2
   3  -4   1 71.6032 7.72154   1
   4  -4   1 12.2819 1.98227   1
   4  -4   1 8.14201 1.98554   2
   5  -4   1 434.012 15.4542   1
   5  -4   1 401.231 14.3462   2
   6  -4   1 51.5633 3.27253   2
   6  -4   1 56.6435 4.14128   1
   7  -4   1 -0.4933 2.85762   1
   7  -4   1 -0.7197 2.77808   2
   8  -4   1 2.00896 5.06888   2
   8  -4   1 5.18862 3.10186   1
   9  -4   1 6.92669 5.64532   2
   9  -4   1 -3.4585 5.98376   1
  -9  -3   1 76.0270 5.63103   2
  -9  -3   1 103.218 10.7612   1
  -8  -3   1 -0.6743 3.28069   2
  -8  -3   1 2.59568 3.59379   1
  -7  -3   1 6.57528 3.39109   1
  -7  -3   1 6.35037 3.13100   2
  -6  -3   1 346.028 16.3047   1
  -6  -3   1 294.813 13.2907   2
  -5  -3   1 29.6118 3.28532   1
  -5  -3   1 26.7756 3.02384   2
  -4  -3   1 92.3453 4.28175   2
  -4  -3   1 108.586 4.56894   1
  -3  -3   1 274.344 9.82895   1
  -3  -3   1 235.702 10.0861   2
  -2  -3   1 3.57643 1.60317   1
  -2  -3   1 6.03828 1.91479   2
  -2   3   1 361.862 23.0802  -2
  -2  -3   1 361.862 23.0802   1
  -1   3   0 422.232 14.5573  -2
  -1  -3   1 422.232 14.5573   1
   0  -3   1 893.683 30.3633  -2
   0  -3   1 893.683 30.3633   1
  -1  -3   2 55.0191 2.70097  -2
   1  -3   1 55.0191 2.70097   1
   2  -3   1 457.504 18.8312   1
   2  -3   1 419.685 14.6760   2
  -2  -3   3 550.343 34.4941  -2
   2  -3   1 550.343 34.4941   1
  -3  -3   4 378.181 24.3921  -2
   3  -3   1 378.181 24.3921   1
   3  -3   1 343.018 14.4826   1
   3  -3   1 317.969 11.4145   2
   4  -3   1 34.5542 2.40980   2
   4  -3   1 34.8752 2.52752   1
   5  -3   1 449.405 15.9311   1
   5  -3   1 422.190 14.9882   2
   6  -3   1 14.0200 2.48169   1
   6  -3   1 8.92159 2.75569   2
   7  -3   1 69.4379 4.83024   1
   7  -3   1 60.3497 4.46367   2
   8  -3   1 -1.1639 2.91850   2
   8  -3   1 -1.1280 5.20548   1
   9  -3   1 9.84105 6.29481   1
   9  -3   1 3.65691 5.52135   2
  -9  -2   1 82.2648 7.52460   2
  -9  -2   1 106.169 11.0438   1
  -8  -2   1 8.59261 3.29967   2
  -8  -2   1 13.8307 5.84495   1
  -7  -2   1 82.6796 5.45282   2
  -7  -2   1 94.4085 8.77351   1
  -6  -2   1 139.455 7.22563   2
  -6  -2   1 165.046 8.80828   1
  -5  -2   1 7.55772 1.59151   1
  -5  -2   1 6.01115 2.58424   2
  -4  -2   1 379.548 13.3618   2
  -4  -2   1 426.736 14.8748   1
  -3  -2   1 167.423 7.40258   2
  -3  -2   1 207.550 7.54435   1
  -2  -2   1 711.325 28.8855   2
  -2  -2   1 813.749 35.6753   1
  -1   2   0 1452.48 58.7902  -2
  -1  -2   1 1452.48 58.7902   1
  -1  -2   1 151.083 9.91463   1
   0  -2   1 962.771 32.5723  -2
   0  -2   1 962.771 32.5723   1
   1  -2   1 7.57537 1.34684   1
  -1  -2   2 261.157 11.6754  -2
   1  -2   1 261.157 11.6754   1
  -2  -2   3 2632.57 162.636  -2
   2  -2   1 2632.57 162.636   1
   2  -2   1 873.907 29.8467   2
   2  -2   1 959.456 38.9003   1
   3  -2   1 248.977 8.97201   2
   3  -2   1 259.343 11.2790   1
  -3  -2   4 426.043 27.2065  -2
   3  -2   1 426.043 27.2065   1
   4  -2   1 70.8650 3.63105   2
   4  -2   1 70.1844 3.55264   1
   5  -2   1 1.39535 1.73652   2
   5  -2   1 2.66743 1.92693   1
   6  -2   1 0.84841 2.11687   1
   6  -2   1 -0.9049 2.51396   2
   7  -2   1 352.119 15.4802   2
   7  -2   1 410.619 17.6504   1
   8  -2   1 -2.5336 2.88926   2
   8  -2   1 1.91607 5.29095   1
   9  -2   1 9.97234 3.34111   2
   9  -2   1 15.0039 5.91179   1
  -9  -1   1 36.9392 4.03765   2
  -9  -1   1 45.4134 7.57879   1
  -8  -1   1 7.89114 5.05653   1
  -8  -1   1 -1.0601 2.86358   2
  -7  -1   1 299.373 13.4150   2
  -7  -1   1 385.262 17.9739   1
  -6  -1   1 1.57680 2.63759   2
  -6  -1   1 6.41629 1.85874   1
  -5  -1   1 9.12953 1.71145   1
  -5  -1   1 6.97113 2.22432   2
  -4  -1   1 497.033 17.1955   1
  -4  -1   1 441.803 15.3383   2
  -3  -1   1 367.883 12.7790   2
  -3  -1   1 411.708 14.2243   1
  -2  -1   1 324.993 13.4730   2
  -2  -1   1 419.742 14.4014   1
  -1  -1   1 209.288 7.29575   1
  -1  -1   1 194.432 8.00413   2
   0  -1   1 101.949 4.26056  -2
   0  -1   1 101.949 4.26056   1
   1  -1   1 423.763 17.4706   2
   1  -1   1 493.939 20.0343   1
  -1  -1   2 680.935 42.1940  -2
   1  -1   1 680.935 42.1940   1
   2  -1   1 23.5481 1.45211   2
   2  -1   1 21.2288 1.75453   1
  -2  -1   3 609.621 38.0952  -2
   2  -1   1 609.621 38.0952   1
   3  -1   1 41.9829 2.38489   2
   3  -1   1 45.2333 2.96666   1
  -3  -1   4 557.514 35.2741  -2
   3  -1   1 557.514 35.2741   1
   4  -1   1 639.021 22.0149   1
   4  -1   1 559.980 19.3678   2
   5  -1   1 130.824 5.48755   1
   5  -1   1 119.036 5.02574   2
   6  -1   1 -1.4082 2.41455   2
   6  -1   1 1.73203 2.03093   1
   7  -1   1 155.102 8.02701   2
   7  -1   1 196.900 10.3658   1
   8  -1   1 -0.7886 2.98222   2
   8  -1   1 6.81576 5.37166   1
   9  -1   1 107.569 11.1268   1
   9  -1   1 79.5183 5.60597   2
  -9   0   1 10.2157 5.68124   1
  -9   0   1 0.65013 3.07452   2
  -8   0   1 -1.2745 2.81255   2
  -8   0   1 3.41946 5.22831   1
  -7   0   1 232.062 10.7546   2
  -7   0   1 276.369 19.3819   1
  -6   0   1 8.84957 1.98340   1
  -6   0   1 4.31704 2.55090   2
  -5   0   1 162.427 6.24757   2
  -5   0   1 175.312 6.66430   1
  -4   0   1 178.862 6.64615   1
  -4   0   1 157.830 5.94615   2
  -3   0   1 91.1044 3.64638   2
  -3   0   1 98.0302 3.85666   1
  -2   0   1 34.8818 1.70063   1
  -2   0   1 32.1401 1.56349   2
  -1   0   1 15.9939 0.82822   2
  -1   0   1 19.0094 0.87999   1
   0   0   1 11.1268 0.62183  -2
   0   0   1 11.1268 0.62183   1
   1   0   1 282.233 11.5256   1
   1   0   1 283.822 9.71742   2
  -1   0   2 810.214 50.2240  -2
   1   0   1 810.214 50.2240   1
   2   0   1 1526.54 61.5308   1
   2   0   1 1442.43 58.5410   2
  -2   0   3 3375.12 208.348  -2
   2   0   1 3375.12 208.348   1
   3   0   1 189.168 8.17319   1
   3   0   1 166.435 6.08187   2
  -3   0   4 261.583 17.4581  -2
   3   0   1 261.583 17.4581   1
   4   0   1 35.0348 2.21152   1
   4   0   1 31.6446 2.06944   2
   5   0   1 14.6108 1.95818   1
   5   0   1 9.70143 2.53683   2
   6   0   1 132.538 6.95712   2
   6   0   1 156.415 8.47719   1
   7   0   1 0.72066 2.77410   2
   7   0   1 1.84008 3.08108   1
   8   0   1 -0.9072 5.40621   1
   8   0   1 -3.0211 3.03459   2
   9   0   1 96.6720 6.22487   2
   9   0   1 138.821 12.7947   1
  -9   1   1 1.47310 2.91330   2
  -9   1   1 10.1681 5.96412   1
  -8   1   1 2.59770 5.23930   1
  -8   1   1 -0.2196 2.66330   2
  -7   1   1 16.5788 2.96907   1
  -7   1   1 11.2394 2.75060   2
  -6   1   1 1.26469 2.27371   2
  -6   1   1 1.49626 1.84467   1
  -5   1   1 772.992 26.5513   2
  -5   1   1 839.590 28.7783   1
  -4   1   1 178.343 6.63910   2
  -4   1   1 197.117 7.28833   1
  -3   1   1 36.1202 2.02915   2
  -3   1   1 39.0563 2.19360   1
  -2   1   1 1915.47 64.6559   1
  -2   1   1 1931.16 65.1520   2
  -1   1   1 743.817 30.0459   2
  -1   1   1 750.973 40.3348   1
   1   1   0 1982.66 86.2157  -2
  -1   1   1 1982.66 86.2157   1
   0   1   1 371.141 12.6553  -2
   0   1   1 371.141 12.6553   1
   1   1   1 107.197 4.56810   2
  -1   1   2 231.216 14.7187  -2
   1   1   1 231.216 14.7187   1
   1   1   1 122.614 8.00262   1
   2   1   1 1.11599 0.76330   1
   2   1   1 3.00597 1.58055   2
   3   1   1 640.422 26.0827   1
   3   1   1 561.099 30.7353   2
   4   1   1 383.208 13.4454   1
   4   1   1 326.260 14.1103   2
   5   1   1 84.2033 4.63461   1
   5   1   1 75.1505 4.86782   2
   6   1   1 130.281 7.10392   2
   6   1   1 156.953 8.49299   1
   7   1   1 10.4846 3.05429   2
   7   1   1 14.6613 3.55102   1
   8   1   1 4.00240 3.20336   2
   8   1   1 7.82116 5.86426   1
   9   1   1 28.5354 4.01838   2
   9   1   1 38.3759 7.43787   1
  -9   2   1 0.16302 5.38514   2
  -9   2   1 3.02243 5.81657   1
  -8   2   1 -0.8567 2.59728   2
  -8   2   1 -0.7805 5.17744   1
  -7   2   1 7.73454 2.89085   1
  -7   2   1 3.92877 2.51728   2
  -6   2   1 22.4427 2.97122   1
  -6   2   1 23.2340 2.22710   2
  -5   2   1 271.811 9.89743   2
  -5   2   1 304.737 10.9682   1
  -4   2   1 5.75351 1.51449   2
  -4   2   1 5.07004 1.66096   1
  -3   2   1 161.524 6.03890   2
  -3   2   1 144.856 6.69581   1
  -3  -2   2 211.068 14.6880  -2
  -3   2   1 211.068 14.6880   1
  -2   2   1 382.979 15.7411   1
  -2  -2   1 1237.32 76.9448  -2
  -2   2   1 1237.32 76.9448   1
  -2   2   1 378.641 13.1058   2
   1   2   0 842.018 36.8226  -2
  -1   2   1 842.018 36.8226   1
  -1   2   1 725.421 44.7362   2
  -1   2   1 778.237 41.9060   1
   0   2   1 5823.24 196.159  -2
   0   2   1 5823.24 196.159   1
  -1   2   2 350.425 14.4129  -2
   1   2   1 350.425 14.4129   1
   1   2   1 7.75105 1.90663   1
   1   2   1 8.99085 1.45598   2
  -2   2   3 208.883 13.9571  -2
   2   2   1 208.883 13.9571   1
   2   2   1 106.918 7.67762   1
   2   2   1 90.6013 5.80764   2
  -3   2   4 1744.18 108.146  -2
   3   2   1 1744.18 108.146   1
   3   2   1 557.870 22.8175   1
   3   2   1 508.168 28.0540   2
   4   2   1 95.4478 4.08520   1
   4   2   1 77.6314 4.71891   2
   5   2   1 157.531 8.42218   1
   5   2   1 126.222 6.66110   2
   6   2   1 11.4210 3.32530   1
   6   2   1 6.94068 3.02074   2
   7   2   1 14.7813 3.25857   2
   7   2   1 20.9759 3.92915   1
   8   2   1 44.8420 4.28113   2
   8   2   1 49.1265 5.05671   1
   9   2   1 0.79655 3.26815   2
   9   2   1 1.94667 5.91104   1
  -9   3   1 45.1594 7.24677   1
  -9   3   1 36.7053 6.61044   2
  -8   3   1 1.66239 3.05643   1
  -8   3   1 -0.9753 4.87128   2
  -7   3   1 0.63728 2.85387   1
  -7   3   1 -1.4696 2.34507   2
  -6   3   1 7.82098 2.77559   1
  -6   3   1 7.39139 2.04832   2
  -5   3   1 50.6286 2.98293   2
  -5   3   1 59.2101 3.52250   1
  -4   3   1 71.7310 3.66072   2
  -4   3   1 68.2525 3.55775   1
  -3   3   1 560.978 23.0733   1
  -3   3   1 531.123 18.3782   2
  -3  -3   2 643.657 40.7209  -2
  -3   3   1 643.657 40.7209   1
  -2   3   1 345.319 14.5422   2
  -2  -3   1 436.165 19.4115  -2
  -2   3   1 436.165 19.4115   1
  -2   3   1 377.260 20.8318   1
  -1   3   1 188.014 10.6614   1
  -1   3   1 172.525 11.4457   2
   1   3   0 357.851 16.0871  -2
  -1   3   1 357.851 16.0871   1
   0   3   1 182.856 6.63375  -2
   0   3   1 182.856 6.63375   1
   1   3   1 185.508 10.5396   2
  -1   3   2 381.189 15.8038  -2
   1   3   1 381.189 15.8038   1
   1   3   1 204.740 13.5271   1
   2   3   1 1665.86 89.5202   2
   2   3   1 1949.67 78.7069   1
  -2   3   3 2178.22 134.991  -2
   2   3   1 2178.22 134.991   1
   3   3   1 222.051 9.54444   1
   3   3   1 186.187 8.14275   2
  -3   3   4 657.464 41.6782  -2
   3   3   1 657.464 41.6782   1
   4   3   1 0.58281 2.43155   2
   4   3   1 2.44106 2.35856   1
   5   3   1 392.325 17.0316   2
   5   3   1 438.778 20.2093   1
   6   3   1 34.4697 3.68724   2
   6   3   1 37.2652 4.12872   1
   7   3   1 9.94320 3.63459   1
   7   3   1 10.9648 3.40509   2
   8   3   1 1.39014 3.41362   2
   8   3   1 0.79997 3.73135   1
  -9   4   1 114.988 10.8226   2
  -9   4   1 114.366 12.2697   1
  -8   4   1 15.8279 3.30228   1
  -8   4   1 16.0580 5.31145   2
  -7   4   1 3.71528 4.42237   2
  -7   4   1 3.88709 3.04972   1
  -6   4   1 -0.3218 2.76252   1
  -6   4   1 -0.7110 1.96835   2
  -5   4   1 2.22578 1.89993   2
  -5   4   1 -1.0172 2.00828   1
  -4   4   1 193.999 7.39209   1
  -4   4   1 189.920 7.27754   2
  -3   4   1 29.3641 2.22916   2
  -3  -4   2 46.8223 6.86726  -2
  -3   4   1 46.8223 6.86726   1
  -3   4   1 29.6869 2.35527   1
  -2  -4   1 226.211 10.6528  -2
  -2   4   1 226.211 10.6528   1
  -2   4   1 186.538 12.8804   2
  -2   4   1 206.276 12.0729   1
   1   4   0 630.728 21.7122  -2
  -1   4   1 630.728 21.7122   1
   0   4   1 811.690 27.7355  -2
   0   4   1 811.690 27.7355   1
  -1   4   2 349.543 12.3349  -2
   1   4   1 349.543 12.3349   1
   2   4   1 1111.41 60.0647   2
  -2   4   3 1852.52 75.2118  -2
   2   4   1 1852.52 75.2118   1
   2   4   1 1186.64 73.4153   1
  -3   4   4 70.7915 8.24314  -2
   3   4   1 70.7915 8.24314   1
   3   4   1 8.88444 1.35922   1
   3   4   1 7.26815 2.84258   2
   4   4   1 278.773 12.4714   2
   4   4   1 307.706 14.5754   1
   5   4   1 109.855 6.71336   1
   5   4   1 97.2864 6.05097   2
   6   4   1 0.35429 3.31744   1
   6   4   1 0.51214 2.89439   2
   7   4   1 99.3689 6.28725   2
   7   4   1 113.482 7.50782   1
   8   4   1 2.22604 3.51333   2
   8   4   1 3.16444 3.97668   1
  -9   5   1 20.5447 3.69080   1
  -8   5   1 1.95500 3.15335   1
  -7   5   1 176.362 8.89129   1
  -7   5   1 181.823 13.6349   2
  -6   5   1 6.48845 2.86378   1
  -6   5   1 5.38232 3.14349   2
  -5   5   1 32.3858 3.45047   1
  -5   5   1 38.8129 3.78127   2
  -4   5   1 103.028 4.76213   2
  -4   5   1 103.851 4.64445   1
  -3   5   1 259.013 9.63783   2
  -3  -5   2 371.892 17.0627  -2
  -3   5   1 371.892 17.0627   1
  -3   5   1 279.836 16.2551   1
  -2   5   1 485.046 31.0467   2
  -2  -5   1 1218.92 53.4341  -2
  -2   5   1 1218.92 53.4341   1
  -2   5   1 465.966 25.7622   1
   1   5   0 41.7356 3.17165  -2
  -1   5   1 41.7356 3.17165   1
   0   5   1 455.175 15.9313  -2
   0   5   1 455.175 15.9313   1
  -1   5   2 42.9812 3.12137  -2
   1   5   1 42.9812 3.12137   1
  -2   5   3 102.024 5.48529  -2
   2   5   1 102.024 5.48529   1
   2   5   1 9.04649 2.92258   2
   2   5   1 6.34042 3.63854   1
   3   5   1 85.0366 4.77844   2
   3   5   1 81.1209 8.05138   1
  -3   5   4 221.105 16.2309  -2
   3   5   1 221.105 16.2309   1
   4   5   1 778.243 34.7657   1
   4   5   1 734.951 30.6719   2
   5   5   1 42.1311 4.14689   1
   5   5   1 44.1548 4.04645   2
   6   5   1 1.69108 3.21837   2
   6   5   1 0.96223 3.47169   1
   7   5   1 68.1494 5.19844   2
   7   5   1 73.4962 5.87086   1
   8   5   1 -1.1393 3.41528   2
   8   5   1 2.70126 4.09921   1
  -8   6   1 9.28898 5.19857   2
  -8   6   1 13.2994 4.48337   1
  -7   6   1 87.5356 5.73145   1
  -7   6   1 87.0676 6.41332   2
  -6   6   1 1.27897 3.23357   2
  -6   6   1 4.82317 3.03408   1
  -5   6   1 32.0924 3.68055   2
  -5   6   1 31.4622 3.50497   1
  -4   6   1 6.95751 2.70934   2
  -4   6   1 8.40449 2.17810   1
  -4  -6   3 28.5959 8.74268  -2
  -4   6   1 28.5959 8.74268   1
  -3   6   1 8.44101 3.35100   1
  -3   6   1 8.14246 4.41309   2
  -3  -6   2 42.1828 5.00739  -2
  -3   6   1 42.1828 5.00739   1
  -2   6   1 834.399 45.4958   1
  -2   6   1 741.022 46.6059   2
  -2  -6   1 1855.47 81.0293  -2
  -2   6   1 1855.47 81.0293   1
   1   6   0 840.347 28.8898  -2
  -1   6   1 840.347 28.8898   1
   0   6   1 242.549 9.06154  -2
   0   6   1 242.549 9.06154   1
  -1   6   2 570.623 19.9736  -2
   1   6   1 570.623 19.9736   1
  -2   6   3 39.4645 8.58510  -2
   2   6   1 39.4645 8.58510   1
   2   6   1 23.8406 3.54199   2
   2   6   1 24.2685 5.02345   1
   3   6   1 11.2573 4.99576   1
   3   6   1 4.05936 3.55133   2
  -3   6   4 37.5493 8.51951  -2
   3   6   1 37.5493 8.51951   1
   4   6   1 117.853 8.89990   2
   4   6   1 127.343 7.68216   1
   5   6   1 2.89459 3.01220   2
   5   6   1 5.78274 3.37084   1
   6   6   1 88.7043 6.17960   2
   6   6   1 95.3270 6.84668   1
   7   6   1 22.0538 4.54780   1
   7   6   1 18.7264 3.73173   2
  -8   7   1 -0.3156 4.34230   1
  -8   7   1 -4.8749 4.70609   2
  -7   7   1 8.45269 4.39514   1
  -7   7   1 7.15358 3.56645   2
  -6   7   1 30.2184 3.91428   2
  -6   7   1 33.4320 4.74348   1
  -5   7   1 183.885 9.83970   2
  -5   7   1 194.892 12.2091   1
  -4   7   1 14.5437 3.05703   2
  -4   7   1 13.2956 3.96509   1
  -3  -7   2 7.86441 4.80426  -2
  -3   7   1 7.86441 4.80426   1
  -3   7   1 4.66104 3.29733   1
  -3   7   1 -0.0135 4.08473   2
  -2  -7   1 164.990 6.97121  -2
  -2   7   1 164.990 6.97121   1
   1   7   0 79.4227 5.49109  -2
  -1   7   1 79.4227 5.49109   1
   0   7   1 2038.37 69.1689  -2
   0   7   1 2038.37 69.1689   1
  -1   7   2 274.623 10.2523  -2
   1   7   1 274.623 10.2523   1
  -2   7   3 56.0577 6.81912  -2
   2   7   1 56.0577 6.81912   1
   3   7   1 11.2301 3.72908   2
   3   7   1 13.9413 5.32829   1
  -3   7   4 21.9746 9.72055  -2
   3   7   1 21.9746 9.72055   1
   4   7   1 20.4200 4.77185   2
   4   7   1 21.7303 3.70416   1
   5   7   1 41.3327 4.55447   1
   5   7   1 39.5176 4.27280   2
   6   7   1 115.458 7.79810   1
   6   7   1 110.527 7.08768   2
   7   7   1 1.62157 5.24029   2
   7   7   1 -3.7450 4.08124   1
  -7   8   1 9.10886 4.62126   1
  -7   8   1 9.25400 5.57800   2
  -6   8   1 74.7244 7.29843   1
  -6   8   1 63.5222 7.70380   2
  -5   8   1 35.9552 4.89947   1
  -5   8   1 30.6232 6.06591   2
  -4   8   1 8.72048 3.24109   2
  -4   8   1 9.10307 3.76686   1
  -3   8   1 79.5884 8.65862   2
  -3   8   1 95.6917 7.79961   1
  -3  -8   2 103.263 9.65602  -2
  -3   8   1 103.263 9.65602   1
  -2  -8   1 194.011 9.39972  -2
  -2   8   1 194.011 9.39972   1
   1   8   0 246.397 15.1426  -2
  -1   8   1 246.397 15.1426   1
   0   8   1 392.424 14.1542  -2
   0   8   1 392.424 14.1542   1
  -1   8   2 206.291 10.9679  -2
   1   8   1 206.291 10.9679   1
  -2   8   3 400.900 19.4239  -2
   2   8   1 400.900 19.4239   1
   3   8   1 6.97089 5.34758   1
   3   8   1 7.30471 3.86958   2
  -3   8   4 77.2092 11.8571  -2
   3   8   1 77.2092 11.8571   1
   4   8   1 0.83450 3.57300   1
   4   8   1 0.10308 3.99821   2
   5   8   1 5.42597 3.47780   2
   5   8   1 5.47173 3.69549   1
   6   8   1 14.7369 4.19867   1
   6   8   1 10.1666 5.08598   2
  -7   9   1 10.8810 5.43723   2
  -6   9   1 9.18115 5.61788   2
  -6   9   1 12.1722 4.37658   1
  -5   9   1 5.55770 4.94294   2
  -5   9   1 10.4754 4.54279   1
  -4   9   1 67.6298 7.84671   2
  -4   9   1 81.2161 7.66002   1
  -3   9   1 77.5296 8.04529   2
  -3   9   1 94.6439 8.07664   1
  -2  -9   1 11.6697 4.79348  -2
  -2   9   1 11.6697 4.79348   1
   1   9   0 47.9770 6.83910  -2
  -1   9   1 47.9770 6.83910   1
   0   9   1 371.816 16.1333  -2
   0   9   1 371.816 16.1333   1
  -1   9   2 8.53125 7.09975  -2
   1   9   1 8.53125 7.09975   1
  -2   9   3 282.074 20.3090  -2
   2   9   1 282.074 20.3090   1
   3   9   1 34.0672 5.46664   2
   3   9   1 30.2815 6.36934   1
   4   9   1 1.89835 4.69045   2
   4   9   1 -3.5654 5.64002   1
   5   9   1 12.6593 5.14767   2
   5   9   1 9.69948 6.44091   1
  -5  10   1 10.8453 4.83655   1
  -5  10   1 15.9236 5.97339   2
  -4  10   1 136.063 10.2040   1
  -4  10   1 114.845 10.3133   2
  -3  10   1 7.48298 4.62398   1
  -3  10   1 9.72884 4.89941   2
  -2 -10   1 28.3965 5.13335  -2
  -2  10   1 28.3965 5.13335   1
   1  10   0 125.344 10.2677  -2
  -1  10   1 125.344 10.2677   1
  -1  10   2 11.0844 7.03229  -2
   1  10   1 11.0844 7.03229   1
  -2  10   3 102.450 11.2428  -2
   2  10   1 102.450 11.2428   1
   3  10   1 5.64574 5.08585   2
   3  10   1 12.7118 5.37346   1
   4  10   1 21.1676 5.58107   2
  -4  11   1 10.6110 4.63291   1
  -3  11   1 16.2211 5.29901   1
  -2 -11   1 201.791 14.9028  -2
  -2  11   1 201.791 14.9028   1
   1  11   0 50.8605 8.04125  -2
  -1  11   1 50.8605 8.04125   1
   0  11   1 10.2334 5.27308  -2
   0  11   1 10.2334 5.27308   1
  -1  11   2 9.85903 7.74855  -2
   1  11   1 9.85903 7.74855   1
  -2  11   3 63.2174 10.3308  -2
   2  11   1 63.2174 10.3308   1
   0 -12   2 46.1896 6.47726  -2
   0 -12   2 46.1896 6.47726   1
  -1 -12   3 7.91241 6.76928  -2
   1 -12   2 7.91241 6.76928   1
  -2 -12   4 1.67612 8.14386  -2
   2 -12   2 1.67612 8.14386   1
  -3  11   1 25.9730 9.92830  -2
  -3 -11   2 25.9730 9.92830   1
  -3 -11   2 16.3500 5.44422   2
   0 -11   2 29.4715 5.60464  -2
   0 -11   2 29.4715 5.60464   1
  -1 -11   3 68.1485 5.79958  -2
   1 -11   2 68.1485 5.79958   1
  -2 -11   4 80.3298 6.64642  -2
   2 -11   2 80.3298 6.64642   1
  -3 -11   5 16.6572 9.09173  -2
   3 -11   2 16.6572 9.09173   1
   4 -11   2 0.80049 4.58877   1
   4 -11   2 -1.3208 5.54215   2
  -4 -10   2 10.0896 4.91469   2
  -4 -10   2 13.2204 5.59372   1
  -3 -10   2 16.9935 4.88782   2
  -3 -10   2 11.3507 4.93533   1
  -2  10   0 14.9441 7.97875  -2
  -2 -10   2 14.9441 7.97875   1
   0 -10   2 68.1394 4.88004  -2
   0 -10   2 68.1394 4.88004   1
  -1 -10   3 58.1736 5.49460  -2
   1 -10   2 58.1736 5.49460   1
  -2 -10   4 23.8587 5.26851  -2
   2 -10   2 23.8587 5.26851   1
  -3 -10   5 93.6806 9.99808  -2
   3 -10   2 93.6806 9.99808   1
   3 -10   2 79.7911 7.64914   1
   4 -10   2 17.6574 4.76802   1
   5 -10   2 12.5753 4.65007   1
   5 -10   2 15.4359 5.88849   2
   6 -10   2 5.09894 5.59973   2
  -5  -9   2 8.41886 4.64025   2
  -5  -9   2 5.50579 5.30476   1
  -4  -9   2 5.14388 5.26964   1
  -4  -9   2 3.75248 4.20380   2
  -3  -9   2 8.39846 4.89550   1
  -3  -9   2 14.9801 4.38737   2
  -2   9   0 83.9459 9.88194  -2
  -2  -9   2 83.9459 9.88194   1
   1  -9   1 97.4771 8.09750  -2
  -1  -9   2 97.4771 8.09750   1
   0  -9   2 91.0130 5.62892  -2
   0  -9   2 91.0130 5.62892   1
  -1  -9   3 47.1114 4.97459  -2
   1  -9   2 47.1114 4.97459   1
  -2  -9   4 105.635 6.66872  -2
   2  -9   2 105.635 6.66872   1
   3  -9   2 236.588 14.5797   1
  -3  -9   5 227.500 16.3205  -2
   3  -9   2 227.500 16.3205   1
   3  -9   2 206.200 15.3624   2
   4  -9   2 1.39793 5.06392   2
   4  -9   2 2.95805 3.73573   1
   5  -9   2 57.9242 5.83851   1
   5  -9   2 58.2731 7.66331   2
   6  -9   2 1.54969 3.94378   1
  -7  -8   2 10.8891 5.12492   1
  -6  -8   2 60.4319 6.22592   2
  -6  -8   2 74.5838 5.95912   1
  -5  -8   2 69.6400 5.64117   1
  -5  -8   2 54.3631 6.01227   2
  -4  -8   2 3.13888 3.67803   2
  -4  -8   2 4.27428 3.25322   1
  -3  -8   2 13.1192 5.03476   1
  -3  -8   2 16.3301 4.06884   2
  -2   8   0 3.19119 4.31070  -2
  -2  -8   2 3.19119 4.31070   1
   1  -8   1 65.2833 5.00390  -2
  -1  -8   2 65.2833 5.00390   1
   0  -8   2 140.825 7.12575  -2
   0  -8   2 140.825 7.12575   1
  -1  -8   3 104.730 6.18460  -2
   1  -8   2 104.730 6.18460   1
  -2  -8   4 150.281 8.11871  -2
   2  -8   2 150.281 8.11871   1
  -3  -8   5 39.2477 7.74673  -2
   3  -8   2 39.2477 7.74673   1
   3  -8   2 36.7830 5.83523   2
   3  -8   2 34.6518 4.52386   1
   4  -8   2 68.2040 4.71952   1
   4  -8   2 59.5528 7.14578   2
   5  -8   2 268.010 16.0227   1
   5  -8   2 257.359 18.4149   2
   6  -8   2 11.9507 4.40909   1
   6  -8   2 6.92968 5.29424   2
   7  -8   2 36.5177 5.14856   1
  -7  -7   2 1.38302 4.20533   2
  -7  -7   2 1.86156 3.62328   1
  -6  -7   2 11.6423 3.77238   1
  -6  -7   2 10.0218 4.51529   2
  -5  -7   2 23.1181 3.48958   2
  -5  -7   2 22.8744 3.74762   1
  -4  -7   2 55.5407 4.59388   1
  -4  -7   2 47.6798 5.09541   2
  -3  -7   2 -1.4833 3.37012   2
  -3  -7   2 -1.5119 4.47451   1
  -3   7   1 12.1984 8.63402  -2
  -3  -7   2 12.1984 8.63402   1
  -2   7   0 125.769 6.14103  -2
  -2  -7   2 125.769 6.14103   1
   1  -7   1 161.779 6.80174  -2
  -1  -7   2 161.779 6.80174   1
   0  -7   2 0.06049 2.28871  -2
   0  -7   2 0.06049 2.28871   1
  -1  -7   3 48.6041 4.31115  -2
   1  -7   2 48.6041 4.31115   1
  -2  -7   4 380.475 16.5477  -2
   2  -7   2 380.475 16.5477   1
   3  -7   2 52.6016 5.22887   1
  -3  -7   5 52.7853 7.38642  -2
   3  -7   2 52.7853 7.38642   1
   3  -7   2 50.1795 6.30238   2
   4  -7   2 133.257 6.75229   1
   4  -7   2 120.690 7.12612   2
   5  -7   2 230.749 14.0419   1
   5  -7   2 192.835 9.42745   2
   6  -7   2 16.5291 5.29993   2
   6  -7   2 16.5167 4.49881   1
   7  -7   2 103.640 8.09512   1
   8  -7   2 -2.4961 4.27783   1
  -8  -6   2 12.0151 4.01172   1
  -8  -6   2 11.0123 3.60811   2
  -7  -6   2 56.1682 4.70085   2
  -7  -6   2 71.6122 5.85010   1
  -6  -6   2 10.9253 3.33479   2
  -6  -6   2 10.6735 3.53809   1
  -5  -6   2 54.6569 4.68204   1
  -5  -6   2 47.3479 4.05993   2
  -4  -6   2 175.469 9.18851   1
  -4  -6   2 162.569 10.4105   2
  -3   6   1 43.6005 5.36232  -2
  -3  -6   2 43.6005 5.36232   1
  -3  -6   2 29.9462 5.49730   1
  -3  -6   2 34.6291 4.25602   2
  -2   6   0 306.410 11.3766  -2
  -2  -6   2 306.410 11.3766   1
  -2  -6   2 82.3217 6.12332   2
   1  -6   1 422.520 15.0325  -2
  -1  -6   2 422.520 15.0325   1
   0  -6   2 392.798 16.6457  -2
   0  -6   2 392.798 16.6457   1
  -1  -6   3 493.538 17.2795  -2
   1  -6   2 493.538 17.2795   1
  -2  -6   4 697.747 24.1928  -2
   2  -6   2 697.747 24.1928   1
   3  -6   2 0.69468 3.18374   1
   3  -6   2 1.95222 2.19616   2
  -3  -6   5 51.3713 7.29025  -2
   3  -6   2 51.3713 7.29025   1
   4  -6   2 114.301 5.40786   2
   4  -6   2 127.657 6.44830   1
   5  -6   2 13.3378 2.40702   2
   5  -6   2 15.6467 2.91078   1
   6  -6   2 64.2321 6.12562   1
   6  -6   2 57.4794 6.81462   2
   7  -6   2 266.775 15.9683   1
   7  -6   2 226.068 16.5544   2
   8  -6   2 6.99918 5.16985   2
   8  -6   2 5.00418 4.30115   1
  -8  -5   2 -2.0657 3.45203   2
  -8  -5   2 -0.6331 3.74577   1
  -7  -5   2 60.4816 5.20406   1
  -7  -5   2 61.0132 4.62679   2
  -6  -5   2 94.7719 6.53938   1
  -6  -5   2 85.2327 5.74884   2
  -5  -5   2 22.5190 3.53504   1
  -5  -5   2 18.6490 2.97881   2
  -4  -5   2 303.925 12.9823   2
  -4  -5   2 354.834 16.4702   1
  -3  -5   2 65.9663 3.67861   1
  -3  -5   2 60.1748 5.24591   2
  -2   5   0 966.468 39.6246  -2
  -2  -5   2 966.468 39.6246   1
  -2  -5   2 418.313 23.2850   2
  -2  -5   2 427.720 27.6179   1
   1  -5   1 415.225 14.6034  -2
  -1  -5   2 415.225 14.6034   1
   0  -5   2 338.958 14.3702  -2
   0  -5   2 338.958 14.3702   1
  -1  -5   3 576.718 19.9353  -2
   1  -5   2 576.718 19.9353   1
   2  -5   2 53.9596 4.73781   1
  -2  -5   4 62.0196 4.54015  -2
   2  -5   2 62.0196 4.54015   1
   3  -5   2 2.42865 1.77895   2
  -3  -5   5 49.9528 4.69601  -2
   3  -5   2 49.9528 4.69601   1
   3  -5   2 4.46482 2.68890   1
   4  -5   2 218.144 8.19509   1
   4  -5   2 188.347 7.56929   2
   5  -5   2 8.16106 2.30454   1
   5  -5   2 6.53859 2.20834   2
   6  -5   2 58.7316 3.68091   2
   6  -5   2 61.3527 4.41699   1
   7  -5   2 124.922 9.14520   1
   7  -5   2 112.219 6.79071   2
   8  -5   2 14.9161 4.37784   1
   8  -5   2 9.02231 5.13243   2
   9  -5   2 74.0547 8.50444   2
  -9  -4   2 -0.7985 3.37406   2
  -8  -4   2 2.12165 3.74207   1
  -8  -4   2 2.11146 3.32349   2
  -7  -4   2 56.6363 4.90965   1
  -7  -4   2 45.9283 4.23276   2
  -6  -4   2 57.4148 4.41556   2
  -6  -4   2 58.4566 4.78515   1
  -5  -4   2 33.8202 3.40091   2
  -5  -4   2 41.1412 3.88694   1
  -4  -4   2 51.8981 3.09277   1
  -4  -4   2 46.9801 2.84318   2
  -3  -4   2 1.85928 1.58439   2
  -3  -4   2 3.19124 1.73338   1
  -2  -4   2 2245.39 137.864   1
  -2  -4   2 1984.92 106.514   2
  -2   4   0 3191.15 129.304  -2
  -2  -4   2 3191.15 129.304   1
   1  -4   1 590.557 20.3089  -2
  -1  -4   2 590.557 20.3089   1
   0  -4   2 689.420 28.2138  -2
   0  -4   2 689.420 28.2138   1
  -1  -4   3 1348.33 45.7078  -2
   1  -4   2 1348.33 45.7078   1
  -2  -4   4 508.902 22.6973  -2
   2  -4   2 508.902 22.6973   1
   2  -4   2 67.2590 5.19382   2
   2  -4   2 89.1611 6.28953   1
   3  -4   2 105.577 5.34088   1
   3  -4   2 90.9654 4.43369   2
  -3  -4   5 131.661 9.33782  -2
   3  -4   2 131.661 9.33782   1
   4  -4   2 20.5213 2.61371   1
   4  -4   2 15.3254 2.05246   2
  -4  -4   6 252.305 16.9635  -2
   4  -4   2 252.305 16.9635   1
   5  -4   2 12.7080 2.61551   2
   5  -4   2 16.4561 2.30863   1
   6  -4   2 59.5449 3.62431   1
   6  -4   2 53.9667 4.24708   2
   7  -4   2 0.07044 2.95057   1
   7  -4   2 2.05135 3.04204   2
   8  -4   2 8.77540 3.31984   2
   8  -4   2 10.1208 5.42200   1
   9  -4   2 81.6420 8.93496   2
  -9  -3   2 2.46460 3.33052   2
  -9  -3   2 0.78184 6.00734   1
  -8  -3   2 22.2305 3.63860   2
  -8  -3   2 35.1859 6.56090   1
  -7  -3   2 3.09247 2.93075   2
  -7  -3   2 2.41957 3.20155   1
  -6  -3   2 2.18233 2.65798   2
  -6  -3   2 0.71016 3.95424   1
  -5  -3   2 62.9606 4.48884   2
  -5  -3   2 76.6466 4.35939   1
  -4  -3   2 495.090 17.2429   1
  -4  -3   2 426.120 15.0098   2
  -3  -3   2 57.3313 3.31640   2
  -3  -3   2 63.1442 3.99107   1
  -2  -3   2 488.330 26.6930   2
  -2  -3   2 548.082 18.9291   1
   1  -3   1 52.5347 2.62417  -2
  -1  -3   2 52.5347 2.62417   1
   0  -3   2 7520.35 253.305  -2
   0  -3   2 7520.35 253.305   1
  -1  -3   3 249.993 8.83351  -2
   1  -3   2 249.993 8.83351   1
   2  -3   2 215.882 9.26512   1
   2  -3   2 189.530 8.52291   2
  -2  -3   4 1010.34 62.7844  -2
   2  -3   2 1010.34 62.7844   1
   3  -3   2 984.409 33.7174   2
   3  -3   2 1115.25 45.3696   1
  -3  -3   5 1273.44 78.8589  -2
   3  -3   2 1273.44 78.8589   1
   4  -3   2 2.52278 2.05115   1
   4  -3   2 1.04217 1.71326   2
  -4  -3   6 146.951 11.5552  -2
   4  -3   2 146.951 11.5552   1
   5  -3   2 -0.1352 1.94717   1
   5  -3   2 0.20691 1.90193   2
   6  -3   2 102.637 5.06654   1
   6  -3   2 82.8365 5.39674   2
   7  -3   2 -2.1755 2.78681   2
   7  -3   2 1.21919 2.89006   1
   8  -3   2 2.08610 3.10048   2
   8  -3   2 -1.6774 5.14567   1
   9  -3   2 3.72146 5.73715   2
  -9  -2   2 4.97257 3.38040   2
  -9  -2   2 1.86721 6.03370   1
  -8  -2   2 19.8579 3.47647   2
  -7  -2   2 22.9333 3.41233   2
  -7  -2   2 35.7472 3.91093   1
  -6  -2   2 70.4932 5.32951   1
  -6  -2   2 61.7482 4.40930   2
  -5  -2   2 4.46916 1.62042   1
  -5  -2   2 0.90767 2.37173   2
  -4  -2   2 114.185 4.70104   2
  -4  -2   2 128.424 5.10901   1
  -3  -2   2 40.2504 2.29737   1
  -3  -2   2 29.1356 2.26535   2
  -2  -2   2 309.680 12.8562   2
  -2  -2   2 343.157 12.0425   1
  -1  -2   2 248.884 13.8394   1
   1  -2   1 254.755 11.4727  -2
  -1  -2   2 254.755 11.4727   1
  -1  -2   2 240.452 13.3058   2
   0  -2   2 9999.99 338.406  -2
   0  -2   2 9999.99 338.406   1
  -1  -2   3 385.883 13.2440  -2
   1  -2   2 385.883 13.2440   1
   1  -2   2 74.5414 4.92947   2
   2  -2   2 632.887 26.1734   2
  -2  -2   4 818.163 50.7857  -2
   2  -2   2 818.163 50.7857   1
   2  -2   2 705.255 28.7614   1
   3  -2   2 281.572 10.0877   2
  -3  -2   5 547.321 34.5971  -2
   3  -2   2 547.321 34.5971   1
   3  -2   2 295.563 12.7175   1
   4  -2   2 24.3575 2.20684   1
   4  -2   2 25.2071 2.09239   2
   5  -2   2 312.152 11.3274   2
   5  -2   2 330.435 12.0269   1
   6  -2   2 12.1473 2.30077   1
   6  -2   2 7.60080 2.74100   2
   7  -2   2 7.02350 3.48443   1
   7  -2   2 6.08594 3.07826   2
   8  -2   2 18.7495 5.47296   1
   8  -2   2 11.2250 3.32570   2
   9  -2   2 6.05660 3.39731   2
   9  -2   2 6.68084 5.97862   1
 -10  -1   2 1.01427 3.64269   2
  -9  -1   2 64.3449 7.64881   1
  -9  -1   2 56.8597 4.62752   2
  -8  -1   2 -1.1269 2.71256   2
  -8  -1   2 2.42947 5.08319   1
  -7  -1   2 -0.0770 2.90063   1
  -7  -1   2 -3.2769 2.73039   2
  -6  -1   2 575.651 24.1509   2
  -6  -1   2 645.696 22.3214   1
  -5  -1   2 383.907 13.5449   1
  -5  -1   2 351.017 12.4672   2
  -4  -1   2 25.8173 1.89184   1
  -4  -1   2 24.6264 1.77856   2
  -3  -1   2 47.9096 2.53088   2
  -3  -1   2 50.8158 2.50473   1
  -2  -1   2 434.206 14.9006   1
  -2  -1   2 391.722 13.5175   2
  -1  -1   2 198.811 8.23572   2
  -1  -1   2 192.007 8.19495   1
   1  -1   1 634.875 39.0654  -2
  -1  -1   2 634.875 39.0654   1
   0  -1   2 94.2010 3.34081  -2
   0  -1   2 94.2010 3.34081   1
  -1  -1   3 964.840 39.1138  -2
   1  -1   2 964.840 39.1138   1
   1  -1   2 469.010 19.3999   2
   1  -1   2 557.093 34.5696   1
   2  -1   2 3458.73 139.891   2
   2  -1   2 4018.86 161.733   1
  -2  -1   4 5518.71 340.141  -2
   2  -1   2 5518.71 340.141   1
  -3  -1   5 198.325 13.6873  -2
   3  -1   2 198.325 13.6873   1
   3  -1   2 1.74366 1.79588   2
   3  -1   2 1.71400 1.52677   1
   4  -1   2 3.45616 1.62748   1
   4  -1   2 4.11771 1.43318   2
   5  -1   2 410.290 14.5686   1
   5  -1   2 356.141 15.5027   2
   6  -1   2 7.87215 2.07156   1
   6  -1   2 3.39966 2.72204   2
   7  -1   2 26.6173 3.56555   2
   7  -1   2 34.3595 4.19045   1
   8  -1   2 3.28633 3.03564   2
   8  -1   2 6.66215 5.42609   1
   9  -1   2 2.45550 3.37764   2
   9  -1   2 -7.0802 6.25120   1
  -9   0   2 113.714 6.58822   2
  -9   0   2 145.978 12.8671   1
  -8   0   2 19.7058 3.22082   2
  -8   0   2 27.7279 6.01983   1
  -7   0   2 45.7885 3.69876   1
  -7   0   2 40.3556 3.63747   2
  -6   0   2 15.8639 2.66303   2
  -6   0   2 19.3247 2.16073   1
  -5   0   2 86.2298 3.88277   1
  -5   0   2 80.4192 3.77167   2
  -4   0   2 3508.82 118.342   1
  -4   0   2 3209.38 108.273   2
  -3   0   2 77.9295 3.20668   2
  -3   0   2 89.9942 3.59649   1
  -2   0   2 135.245 4.84874   2
  -2   0   2 160.681 5.73628   1
  -1   0   2 531.500 18.0344   1
  -1   0   2 456.217 18.5247   2
   0   0   2 146.002 5.14690  -2
   0   0   2 146.002 5.14690   1
   1   0   2 27.1954 2.91747   1
  -1   0   3 248.509 10.2423  -2
   1   0   2 248.509 10.2423   1
   1   0   2 31.1452 2.39568   2
   2   0   2 2633.40 88.8209   2
   2   0   2 3058.80 123.147   1
   3   0   2 10.9030 2.01055   2
  -3   0   5 159.651 11.8544  -2
   3   0   2 159.651 11.8544   1
   3   0   2 12.9902 1.54465   1
   4   0   2 480.948 16.7354   1
   4   0   2 418.080 17.7490   2
   5   0   2 6.03122 1.79084   1
   5   0   2 4.80275 2.50349   2
   6   0   2 20.6570 3.07583   2
   6   0   2 26.1650 5.19110   1
   7   0   2 253.537 12.6776   1
   7   0   2 200.190 9.83496   2
   8   0   2 0.54291 5.59225   1
   8   0   2 -1.2753 3.19412   2
   9   0   2 2.07423 6.22171   1
   9   0   2 3.58416 3.45230   2
  -9   1   2 13.5957 5.93099   2
  -9   1   2 18.4508 6.36987   1
  -8   1   2 -0.2177 2.60997   2
  -8   1   2 2.56934 5.20891   1
  -7   1   2 329.386 14.5027   1
  -7   1   2 283.105 12.5661   2
  -6   1   2 -0.7361 1.65005   2
  -6   1   2 -1.2568 1.70374   1
  -5   1   2 0.07487 1.54603   1
  -5   1   2 2.59996 1.48525   2
  -4   1   2 773.001 26.4116   2
  -4   1   2 836.607 28.5655   1
  -3   1   2 951.831 32.3258   2
  -3   1   2 1029.99 34.9763   1
  -2   1   2 1622.52 54.7713   2
  -2   1   2 1748.16 59.0092   1
  -1   1   2 128.467 8.34686   2
  -1   1   2 130.776 5.47096   1
   1   1   1 256.070 16.5008  -2
  -1   1   2 256.070 16.5008   1
   0   1   2 211.891 7.38974  -2
   0   1   2 211.891 7.38974   1
   1   1   2 51.1018 4.04790   1
  -1   1   3 57.9626 4.78939  -2
   1   1   2 57.9626 4.78939   1
   1   1   2 45.0117 2.24434   2
   2   1   2 1.08329 2.14861   1
   2   1   2 1.07969 1.75383   2
  -2   1   4 558.003 22.8222  -2
   2   1   2 558.003 22.8222   1
   3   1   2 37.3469 3.62131   2
   3   1   2 46.4056 2.65585   1
   4   1   2 1193.06 48.8872   2
   4   1   2 1380.17 46.8319   1
   5   1   2 60.4654 4.59270   1
   5   1   2 44.3127 3.62649   2
   6   1   2 2.83000 3.17592   1
   6   1   2 -1.2074 2.81171   2
   7   1   2 63.9038 5.25119   1
   7   1   2 48.7528 4.27015   2
   8   1   2 6.35506 3.39225   2
   8   1   2 6.99838 3.82872   1
   9   1   2 41.0964 7.28320   1
   9   1   2 36.3844 4.31688   2
  -9   2   2 17.4584 6.17270   1
  -9   2   2 19.4768 5.98507   2
  -8   2   2 6.40267 2.99462   1
  -8   2   2 6.17612 5.05852   2
  -7   2   2 166.239 8.35371   1
  -7   2   2 139.434 7.02750   2
  -6   2   2 2.05009 1.79227   2
  -6   2   2 0.92055 2.55146   1
  -5   2   2 375.050 13.2343   2
  -5   2   2 430.564 15.1832   1
  -4   2   2 196.605 7.36387   1
  -4   2   2 176.327 6.58178   2
  -3   2   2 57.5106 2.74971   2
  -3   2   2 54.1164 3.34923   1
  -3  -2   1 252.721 17.3806  -2
  -3   2   2 252.721 17.3806   1
   2   2   0 6501.67 401.115  -2
  -2   2   2 6501.67 401.115   1
  -2   2   2 2910.90 117.130   1
  -2   2   2 2750.33 110.669   2
   1   2   1 340.608 15.2509  -2
  -1   2   2 340.608 15.2509   1
  -1   2   2 351.701 22.0440   2
  -1   2   2 351.545 19.2144   1
   0   2   2 191.499 6.78917  -2
   0   2   2 191.499 6.78917   1
   1   2   2 397.757 16.2690   2
  -1   2   3 472.336 19.3188  -2
   1   2   2 472.336 19.3188   1
   1   2   2 474.079 29.6232   1
  -2   2   4 112.470 8.63234  -2
   2   2   2 112.470 8.63234   1
   2   2   2 56.0174 4.54456   2
   2   2   2 65.0775 5.81431   1
   3   2   2 78.3685 7.06836   1
   3   2   2 63.8943 5.43428   2
  -3   2   5 86.4839 8.55989  -2
   3   2   2 86.4839 8.55989   1
   4   2   2 109.390 6.08621   2
   4   2   2 133.913 7.27105   1
   5   2   2 3.17054 2.69983   2
   5   2   2 3.04365 2.79026   1
   6   2   2 164.465 8.21600   2
   6   2   2 189.348 9.99908   1
   7   2   2 2.96886 3.62396   1
   7   2   2 4.55359 3.21782   2
   8   2   2 23.3069 3.89778   2
   8   2   2 24.7608 4.38248   1
   9   2   2 44.5175 6.15266   2
  -9   3   2 16.7368 6.61099   1
  -9   3   2 19.2356 5.88415   2
  -8   3   2 19.6324 5.37614   2
  -8   3   2 19.9757 3.44912   1
  -7   3   2 -1.7184 2.83838   1
  -7   3   2 0.22031 4.50359   2
  -6   3   2 4.99241 2.65446   1
  -6   3   2 6.48746 1.86314   2
  -5   3   2 708.114 24.3936   2
  -5   3   2 786.439 32.5910   1
  -4   3   2 11.3830 1.93264   1
  -4   3   2 12.8404 1.70286   2
  -3   3   2 67.3566 3.74573   1
  -3   3   2 72.1633 3.25227   2
  -3  -3   1 332.366 22.3345  -2
  -3   3   2 332.366 22.3345   1
  -2   3   2 963.010 39.1742   2
   2   3   0 1249.85 54.4861  -2
  -2   3   2 1249.85 54.4861   1
  -2   3   2 981.633 53.0174   1
   1   3   1 334.138 15.1257  -2
  -1   3   2 334.138 15.1257   1
  -1   3   2 183.152 10.4429   1
  -1   3   2 183.445 12.2308   2
   0   3   2 1801.13 60.8974  -2
   0   3   2 1801.13 60.8974   1
  -1   3   3 77.0850 3.84561  -2
   1   3   2 77.0850 3.84561   1
   1   3   2 18.2113 2.96651   1
   2   3   2 196.919 8.48731   1
   2   3   2 160.453 9.63167   2
  -2   3   4 181.890 12.9885  -2
   2   3   2 181.890 12.9885   1
   3   3   2 87.7796 4.37776   2
  -3   3   5 205.363 14.7989  -2
   3   3   2 205.363 14.7989   1
   3   3   2 88.0108 7.60527   1
   4   3   2 158.862 8.35296   1
   4   3   2 137.963 7.20615   2
   5   3   2 106.456 6.80186   1
   5   3   2 93.7978 5.89458   2
   6   3   2 177.404 9.68709   1
   6   3   2 145.831 7.70342   2
   7   3   2 38.4176 4.22413   2
   7   3   2 45.6819 4.73847   1
   8   3   2 3.47688 3.35705   2
   8   3   2 2.31788 4.01908   1
  -9   4   2 22.3245 3.69729   1
  -9   4   2 33.6968 6.43482   2
  -8   4   2 -1.9036 3.12559   1
  -8   4   2 3.37810 4.82235   2
  -7   4   2 73.6902 5.04740   1
  -7   4   2 78.7127 5.89902   2
  -6   4   2 90.0547 6.17249   2
  -6   4   2 85.3935 5.67816   1
  -5   4   2 164.270 8.15654   1
  -5   4   2 144.646 6.96030   2
  -4   4   2 10.8212 1.80354   1
  -4   4   2 14.6718 1.78138   2
  -3   4   2 899.192 39.6702   2
  -3   4   2 934.044 38.0385   1
  -3  -4   1 1288.23 80.3684  -2
  -3   4   2 1288.23 80.3684   1
   2   4   0 65.3041 7.31970  -2
  -2   4   2 65.3041 7.31970   1
  -2   4   2 66.1380 5.03910   1
  -2   4   2 59.1294 6.25686   2
   1   4   1 315.329 11.2429  -2
  -1   4   2 315.329 11.2429   1
   0   4   2 2509.69 84.7506  -2
   0   4   2 2509.69 84.7506   1
  -1   4   3 549.897 18.9949  -2
   1   4   2 549.897 18.9949   1
  -2   4   4 18.0296 5.96756  -2
   2   4   2 18.0296 5.96756   1
   2   4   2 -0.4040 2.28947   2
   2   4   2 0.71770 2.96327   1
   3   4   2 2.01589 2.82912   2
  -3   4   5 172.696 13.1953  -2
   3   4   2 172.696 13.1953   1
   3   4   2 -1.4769 3.79162   1
   4   4   2 3.84299 2.56604   2
   4   4   2 5.96019 2.77872   1
   5   4   2 17.8533 3.53979   1
   5   4   2 15.2246 3.24292   2
   6   4   2 25.3533 4.06305   1
   6   4   2 19.5318 3.55162   2
   7   4   2 39.4277 4.74980   1
   7   4   2 31.9062 4.10935   2
   8   4   2 20.8283 3.84417   2
   8   4   2 27.9778 4.69758   1
  -9   5   2 48.2861 4.43780   1
  -9   5   2 40.2321 6.69964   2
  -8   5   2 1.67979 3.04633   1
  -8   5   2 3.44061 5.28537   2
  -7   5   2 42.8130 4.38684   2
  -7   5   2 43.8106 4.14577   1
  -6   5   2 21.9484 3.29190   1
  -6   5   2 19.8245 3.50568   2
  -5   5   2 20.5222 3.30958   2
  -5   5   2 18.9530 3.05876   1
  -4   5   2 44.0329 2.82436   2
  -4  -5   2 373.039 25.2083  -2
  -4   5   2 373.039 25.2083   1
  -4   5   2 43.8499 3.21842   1
  -3   5   2 690.740 37.9211   1
  -3   5   2 637.949 26.5301   2
  -3  -5   1 976.303 42.9538  -2
  -3   5   2 976.303 42.9538   1
   2   5   0 116.298 10.6332  -2
  -2   5   2 116.298 10.6332   1
  -2   5   2 15.1795 4.02174   2
  -2   5   2 21.6132 3.08833   1
   1   5   1 40.3874 3.20625  -2
  -1   5   2 40.3874 3.20625   1
   0   5   2 204.965 7.70713  -2
   0   5   2 204.965 7.70713   1
  -1   5   3 154.844 6.24965  -2
   1   5   2 154.844 6.24965   1
  -2   5   4 409.870 17.3205  -2
   2   5   2 409.870 17.3205   1
   2   5   2 352.283 23.1556   1
   2   5   2 331.610 18.8986   2
  -3   5   5 21.2282 7.57205  -2
   3   5   2 21.2282 7.57205   1
   3   5   2 4.56343 3.13498   2
   3   5   2 7.95499 4.05753   1
   4   5   2 25.7012 3.46649   1
   4   5   2 27.5589 3.52521   2
   5   5   2 3.33850 3.18094   2
   5   5   2 5.61756 3.29776   1
   6   5   2 22.2356 3.78249   2
   6   5   2 31.2063 4.31153   1
   7   5   2 29.6839 4.01101   2
   7   5   2 31.3761 4.62549   1
   8   5   2 1.93024 6.19585   1
  -8   6   2 18.3776 5.55423   2
  -8   6   2 18.1687 4.63250   1
  -7   6   2 61.9930 5.15326   2
  -7   6   2 65.9453 4.92485   1
  -6   6   2 4.67933 2.92368   1
  -6   6   2 5.40229 3.38885   2
  -5   6   2 92.6579 5.72614   1
  -5   6   2 95.8452 6.50682   2
  -4  -6   2 195.720 15.5742  -2
  -4   6   2 195.720 15.5742   1
  -4   6   2 18.4573 3.82684   1
  -4   6   2 18.6099 3.22000   2
  -3  -6   1 524.732 23.9142  -2
  -3   6   2 524.732 23.9142   1
  -3   6   2 160.805 10.4497   1
  -3   6   2 148.650 12.0494   2
   2   6   0 45.4189 8.40340  -2
  -2   6   2 45.4189 8.40340   1
  -2   6   2 41.6277 5.69410   2
  -2   6   2 44.4497 4.32457   1
   1   6   1 608.889 21.1771  -2
  -1   6   2 608.889 21.1771   1
   0   6   2 79.0003 3.94072  -2
   0   6   2 79.0003 3.94072   1
  -1   6   3 328.818 12.0297  -2
   1   6   2 328.818 12.0297   1
  -2   6   4 402.620 27.2777  -2
   2   6   2 402.620 27.2777   1
   2   6   2 294.925 20.3268   1
   2   6   2 293.645 17.1215   2
  -3   6   5 291.438 20.7811  -2
   3   6   2 291.438 20.7811   1
   3   6   2 37.9692 6.18554   1
   3   6   2 30.7246 4.31431   2
   4   6   2 50.2731 4.54664   1
   4   6   2 51.8550 4.50097   2
   5   6   2 11.9138 3.72698   1
   5   6   2 9.03701 3.43606   2
   6   6   2 5.79654 3.87138   1
   6   6   2 8.54074 3.52377   2
   7   6   2 19.3010 4.46098   1
   7   6   2 18.8623 3.92616   2
  -8   7   2 2.23569 4.00695   1
  -8   7   2 0.48364 5.34055   2
  -7   7   2 110.295 7.18631   2
  -7   7   2 125.051 9.03917   1
  -6   7   2 25.5327 3.87228   2
  -6   7   2 23.1842 4.35905   1
  -5   7   2 1.99614 3.01482   2
  -5   7   2 1.24959 2.79287   1
  -4   7   2 47.4797 4.34173   2
  -4   7   2 48.8327 5.33725   1
  -4  -7   2 110.133 11.9718  -2
  -4   7   2 110.133 11.9718   1
  -3  -7   1 101.095 7.19063  -2
  -3   7   2 101.095 7.19063   1
  -3   7   2 53.9779 6.78132   2
  -3   7   2 64.3576 5.84514   1
   2   7   0 2.91440 5.00628  -2
  -2   7   2 2.91440 5.00628   1
   1   7   1 285.569 10.7197  -2
  -1   7   2 285.569 10.7197   1
   0   7   2 46.1181 3.11594  -2
   0   7   2 46.1181 3.11594   1
  -1   7   3 34.4274 5.86210  -2
   1   7   2 34.4274 5.86210   1
   2   7   2 35.2869 4.38574   2
   2   7   2 29.9457 5.74814   1
  -2   7   4 59.6825 10.4928  -2
   2   7   2 59.6825 10.4928   1
   3   7   2 222.147 16.5851   1
  -3   7   5 469.362 31.8071  -2
   3   7   2 469.362 31.8071   1
   3   7   2 216.738 13.6858   2
   4   7   2 113.430 7.27950   1
   4   7   2 109.440 6.74209   2
   5   7   2 0.13211 3.64058   1
   5   7   2 3.02623 3.48851   2
   6   7   2 0.84248 3.41196   2
   6   7   2 -1.3427 3.93370   1
   7   7   2 15.5920 5.76205   2
  -7   8   2 62.8145 7.64964   2
  -7   8   2 61.8357 6.22605   1
  -6   8   2 21.6186 3.89986   2
  -6   8   2 15.1370 4.37783   1
  -5   8   2 63.0599 5.02837   2
  -5   8   2 71.6252 6.66843   1
  -4   8   2 0.46020 3.97018   1
  -4   8   2 4.53806 3.28211   2
  -3   8   2 2.93480 4.77024   2
  -3   8   2 4.01117 3.55866   1
   2   8   0 283.206 12.7071  -2
  -2   8   2 283.206 12.7071   1
   1   8   1 182.955 7.87455  -2
  -1   8   2 182.955 7.87455   1
   0   8   2 75.2517 4.31513  -2
   0   8   2 75.2517 4.31513   1
  -1   8   3 249.173 12.8538  -2
   1   8   2 249.173 12.8538   1
  -2   8   4 67.0003 7.54884  -2
   2   8   2 67.0003 7.54884   1
  -3   8   5 112.648 13.3945  -2
   3   8   2 112.648 13.3945   1
   3   8   2 72.4275 8.11317   1
   3   8   2 82.9279 7.74073   2
   4   8   2 16.1941 4.18713   1
   4   8   2 15.5457 4.66615   2
   5   8   2 47.7402 4.70713   2
   5   8   2 50.2959 5.24707   1
   6   8   2 20.9294 3.95854   2
   6   8   2 19.5526 5.75318   1
  -7   9   2 9.74214 5.32006   2
  -6   9   2 17.1911 4.62229   1
  -6   9   2 17.0459 5.88141   2
  -5   9   2 114.355 8.73723   1
  -5   9   2 97.0044 9.56427   2
  -4   9   2 17.3238 5.64903   2
  -4   9   2 25.6411 5.02641   1
  -3   9   2 2.78871 4.35890   1
  -3   9   2 -0.1444 4.80179   2
   2   9   0 17.0125 4.92450  -2
  -2   9   2 17.0125 4.92450   1
   1   9   1 15.8597 6.37923  -2
  -1   9   2 15.8597 6.37923   1
   0   9   2 135.527 11.1674  -2
   0   9   2 135.527 11.1674   1
  -1   9   3 4.57643 6.68825  -2
   1   9   2 4.57643 6.68825   1
  -2   9   4 116.424 8.94317  -2
   2   9   2 116.424 8.94317   1
  -3   9   5 74.3470 12.6245  -2
   3   9   2 74.3470 12.6245   1
   3   9   2 4.31449 5.22279   1
   3   9   2 6.32970 4.78784   2
   4   9   2 12.6491 4.15547   1
   4   9   2 12.7959 5.12646   2
   5   9   2 45.9243 7.25109   1
   5   9   2 40.4079 6.16591   2
  -5  10   2 21.0394 5.24032   1
  -5  10   2 14.3657 5.88724   2
  -4  10   2 9.32192 4.92084   1
  -4  10   2 5.57678 5.56404   2
  -3  10   2 27.4673 5.44478   1
  -3  10   2 23.6486 5.89001   2
   2  10   0 5.33763 7.42989  -2
  -2  10   2 5.33763 7.42989   1
   0  10   2 34.1135 5.74384  -2
   0  10   2 34.1135 5.74384   1
  -1  10   3 20.9453 7.39769  -2
   1  10   2 20.9453 7.39769   1
  -2  10   4 159.506 14.5111  -2
   2  10   2 159.506 14.5111   1
   3  10   2 0.19434 5.22844   2
   3  10   2 2.05036 5.67977   1
   4  10   2 19.9572 5.54974   2
  -4  11   2 32.5576 5.69042   1
  -3  11   2 18.8647 5.52851   1
   0  11   2 6.78894 5.24230  -2
   0  11   2 6.78894 5.24230   1
  -1  11   3 8.47474 8.43489  -2
   1  11   2 8.47474 8.43489   1
   0 -12   3 58.2728 6.97053  -2
   0 -12   3 58.2728 6.97053   1
  -1 -12   4 24.4352 5.25551  -2
   1 -12   3 24.4352 5.25551   1
  -2 -12   5 105.564 10.2068  -2
   2 -12   3 105.564 10.2068   1
   0 -11   3 12.2950 3.47629  -2
   0 -11   3 12.2950 3.47629   1
  -1 -11   4 1.89106 4.60651  -2
   1 -11   3 1.89106 4.60651   1
  -2 -11   5 164.703 9.13780  -2
   2 -11   3 164.703 9.13780   1
  -3 -11   6 20.7379 6.06980  -2
   3 -11   3 20.7379 6.06980   1
   4 -11   3 53.0898 6.17868   1
   4 -11   3 49.8651 7.33993   2
  -5 -10   3 15.8487 4.62905   2
  -4 -10   3 165.420 13.4557   1
  -4 -10   3 179.014 12.2024   2
  -3 -10   3 8.96556 5.14286   1
  -3 -10   3 7.97034 4.62938   2
   1 -10   2 63.6315 7.23430  -2
  -1 -10   3 63.6315 7.23430   1
   0 -10   3 8.31160 3.14935  -2
   0 -10   3 8.31160 3.14935   1
  -1 -10   4 9.24066 4.45970  -2
   1 -10   3 9.24066 4.45970   1
  -2 -10   5 156.544 8.74666  -2
   2 -10   3 156.544 8.74666   1
  -3 -10   6 43.6788 6.12310  -2
   3 -10   3 43.6788 6.12310   1
   4 -10   3 28.7362 5.10804   1
   4 -10   3 24.9500 6.19664   2
   5 -10   3 5.98680 4.16001   1
   5 -10   3 5.82431 5.58769   2
   6 -10   3 23.7262 6.17226   2
  -6  -9   3 5.19706 4.19650   2
  -6  -9   3 4.62344 5.65197   1
  -5  -9   3 65.9287 6.56679   2
  -5  -9   3 64.8188 8.05380   1
  -4  -9   3 82.1151 7.53009   2
  -4  -9   3 84.0279 9.13933   1
  -3  -9   3 5.33234 4.07857   2
  -3  -9   3 4.70286 4.75768   1
   2  -9   1 393.277 26.2851  -2
  -2  -9   3 393.277 26.2851   1
   1  -9   2 39.3841 6.23977  -2
  -1  -9   3 39.3841 6.23977   1
   0  -9   3 120.119 6.59792  -2
   0  -9   3 120.119 6.59792   1
  -1  -9   4 162.119 8.27906  -2
   1  -9   3 162.119 8.27906   1
  -2  -9   5 85.0940 6.37153  -2
   2  -9   3 85.0940 6.37153   1
   3  -9   3 8.74696 4.13021   1
  -3  -9   6 0.93828 7.42039  -2
   3  -9   3 0.93828 7.42039   1
   4  -9   3 39.7087 3.67501   1
   4  -9   3 42.3375 6.61596   2
   5  -9   3 4.08484 5.40655   2
   5  -9   3 6.75846 3.95742   1
   6  -9   3 6.37381 4.11132   1
   6  -9   3 5.93569 5.39812   2
  -7  -8   3 -2.3171 5.52933   1
  -6  -8   3 16.6223 4.71784   2
  -6  -8   3 16.4443 5.66190   1
  -5  -8   3 28.8510 4.91836   2
  -5  -8   3 26.7228 5.83834   1
  -4  -8   3 0.41358 4.93531   1
  -4  -8   3 0.19951 3.77498   2
  -3  -8   3 180.648 11.3983   2
  -3  -8   3 176.587 13.4897   1
   2  -8   1 640.708 26.9661  -2
  -2  -8   3 640.708 26.9661   1
   1  -8   2 101.940 8.14421  -2
  -1  -8   3 101.940 8.14421   1
   0  -8   3 418.852 17.8266  -2
   0  -8   3 418.852 17.8266   1
  -1  -8   4 125.881 6.89297  -2
   1  -8   3 125.881 6.89297   1
  -2  -8   5 24.6863 4.55326  -2
   2  -8   3 24.6863 4.55326   1
   3  -8   3 36.9893 4.75437   1
  -3  -8   6 46.2152 7.69186  -2
   3  -8   3 46.2152 7.69186   1
   4  -8   3 75.9053 7.50285   2
   4  -8   3 81.2102 5.12751   1
   5  -8   3 0.90964 4.02730   1
   6  -8   3 0.87916 4.18940   1
   6  -8   3 -3.4243 4.96386   2
   7  -8   3 17.5217 4.82774   1
  -8  -7   3 91.2957 9.90463   1
  -7  -7   3 10.8743 4.63219   2
  -7  -7   3 7.66392 3.81005   1
  -6  -7   3 1.88828 3.32281   1
  -6  -7   3 -1.3627 4.10133   2
  -5  -7   3 7.58730 3.76304   2
  -5  -7   3 3.68486 3.08520   1
  -4  -7   3 20.1219 3.34122   1
  -4  -7   3 16.7560 3.77927   2
  -3   7   0 565.933 24.0398  -2
  -3  -7   3 565.933 24.0398   1
  -3  -7   3 121.590 10.6398   1
  -3  -7   3 120.367 8.24421   2
   2  -7   1 486.881 17.3825  -2
  -2  -7   3 486.881 17.3825   1
   1  -7   2 57.3784 4.56277  -2
  -1  -7   3 57.3784 4.56277   1
   0  -7   3 1017.50 41.5672  -2
   0  -7   3 1017.50 41.5672   1
  -1  -7   4 103.939 6.02313  -2
   1  -7   3 103.939 6.02313   1
  -2  -7   5 90.6190 6.05047  -2
   2  -7   3 90.6190 6.05047   1
  -3  -7   6 202.024 14.7019  -2
   3  -7   3 202.024 14.7019   1
   3  -7   3 201.878 12.3796   1
   4  -7   3 40.6412 3.59304   1
   4  -7   3 38.6061 4.17265   2
   5  -7   3 15.6153 4.65518   2
   5  -7   3 26.2639 3.24239   1
   6  -7   3 17.8087 4.50286   1
   6  -7   3 17.9277 5.22590   2
   7  -7   3 1.67287 3.97483   1
   8  -7   3 19.4462 4.83948   1
  -8  -6   3 22.2163 3.75989   2
  -8  -6   3 20.3430 4.13398   1
  -7  -6   3 35.1216 4.01802   2
  -7  -6   3 31.4871 4.34484   1
  -6  -6   3 147.142 8.42307   1
  -6  -6   3 129.886 7.13104   2
  -5  -6   3 34.4729 3.87934   1
  -5  -6   3 28.9167 3.48634   2
  -4  -6   3 12.0781 2.37025   2
  -4  -6   3 17.1867 3.15479   1
  -3  -6   3 14.0364 2.76052   1
  -3  -6   3 9.81652 3.10072   2
   2  -6   1 47.0267 3.85853  -2
  -2  -6   3 47.0267 3.85853   1
   1  -6   2 515.756 18.1231  -2
  -1  -6   3 515.756 18.1231   1
   0  -6   3 1193.30 40.6478  -2
   0  -6   3 1193.30 40.6478   1
  -1  -6   4 169.233 8.13441  -2
   1  -6   3 169.233 8.13441   1
  -2  -6   5 144.588 7.46969  -2
   2  -6   3 144.588 7.46969   1
   3  -6   3 6.64361 2.28338   2
   3  -6   3 4.27462 3.09427   1
  -3  -6   6 76.1850 8.09327  -2
   3  -6   3 76.1850 8.09327   1
   4  -6   3 7.41900 2.20096   2
   4  -6   3 3.99782 2.50125   1
   5  -6   3 186.499 8.88639   1
   5  -6   3 155.083 8.19109   2
   6  -6   3 18.5754 4.45354   2
   6  -6   3 19.5214 4.16161   1
   7  -6   3 15.4537 4.46715   1
   7  -6   3 14.4658 4.95284   2
   8  -6   3 12.2693 4.96755   2
   8  -6   3 10.0441 4.32437   1
  -8  -5   3 3.95658 3.38009   2
  -8  -5   3 1.38486 5.14779   1
  -7  -5   3 48.7768 4.78025   1
  -7  -5   3 43.9081 4.26686   2
  -6  -5   3 276.290 12.5651   2
  -6  -5   3 299.885 14.4991   1
  -5  -5   3 -0.1637 2.85835   1
  -5  -5   3 -0.1781 2.73567   2
  -4  -5   3 11.4742 2.11597   1
  -4  -5   3 10.9759 1.91759   2
  -3  -5   3 84.1219 4.21566   1
  -3  -5   3 78.9958 5.93074   2
   2  -5   1 18.5478 3.14432  -2
  -2  -5   3 18.5478 3.14432   1
  -2  -5   3 5.38228 2.49578   2
   1  -5   2 534.248 18.5664  -2
  -1  -5   3 534.248 18.5664   1
   0  -5   3 199.460 7.39006  -2
   0  -5   3 199.460 7.39006   1
  -1  -5   4 252.628 9.21986  -2
   1  -5   3 252.628 9.21986   1
  -2  -5   5 669.965 23.0487  -2
   2  -5   3 669.965 23.0487   1
  -3  -5   6 394.542 17.9793  -2
   3  -5   3 394.542 17.9793   1
   3  -5   3 354.587 20.0577   1
   3  -5   3 304.610 13.6605   2
   4  -5   3 7.15828 2.07371   2
   4  -5   3 6.73563 1.99130   1
   5  -5   3 85.3844 4.74274   2
   5  -5   3 103.264 4.99699   1
   6  -5   3 1.45046 2.90750   1
   6  -5   3 1.51076 3.08130   2
   7  -5   3 87.1167 6.21766   2
   7  -5   3 100.693 8.01501   1
   8  -5   3 2.80399 5.40467   2
   9  -5   3 5.48595 5.76368   2
  -9  -4   3 39.3696 4.28368   2
  -9  -4   3 56.4051 7.85070   1
  -8  -4   3 11.7194 3.39714   2
  -8  -4   3 12.2939 5.70475   1
  -7  -4   3 164.963 9.17522   1
  -7  -4   3 144.700 7.92300   2
  -6  -4   3 53.5297 4.53468   1
  -6  -4   3 48.5645 3.95565   2
  -5  -4   3 66.6640 5.02393   1
  -5  -4   3 53.5576 4.05055   2
  -4  -4   3 566.905 19.7579   1
  -4  -4   3 492.566 17.2058   2
  -3  -4   3 208.301 8.04550   1
  -3  -4   3 181.792 8.09422   2
   2  -4   1 115.758 6.03997  -2
  -2  -4   3 115.758 6.03997   1
  -2  -4   3 110.458 7.24394   2
  -2  -4   3 110.821 8.77948   1
   1  -4   2 1166.75 39.6381  -2
  -1  -4   3 1166.75 39.6381   1
   0  -4   3 927.208 31.5521  -2
   0  -4   3 927.208 31.5521   1
  -1  -4   4 183.655 6.81418  -2
   1  -4   3 183.655 6.81418   1
  -2  -4   5 1646.81 55.8394  -2
   2  -4   3 1646.81 55.8394   1
   2  -4   3 441.131 27.7184   2
   3  -4   3 96.3014 5.18483   1
   3  -4   3 88.3846 4.35157   2
  -3  -4   6 104.561 7.64301  -2
   3  -4   3 104.561 7.64301   1
   4  -4   3 70.3335 3.91477   2
   4  -4   3 84.3766 4.95152   1
  -4  -4   7 47.7864 5.43035  -2
   4  -4   3 47.7864 5.43035   1
   5  -4   3 90.8715 4.62957   1
   5  -4   3 85.3291 4.57541   2
   6  -4   3 -2.0676 2.95497   2
   6  -4   3 2.06485 2.34041   1
   7  -4   3 193.116 9.71777   2
   7  -4   3 217.697 10.4603   1
   8  -4   3 1.19514 3.30258   2
   9  -4   3 27.7106 6.55434   2
  -9  -3   3 7.54673 6.04438   1
  -9  -3   3 5.18146 3.34689   2
  -8  -3   3 3.12561 5.32336   1
  -8  -3   3 1.93289 3.13459   2
  -7  -3   3 279.838 19.1514   1
  -7  -3   3 247.558 11.5417   2
  -6  -3   3 53.0386 4.36169   1
  -6  -3   3 41.3899 3.72321   2
  -5  -3   3 67.3031 4.39057   2
  -5  -3   3 75.7876 3.92774   1
  -4  -3   3 721.637 24.8714   2
  -4  -3   3 835.681 36.9959   1
  -3  -3   3 5.94881 1.60815   1
  -3  -3   3 4.29927 1.64314   2
  -2  -3   3 64.3660 3.23066   1
  -2  -3   3 73.3183 3.84662   2
   1  -3   2 249.267 10.6891  -2
  -1  -3   3 249.267 10.6891   1
   0  -3   3 268.900 11.2884  -2
   0  -3   3 268.900 11.2884   1
  -1  -3   4 285.726 9.99717  -2
   1  -3   3 285.726 9.99717   1
  -2  -3   5 436.648 18.1035  -2
   2  -3   3 436.648 18.1035   1
   2  -3   3 345.566 14.7941   2
   2  -3   3 368.259 23.4100   1
   3  -3   3 1.98044 1.55259   2
   3  -3   3 0.53234 1.78471   1
  -3  -3   6 158.190 11.3431  -2
   3  -3   3 158.190 11.3431   1
   4  -3   3 128.633 6.88015   2
   4  -3   3 131.259 6.70498   1
  -4  -3   7 153.380 11.8382  -2
   4  -3   3 153.380 11.8382   1
   5  -3   3 208.108 10.0057   2
   5  -3   3 225.601 8.64531   1
   6  -3   3 3.29417 2.96574   2
   6  -3   3 2.59924 2.38966   1
   7  -3   3 26.7381 3.97102   1
   7  -3   3 23.6830 3.69383   2
   8  -3   3 -1.5077 3.27401   2
   9  -3   3 80.9380 5.81005   2
   9  -3   3 99.1329 10.7074   1
  -9  -2   3 6.71783 3.25902   2
  -8  -2   3 -1.7486 2.91680   2
  -8  -2   3 6.58468 5.10150   1
  -7  -2   3 95.0653 5.81787   2
  -7  -2   3 107.649 6.76826   1
  -6  -2   3 0.09034 2.59394   2
  -6  -2   3 -0.6052 1.75421   1
  -5  -2   3 370.311 13.1469   1
  -5  -2   3 355.129 12.7121   2
  -4  -2   3 38.5114 2.38303   1
  -4  -2   3 30.7091 2.22395   2
  -3  -2   3 1.28236 1.29088   1
  -3  -2   3 0.40856 1.47786   2
  -2  -2   3 1703.56 68.7437   2
  -2  -2   3 1731.37 58.6615   1
   1  -2   2 390.133 24.3694  -2
  -1  -2   3 390.133 24.3694   1
  -1  -2   3 370.416 20.4726   1
   0  -2   3 219.245 9.16904  -2
   0  -2   3 219.245 9.16904   1
   1  -2   3 36.2722 3.38846   1
   1  -2   3 40.8370 3.69192   2
  -1  -2   4 114.947 6.93229  -2
   1  -2   3 114.947 6.93229   1
  -2  -2   5 1607.78 65.2633  -2
   2  -2   3 1607.78 65.2633   1
   2  -2   3 243.828 10.6064   2
   2  -2   3 287.182 18.8265   1
   3  -2   3 314.300 11.2245   2
   3  -2   3 358.118 15.2890   1
  -3  -2   6 464.879 29.5828  -2
   3  -2   3 464.879 29.5828   1
   4  -2   3 19.4909 2.10372   1
   4  -2   3 19.8156 1.91134   2
   5  -2   3 68.2054 3.84530   1
   5  -2   3 59.4176 4.34856   2
   6  -2   3 23.0004 2.57859   1
   6  -2   3 21.0342 3.47827   2
   7  -2   3 35.6143 6.33598   1
   7  -2   3 34.4359 3.94132   2
   8  -2   3 -0.1972 3.34622   2
   8  -2   3 3.97943 5.18348   1
   9  -2   3 48.4454 4.64378   2
   9  -2   3 69.6138 8.47646   1
  -9  -1   3 23.3893 3.53734   2
  -9  -1   3 34.4373 6.57337   1
  -8  -1   3 0.25702 2.86497   2
  -8  -1   3 1.55148 5.15088   1
  -7  -1   3 4.14582 4.72013   1
  -7  -1   3 4.48121 2.79778   2
  -6  -1   3 7.06449 2.56784   2
  -6  -1   3 10.2109 1.89349   1
  -5  -1   3 575.756 19.9383   2
  -5  -1   3 635.137 21.9066   1
  -4  -1   3 337.410 11.9031   1
  -4  -1   3 305.330 10.8473   2
  -3  -1   3 3.34452 1.22135   1
  -3  -1   3 0.82564 1.35626   2
  -2  -1   3 550.730 22.5795   2
  -2  -1   3 610.557 20.8728   1
  -1  -1   3 409.611 25.6091   2
  -1  -1   3 381.946 15.8885   1
   1  -1   2 868.750 53.2873  -2
  -1  -1   3 868.750 53.2873   1
   0  -1   3 3294.23 111.024  -2
   0  -1   3 3294.23 111.024   1
   1  -1   3 275.151 17.6534   1
   1  -1   3 239.381 13.7846   2
  -1  -1   4 435.564 17.8156  -2
   1  -1   3 435.564 17.8156   1
  -2  -1   5 359.960 19.7712  -2
   2  -1   3 359.960 19.7712   1
   2  -1   3 57.6421 6.26829   1
   2  -1   3 53.0205 3.29267   2
   3  -1   3 714.092 29.4650   1
   3  -1   3 668.465 23.0217   2
  -3  -1   6 882.489 55.2316  -2
   3  -1   3 882.489 55.2316   1
   4  -1   3 336.783 12.1093   1
   4  -1   3 298.276 10.7522   2
   5  -1   3 129.516 5.59887   1
   5  -1   3 115.584 6.40789   2
   6  -1   3 11.6182 3.03057   2
   6  -1   3 9.87324 5.25075   1
   7  -1   3 88.9294 5.92045   2
   7  -1   3 122.105 7.66973   1
   8  -1   3 2.39656 3.33757   2
   8  -1   3 -1.4808 5.41702   1
   9  -1   3 9.33315 3.70125   2
   9  -1   3 9.35448 6.04369   1
  -9   0   3 12.8564 5.91720   2
  -9   0   3 13.3668 6.12905   1
  -8   0   3 32.6783 3.51061   2
  -8   0   3 34.5077 6.12424   1
  -7   0   3 27.0381 3.14381   1
  -7   0   3 25.9702 3.14331   2
  -6   0   3 50.6168 3.66155   2
  -6   0   3 53.2025 3.09467   1
  -5   0   3 47.1602 2.76412   1
  -5   0   3 44.9117 2.71005   2
  -4   0   3 33.5385 2.08652   2
  -4   0   3 28.9898 1.99223   1
  -3   0   3 271.926 9.58072   1
  -3   0   3 246.253 8.70631   2
  -2   0   3 1968.63 79.7416   1
  -2   0   3 1786.37 71.9732   2
   2   0   1 3347.11 204.854  -2
  -2   0   3 3347.11 204.854   1
  -1   0   3 188.609 12.2896   2
  -1   0   3 224.658 9.33072   1
   1   0   2 281.974 18.0824  -2
  -1   0   3 281.974 18.0824   1
   0   0   3 3642.13 122.797  -2
   0   0   3 3642.13 122.797   1
   1   0   3 54.7931 2.92527   2
   1   0   3 51.5586 4.79091   1
  -1   0   4 247.005 15.7789  -2
   1   0   3 247.005 15.7789   1
   2   0   3 148.124 6.55372   2
   2   0   3 154.470 11.1543   1
  -2   0   5 165.167 7.19837  -2
   2   0   3 165.167 7.19837   1
   3   0   3 83.8120 7.82999   1
   3   0   3 82.3278 4.70454   2
   4   0   3 52.2016 3.74711   2
   4   0   3 66.8356 3.34172   1
   5   0   3 379.361 16.4555   2
   5   0   3 458.986 21.1126   1
   6   0   3 99.2743 6.73685   1
   6   0   3 81.7982 5.49139   2
   7   0   3 8.06557 3.89335   1
   7   0   3 6.58472 3.27013   2
   8   0   3 8.65375 3.50952   2
   8   0   3 8.96452 3.95774   1
   9   0   3 23.1231 3.97763   2
   9   0   3 31.7458 6.82036   1
  -9   1   3 80.4478 8.89869   1
  -9   1   3 85.3864 9.55387   2
  -8   1   3 4.10408 2.84464   1
  -8   1   3 -3.0248 4.74386   2
  -7   1   3 4.32747 2.55963   2
  -7   1   3 5.45315 2.72819   1
  -6   1   3 139.105 5.69154   2
  -6   1   3 151.602 7.57974   1
  -5   1   3 26.8216 2.00952   2
  -5   1   3 29.9929 2.24147   1
  -4   1   3 18.4839 1.53746   1
  -4   1   3 18.6783 1.63874   2
  -3   1   3 212.198 7.60187   1
  -3   1   3 196.062 7.05776   2
  -2   1   3 929.092 37.5000   2
   2   1   1 1020.46 63.6344  -2
  -2   1   3 1020.46 63.6344   1
  -2   1   3 1042.15 56.1691   1
  -1   1   3 15.3309 1.19521   1
   1   1   2 52.9477 4.88179  -2
  -1   1   3 52.9477 4.88179   1
  -1   1   3 12.4905 1.90767   2
   0   1   3 650.755 22.1746  -2
   0   1   3 650.755 22.1746   1
   1   1   3 547.613 22.3218   2
   1   1   3 605.782 24.6002   1
  -1   1   4 901.573 56.1612  -2
   1   1   3 901.573 56.1612   1
   2   1   3 1719.01 69.2946   2
  -2   1   5 2184.04 135.221  -2
   2   1   3 2184.04 135.221   1
   2   1   3 1874.78 115.143   1
   3   1   3 3.68030 3.28401   1
   3   1   3 4.74104 2.41231   2
  -3   1   6 69.9497 7.60385  -2
   3   1   3 69.9497 7.60385   1
   4   1   3 2.31762 2.33115   1
   4   1   3 4.23153 2.40628   2
   5   1   3 314.541 13.9313   2
   5   1   3 379.350 17.7544   1
   6   1   3 100.915 6.81575   1
   6   1   3 84.6846 5.79914   2
   7   1   3 95.5788 6.13144   2
   7   1   3 117.484 7.67226   1
   8   1   3 -1.5465 3.15972   2
   8   1   3 -0.9500 3.86791   1
   9   1   3 9.87787 5.08164   2
  -9   2   3 121.759 11.2105   2
  -9   2   3 130.273 12.2149   1
  -8   2   3 1.12623 2.91551   1
  -8   2   3 3.07026 4.87080   2
  -7   2   3 19.1510 3.23646   1
  -7   2   3 21.3231 4.80298   2
  -6   2   3 1.42465 1.75016   2
  -6   2   3 0.77396 2.57300   1
  -5   2   3 2.69647 1.51885   2
  -5   2   3 1.09366 2.32160   1
  -4   2   3 338.405 11.9175   2
  -4   2   3 362.675 12.8269   1
  -3   2   3 85.0470 3.50292   2
  -3   2   3 81.7149 4.07553   1
   3   2   0 102.930 9.52071  -2
  -3   2   3 102.930 9.52071   1
   2   2   1 224.695 10.1998  -2
  -2   2   3 224.695 10.1998   1
  -2   2   3 129.408 7.80757   1
  -2   2   3 127.117 5.52805   2
   1   2   2 390.710 25.1311  -2
  -1   2   3 390.710 25.1311   1
  -1   2   3 14.8475 1.27195   1
  -1   2   3 10.6491 2.07086   2
   0   2   3 3853.47 129.889  -2
   0   2   3 3853.47 129.889   1
  -1   2   4 272.010 11.2407  -2
   1   2   3 272.010 11.2407   1
   1   2   3 83.9786 6.33329   1
   1   2   3 74.9675 3.61680   2
   2   2   3 417.640 26.5249   1
  -2   2   5 936.039 58.5062  -2
   2   2   3 936.039 58.5062   1
   2   2   3 377.206 15.5531   2
   3   2   3 140.577 9.10284   2
  -3   2   6 700.693 44.3875  -2
   3   2   3 700.693 44.3875   1
   3   2   3 169.910 12.2841   1
   4   2   3 518.331 23.4766   1
   4   2   3 449.395 19.1762   2
   5   2   3 20.3093 3.07854   2
   5   2   3 24.3050 3.48855   1
   6   2   3 -1.1028 2.95963   2
   6   2   3 1.18130 3.35930   1
   7   2   3 176.573 8.99798   2
   7   2   3 211.776 11.2961   1
   8   2   3 18.6465 4.46533   1
   8   2   3 11.3297 3.52368   2
  -9   3   3 1.88378 3.17309   1
  -9   3   3 4.54572 5.32065   2
  -8   3   3 -1.0914 3.04766   1
  -8   3   3 4.43918 4.71045   2
  -7   3   3 230.187 11.3273   2
  -7   3   3 243.402 11.4119   1
  -6   3   3 11.1562 2.80892   1
  -6   3   3 12.3480 2.90126   2
  -5   3   3 24.0254 1.99629   2
  -5   3   3 23.3199 2.91098   1
  -4   3   3 115.226 4.94280   1
  -4   3   3 105.256 4.40341   2
   3   3   0 134.246 11.5200  -2
  -3   3   3 134.246 11.5200   1
  -3   3   3 116.097 5.33445   1
  -3   3   3 113.529 6.02032   2
  -2   3   3 612.858 33.4385   1
  -2   3   3 633.683 25.9393   2
   2   3   1 2403.00 149.148  -2
  -2   3   3 2403.00 149.148   1
  -1   3   3 61.2985 4.53443   1
   1   3   2 65.9539 4.26006  -2
  -1   3   3 65.9539 4.26006   1
  -1   3   3 61.7842 5.54397   2
   0   3   3 948.267 32.2371  -2
   0   3   3 948.267 32.2371   1
  -1   3   4 994.969 40.4006  -2
   1   3   3 994.969 40.4006   1
   1   3   3 261.149 14.7391   2
   1   3   3 371.972 23.7903   1
   2   3   3 233.167 13.6106   2
   2   3   3 259.546 17.2090   1
  -2   3   5 258.759 17.7951  -2
   2   3   3 258.759 17.7951   1
  -3   3   6 171.896 13.2664  -2
   3   3   3 171.896 13.2664   1
   3   3   3 63.4428 3.65344   2
   3   3   3 68.9889 6.80093   1
   4   3   3 642.287 28.8529   1
   4   3   3 588.042 24.7091   2
   5   3   3 0.21034 2.62141   2
   5   3   3 0.30255 3.08442   1
   6   3   3 11.4209 3.09009   2
   6   3   3 8.51961 3.54616   1
   7   3   3 58.1998 4.79991   2
   7   3   3 66.0532 5.64904   1
   8   3   3 -2.5898 4.10531   1
   8   3   3 2.09746 3.56207   2
  -9   4   3 8.18142 3.48538   1
  -8   4   3 10.4368 3.29196   1
  -7   4   3 61.9325 4.70441   1
  -7   4   3 73.6112 8.12594   2
  -6   4   3 24.8491 3.41327   1
  -6   4   3 21.9269 3.39177   2
  -5   4   3 60.4382 4.45529   2
  -5   4   3 68.0314 4.78343   1
  -4   4   3 12.8697 1.70772   1
  -4   4   3 14.7523 1.71758   2
  -3   4   3 15.4049 1.94293   1
  -3   4   3 11.1535 1.55271   2
   3   4   0 50.5562 8.64782  -2
  -3   4   3 50.5562 8.64782   1
   2   4   1 1981.55 123.300  -2
  -2   4   3 1981.55 123.300   1
  -2   4   3 846.611 46.0100   1
  -2   4   3 773.728 48.2531   2
   1   4   2 540.910 18.7996  -2
  -1   4   3 540.910 18.7996   1
   0   4   3 745.344 25.4698  -2
   0   4   3 745.344 25.4698   1
  -1   4   4 729.776 25.0087  -2
   1   4   3 729.776 25.0087   1
   2   4   3 610.226 33.5672   2
  -2   4   5 1027.78 64.6242  -2
   2   4   3 1027.78 64.6242   1
   2   4   3 648.042 40.8930   1
   3   4   3 119.768 9.86514   1
  -3   4   6 123.434 11.6810  -2
   3   4   3 123.434 11.6810   1
   3   4   3 104.120 7.79231   2
   4   4   3 36.0024 3.84355   1
   4   4   3 32.8382 3.51551   2
   5   4   3 40.8336 4.19412   1
   5   4   3 40.0657 3.90996   2
   6   4   3 269.160 13.4273   1
   6   4   3 224.902 10.7913   2
   7   4   3 3.39250 3.99602   1
   7   4   3 1.89583 3.28252   2
   8   4   3 8.64747 3.74241   2
   8   4   3 6.39022 4.26508   1
  -9   5   3 11.3069 3.52484   1
  -9   5   3 7.77399 5.63226   2
  -8   5   3 0.54880 5.09719   2
  -8   5   3 0.12692 3.30076   1
  -7   5   3 28.0161 3.61478   1
  -7   5   3 29.4383 4.01700   2
  -6   5   3 93.5793 6.54643   2
  -6   5   3 87.8203 5.82106   1
  -5   5   3 275.901 12.4097   1
  -5   5   3 257.163 12.5919   2
  -4   5   3 50.2336 3.81600   1
  -4   5   3 43.3572 3.82506   2
  -3   5   3 3.81963 1.89079   1
   3   5   0 24.8938 8.60835  -2
  -3   5   3 24.8938 8.60835   1
  -3   5   3 2.88716 1.92199   2
  -2   5   3 99.3036 8.33626   2
   2   5   1 102.230 10.5021  -2
  -2   5   3 102.230 10.5021   1
  -2   5   3 99.2353 6.86641   1
   1   5   2 139.779 5.92843  -2
  -1   5   3 139.779 5.92843   1
   0   5   3 2189.48 74.0225  -2
   0   5   3 2189.48 74.0225   1
  -1   5   4 262.670 9.72983  -2
   1   5   3 262.670 9.72983   1
   2   5   3 117.495 8.21435   2
   2   5   3 128.666 10.2438   1
  -2   5   5 440.968 29.2416  -2
   2   5   3 440.968 29.2416   1
  -3   5   6 27.8167 8.14137  -2
   3   5   3 27.8167 8.14137   1
   3   5   3 1.56469 3.97998   1
   3   5   3 2.53617 3.57926   2
   4   5   3 100.010 6.50239   1
   4   5   3 89.8634 6.06294   2
   5   5   3 55.1858 4.75624   1
   5   5   3 53.5738 4.50216   2
   6   5   3 102.056 6.65791   2
   6   5   3 115.690 7.69885   1
   7   5   3 3.81011 4.11880   1
   7   5   3 6.82284 3.65551   2
  -8   6   3 8.02742 5.36673   2
  -8   6   3 11.5177 3.48841   1
  -7   6   3 7.96091 3.24245   1
  -7   6   3 7.72552 3.59478   2
  -6   6   3 176.864 8.81092   1
  -6   6   3 167.622 9.31829   2
  -5   6   3 35.1630 3.56786   1
  -5   6   3 35.2573 3.84996   2
  -4   6   3 45.9417 4.04630   2
  -4   6   3 50.0216 4.05561   1
   3   6   0 133.242 7.82117  -2
  -3   6   3 133.242 7.82117   1
  -3   6   3 124.860 10.9404   2
  -3   6   3 129.851 9.07700   1
   2   6   1 36.0224 8.92136  -2
  -2   6   3 36.0224 8.92136   1
  -2   6   3 14.2597 3.24242   1
  -2   6   3 16.1623 4.74369   2
   1   6   2 311.425 11.4860  -2
  -1   6   3 311.425 11.4860   1
   0   6   3 787.213 27.0850  -2
   0   6   3 787.213 27.0850   1
  -1   6   4 302.128 11.0992  -2
   1   6   3 302.128 11.0992   1
   2   6   3 214.696 13.1629   2
   2   6   3 177.138 13.3259   1
  -2   6   5 449.278 30.1554  -2
   2   6   3 449.278 30.1554   1
   3   6   3 20.6759 4.08837   2
  -3   6   6 241.205 18.4403  -2
   3   6   3 241.205 18.4403   1
   3   6   3 21.7175 5.17841   1
   4   6   3 41.5336 4.17359   2
   4   6   3 43.1935 4.33516   1
   5   6   3 0.01522 3.69406   1
   5   6   3 3.34986 3.44898   2
   6   6   3 0.58998 3.52123   2
   6   6   3 1.46395 3.92821   1
   7   6   3 26.4091 4.20778   2
   7   6   3 28.8975 4.95424   1
  -8   7   3 2.83668 4.37843   1
  -8   7   3 -1.9595 5.00012   2
  -7   7   3 40.4670 4.50569   2
  -7   7   3 41.8498 5.56889   1
  -6   7   3 6.05372 3.23146   1
  -6   7   3 2.81593 3.33880   2
  -5   7   3 55.4564 4.41418   1
  -5   7   3 49.4606 4.50794   2
  -4   7   3 534.016 24.4686   2
  -4  -7   1 1261.37 79.5178  -2
  -4   7   3 1261.37 79.5178   1
  -4   7   3 543.604 30.3905   1
  -3   7   3 48.3074 5.23322   1
   3   7   0 59.5727 10.4179  -2
  -3   7   3 59.5727 10.4179   1
  -3   7   3 40.1319 5.92845   2
   2   7   1 56.3143 6.00905  -2
  -2   7   3 56.3143 6.00905   1
   1   7   2 28.9736 3.80355  -2
  -1   7   3 28.9736 3.80355   1
   0   7   3 341.381 12.4360  -2
   0   7   3 341.381 12.4360   1
  -1   7   4 9.02843 5.71374  -2
   1   7   3 9.02843 5.71374   1
   2   7   3 365.879 24.5201   1
   2   7   3 456.564 25.8403   2
  -2   7   5 638.634 41.8645  -2
   2   7   3 638.634 41.8645   1
   3   7   3 73.1882 8.44896   1
   3   7   3 64.9629 6.46867   2
  -3   7   6 95.3259 12.2453  -2
   3   7   3 95.3259 12.2453   1
   4   7   3 7.76351 3.47207   2
   4   7   3 11.5700 3.76068   1
   5   7   3 0.76741 3.50552   2
   5   7   3 -3.8140 3.78691   1
   6   7   3 10.7005 3.77349   2
   6   7   3 7.30987 4.22828   1
  -8   8   3 1.37230 4.34007   2
  -7   8   3 59.2043 6.36130   1
  -7   8   3 56.8897 5.16212   2
  -6   8   3 6.40787 3.56258   2
  -6   8   3 3.40294 4.06130   1
  -5   8   3 71.5838 6.72893   1
  -5   8   3 62.4744 5.16549   2
  -4   8   3 62.7543 5.12841   2
  -4   8   3 68.5122 6.53310   1
  -3   8   3 30.3046 6.03209   2
  -3   8   3 39.1317 4.96854   1
   2   8   1 430.118 19.0580  -2
  -2   8   3 430.118 19.0580   1
   1   8   2 224.618 9.14898  -2
  -1   8   3 224.618 9.14898   1
   0   8   3 13.0342 3.54431  -2
   0   8   3 13.0342 3.54431   1
  -1   8   4 78.3436 7.07881  -2
   1   8   3 78.3436 7.07881   1
  -2   8   5 189.866 11.5069  -2
   2   8   3 189.866 11.5069   1
   3   8   3 9.43379 4.71983   2
  -3   8   6 9.94582 11.3559  -2
   3   8   3 9.94582 11.3559   1
   3   8   3 8.93319 5.79794   1
   4   8   3 72.2364 7.29522   2
   4   8   3 67.6789 8.30265   1
  -4   8   7 137.075 15.4585  -2
   4   8   3 137.075 15.4585   1
   5   8   3 6.53592 3.98678   2
   5   8   3 6.04000 4.29460   1
   6   8   3 0.02869 5.95201   2
  -6   9   3 6.92259 5.72231   2
  -6   9   3 7.59600 4.74346   1
  -5   9   3 68.4281 6.85832   1
  -5   9   3 59.9735 7.91209   2
  -4   9   3 17.2730 5.87756   2
  -4   9   3 19.3188 4.61387   1
  -3   9   3 77.8027 8.44049   2
  -3   9   3 98.0694 8.04638   1
   2   9   1 363.575 21.8524  -2
  -2   9   3 363.575 21.8524   1
   1   9   2 16.8776 6.38452  -2
  -1   9   3 16.8776 6.38452   1
   0   9   3 33.9148 5.46242  -2
   0   9   3 33.9148 5.46242   1
  -1   9   4 110.229 8.38490  -2
   1   9   3 110.229 8.38490   1
  -2   9   5 66.4064 7.81155  -2
   2   9   3 66.4064 7.81155   1
  -3   9   6 120.604 14.4148  -2
   3   9   3 120.604 14.4148   1
   3   9   3 56.3489 8.04877   1
   3   9   3 61.8230 6.82366   2
   4   9   3 42.8409 5.28878   1
   4   9   3 52.4708 6.67601   2
   5   9   3 4.06616 5.68342   1
  -5  10   3 79.2496 7.57562   1
  -5  10   3 55.8410 7.76313   2
  -4  10   3 20.9518 6.09275   2
  -4  10   3 27.9300 5.59965   1
  -3  10   3 45.3699 6.25680   1
  -3  10   3 32.3207 6.43116   2
   2  10   1 121.272 11.1509  -2
  -2  10   3 121.272 11.1509   1
   0  10   3 168.459 13.2861  -2
   0  10   3 168.459 13.2861   1
  -1  10   4 53.1780 9.20106  -2
   1  10   3 53.1780 9.20106   1
  -2  10   5 8.22183 9.16236  -2
   2  10   3 8.22183 9.16236   1
   3  10   3 2.24637 5.94835   1
  -3  11   3 48.2976 6.81820   1
  -1  11   4 -3.6474 8.75693  -2
   1  11   3 -3.6474 8.75693   1
   0 -12   4 58.6157 7.03179  -2
   0 -12   4 58.6157 7.03179   1
  -1 -12   5 19.2243 4.93489  -2
   1 -12   4 19.2243 4.93489   1
  -2 -12   6 -9.0808 6.59605  -2
   2 -12   4 -9.0808 6.59605   1
  -3 -11   4 6.46107 4.93833   2
   1 -11   3 -0.8996 7.31352  -2
  -1 -11   4 -0.8996 7.31352   1
   0 -11   4 25.2478 3.73822  -2
   0 -11   4 25.2478 3.73822   1
  -1 -11   5 52.3562 5.46355  -2
   1 -11   4 52.3562 5.46355   1
  -2 -11   6 82.9777 6.54709  -2
   2 -11   4 82.9777 6.54709   1
  -3 -11   7 20.8033 6.19328  -2
   3 -11   4 20.8033 6.19328   1
   4 -11   4 -2.6275 4.31766   1
   4 -11   4 4.74513 5.54178   2
  -5 -10   4 26.0418 5.24731   2
  -5 -10   4 25.1701 6.23880   1
  -4 -10   4 3.43531 5.38224   1
  -4 -10   4 5.46288 4.57466   2
  -3 -10   4 13.0648 4.67262   2
   1 -10   3 8.96342 6.12191  -2
  -1 -10   4 8.96342 6.12191   1
   0 -10   4 10.0823 3.01467  -2
   0 -10   4 10.0823 3.01467   1
  -1 -10   5 31.4235 4.84576  -2
   1 -10   4 31.4235 4.84576   1
  -2 -10   6 58.9655 6.05333  -2
   2 -10   4 58.9655 6.05333   1
  -3 -10   7 27.2040 6.00000  -2
   3 -10   4 27.2040 6.00000   1
   4 -10   4 47.1271 4.23114   1
   4 -10   4 47.9226 7.13929   2
   5 -10   4 89.4753 9.73635   2
   5 -10   4 94.2108 8.33228   1
   6 -10   4 4.46598 5.33658   2
  -6  -9   4 20.6437 6.09221   1
  -6  -9   4 23.0159 5.03546   2
  -5  -9   4 20.5218 5.95750   1
  -5  -9   4 15.2854 4.69588   2
  -4  -9   4 29.7235 4.90862   2
  -4  -9   4 33.4540 6.23958   1
  -3  -9   4 8.23459 3.84598   2
   3  -9   1 12.1741 10.2209  -2
  -3  -9   4 12.1741 10.2209   1
   2  -9   2 103.660 9.20794  -2
  -2  -9   4 103.660 9.20794   1
   1  -9   3 153.947 10.7060  -2
  -1  -9   4 153.947 10.7060   1
   0  -9   4 18.2238 3.10591  -2
   0  -9   4 18.2238 3.10591   1
  -1  -9   5 70.0473 5.69203  -2
   1  -9   4 70.0473 5.69203   1
  -2  -9   6 48.3767 5.44940  -2
   2  -9   4 48.3767 5.44940   1
  -3  -9   7 39.4637 5.67344  -2
   3  -9   4 39.4637 5.67344   1
   4  -9   4 58.0110 4.38020   1
   4  -9   4 51.0093 4.62397   2
   5  -9   4 29.2016 4.98216   1
   5  -9   4 26.7365 6.09164   2
   6  -9   4 17.3072 5.74486   2
   6  -9   4 18.1473 4.75114   1
  -7  -8   4 37.1697 6.87442   1
  -6  -8   4 1.19216 4.27458   2
  -6  -8   4 4.75864 5.46321   1
  -5  -8   4 1.87309 3.94122   2
  -5  -8   4 5.14490 5.34501   1
  -4  -8   4 122.634 8.62677   2
  -4  -8   4 124.295 10.9521   1
  -3  -8   4 109.130 9.47358   1
  -3  -8   4 110.515 8.05716   2
   2  -8   2 148.782 8.10806  -2
  -2  -8   4 148.782 8.10806   1
   1  -8   3 132.438 9.48030  -2
  -1  -8   4 132.438 9.48030   1
   0  -8   4 186.347 8.81854  -2
   0  -8   4 186.347 8.81854   1
  -1  -8   5 279.718 12.6146  -2
   1  -8   4 279.718 12.6146   1
  -2  -8   6 19.0076 4.81312  -2
   2  -8   4 19.0076 4.81312   1
  -3  -8   7 62.1966 5.91174  -2
   3  -8   4 62.1966 5.91174   1
   4  -8   4 16.9183 3.01587   1
   4  -8   4 13.4944 3.58359   2
   5  -8   4 0.64750 2.87667   1
   5  -8   4 0.92224 3.28988   2
   6  -8   4 45.4795 5.70818   1
   6  -8   4 37.7991 6.25159   2
   7  -8   4 75.6802 7.09304   1
  -8  -7   4 -1.1613 3.55109   1
  -7  -7   4 21.3576 4.90972   2
  -7  -7   4 22.5772 3.98188   1
  -6  -7   4 71.6118 5.40490   1
  -6  -7   4 60.3275 6.04370   2
  -5  -7   4 51.3904 5.28797   2
  -5  -7   4 58.4732 5.08140   1
  -4  -7   4 33.3263 3.64570   1
  -4  -7   4 29.1383 2.96722   2
   3  -7   1 65.5736 6.17770  -2
  -3  -7   4 65.5736 6.17770   1
  -3  -7   4 10.3290 3.32715   2
  -3  -7   4 6.23095 4.08306   1
   2  -7   2 376.356 16.5283  -2
  -2  -7   4 376.356 16.5283   1
   1  -7   3 99.2591 7.68852  -2
  -1  -7   4 99.2591 7.68852   1
   0  -7   4 352.752 15.0907  -2
   0  -7   4 352.752 15.0907   1
  -1  -7   5 552.932 23.1754  -2
   1  -7   4 552.932 23.1754   1
  -2  -7   6 230.139 10.9268  -2
   2  -7   4 230.139 10.9268   1
  -3  -7   7 78.3998 8.78461  -2
   3  -7   4 78.3998 8.78461   1
   3  -7   4 22.3774 3.89894   1
   4  -7   4 2.19128 2.60564   1
   4  -7   4 5.19839 3.24722   2
   5  -7   4 54.3836 4.37037   1
   5  -7   4 46.0206 4.31057   2
   6  -7   4 45.9461 5.98917   2
   6  -7   4 49.2881 5.68392   1
   7  -7   4 28.1815 5.08450   1
   8  -7   4 7.38862 4.35548   1
  -8  -6   4 1.59937 4.05073   2
  -8  -6   4 -2.3544 5.24995   1
  -7  -6   4 -0.9115 3.48178   1
  -7  -6   4 4.09223 3.10498   2
  -6  -6   4 42.8213 3.85327   2
  -6  -6   4 49.6967 4.55115   1
  -5  -6   4 25.8676 3.20663   2
  -5  -6   4 29.5304 3.70475   1
  -4  -6   4 161.564 6.76292   1
  -4  -6   4 146.280 5.98690   2
   3  -6   1 11.3295 6.92451  -2
  -3  -6   4 11.3295 6.92451   1
  -3  -6   4 10.8379 2.57052   1
  -3  -6   4 10.3802 3.28995   2
   2  -6   2 724.489 25.2406  -2
  -2  -6   4 724.489 25.2406   1
   1  -6   3 167.724 8.14608  -2
  -1  -6   4 167.724 8.14608   1
   0  -6   4 762.846 31.3786  -2
   0  -6   4 762.846 31.3786   1
  -1  -6   5 241.351 10.9769  -2
   1  -6   4 241.351 10.9769   1
  -2  -6   6 1078.18 44.2127  -2
   2  -6   4 1078.18 44.2127   1
   3  -6   4 456.047 28.8830   2
   3  -6   4 476.720 26.6340   1
  -3  -6   7 693.534 43.7887  -2
   3  -6   4 693.534 43.7887   1
   4  -6   4 1.79391 2.46132   1
   4  -6   4 0.87151 2.84269   2
   5  -6   4 3.48551 2.88801   1
   5  -6   4 0.62382 2.17482   2
   6  -6   4 9.62911 3.24926   1
   6  -6   4 5.82452 2.97100   2
   7  -6   4 10.8382 4.28314   1
   7  -6   4 8.28315 5.34989   2
  -9  -5   4 11.2786 5.82119   2
  -8  -5   4 29.7186 5.97676   1
  -8  -5   4 26.5596 3.86108   2
  -7  -5   4 -1.4260 3.39290   1
  -7  -5   4 0.34289 3.11687   2
  -6  -5   4 3.76484 2.85314   2
  -6  -5   4 4.42584 3.25138   1
  -5  -5   4 -0.9228 2.84374   1
  -5  -5   4 0.65119 2.53141   2
  -4  -5   4 315.222 11.3712   2
  -4  -5   4 357.230 12.9819   1
  -3  -5   4 62.0243 4.39415   1
  -3  -5   4 57.7046 4.98390   2
   2  -5   2 60.6999 3.95786  -2
  -2  -5   4 60.6999 3.95786   1
  -2  -5   4 6.67345 2.55572   2
   1  -5   3 244.507 10.7305  -2
  -1  -5   4 244.507 10.7305   1
   0  -5   4 2943.13 99.3854  -2
   0  -5   4 2943.13 99.3854   1
  -1  -5   5 209.693 9.56934  -2
   1  -5   4 209.693 9.56934   1
  -2  -5   6 890.132 30.5236  -2
   2  -5   4 890.132 30.5236   1
   3  -5   4 775.660 32.3361   2
  -3  -5   7 979.087 60.8364  -2
   3  -5   4 979.087 60.8364   1
   3  -5   4 888.782 48.3903   1
   4  -5   4 85.1639 4.45535   2
   4  -5   4 95.4639 4.47211   1
   5  -5   4 70.3709 4.12682   2
   5  -5   4 85.0352 5.33940   1
   6  -5   4 22.8143 3.44437   1
   6  -5   4 16.3123 3.52980   2
   7  -5   4 2.77291 3.89453   1
   7  -5   4 1.42319 3.26305   2
   8  -5   4 5.48790 3.65617   2
  -9  -4   4 19.2562 3.71564   2
  -9  -4   4 14.9848 6.25650   1
  -8  -4   4 7.36760 3.34106   2
  -8  -4   4 11.6856 5.41695   1
  -7  -4   4 5.96114 3.39875   1
  -7  -4   4 3.27642 3.10131   2
  -6  -4   4 133.997 7.09768   2
  -6  -4   4 155.052 12.3308   1
  -5  -4   4 22.7691 2.35266   1
  -5  -4   4 21.6751 2.34496   2
  -4  -4   4 61.2872 3.52423   2
  -4  -4   4 66.2712 3.70721   1
  -3  -4   4 58.5397 3.61513   2
  -3  -4   4 61.3726 4.46033   1
   2  -4   2 500.094 21.1208  -2
  -2  -4   4 500.094 21.1208   1
  -2  -4   4 447.974 28.1520   1
  -2  -4   4 416.798 23.0431   2
   1  -4   3 196.593 8.58004  -2
  -1  -4   4 196.593 8.58004   1
   0  -4   4 1422.22 57.6218  -2
   0  -4   4 1422.22 57.6218   1
  -1  -4   5 281.985 12.2160  -2
   1  -4   4 281.985 12.2160   1
  -2  -4   6 919.442 31.3634  -2
   2  -4   4 919.442 31.3634   1
   2  -4   4 673.013 41.9091   2
   3  -4   4 82.5689 5.02973   2
  -3  -4   7 197.932 13.5891  -2
   3  -4   4 197.932 13.5891   1
   3  -4   4 96.2449 5.31589   1
   4  -4   4 106.464 4.93881   2
   4  -4   4 120.990 6.47828   1
  -4  -4   8 879.989 55.5217  -2
   4  -4   4 879.989 55.5217   1
   5  -4   4 500.636 17.6987   1
   5  -4   4 439.094 15.6989   2
   6  -4   4 1.72566 2.41621   1
   6  -4   4 -2.4977 3.01993   2
   7  -4   4 1.08203 2.53097   1
   7  -4   4 -2.0158 3.38755   2
   8  -4   4 -1.5807 3.52147   2
   9  -4   4 0.01655 3.61608   2
  -9  -3   4 58.5810 4.73214   2
  -9  -3   4 68.6212 8.21811   1
  -8  -3   4 30.5460 5.92752   1
  -8  -3   4 24.7863 3.62903   2
  -7  -3   4 23.3221 3.28315   2
  -7  -3   4 26.2416 3.86953   1
  -6  -3   4 222.486 10.3586   2
  -6  -3   4 249.614 9.37444   1
  -5  -3   4 68.4179 3.67749   2
  -5  -3   4 79.2376 4.12907   1
  -4  -3   4 219.707 8.25878   2
  -4  -3   4 247.051 9.13142   1
  -3  -3   4 27.5394 2.13965   1
  -3  -3   4 23.8327 2.20232   2
  -2  -3   4 779.626 31.7709   2
  -2  -3   4 820.659 33.8041   1
   2  -3   2 978.690 60.6490  -2
  -2  -3   4 978.690 60.6490   1
   1  -3   3 248.435 10.5787  -2
  -1  -3   4 248.435 10.5787   1
   0  -3   4 49.4090 2.96874  -2
   0  -3   4 49.4090 2.96874   1
  -1  -3   5 204.449 7.36431  -2
   1  -3   4 204.449 7.36431   1
  -2  -3   6 4052.28 163.657  -2
   2  -3   4 4052.28 163.657   1
   2  -3   4 2100.93 128.942   1
   2  -3   4 1955.84 79.6034   2
   3  -3   4 74.5406 4.56952   1
  -3  -3   7 129.508 9.94693  -2
   3  -3   4 129.508 9.94693   1
   3  -3   4 65.2251 3.43989   2
   4  -3   4 119.050 5.31430   2
   4  -3   4 149.200 7.51269   1
  -4  -3   8 493.512 31.8842  -2
   4  -3   4 493.512 31.8842   1
   5  -3   4 255.188 9.66918   1
   5  -3   4 204.810 9.89419   2
   6  -3   4 7.12107 3.25183   2
   6  -3   4 9.34682 2.41201   1
   7  -3   4 85.6628 9.48189   1
   7  -3   4 76.6213 5.53884   2
   8  -3   4 6.29615 3.65604   2
   8  -3   4 6.35919 5.37969   1
   9  -3   4 7.95966 3.78280   2
   9  -3   4 -2.6796 5.37602   1
  -9  -2   4 57.5891 4.58021   2
  -9  -2   4 66.7293 7.90195   1
  -8  -2   4 69.3059 7.92144   1
  -8  -2   4 52.7643 4.35257   2
  -7  -2   4 80.5129 8.78553   1
  -7  -2   4 75.4140 5.09704   2
  -6  -2   4 0.29628 2.56014   2
  -6  -2   4 1.85092 1.90880   1
  -5  -2   4 67.9104 3.65413   1
  -5  -2   4 62.1810 3.45744   2
  -4  -2   4 1572.05 53.3529   1
  -4  -2   4 1319.57 44.9371   2
  -3  -2   4 162.998 7.50431   2
  -3  -2   4 174.053 6.60031   1
  -2  -2   4 123.544 5.94276   1
  -2  -2   4 124.730 5.72889   2
   2  -2   2 744.635 46.0351  -2
  -2  -2   4 744.635 46.0351   1
  -1  -2   4 73.3139 5.16387   1
   1  -2   3 107.519 5.20869  -2
  -1  -2   4 107.519 5.20869   1
  -1  -2   4 86.9616 6.36202   2
   0  -2   4 2621.92 88.4391  -2
   0  -2   4 2621.92 88.4391   1
  -1  -2   5 45.1277 2.24208  -2
   1  -2   4 45.1277 2.24208   1
   2  -2   4 628.126 39.3226   2
  -2  -2   6 3083.97 165.112  -2
   2  -2   4 3083.97 165.112   1
   2  -2   4 727.564 45.6343   1
   3  -2   4 25.7919 2.55785   1
   3  -2   4 23.8155 1.89707   2
   4  -2   4 741.086 25.6585   2
   4  -2   4 846.948 34.8479   1
   5  -2   4 54.1615 4.32474   1
   5  -2   4 47.3728 4.07604   2
   6  -2   4 -2.2022 3.17268   1
   6  -2   4 -1.3955 2.93396   2
   7  -2   4 180.638 9.38437   2
   7  -2   4 221.350 11.6273   1
   8  -2   4 -3.2700 5.50022   1
   8  -2   4 0.20320 3.52670   2
   9  -2   4 11.0967 3.78267   2
   9  -2   4 13.2816 6.29013   1
  -9  -1   4 15.1950 3.26115   2
  -9  -1   4 24.9285 6.41286   1
  -8  -1   4 3.68591 2.86887   2
  -8  -1   4 7.85526 5.12315   1
  -7  -1   4 182.164 8.83216   2
  -7  -1   4 192.690 9.06079   1
  -6  -1   4 93.1260 4.38406   1
  -6  -1   4 78.1362 4.85880   2
  -5  -1   4 53.5929 3.03464   2
  -5  -1   4 57.9563 3.25057   1
  -4  -1   4 561.309 19.4030   1
  -4  -1   4 514.316 17.8308   2
  -3  -1   4 561.066 19.3174   1
  -3  -1   4 475.623 19.7480   2
  -2  -1   4 1266.59 51.6015   1
  -2  -1   4 1290.79 52.3314   2
  -1  -1   4 168.944 10.2383   1
  -1  -1   4 178.980 11.9118   2
   1  -1   3 435.159 19.1860  -2
  -1  -1   4 435.159 19.1860   1
   0  -1   4 143.799 5.15950  -2
   0  -1   4 143.799 5.15950   1
   1  -1   4 62.4134 5.50876   1
  -1  -1   5 64.4364 3.23533  -2
   1  -1   4 64.4364 3.23533   1
   1  -1   4 60.0130 3.30226   2
   2  -1   4 366.344 12.8911   2
  -2  -1   6 453.257 18.7116  -2
   2  -1   4 453.257 18.7116   1
   2  -1   4 464.569 29.8301   1
   3  -1   4 105.416 9.68679   1
   3  -1   4 93.0819 4.05173   2
  -3  -1   7 113.014 7.25155  -2
   3  -1   4 113.014 7.25155   1
   4  -1   4 682.167 28.5014   2
   4  -1   4 794.271 27.4852   1
   5  -1   4 14.6143 2.14539   1
   5  -1   4 12.9682 2.96077   2
   6  -1   4 28.5102 3.71168   2
   6  -1   4 34.9131 4.16998   1
   7  -1   4 1.28330 3.75067   1
   7  -1   4 4.20522 3.37092   2
   8  -1   4 -2.4796 3.46347   2
   8  -1   4 1.60861 3.85225   1
   9  -1   4 64.9025 7.99760   1
   9  -1   4 52.7431 6.63584   2
  -9   0   4 62.1431 7.87665   1
  -9   0   4 60.6365 7.76003   2
  -8   0   4 111.413 10.5287   1
  -8   0   4 94.2379 5.73760   2
  -7   0   4 35.0401 3.38800   2
  -7   0   4 34.2572 3.34722   1
  -6   0   4 9.51260 1.85833   2
  -6   0   4 10.0516 2.45693   1
  -5   0   4 445.272 15.5484   2
  -5   0   4 488.721 17.0782   1
  -4   0   4 1.30421 1.30397   1
  -4   0   4 5.74181 1.41606   2
  -3   0   4 68.1707 3.53939   2
  -3   0   4 76.1112 3.25462   1
  -2   0   4 3863.98 155.453   2
  -2   0   4 4106.78 138.369   1
  -1   0   4 157.483 6.78370   2
  -1   0   4 174.747 7.46767   1
   1   0   3 246.102 16.0678  -2
  -1   0   4 246.102 16.0678   1
   0   0   4 203.179 7.27579  -2
   0   0   4 203.179 7.27579   1
   1   0   4 2.63015 1.16342   2
   1   0   4 -0.5412 2.10805   1
  -1   0   5 40.2143 4.20229  -2
   1   0   4 40.2143 4.20229   1
   2   0   4 155.068 11.2891   1
   2   0   4 145.356 6.55408   2
  -2   0   6 1003.13 40.8018  -2
   2   0   4 1003.13 40.8018   1
   3   0   4 5.49127 3.93924   1
   3   0   4 8.60229 1.11734   2
  -3   0   7 198.130 14.2050  -2
   3   0   4 198.130 14.2050   1
   4   0   4 12.5016 2.60742   2
   4   0   4 14.3144 1.70790   1
   5   0   4 12.6477 3.00482   2
   5   0   4 17.5420 3.38679   1
   6   0   4 248.394 12.5906   1
   6   0   4 193.593 9.65292   2
   7   0   4 30.2588 3.84801   2
   7   0   4 33.6180 4.62051   1
   8   0   4 12.7970 4.12964   1
   8   0   4 8.16843 3.73069   2
   9   0   4 23.0543 5.31318   2
   9   0   4 19.9213 6.30289   1
  -9   1   4 24.6329 6.04743   2
  -9   1   4 18.6400 6.27948   1
  -8   1   4 6.00572 2.90376   1
  -8   1   4 6.68261 5.00736   2
  -7   1   4 162.576 8.12874   1
  -7   1   4 151.615 7.50763   2
  -6   1   4 107.017 6.06536   1
  -6   1   4 99.2694 4.45424   2
  -5   1   4 539.093 18.6616   2
  -5   1   4 574.188 23.9983   1
  -4   1   4 52.4071 2.79303   2
  -4   1   4 54.3724 2.69965   1
   3   1   1 661.017 42.0243  -2
  -3   1   4 661.017 42.0243   1
  -3   1   4 115.624 5.20636   2
  -3   1   4 119.693 7.56074   1
  -2   1   4 557.088 34.7780   2
  -2   1   4 610.000 33.2406   1
   2   1   2 644.920 40.8087  -2
  -2   1   4 644.920 40.8087   1
  -1   1   4 322.421 13.2951   1
   1   1   3 716.141 44.9713  -2
  -1   1   4 716.141 44.9713   1
  -1   1   4 299.989 12.3555   2
   0   1   4 5777.75 194.617  -2
   0   1   4 5777.75 194.617   1
   1   1   4 0.70112 0.92132   1
   1   1   4 0.56067 1.02573   2
  -1   1   5 97.0231 7.57609  -2
   1   1   4 97.0231 7.57609   1
   2   1   4 100.721 4.78198   2
  -2   1   6 222.725 15.0733  -2
   2   1   4 222.725 15.0733   1
   2   1   4 99.8535 7.82140   1
   3   1   4 5.82270 2.76797   2
  -3   1   7 33.2117 6.88591  -2
   3   1   4 33.2117 6.88591   1
   3   1   4 0.39572 3.31841   1
   4   1   4 80.2280 4.99539   2
   4   1   4 98.3732 6.14509   1
   5   1   4 0.07628 2.56300   2
   5   1   4 0.63943 3.11608   1
   6   1   4 53.2043 4.82293   1
   6   1   4 42.2643 3.99362   2
   7   1   4 66.5021 5.67149   1
   7   1   4 59.2609 4.82102   2
   8   1   4 2.82322 3.37497   2
   8   1   4 7.19715 4.33621   1
  -9   2   4 39.9453 6.48896   2
  -9   2   4 37.6913 4.01584   1
  -8   2   4 3.82977 2.98458   1
  -8   2   4 5.96981 4.84838   2
  -7   2   4 140.427 11.0401   2
  -7   2   4 152.353 7.92449   1
  -6   2   4 131.495 7.24677   2
  -6   2   4 134.236 6.96468   1
  -5   2   4 4.65216 1.56791   2
  -5   2   4 4.39983 2.37515   1
  -4   2   4 4.67170 1.40012   2
  -4   2   4 3.13504 2.05582   1
   3   2   1 1980.63 122.990  -2
  -3   2   4 1980.63 122.990   1
  -3   2   4 1403.32 75.6536   1
  -3   2   4 1346.12 54.3614   2
   2   2   2 104.959 5.60981  -2
  -2   2   4 104.959 5.60981   1
  -2   2   4 64.2107 5.73965   2
  -2   2   4 61.5911 4.58101   1
  -1   2   4 211.848 8.94081   1
  -1   2   4 198.063 13.1142   2
   1   2   3 221.897 15.1682  -2
  -1   2   4 221.897 15.1682   1
   0   2   4 4207.79 141.858  -2
   0   2   4 4207.79 141.858   1
   1   2   4 103.506 4.67930   1
   1   2   4 99.1488 4.71308   2
  -1   2   5 233.356 15.8584  -2
   1   2   4 233.356 15.8584   1
   2   2   4 75.3209 3.87416   2
  -2   2   6 93.7185 8.24311  -2
   2   2   4 93.7185 8.24311   1
   2   2   4 88.3423 7.59779   1
  -3   2   7 174.649 13.3900  -2
   3   2   4 174.649 13.3900   1
   3   2   4 -0.3172 2.55987   2
   3   2   4 1.74503 3.73047   1
   4   2   4 14.8213 2.90053   2
   4   2   4 17.0628 3.23326   1
   5   2   4 20.2517 3.53145   1
   5   2   4 17.6851 3.13944   2
   6   2   4 24.6486 3.54834   2
   6   2   4 31.7335 4.33229   1
   7   2   4 16.6669 4.31073   1
   7   2   4 14.9439 3.51011   2
   8   2   4 20.0210 4.68314   1
   8   2   4 15.4138 3.74811   2
  -9   3   4 75.2311 5.41505   1
  -9   3   4 80.0277 9.08008   2
  -8   3   4 12.2075 4.98182   2
  -8   3   4 4.94532 3.14218   1
  -7   3   4 43.9452 4.10184   2
  -7   3   4 44.3130 4.10541   1
  -6   3   4 52.6692 4.19938   1
  -6   3   4 52.2583 4.19867   2
  -5   3   4 366.917 16.9024   2
  -5   3   4 383.740 16.5639   1
  -4   3   4 102.765 4.34216   2
  -4   3   4 112.752 6.07943   1
  -3   3   4 474.811 19.5379   1
  -3   3   4 489.738 20.1578   2
   3   3   1 706.509 45.0392  -2
  -3   3   4 706.509 45.0392   1
  -2   3   4 19.7688 2.69545   1
   2   3   2 163.542 8.22729  -2
  -2   3   4 163.542 8.22729   1
  -2   3   4 14.2782 2.95121   2
  -1   3   4 783.286 42.4037   1
   1   3   3 882.760 38.9967  -2
  -1   3   4 882.760 38.9967   1
  -1   3   4 757.878 47.0750   2
   0   3   4 80.7978 3.49286  -2
   0   3   4 80.7978 3.49286   1
   1   3   4 259.406 14.7604   2
   1   3   4 262.066 17.1880   1
  -1   3   5 276.600 11.7099  -2
   1   3   4 276.600 11.7099   1
   2   3   4 998.637 40.5640   2
   2   3   4 1136.67 70.4398   1
  -2   3   6 1348.45 84.2705  -2
   2   3   4 1348.45 84.2705   1
   3   3   4 40.0110 5.49345   1
  -3   3   7 72.2176 8.91003  -2
   3   3   4 72.2176 8.91003   1
   3   3   4 34.9840 4.12376   2
   4   3   4 19.5501 3.18089   2
   4   3   4 24.2885 3.50259   1
   5   3   4 4.52290 3.24115   1
   5   3   4 3.67766 2.93710   2
   6   3   4 12.4346 3.85152   1
   6   3   4 12.2741 3.49877   2
   7   3   4 33.0317 4.71910   1
   7   3   4 28.0736 4.03825   2
   8   3   4 -1.9958 4.21130   1
   8   3   4 -1.5268 3.44930   2
  -9   4   4 69.5967 5.33577   1
  -9   4   4 62.1730 8.10224   2
  -8   4   4 19.9938 3.57060   1
  -8   4   4 15.2507 5.49720   2
  -7   4   4 125.559 7.47252   2
  -7   4   4 120.174 6.98079   1
  -6   4   4 8.24753 3.10682   2
  -6   4   4 8.72237 2.92267   1
  -5   4   4 63.4524 4.79431   2
  -5   4   4 67.9728 4.84089   1
  -4   4   4 181.575 8.66615   1
  -4   4   4 175.892 9.00421   2
  -3   4   4 57.7566 3.59775   1
  -3   4   4 66.3484 3.62592   2
   3   4   1 70.3003 9.17147  -2
  -3   4   4 70.3003 9.17147   1
   2   4   2 3.69783 3.36346  -2
  -2   4   4 3.69783 3.36346   1
  -2   4   4 7.82475 3.13893   2
  -2   4   4 10.7726 2.84320   1
   1   4   3 724.500 25.0103  -2
  -1   4   4 724.500 25.0103   1
   0   4   4 145.350 5.64231  -2
   0   4   4 145.350 5.64231   1
  -1   4   5 241.461 8.85842  -2
   1   4   4 241.461 8.85842   1
  -2   4   6 177.103 13.8858  -2
   2   4   4 177.103 13.8858   1
   2   4   4 88.8442 7.97138   1
   2   4   4 82.9155 6.57491   2
   3   4   4 127.394 9.05894   2
  -3   4   7 704.285 45.0671  -2
   3   4   4 704.285 45.0671   1
   3   4   4 146.230 11.9009   1
   4   4   4 60.5561 4.59525   2
   4   4   4 67.3183 5.26689   1
   5   4   4 3.14656 3.47298   1
   5   4   4 5.83559 3.27937   2
   6   4   4 11.9836 3.58279   2
   6   4   4 15.4910 4.01773   1
   7   4   4 26.1752 4.05828   2
   7   4   4 32.2771 4.76988   1
   8   4   4 13.5746 7.04939   1
  -9   5   4 5.95729 3.44972   1
  -9   5   4 9.76457 5.93784   2
  -8   5   4 -2.4274 3.19288   1
  -8   5   4 -2.0241 5.20079   2
  -7   5   4 167.261 9.27992   2
  -7   5   4 163.978 8.40438   1
  -6   5   4 33.3884 3.96976   2
  -6   5   4 38.1804 3.77486   1
  -5   5   4 10.4896 3.03592   2
  -5   5   4 9.11350 2.88285   1
  -4   5   4 20.7170 3.17265   2
  -4   5   4 23.4661 3.07549   1
  -3   5   4 140.849 6.64716   1
  -3   5   4 142.765 11.4246   2
   3   5   1 227.162 17.1238  -2
  -3   5   4 227.162 17.1238   1
   2   5   2 388.109 18.0862  -2
  -2   5   4 388.109 18.0862   1
  -2   5   4 82.0048 7.52972   2
  -2   5   4 86.0619 6.70386   1
   1   5   3 253.763 9.64711  -2
  -1   5   4 253.763 9.64711   1
   0   5   4 24.0832 2.17597  -2
   0   5   4 24.0832 2.17597   1
  -1   5   5 143.084 6.05033  -2
   1   5   4 143.084 6.05033   1
  -2   5   6 161.816 13.3184  -2
   2   5   4 161.816 13.3184   1
   2   5   4 142.477 11.1058   1
   2   5   4 133.940 9.13385   2
   3   5   4 216.862 13.5566   2
   3   5   4 219.618 15.7144   1
  -3   5   7 383.560 26.1535  -2
   3   5   4 383.560 26.1535   1
   4   5   4 122.917 7.22131   2
   4   5   4 137.468 8.09055   1
   5   5   4 49.8578 4.86207   1
   5   5   4 41.6242 4.39317   2
   6   5   4 3.62930 3.56579   2
   6   5   4 6.80423 4.03493   1
   7   5   4 9.04851 3.64557   2
   7   5   4 8.26445 4.51506   1
  -9   6   4 41.5212 7.10308   1
  -8   6   4 1.56448 3.14991   1
  -8   6   4 -2.5535 5.21298   2
  -7   6   4 120.914 7.62735   2
  -7   6   4 134.400 7.59335   1
  -6   6   4 1.13297 3.20436   2
  -6   6   4 -1.4576 3.05715   1
  -5   6   4 199.108 9.59293   1
  -5   6   4 188.347 9.97982   2
  -4   6   4 8.62834 2.99599   2
  -4   6   4 7.27269 3.05592   1
  -3   6   4 30.2247 4.48603   1
  -3   6   4 24.9430 5.32804   2
   3   6   1 30.3747 9.97507  -2
  -3   6   4 30.3747 9.97507   1
   2   6   2 374.275 17.7614  -2
  -2   6   4 374.275 17.7614   1
  -2   6   4 115.061 10.2809   2
  -2   6   4 109.781 8.11016   1
   1   6   3 283.759 10.7478  -2
  -1   6   4 283.759 10.7478   1
   0   6   4 188.790 7.31439  -2
   0   6   4 188.790 7.31439   1
  -1   6   5 256.448 13.1525  -2
   1   6   4 256.448 13.1525   1
   2   6   4 99.7531 7.90485   2
  -2   6   6 122.410 12.3005  -2
   2   6   4 122.410 12.3005   1
   2   6   4 87.0435 9.37415   1
   3   6   4 39.3156 5.26979   2
  -3   6   7 46.0625 10.4181  -2
   3   6   4 46.0625 10.4181   1
   3   6   4 35.9801 5.96115   1
   4   6   4 0.21861 3.45185   2
   4   6   4 5.52472 3.44329   1
   5   6   4 124.037 7.54882   2
   5   6   4 132.903 8.36677   1
   6   6   4 50.0624 4.93810   2
   6   6   4 58.7328 5.76942   1
  -8   7   4 2.42067 3.70858   2
  -8   7   4 7.40086 4.57385   1
  -7   7   4 12.0542 3.53447   1
  -7   7   4 8.39405 3.69682   2
  -6   7   4 0.16700 3.15606   1
  -6   7   4 1.13435 3.38436   2
  -5   7   4 207.008 9.98897   1
  -5   7   4 204.538 10.6630   2
  -4   7   4 4.62727 3.41127   2
  -4   7   4 2.42166 4.12492   1
   4   7   0 4.02532 10.1136  -2
  -4   7   4 4.02532 10.1136   1
  -3   7   4 -3.1092 4.77017   2
  -3   7   4 -0.3238 3.40570   1
   3   7   1 3.48889 10.0683  -2
  -3   7   4 3.48889 10.0683   1
   2   7   2 53.7575 10.9945  -2
  -2   7   4 53.7575 10.9945   1
  -2   7   4 21.4698 4.94128   2
  -2   7   4 27.4652 4.30467   1
   1   7   3 5.69291 3.78380  -2
  -1   7   4 5.69291 3.78380   1
   0   7   4 150.010 6.33481  -2
   0   7   4 150.010 6.33481   1
  -1   7   5 22.5349 6.04267  -2
   1   7   4 22.5349 6.04267   1
  -2   7   6 130.712 13.5477  -2
   2   7   4 130.712 13.5477   1
   2   7   4 76.6183 8.30805   1
   2   7   4 71.3635 6.57160   2
   3   7   4 15.5241 4.73387   2
  -3   7   7 29.8784 9.96128  -2
   3   7   4 29.8784 9.96128   1
   3   7   4 6.57910 5.18609   1
   4   7   4 79.2227 6.14145   1
   4   7   4 85.1280 7.79982   2
   5   7   4 115.122 8.01356   1
   5   7   4 98.2282 6.90764   2
   6   7   4 9.07470 4.35493   1
   6   7   4 8.01169 3.70946   2
  -7   8   4 8.79346 3.81935   2
  -7   8   4 10.8995 4.69643   1
  -6   8   4 37.7191 4.54516   2
  -6   8   4 33.1966 5.36630   1
  -5   8   4 7.71806 3.52834   2
  -5   8   4 2.77921 4.34567   1
  -4   8   4 5.66032 3.43782   2
  -4   8   4 8.25443 4.27081   1
   3   8   1 74.9288 12.7070  -2
  -3   8   4 74.9288 12.7070   1
  -3   8   4 53.3657 7.21060   2
  -3   8   4 73.1747 7.21781   1
   2   8   2 71.6368 6.94387  -2
  -2   8   4 71.6368 6.94387   1
   1   8   3 67.7889 4.98991  -2
  -1   8   4 67.7889 4.98991   1
   0   8   4 13.6170 3.83536  -2
   0   8   4 13.6170 3.83536   1
  -1   8   5 190.171 11.0606  -2
   1   8   4 190.171 11.0606   1
  -2   8   6 151.655 10.4767  -2
   2   8   4 151.655 10.4767   1
   3   8   4 -1.6682 5.06327   1
  -3   8   7 42.7848 11.2715  -2
   3   8   4 42.7848 11.2715   1
   3   8   4 -3.4018 4.57886   2
   4   8   4 40.6667 7.59630   1
  -4   8   8 57.1543 13.9998  -2
   4   8   4 57.1543 13.9998   1
   4   8   4 48.6251 6.50393   2
   5   8   4 8.57865 3.91515   2
   5   8   4 9.48641 4.33544   1
  -6   9   4 5.37455 4.38351   1
  -6   9   4 0.69986 5.64337   2
  -5   9   4 6.68634 4.43265   1
  -5   9   4 8.68561 5.50786   2
  -4   9   4 76.1250 6.15284   2
  -4   9   4 79.5844 7.85289   1
  -3   9   4 31.5713 6.42834   2
  -3   9   4 36.6638 5.59449   1
   2   9   2 105.962 10.3020  -2
  -2   9   4 105.962 10.3020   1
   1   9   3 78.5697 9.27313  -2
  -1   9   4 78.5697 9.27313   1
   0   9   4 37.5905 4.80682  -2
   0   9   4 37.5905 4.80682   1
  -1   9   5 30.3937 6.71534  -2
   1   9   4 30.3937 6.71534   1
  -2   9   6 92.4339 8.87561  -2
   2   9   4 92.4339 8.87561   1
  -3   9   7 15.0676 12.5117  -2
   3   9   4 15.0676 12.5117   1
   3   9   4 7.37183 6.27279   1
   4   9   4 32.7395 4.95293   1
   4   9   4 30.3118 5.95370   2
  -5  10   4 6.70245 5.02314   1
  -4  10   4 20.5923 6.25121   2
  -4  10   4 23.4037 5.66820   1
  -3  10   4 -1.0620 5.38871   2
  -3  10   4 6.73901 5.05109   1
   0  10   4 22.1394 5.54917  -2
   0  10   4 22.1394 5.54917   1
  -1  10   5 108.068 11.1126  -2
   1  10   4 108.068 11.1126   1
  -2  10   6 -6.8817 9.53222  -2
   2  10   4 -6.8817 9.53222   1
  -1  11   5 11.9230 9.04812  -2
   1  11   4 11.9230 9.04812   1
   0 -12   5 60.2472 4.94561  -2
   0 -12   5 60.2472 4.94561   1
  -1 -12   6 19.2303 5.14531  -2
   1 -12   5 19.2303 5.14531   1
  -2 -12   7 7.50267 6.77199  -2
   2 -12   5 7.50267 6.77199   1
   1 -11   4 43.8659 5.24916  -2
  -1 -11   5 43.8659 5.24916   1
   0 -11   5 226.758 10.7981  -2
   0 -11   5 226.758 10.7981   1
  -1 -11   6 79.6454 6.23221  -2
   1 -11   5 79.6454 6.23221   1
  -2 -11   7 5.58881 5.35768  -2
   2 -11   5 5.58881 5.35768   1
  -3 -11   8 11.0854 9.11889  -2
   3 -11   5 11.0854 9.11889   1
   4 -11   5 6.47085 5.71166   2
  -5 -10   5 3.78683 4.17420   2
  -5 -10   5 -1.6343 5.47364   1
  -4 -10   5 4.11136 4.17421   2
  -3 -10   5 53.7839 6.10588   2
   1 -10   4 27.2865 4.78501  -2
  -1 -10   5 27.2865 4.78501   1
   0 -10   5 411.816 17.7713  -2
   0 -10   5 411.816 17.7713   1
  -1 -10   6 8.89550 4.56124  -2
   1 -10   5 8.89550 4.56124   1
  -2 -10   7 86.1302 6.56725  -2
   2 -10   5 86.1302 6.56725   1
  -3 -10   8 53.9762 6.16368  -2
   3 -10   5 53.9762 6.16368   1
   4 -10   5 37.4737 6.70030   2
   4 -10   5 36.2866 3.94015   1
   5 -10   5 17.6528 4.98292   1
   5 -10   5 10.9492 5.73844   2
   6 -10   5 -1.4662 5.23671   2
  -6  -9   5 33.2145 6.54753   1
  -6  -9   5 24.8153 4.71399   2
  -5  -9   5 0.28308 4.88897   1
  -5  -9   5 -3.8818 4.08922   2
  -4  -9   5 29.8995 5.78611   1
  -4  -9   5 27.0267 4.57951   2
   2  -9   3 79.0260 8.59122  -2
  -2  -9   5 79.0260 8.59122   1
   1  -9   4 66.2172 5.34255  -2
  -1  -9   5 66.2172 5.34255   1
   0  -9   5 454.272 19.3714  -2
   0  -9   5 454.272 19.3714   1
  -1  -9   6 92.7046 6.16949  -2
   1  -9   5 92.7046 6.16949   1
  -2  -9   7 184.227 9.52360  -2
   2  -9   5 184.227 9.52360   1
  -3  -9   8 68.8007 6.46196  -2
   3  -9   5 68.8007 6.46196   1
   4  -9   5 2.68495 3.25271   2
   4  -9   5 0.89922 3.09147   1
   5  -9   5 23.4986 5.94834   2
   5  -9   5 20.7147 4.90906   1
   6  -9   5 8.26739 4.70147   1
   6  -9   5 9.87406 5.50272   2
  -7  -8   5 20.8827 4.58867   2
  -7  -8   5 20.9651 6.02077   1
  -6  -8   5 84.3473 9.52629   1
  -6  -8   5 77.9700 7.29102   2
  -5  -8   5 0.52791 5.04497   1
  -5  -8   5 -1.4818 3.84824   2
  -4  -8   5 23.3709 3.00695   2
  -4  -8   5 32.9776 5.70325   1
  -3  -8   5 11.1460 4.89437   1
   3  -8   2 39.6671 8.03369  -2
  -3  -8   5 39.6671 8.03369   1
  -3  -8   5 9.76031 3.55120   2
   2  -8   3 28.6985 6.31695  -2
  -2  -8   5 28.6985 6.31695   1
   1  -8   4 289.300 17.3430  -2
  -1  -8   5 289.300 17.3430   1
   0  -8   5 272.799 12.1305  -2
   0  -8   5 272.799 12.1305   1
  -1  -8   6 169.409 8.66323  -2
   1  -8   5 169.409 8.66323   1
  -2  -8   7 179.444 9.31264  -2
   2  -8   5 179.444 9.31264   1
  -3  -8   8 193.074 9.91845  -2
   3  -8   5 193.074 9.91845   1
   4  -8   5 46.3961 4.56387   2
   4  -8   5 45.6267 3.92391   1
   5  -8   5 92.2164 5.99320   1
   5  -8   5 84.7240 5.89687   2
   6  -8   5 11.4329 4.32278   2
   6  -8   5 17.1868 4.78082   1
   7  -8   5 20.3599 5.04332   1
  -8  -7   5 15.2959 5.45940   1
  -7  -7   5 67.2745 5.45271   1
  -7  -7   5 57.6596 5.93870   2
  -6  -7   5 120.109 7.49317   1
  -6  -7   5 101.870 8.20775   2
  -5  -7   5 1.26170 2.91680   1
  -5  -7   5 -0.0137 3.41268   2
  -4  -7   5 121.052 6.97082   1
  -4  -7   5 114.531 5.99829   2
  -3  -7   5 2.52138 3.19727   2
   3  -7   2 62.5292 8.61209  -2
  -3  -7   5 62.5292 8.61209   1
  -3  -7   5 3.96310 4.41157   1
   2  -7   3 94.0533 8.18262  -2
  -2  -7   5 94.0533 8.18262   1
   1  -7   4 516.722 28.8620  -2
  -1  -7   5 516.722 28.8620   1
   0  -7   5 12.3164 2.69359  -2
   0  -7   5 12.3164 2.69359   1
  -1  -7   6 95.5680 6.10452  -2
   1  -7   5 95.5680 6.10452   1
  -2  -7   7 564.328 23.8922  -2
   2  -7   5 564.328 23.8922   1
  -3  -7   8 133.515 7.79721  -2
   3  -7   5 133.515 7.79721   1
   4  -7   5 7.95836 2.79151   1
   4  -7   5 8.50328 3.33063   2
   5  -7   5 -0.2442 3.12618   2
   5  -7   5 1.37663 3.00501   1
   6  -7   5 -1.8354 4.49164   2
   6  -7   5 3.40827 3.84038   1
   7  -7   5 74.5596 6.87454   1
  -8  -6   5 4.70264 4.36150   2
  -8  -6   5 1.35032 5.16295   1
  -7  -6   5 90.3893 6.45223   1
  -7  -6   5 77.3538 7.27106   2
  -6  -6   5 1.70750 3.12480   1
  -6  -6   5 -1.9733 3.48610   2
  -5  -6   5 136.966 7.85799   1
  -5  -6   5 121.744 8.47502   2
  -4  -6   5 434.036 15.6568   1
  -4  -6   5 397.398 16.8204   2
  -3  -6   5 53.1813 5.14223   2
  -3  -6   5 58.8687 4.29258   1
   3  -6   2 47.8542 8.17938  -2
  -3  -6   5 47.8542 8.17938   1
   2  -6   3 134.082 6.11559  -2
  -2  -6   5 134.082 6.11559   1
   1  -6   4 234.926 14.1602  -2
  -1  -6   5 234.926 14.1602   1
   0  -6   5 64.2324 4.20622  -2
   0  -6   5 64.2324 4.20622   1
  -1  -6   6 11.1821 3.74676  -2
   1  -6   5 11.1821 3.74676   1
  -2  -6   7 243.905 11.4049  -2
   2  -6   5 243.905 11.4049   1
  -3  -6   8 24.3076 5.31477  -2
   3  -6   5 24.3076 5.31477   1
   4  -6   5 10.8175 2.89231   1
   4  -6   5 9.58938 2.99907   2
   5  -6   5 153.220 7.97746   1
   5  -6   5 137.772 7.39297   2
   6  -6   5 10.8286 3.28991   1
   6  -6   5 2.75280 4.47946   2
   7  -6   5 58.0155 6.02224   1
   7  -6   5 63.6176 7.44933   2
  -9  -5   5 4.92254 5.74508   2
  -8  -5   5 0.51830 5.08425   1
  -8  -5   5 2.93616 3.29011   2
  -7  -5   5 117.472 7.52578   1
  -7  -5   5 94.8674 7.90830   2
  -6  -5   5 76.4125 5.27093   2
  -6  -5   5 84.1803 6.01412   1
  -5  -5   5 106.985 5.01629   1
  -5  -5   5 102.752 4.91660   2
  -4  -5   5 274.300 10.3120   1
  -4  -5   5 246.870 9.13613   2
  -3  -5   5 46.3464 2.99589   1
  -3  -5   5 42.2952 4.23941   2
   2  -5   3 648.186 22.5690  -2
  -2  -5   5 648.186 22.5690   1
   1  -5   4 217.494 9.63627  -2
  -1  -5   5 217.494 9.63627   1
   0  -5   5 21.4772 2.47545  -2
   0  -5   5 21.4772 2.47545   1
  -1  -5   6 373.857 16.0403  -2
   1  -5   5 373.857 16.0403   1
  -2  -5   7 106.072 6.22964  -2
   2  -5   5 106.072 6.22964   1
   3  -5   5 2.70152 3.56753   1
   3  -5   5 0.16746 2.01761   2
  -3  -5   8 45.3381 7.19418  -2
   3  -5   5 45.3381 7.19418   1
   4  -5   5 6.17449 2.71255   1
   4  -5   5 6.25244 1.98775   2
   5  -5   5 195.140 7.75427   2
   5  -5   5 222.214 10.4801   1
   6  -5   5 7.72683 3.11003   1
   6  -5   5 3.65173 3.36727   2
   7  -5   5 1.90891 3.88809   1
   7  -5   5 2.26808 3.55632   2
   8  -5   5 0.34335 3.76848   2
  -9  -4   5 42.3666 6.97570   1
  -9  -4   5 44.0336 4.31253   2
  -8  -4   5 2.71474 3.20108   2
  -8  -4   5 -4.5810 4.90066   1
  -7  -4   5 27.2499 3.89908   1
  -7  -4   5 17.2700 3.32678   2
  -6  -4   5 0.54988 2.81897   2
  -6  -4   5 2.61682 3.20092   1
  -5  -4   5 292.414 10.7449   2
  -5  -4   5 332.256 15.6763   1
  -4  -4   5 300.430 11.0753   1
  -4  -4   5 270.974 11.7710   2
  -3  -4   5 59.6440 3.71313   2
  -3  -4   5 61.7051 3.55570   1
   2  -4   3 1675.86 68.2302  -2
  -2  -4   5 1675.86 68.2302   1
   1  -4   4 272.864 9.76275  -2
  -1  -4   5 272.864 9.76275   1
   0  -4   5 46.3389 3.20587  -2
   0  -4   5 46.3389 3.20587   1
  -1  -4   6 425.555 17.8823  -2
   1  -4   5 425.555 17.8823   1
  -2  -4   7 814.877 33.5819  -2
   2  -4   5 814.877 33.5819   1
   2  -4   5 85.4578 6.29064   2
   3  -4   5 220.073 10.0074   1
   3  -4   5 211.318 9.83186   2
  -3  -4   8 268.655 17.9560  -2
   3  -4   5 268.655 17.9560   1
   4  -4   5 22.7580 2.24426   2
   4  -4   5 24.3908 3.09894   1
  -4  -4   9 120.697 10.8493  -2
   4  -4   5 120.697 10.8493   1
   5  -4   5 58.1022 4.21058   1
   5  -4   5 39.8852 3.98938   2
   6  -4   5 7.55132 3.37281   2
   6  -4   5 8.88852 3.10517   1
   7  -4   5 184.776 14.6280   1
   7  -4   5 150.165 8.49420   2
   8  -4   5 0.71919 3.56383   2
  -9  -3   5 19.2766 3.51550   2
  -8  -3   5 43.4064 6.59391   1
  -8  -3   5 38.4527 3.97589   2
  -7  -3   5 32.5183 3.71527   2
  -7  -3   5 40.5910 6.12626   1
  -6  -3   5 15.2900 2.22319   1
  -6  -3   5 19.2417 2.93522   2
  -5  -3   5 174.389 6.98075   2
  -5  -3   5 203.323 7.85970   1
  -4  -3   5 126.104 5.30732   2
  -4  -3   5 146.687 6.08788   1
  -3  -3   5 121.972 5.23940   1
  -3  -3   5 117.037 5.68886   2
  -2  -3   5 38.0178 4.13219   2
  -2  -3   5 37.4333 2.77904   1
   1  -3   4 187.147 6.87660  -2
  -1  -3   5 187.147 6.87660   1
   0  -3   5 1640.22 66.3147  -2
   0  -3   5 1640.22 66.3147   1
  -1  -3   6 799.934 27.3181  -2
   1  -3   5 799.934 27.3181   1
  -2  -3   7 65.6200 4.11046  -2
   2  -3   5 65.6200 4.11046   1
   2  -3   5 14.6516 3.23259   1
   2  -3   5 12.3742 1.95452   2
   3  -3   5 273.554 9.93831   2
   3  -3   5 302.534 13.2398   1
   4  -3   5 162.176 6.62609   2
   4  -3   5 184.711 8.73760   1
   5  -3   5 126.327 7.18134   2
   5  -3   5 149.052 6.22071   1
   6  -3   5 1.95852 3.23320   2
   6  -3   5 7.93902 2.35876   1
   7  -3   5 45.9617 4.54151   2
   7  -3   5 51.2332 4.97197   1
   8  -3   5 -2.5437 3.64249   2
   8  -3   5 -2.0960 4.92650   1
  -9  -2   5 36.9920 6.83581   1
  -9  -2   5 23.7750 3.61479   2
  -8  -2   5 9.29765 3.04651   2
  -8  -2   5 10.3526 5.30979   1
  -7  -2   5 52.3924 4.09761   2
  -7  -2   5 52.2901 3.95490   1
  -6  -2   5 38.5058 2.74053   1
  -6  -2   5 34.6549 3.28960   2
  -5  -2   5 0.07275 1.77785   1
  -5  -2   5 0.25917 1.83610   2
  -4  -2   5 30.2031 2.28781   2
  -4  -2   5 32.1253 2.31182   1
  -3  -2   5 249.790 10.8950   2
  -3  -2   5 255.467 9.28073   1
  -2  -2   5 1297.62 52.9522   1
  -2  -2   5 1223.23 75.5210   2
   1  -2   4 44.6709 2.56858  -2
  -1  -2   5 44.6709 2.56858   1
   0  -2   5 588.250 20.1142  -2
   0  -2   5 588.250 20.1142   1
  -1  -2   6 894.304 30.4730  -2
   1  -2   5 894.304 30.4730   1
   2  -2   5 43.2853 3.10473   2
   2  -2   5 45.6918 5.42428   1
  -2  -2   7 258.196 11.1085  -2
   2  -2   5 258.196 11.1085   1
   3  -2   5 3.21184 1.47357   2
  -3  -2   8 110.694 5.98907  -2
   3  -2   5 110.694 5.98907   1
   3  -2   5 5.09045 4.13855   1
   4  -2   5 80.5723 3.99177   1
   4  -2   5 56.8229 3.28572   2
   5  -2   5 390.903 14.1142   1
   5  -2   5 317.697 14.2785   2
   6  -2   5 68.2325 5.14540   2
   6  -2   5 72.9301 5.83653   1
   7  -2   5 21.1710 3.80769   2
   7  -2   5 29.2885 4.31561   1
   8  -2   5 -4.8608 3.85226   1
   8  -2   5 -6.2162 3.44840   2
   9  -2   5 29.7513 6.46100   1
  -9  -1   5 90.0893 9.97526   2
  -9  -1   5 98.3312 10.2955   1
  -8  -1   5 16.5327 3.13025   2
  -8  -1   5 17.7117 5.50182   1
  -7  -1   5 7.30938 2.78513   2
  -7  -1   5 7.19452 2.59619   1
  -6  -1   5 167.738 6.66421   2
  -6  -1   5 166.852 7.97905   1
  -5  -1   5 60.1917 3.43296   2
  -5  -1   5 67.0252 3.67357   1
  -4  -1   5 22.4237 1.90722   1
  -4  -1   5 23.6920 1.99644   2
  -3  -1   5 197.984 7.32276   1
  -3  -1   5 160.682 7.46758   2
  -2  -1   5 281.697 18.8587   2
  -2  -1   5 272.926 11.8175   1
   2  -1   3 363.513 22.6812  -2
  -2  -1   5 363.513 22.6812   1
  -1  -1   5 3.12562 1.10579   1
   1  -1   4 57.9674 5.56556  -2
  -1  -1   5 57.9674 5.56556   1
  -1  -1   5 0.61893 2.42168   2
   0  -1   5 2174.62 73.4648  -2
   0  -1   5 2174.62 73.4648   1
  -1  -1   6 623.023 25.5032  -2
   1  -1   5 623.023 25.5032   1
   1  -1   5 361.633 23.3894   1
   1  -1   5 354.968 14.8822   2
  -2  -1   7 1347.99 54.7190  -2
   2  -1   5 1347.99 54.7190   1
   2  -1   5 862.151 35.2013   2
   2  -1   5 1039.23 64.8062   1
   3  -1   5 702.734 24.3212   2
  -3  -1   8 1209.15 49.2258  -2
   3  -1   5 1209.15 49.2258   1
   3  -1   5 935.662 58.8640   1
   4  -1   5 3.82766 1.74063   1
   4  -1   5 2.58220 2.56332   2
   5  -1   5 285.739 13.0107   2
   5  -1   5 323.423 15.7477   1
   6  -1   5 44.5137 4.25949   2
   6  -1   5 49.6244 4.86877   1
   7  -1   5 119.727 7.17507   2
   7  -1   5 134.880 8.43518   1
   8  -1   5 1.37292 3.93454   1
   8  -1   5 -0.5069 3.61388   2
   9  -1   5 7.93202 5.53752   1
  -9   0   5 57.9451 7.67978   2
  -9   0   5 50.9604 7.43987   1
  -8   0   5 11.5116 2.98247   1
  -8   0   5 15.9533 5.44017   2
  -7   0   5 48.8189 3.84674   2
  -7   0   5 51.4471 3.91952   1
  -6   0   5 29.1424 2.33621   2
  -6   0   5 29.3950 3.01904   1
  -5   0   5 0.79921 1.67734   2
  -5   0   5 -0.1210 1.52751   1
  -4   0   5 391.856 13.7426   2
  -4   0   5 420.594 14.7058   1
  -3   0   5 143.480 6.50320   2
  -3   0   5 158.750 5.94753   1
  -2   0   5 -2.6413 2.42048   2
  -2   0   5 1.26486 0.88478   1
   2   0   3 159.219 11.5879  -2
  -2   0   5 159.219 11.5879   1
  -1   0   5 26.3850 1.97978   2
   1   0   4 19.7075 4.26477  -2
  -1   0   5 19.7075 4.26477   1
  -1   0   5 24.5211 1.85428   1
   0   0   5 4433.66 149.487  -2
   0   0   5 4433.66 149.487   1
  -1   0   6 520.575 32.9003  -2
   1   0   5 520.575 32.9003   1
   1   0   5 382.133 15.9368   1
   1   0   5 320.969 13.5087   2
   2   0   5 24.5202 2.30481   2
  -2   0   7 268.194 17.9049  -2
   2   0   5 268.194 17.9049   1
   2   0   5 29.1488 2.34568   1
   3   0   5 114.428 4.74678   2
  -3   0   8 652.674 41.4470  -2
   3   0   5 652.674 41.4470   1
   3   0   5 142.667 7.00131   1
   4   0   5 270.519 12.2059   2
   4   0   5 315.146 15.0791   1
   5   0   5 64.8751 5.45736   1
   5   0   5 50.9629 4.27398   2
   6   0   5 5.36108 3.69105   1
   6   0   5 3.92155 3.25440   2
   7   0   5 174.636 9.22650   2
   7   0   5 215.346 11.6249   1
   8   0   5 5.56887 3.55391   2
   8   0   5 4.35884 4.20969   1
  -9   1   5 4.19211 5.75042   1
  -9   1   5 -1.1999 5.16477   2
  -8   1   5 3.69205 4.78172   2
  -8   1   5 0.69017 2.78421   1
  -7   1   5 177.370 8.67650   1
  -7   1   5 181.308 13.7793   2
  -6   1   5 118.988 6.39238   1
  -6   1   5 115.118 4.96827   2
  -5   1   5 3.99162 1.59210   2
  -5   1   5 2.90281 2.33904   1
  -4   1   5 32.2627 2.87083   1
  -4   1   5 32.6769 2.20699   2
  -3   1   5 10.7138 1.30772   2
   3   1   2 48.2216 7.16245  -2
  -3   1   5 48.2216 7.16245   1
  -3   1   5 8.64928 2.61526   1
   2   1   3 2206.10 136.874  -2
  -2   1   5 2206.10 136.874   1
  -2   1   5 435.232 17.8822   1
  -2   1   5 395.275 25.1320   2
  -1   1   5 75.2002 3.46752   2
  -1   1   5 92.3941 4.38898   1
   1   1   4 65.8603 6.29404  -2
  -1   1   5 65.8603 6.29404   1
   0   1   5 425.449 14.6778  -2
   0   1   5 425.449 14.6778   1
   1   1   5 120.370 8.94870   1
   1   1   5 117.301 5.43325   2
  -1   1   6 619.146 39.2323  -2
   1   1   5 619.146 39.2323   1
   2   1   5 1879.88 75.8485   1
  -2   1   7 2763.99 171.115  -2
   2   1   5 2763.99 171.115   1
   2   1   5 1763.56 71.2677   2
  -3   1   8 508.536 32.9335  -2
   3   1   5 508.536 32.9335   1
   3   1   5 233.355 16.2130   1
   3   1   5 205.417 12.4975   2
   4   1   5 299.609 14.3629   1
   4   1   5 255.960 11.7430   2
   5   1   5 57.0419 4.45408   2
   5   1   5 71.0313 5.70526   1
   6   1   5 44.4515 4.18631   2
   6   1   5 57.5594 5.21160   1
   7   1   5 15.1328 3.59727   2
   7   1   5 15.9586 4.36807   1
   8   1   5 -0.3270 3.55934   2
   8   1   5 -2.7955 4.17493   1
  -9   2   5 48.2318 4.33418   1
  -9   2   5 49.8760 7.04092   2
  -8   2   5 6.44827 3.07115   1
  -8   2   5 10.6718 5.04529   2
  -7   2   5 15.5228 3.03717   1
  -7   2   5 18.8972 3.19933   2
  -6   2   5 40.7775 3.69765   2
  -6   2   5 38.0236 3.57443   1
  -5   2   5 77.4847 7.16110   2
  -5   2   5 79.0982 5.06390   1
  -4   2   5 283.558 10.1002   2
  -4   2   5 303.291 13.2861   1
   3   2   2 66.9016 8.48886  -2
  -3   2   5 66.9016 8.48886   1
  -3   2   5 2.16683 2.52293   1
  -3   2   5 0.36554 2.92549   2
  -2   2   5 613.178 24.9663   1
  -2   2   5 582.583 36.5217   2
   2   2   3 930.623 58.5694  -2
  -2   2   5 930.623 58.5694   1
  -1   2   5 130.535 5.85217   1
  -1   2   5 113.474 5.04437   2
   1   2   4 166.066 12.1291  -2
  -1   2   5 166.066 12.1291   1
   0   2   5 672.893 23.0599  -2
   0   2   5 672.893 23.0599   1
   1   2   5 15.3349 2.45190   2
  -1   2   6 445.564 28.9033  -2
   1   2   5 445.564 28.9033   1
  -2   2   7 2518.30 156.079  -2
   2   2   5 2518.30 156.079   1
   2   2   5 850.799 34.6931   2
   2   2   5 921.982 57.4564   1
   3   2   5 184.821 13.3900   1
   3   2   5 160.805 10.4159   2
  -3   2   8 195.516 14.6183  -2
   3   2   5 195.516 14.6183   1
   4   2   5 141.264 7.83955   1
   4   2   5 111.635 6.41818   2
   5   2   5 63.1297 4.63571   2
   5   2   5 90.8641 6.65089   1
   6   2   5 199.200 9.83700   2
   6   2   5 250.049 12.9158   1
   7   2   5 20.2704 4.60889   1
   7   2   5 17.9577 3.68778   2
   8   2   5 0.41911 3.67048   2
   8   2   5 -3.6894 4.48716   1
  -9   3   5 23.5325 3.54241   1
  -8   3   5 -0.1549 2.87685   1
  -7   3   5 71.8047 4.96644   1
  -7   3   5 64.6793 6.81468   2
  -6   3   5 91.4953 5.86384   1
  -6   3   5 97.3113 6.21408   2
  -5   3   5 151.413 8.14966   2
  -5   3   5 154.557 7.74267   1
  -4   3   5 297.605 13.1692   1
  -4   3   5 272.458 12.9173   2
  -3   3   5 130.503 5.97400   1
  -3   3   5 120.835 9.49152   2
   3   3   2 217.279 16.2376  -2
  -3   3   5 217.279 16.2376   1
  -2   3   5 5.22333 2.36254   1
   2   3   3 207.754 10.2337  -2
  -2   3   5 207.754 10.2337   1
  -2   3   5 2.89918 3.00636   2
  -1   3   5 15.4429 3.00210   2
  -1   3   5 24.2692 2.91483   1
   1   3   4 220.705 10.7981  -2
  -1   3   5 220.705 10.7981   1
   0   3   5 2233.89 75.4862  -2
   0   3   5 2233.89 75.4862   1
  -1   3   6 355.524 14.9834  -2
   1   3   5 355.524 14.9834   1
   1   3   5 329.032 21.3116   1
   1   3   5 318.595 17.9593   2
   2   3   5 60.8929 6.22500   1
   2   3   5 57.7758 3.61702   2
  -2   3   7 465.995 30.3401  -2
   2   3   5 465.995 30.3401   1
   3   3   5 45.9962 4.95209   2
   3   3   5 47.7278 5.84109   1
  -3   3   8 164.513 13.7415  -2
   3   3   5 164.513 13.7415   1
   4   3   5 405.809 18.9729   1
   4   3   5 343.422 15.2729   2
   5   3   5 39.3289 4.09461   2
   5   3   5 47.1295 4.76647   1
   6   3   5 22.3649 3.83146   2
   6   3   5 28.8816 4.58000   1
   7   3   5 25.0227 4.62991   1
   7   3   5 19.4155 3.78230   2
   8   3   5 17.5914 7.64701   1
  -9   4   5 17.9512 3.69317   1
  -9   4   5 18.9805 6.34745   2
  -8   4   5 7.24744 5.37945   2
  -8   4   5 2.54545 3.30092   1
  -7   4   5 90.5023 6.37841   2
  -7   4   5 87.7812 5.79036   1
  -6   4   5 87.3450 5.66645   1
  -6   4   5 80.4702 5.87557   2
  -5   4   5 71.8675 4.97439   1
  -5   4   5 64.8448 4.92192   2
  -4   4   5 221.520 10.3497   1
  -4   4   5 201.372 10.0406   2
  -3   4   5 168.346 7.53506   1
   3   4   2 175.436 14.8330  -2
  -3   4   5 175.436 14.8330   1
  -3   4   5 169.750 12.5707   2
  -2   4   5 457.868 29.3918   2
  -2   4   5 470.215 26.1017   1
   2   4   3 956.935 42.3062  -2
  -2   4   5 956.935 42.3062   1
   1   4   4 237.693 9.00356  -2
  -1   4   5 237.693 9.00356   1
   0   4   5 916.375 31.2279  -2
   0   4   5 916.375 31.2279   1
  -1   4   6 211.253 8.02628  -2
   1   4   5 211.253 8.02628   1
   2   4   5 476.207 26.6538   2
   2   4   5 509.158 32.7823   1
  -2   4   7 917.520 58.3148  -2
   2   4   5 917.520 58.3148   1
   3   4   5 68.2311 6.61328   2
  -3   4   8 452.993 30.1853  -2
   3   4   5 452.993 30.1853   1
   3   4   5 74.2541 7.85149   1
   4   4   5 37.5849 4.13725   1
   4   4   5 30.3705 3.74147   2
   5   4   5 11.0523 3.66720   1
   5   4   5 10.0942 3.35104   2
   6   4   5 38.0648 4.30201   2
   6   4   5 44.9341 5.14218   1
   7   4   5 21.2078 4.68602   1
   7   4   5 13.7944 3.73120   2
  -9   5   5 51.6710 7.54992   2
  -9   5   5 53.5531 4.78489   1
  -8   5   5 -2.0570 5.66216   2
  -8   5   5 3.62451 3.45902   1
  -7   5   5 39.1273 4.36013   2
  -7   5   5 45.0283 4.30867   1
  -6   5   5 -0.8352 3.11304   1
  -6   5   5 -0.9251 3.15203   2
  -5   5   5 221.520 11.1113   2
  -5   5   5 226.546 10.5699   1
  -4   5   5 406.914 18.8023   2
  -4   5   5 441.139 18.9269   1
   3   5   2 7.72075 9.64727  -2
  -3   5   5 7.72075 9.64727   1
  -3   5   5 16.1313 3.87720   1
  -3   5   5 16.0131 4.56883   2
  -2   5   5 349.779 19.9745   1
   2   5   3 421.954 19.4743  -2
  -2   5   5 421.954 19.4743   1
  -2   5   5 326.096 21.7842   2
   1   5   4 138.331 6.12195  -2
  -1   5   5 138.331 6.12195   1
   0   5   5 44.6009 2.84176  -2
   0   5   5 44.6009 2.84176   1
  -1   5   6 87.1247 6.68724  -2
   1   5   5 87.1247 6.68724   1
   2   5   5 616.226 39.3558   1
  -2   5   7 890.747 56.8186  -2
   2   5   5 890.747 56.8186   1
   2   5   5 631.624 34.9791   2
   3   5   5 93.5539 9.58809   1
   3   5   5 94.3396 7.95613   2
  -3   5   8 121.302 12.4984  -2
   3   5   5 121.302 12.4984   1
   4   5   5 61.5567 5.19014   1
   4   5   5 60.8967 4.96689   2
   5   5   5 0.26202 3.44193   2
   5   5   5 3.48503 3.63534   1
   6   5   5 4.66532 3.62236   2
   6   5   5 7.18349 4.18768   1
   7   5   5 1.49015 4.47182   1
   7   5   5 3.73990 3.80953   2
  -8   6   5 12.6923 3.47225   1
  -8   6   5 10.4111 3.89925   2
  -7   6   5 34.2128 4.30778   2
  -7   6   5 39.5304 4.04825   1
  -6   6   5 3.86705 3.42351   2
  -6   6   5 7.22935 3.29605   1
  -5   6   5 117.291 6.63367   1
  -5   6   5 110.709 6.86954   2
  -4   6   5 75.0823 5.50440   2
   4   6   1 195.236 16.8655  -2
  -4   6   5 195.236 16.8655   1
  -4   6   5 72.6275 7.08055   1
  -3   6   5 287.188 17.0535   1
  -3   6   5 250.164 17.7979   2
   3   6   2 306.244 22.7765  -2
  -3   6   5 306.244 22.7765   1
  -2   6   5 310.773 18.1519   1
  -2   6   5 264.296 18.2193   2
   2   6   3 445.983 20.6639  -2
  -2   6   5 445.983 20.6639   1
   1   6   4 240.750 9.52804  -2
  -1   6   5 240.750 9.52804   1
   0   6   5 339.847 12.2727  -2
   0   6   5 339.847 12.2727   1
  -1   6   6 125.211 8.31042  -2
   1   6   5 125.211 8.31042   1
  -2   6   7 126.136 12.6806  -2
   2   6   5 126.136 12.6806   1
   2   6   5 94.1384 7.84197   2
   2   6   5 96.4743 9.86356   1
  -3   6   8 96.3616 12.4020  -2
   3   6   5 96.3616 12.4020   1
   3   6   5 0.44169 4.20025   2
   3   6   5 0.44548 5.07677   1
   4   6   5 110.239 7.18509   2
   4   6   5 120.061 7.77706   1
   5   6   5 30.9986 4.37989   2
   5   6   5 33.3010 4.51755   1
   6   6   5 -2.0374 3.66230   2
   6   6   5 1.44495 4.16704   1
  -8   7   5 27.6954 4.45492   2
  -7   7   5 31.7293 4.00939   1
  -7   7   5 26.4658 4.25425   2
  -6   7   5 10.1069 3.36260   1
  -6   7   5 9.34804 3.68787   2
  -5   7   5 39.9183 4.35301   2
  -5   7   5 43.3279 4.20705   1
   4   7   1 47.8634 12.4619  -2
  -4   7   5 47.8634 12.4619   1
  -4   7   5 20.6546 3.85589   2
  -4   7   5 19.8878 4.73366   1
  -3   7   5 225.466 16.3786   2
  -3   7   5 250.646 15.4019   1
   3   7   2 471.185 32.4346  -2
  -3   7   5 471.185 32.4346   1
  -2   7   5 284.748 19.7880   2
   2   7   3 649.104 43.0476  -2
  -2   7   5 649.104 43.0476   1
  -2   7   5 320.649 18.8030   1
   1   7   4 16.7219 4.10797  -2
  -1   7   5 16.7219 4.10797   1
   0   7   5 291.469 14.3810  -2
   0   7   5 291.469 14.3810   1
  -1   7   6 95.4416 7.97354  -2
   1   7   5 95.4416 7.97354   1
   2   7   5 12.8564 5.61521   1
  -2   7   7 7.98960 9.90075  -2
   2   7   5 7.98960 9.90075   1
   2   7   5 7.13195 4.42994   2
   3   7   5 32.0081 5.49542   2
   3   7   5 26.7977 6.47303   1
  -3   7   8 29.1889 10.1344  -2
   3   7   5 29.1889 10.1344   1
   4   7   5 108.019 7.66309   1
   4   7   5 104.892 9.24087   2
   5   7   5 5.55403 3.70502   2
   5   7   5 5.28580 4.08314   1
   6   7   5 0.17865 6.02795   2
  -7   8   5 -4.0768 4.47047   1
  -7   8   5 -3.5719 3.72262   2
  -6   8   5 4.36611 4.31335   1
  -6   8   5 4.21229 3.86175   2
  -5   8   5 81.9329 6.40787   2
  -5   8   5 83.3810 5.94671   1
  -4   8   5 8.57638 3.62525   2
  -4   8   5 11.7698 4.68691   1
   4   8   1 11.7156 11.3589  -2
  -4   8   5 11.7156 11.3589   1
  -3   8   5 27.5242 6.25020   2
   3   8   2 101.493 13.7517  -2
  -3   8   5 101.493 13.7517   1
  -3   8   5 30.7852 5.14446   1
   2   8   3 182.946 10.4617  -2
  -2   8   5 182.946 10.4617   1
   1   8   4 167.024 10.0981  -2
  -1   8   5 167.024 10.0981   1
   0   8   5 454.411 21.1976  -2
   0   8   5 454.411 21.1976   1
  -1   8   6 94.0340 7.85487  -2
   1   8   5 94.0340 7.85487   1
  -2   8   7 50.9006 7.46724  -2
   2   8   5 50.9006 7.46724   1
   3   8   5 6.92053 4.95238   2
  -3   8   8 27.2846 10.5219  -2
   3   8   5 27.2846 10.5219   1
   3   8   5 9.43245 6.19112   1
   4   8   5 11.5961 6.67681   1
  -4   8   9 10.0258 13.6310  -2
   4   8   5 10.0258 13.6310   1
   4   8   5 13.8273 5.53705   2
   5   8   5 24.6749 4.63812   2
   5   8   5 22.2063 6.26099   1
  -6   9   5 31.1265 5.56172   1
  -6   9   5 32.5791 6.91713   2
  -5   9   5 20.0297 4.32654   2
  -5   9   5 19.7881 4.92807   1
  -4   9   5 -0.6860 4.67280   1
  -4   9   5 -0.1671 3.83385   2
  -3   9   5 63.6043 8.11752   2
  -3   9   5 84.0700 8.20712   1
   2   9   3 69.4488 9.28546  -2
  -2   9   5 69.4488 9.28546   1
   1   9   4 17.4920 11.4127  -2
  -1   9   5 17.4920 11.4127   1
   0   9   5 109.612 7.83078  -2
   0   9   5 109.612 7.83078   1
  -1   9   6 22.2266 6.84404  -2
   1   9   5 22.2266 6.84404   1
  -2   9   7 63.9429 8.16548  -2
   2   9   5 63.9429 8.16548   1
  -3   9   8 34.7483 13.1370  -2
   3   9   5 34.7483 13.1370   1
   3   9   5 30.8283 7.17242   1
   4   9   5 5.46755 7.70537   2
   4   9   5 0.70693 5.70033   1
  -4  10   5 14.8100 5.81462   2
  -4  10   5 17.9434 5.18865   1
  -3  10   5 35.6634 6.92692   2
  -3  10   5 42.4774 6.44121   1
   0  10   5 5.73053 5.05120  -2
   0  10   5 5.73053 5.05120   1
  -1  10   6 42.0343 9.70448  -2
   1  10   5 42.0343 9.70448   1
  -2  10   7 71.3168 12.3339  -2
   2  10   5 71.3168 12.3339   1
   0 -12   6 2.06032 3.45988  -2
   0 -12   6 2.06032 3.45988   1
  -1 -12   7 27.3943 4.85934  -2
   1 -12   6 27.3943 4.85934   1
   2 -11   4 69.0585 9.37287  -2
  -2 -11   6 69.0585 9.37287   1
   1 -11   5 77.8186 6.07103  -2
  -1 -11   6 77.8186 6.07103   1
   0 -11   6 6.33286 3.42054  -2
   0 -11   6 6.33286 3.42054   1
  -1 -11   7 46.9586 5.26200  -2
   1 -11   6 46.9586 5.26200   1
  -2 -11   8 1.59836 5.44429  -2
   2 -11   6 1.59836 5.44429   1
  -3 -11   9 102.849 7.62713  -2
   3 -11   6 102.849 7.62713   1
   4 -11   6 4.84429 4.51429   1
  -5 -10   6 31.6888 5.29244   2
  -4 -10   6 29.3509 5.86754   1
  -4 -10   6 29.0820 4.91933   2
   2 -10   4 58.2440 5.98600  -2
  -2 -10   6 58.2440 5.98600   1
   1 -10   5 11.1459 4.41193  -2
  -1 -10   6 11.1459 4.41193   1
   0 -10   6 94.8667 6.09104  -2
   0 -10   6 94.8667 6.09104   1
  -1 -10   7 103.723 6.65550  -2
   1 -10   6 103.723 6.65550   1
  -2 -10   8 18.0173 5.26593  -2
   2 -10   6 18.0173 5.26593   1
  -3 -10   9 25.5063 5.86417  -2
   3 -10   6 25.5063 5.86417   1
   4 -10   6 2.18978 3.16599   1
   4 -10   6 4.98451 3.34831   2
   5 -10   6 25.4371 6.28286   2
   5 -10   6 23.2884 5.37064   1
  -6  -9   6 29.4632 6.46880   1
  -6  -9   6 24.9950 4.69373   2
  -5  -9   6 24.5815 4.55407   2
  -5  -9   6 31.6582 6.45362   1
  -4  -9   6 8.46399 4.20535   2
   3  -9   3 4.89540 7.30468  -2
  -3  -9   6 4.89540 7.30468   1
  -3  -9   6 2.36427 4.09042   2
   2  -9   4 49.0272 7.93726  -2
  -2  -9   6 49.0272 7.93726   1
   1  -9   5 86.4575 5.99720  -2
  -1  -9   6 86.4575 5.99720   1
   0  -9   6 261.555 11.9406  -2
   0  -9   6 261.555 11.9406   1
  -1  -9   7 152.343 8.19396  -2
   1  -9   6 152.343 8.19396   1
  -2  -9   8 250.594 11.9649  -2
   2  -9   6 250.594 11.9649   1
  -3  -9   9 138.273 8.55904  -2
   3  -9   6 138.273 8.55904   1
   4  -9   6 7.75923 3.62640   2
   4  -9   6 5.54999 3.11950   1
   5  -9   6 46.5411 4.44269   1
   5  -9   6 43.9681 4.57354   2
   6  -9   6 2.40662 4.65990   1
  -7  -8   6 -0.5063 5.26618   1
  -7  -8   6 -1.4800 4.25701   2
  -6  -8   6 8.70394 4.23021   2
  -6  -8   6 7.46621 5.42449   1
  -5  -8   6 5.11399 3.63599   2
  -5  -8   6 4.98092 5.23504   1
  -4  -8   6 123.314 6.48954   2
  -4  -8   6 145.086 12.1030   1
  -3  -8   6 16.7985 4.12184   2
   3  -8   3 44.1456 7.93801  -2
  -3  -8   6 44.1456 7.93801   1
   2  -8   4 27.1783 6.51100  -2
  -2  -8   6 27.1783 6.51100   1
   1  -8   5 171.399 8.70913  -2
  -1  -8   6 171.399 8.70913   1
   0  -8   6 409.028 17.6091  -2
   0  -8   6 409.028 17.6091   1
  -1  -8   7 57.4746 5.20170  -2
   1  -8   6 57.4746 5.20170   1
  -2  -8   8 519.217 22.2534  -2
   2  -8   6 519.217 22.2534   1
  -3  -8   9 347.919 15.7446  -2
   3  -8   6 347.919 15.7446   1
   4  -8   6 5.76640 3.02492   1
   4  -8   6 6.29664 3.50748   2
   5  -8   6 32.1400 3.96568   1
   5  -8   6 32.6554 4.08300   2
   6  -8   6 5.80542 4.51121   1
   6  -8   6 -3.6938 4.36330   2
   7  -8   6 19.2301 5.08180   1
  -7  -7   6 -1.2396 4.20371   2
  -7  -7   6 3.37117 5.26894   1
  -6  -7   6 5.13775 4.02872   2
  -6  -7   6 0.77117 5.00352   1
  -5  -7   6 2.01704 4.87694   1
  -5  -7   6 -1.1394 3.63419   2
  -4  -7   6 137.755 6.89168   2
  -4  -7   6 140.967 7.95195   1
   3  -7   3 195.569 14.1527  -2
  -3  -7   6 195.569 14.1527   1
  -3  -7   6 5.32391 3.22471   2
   2  -7   4 239.330 15.1483  -2
  -2  -7   6 239.330 15.1483   1
   1  -7   5 86.2580 5.56489  -2
  -1  -7   6 86.2580 5.56489   1
   0  -7   6 306.066 13.5396  -2
   0  -7   6 306.066 13.5396   1
  -1  -7   7 242.195 11.1829  -2
   1  -7   6 242.195 11.1829   1
  -2  -7   8 668.478 27.9859  -2
   2  -7   6 668.478 27.9859   1
  -3  -7   9 375.906 16.7244  -2
   3  -7   6 375.906 16.7244   1
   4  -7   6 62.4275 4.52559   1
   4  -7   6 61.7868 4.86734   2
   5  -7   6 106.093 6.51396   1
   5  -7   6 94.2199 6.23322   2
   6  -7   6 0.73034 3.23097   1
   6  -7   6 -3.2230 4.65480   2
   7  -7   6 18.6385 6.11308   2
   7  -7   6 12.5734 4.66457   1
  -8  -6   6 -3.5176 4.78616   1
  -8  -6   6 1.75616 4.18860   2
  -7  -6   6 7.01933 3.51191   1
  -7  -6   6 4.78123 3.86358   2
  -6  -6   6 87.6443 6.29496   1
  -6  -6   6 73.1503 6.43641   2
  -5  -6   6 6.19100 2.32167   1
  -5  -6   6 6.66427 3.44839   2
  -4  -6   6 36.2078 2.92456   1
  -4  -6   6 33.9320 3.09009   2
   3  -6   3 81.8992 9.59453  -2
  -3  -6   6 81.8992 9.59453   1
  -3  -6   6 78.5741 5.18225   1
  -3  -6   6 70.9173 5.97371   2
   2  -6   4 1060.68 58.1075  -2
  -2  -6   6 1060.68 58.1075   1
   1  -6   5 10.3071 3.45098  -2
  -1  -6   6 10.3071 3.45098   1
   0  -6   6 45.9810 3.57077  -2
   0  -6   6 45.9810 3.57077   1
  -1  -6   7 115.613 6.68609  -2
   1  -6   6 115.613 6.68609   1
  -2  -6   8 628.949 26.3247  -2
   2  -6   6 628.949 26.3247   1
  -3  -6   9 10.2085 5.27131  -2
   3  -6   6 10.2085 5.27131   1
   4  -6   6 186.543 9.13117   1
   4  -6   6 178.142 9.05455   2
   5  -6   6 243.586 11.4456   2
   5  -6   6 266.326 12.1133   1
   6  -6   6 2.03349 5.00483   2
   6  -6   6 5.63507 3.21850   1
   7  -6   6 34.6973 5.07856   1
   7  -6   6 36.4467 6.67072   2
   8  -6   6 16.6319 5.71539   2
  -9  -5   6 19.6934 4.65841   2
  -9  -5   6 23.9671 6.27621   1
  -8  -5   6 48.4401 4.40818   2
  -8  -5   6 45.3732 6.49998   1
  -7  -5   6 76.7495 5.63862   1
  -7  -5   6 70.1432 5.11905   2
  -6  -5   6 55.4459 6.71366   1
  -6  -5   6 47.9863 5.28333   2
  -5  -5   6 3.27906 2.08170   2
  -5  -5   6 5.09479 2.80956   1
  -4  -5   6 181.289 8.35924   2
  -4  -5   6 181.051 9.03630   1
  -3  -5   6 30.6002 2.44755   1
  -3  -5   6 26.8631 3.75954   2
   2  -5   4 870.103 35.9555  -2
  -2  -5   6 870.103 35.9555   1
   1  -5   5 356.855 12.7727  -2
  -1  -5   6 356.855 12.7727   1
   0  -5   6 1296.13 52.7621  -2
   0  -5   6 1296.13 52.7621   1
  -1  -5   7 69.7834 4.64112  -2
   1  -5   6 69.7834 4.64112   1
  -2  -5   8 1209.30 49.4347  -2
   2  -5   6 1209.30 49.4347   1
  -3  -5   9 105.125 9.29637  -2
   3  -5   6 105.125 9.29637   1
   3  -5   6 80.5902 7.90376   1
   3  -5   6 65.5638 4.36276   2
   4  -5   6 329.787 12.0603   2
   4  -5   6 358.183 15.6186   1
   5  -5   6 35.7545 3.74067   1
   5  -5   6 28.1842 3.51626   2
   6  -5   6 13.7612 3.23250   1
   6  -5   6 8.34453 3.55940   2
   7  -5   6 88.9740 9.89712   1
   7  -5   6 65.7305 5.41842   2
   8  -5   6 20.8986 5.97631   2
  -9  -4   6 3.99550 3.41473   2
  -9  -4   6 2.56077 5.51779   1
  -8  -4   6 37.2935 4.03330   2
  -8  -4   6 39.9215 6.19975   1
  -7  -4   6 37.6053 5.98887   1
  -7  -4   6 31.0224 3.54686   2
  -6  -4   6 11.6821 2.40607   1
  -6  -4   6 14.2673 3.01957   2
  -5  -4   6 75.1981 4.19102   1
  -5  -4   6 65.7102 3.81556   2
  -4  -4   6 510.902 21.3554   2
  -4  -4   6 514.487 18.1559   1
  -3  -4   6 44.4718 2.92255   1
  -3  -4   6 42.1672 3.07829   2
  -2  -4   6 173.275 11.4254   1
   2  -4   4 783.844 43.2373  -2
  -2  -4   6 783.844 43.2373   1
   1  -4   5 403.739 17.0330  -2
  -1  -4   6 403.739 17.0330   1
   0  -4   6 1852.27 74.9537  -2
   0  -4   6 1852.27 74.9537   1
  -1  -4   7 122.441 6.32521  -2
   1  -4   6 122.441 6.32521   1
  -2  -4   8 389.938 13.9895  -2
   2  -4   6 389.938 13.9895   1
   2  -4   6 2.34662 1.80233   2
   3  -4   6 20.4836 2.87069   1
  -3  -4   9 17.8389 5.37709  -2
   3  -4   6 17.8389 5.37709   1
   3  -4   6 25.4658 2.71460   2
   4  -4   6 250.581 9.47604   1
   4  -4   6 225.198 8.60187   2
   5  -4   6 29.3072 3.75331   2
   5  -4   6 35.4026 2.85070   1
   6  -4   6 41.5221 3.89579   1
   6  -4   6 25.4623 3.96852   2
   7  -4   6 54.1144 5.07323   2
   7  -4   6 78.7198 9.17127   1
   8  -4   6 -0.2130 3.74986   2
  -9  -3   6 27.5076 3.72786   2
  -9  -3   6 36.8056 6.72379   1
  -8  -3   6 -3.4201 2.97959   2
  -8  -3   6 3.22605 5.22136   1
  -7  -3   6 45.5636 4.01365   2
  -7  -3   6 47.4629 6.25210   1
  -6  -3   6 296.474 13.1153   2
  -6  -3   6 327.190 11.9673   1
  -5  -3   6 40.8843 2.80997   2
  -5  -3   6 49.8529 3.04598   1
  -4  -3   6 159.821 6.44891   1
  -4  -3   6 152.143 7.23125   2
  -3  -3   6 165.702 8.03011   1
  -3  -3   6 145.315 6.91709   2
  -2  -3   6 1449.41 89.2825   2
  -2  -3   6 1438.17 58.7212   1
   2  -3   4 3384.00 206.875  -2
  -2  -3   6 3384.00 206.875   1
   1  -3   5 691.781 23.7353  -2
  -1  -3   6 691.781 23.7353   1
   0  -3   6 380.045 13.2517  -2
   0  -3   6 380.045 13.2517   1
  -1  -3   7 409.864 14.3402  -2
   1  -3   6 409.864 14.3402   1
  -2  -3   8 1032.83 42.1531  -2
   2  -3   6 1032.83 42.1531   1
   2  -3   6 486.414 20.5817   2
   2  -3   6 539.993 34.3025   1
   3  -3   6 55.4973 3.31333   2
  -3  -3   9 69.3223 5.11779  -2
   3  -3   6 69.3223 5.11779   1
   3  -3   6 52.9222 6.47107   1
  -4  -3  10 434.765 28.4612  -2
   4  -3   6 434.765 28.4612   1
   4  -3   6 227.264 8.69292   2
   4  -3   6 256.839 11.6993   1
   5  -3   6 50.9802 4.46839   2
   5  -3   6 67.8299 3.79486   1
   6  -3   6 53.3752 4.90172   1
   6  -3   6 38.0216 4.36774   2
   7  -3   6 8.93798 3.66635   2
   7  -3   6 12.1759 3.97632   1
   8  -3   6 0.64050 3.90768   2
  -9  -2   6 70.9436 8.37769   1
  -9  -2   6 73.2056 8.39167   2
  -8  -2   6 19.6176 3.28942   2
  -8  -2   6 17.4358 5.39520   1
  -7  -2   6 2.74729 2.58292   1
  -7  -2   6 2.89621 2.80989   2
  -6  -2   6 79.1616 5.11480   1
  -6  -2   6 77.8139 4.15240   2
  -5  -2   6 149.943 6.14270   1
  -5  -2   6 132.498 5.64590   2
  -4  -2   6 464.121 16.2934   1
  -4  -2   6 416.658 14.7409   2
  -3  -2   6 91.0919 4.11927   1
  -3  -2   6 86.6902 4.69659   2
  -2  -2   6 2401.03 97.4127   1
   2  -2   4 2974.22 182.009  -2
  -2  -2   6 2974.22 182.009   1
  -2  -2   6 2287.09 140.544   2
   1  -2   5 828.045 28.3649  -2
  -1  -2   6 828.045 28.3649   1
   0  -2   6 1762.60 59.6125  -2
   0  -2   6 1762.60 59.6125   1
  -1  -2   7 31.1637 2.54772  -2
   1  -2   6 31.1637 2.54772   1
   2  -2   6 85.3008 8.50696   1
  -2  -2   8 1073.32 43.8240  -2
   2  -2   6 1073.32 43.8240   1
   2  -2   6 75.0250 4.69982   2
   3  -2   6 123.750 5.14773   2
   3  -2   6 144.685 12.0813   1
  -3  -2   9 166.021 8.06110  -2
   3  -2   6 166.021 8.06110   1
   4  -2   6 14.9127 2.07001   1
   4  -2   6 8.32078 2.92706   2
   5  -2   6 0.69462 3.07876   2
   5  -2   6 0.93736 3.26306   1
   6  -2   6 94.0881 6.63768   1
   6  -2   6 75.2312 5.52768   2
   7  -2   6 77.1963 6.22688   1
   7  -2   6 64.4760 5.29189   2
   8  -2   6 -5.0853 3.85646   1
   8  -2   6 -4.2610 3.69998   2
  -9  -1   6 27.1674 6.39119   2
  -9  -1   6 29.9791 6.46149   1
  -8  -1   6 16.0459 5.32130   2
  -8  -1   6 15.3274 2.94292   1
  -7  -1   6 229.327 10.5659   2
  -7  -1   6 239.713 10.9909   1
  -6  -1   6 22.1789 2.33710   2
  -6  -1   6 22.3096 3.02011   1
  -5  -1   6 37.8004 2.60580   2
  -5  -1   6 41.3769 2.70878   1
  -4  -1   6 432.184 15.1741   1
  -4  -1   6 391.195 13.8801   2
  -3  -1   6 96.8195 5.06784   1
  -3  -1   6 87.7050 4.62824   2
  -2  -1   6 2.62600 1.11836   1
  -2  -1   6 4.89240 3.45770   2
  -1  -1   6 274.667 11.6951   1
   1  -1   5 591.859 37.3405  -2
  -1  -1   6 591.859 37.3405   1
  -1  -1   6 276.738 18.3204   2
   0  -1   6 5561.36 187.430  -2
   0  -1   6 5561.36 187.430   1
   1  -1   6 228.674 15.7837   1
  -1  -1   7 464.838 19.2511  -2
   1  -1   6 464.838 19.2511   1
   1  -1   6 210.621 12.5395   2
  -2  -1   8 83.7036 4.75530  -2
   2  -1   6 83.7036 4.75530   1
   2  -1   6 3.17548 1.57997   2
   2  -1   6 2.64992 3.45855   1
   3  -1   6 5.60794 1.56536   2
  -3  -1   9 74.3829 8.33176  -2
   3  -1   6 74.3829 8.33176   1
   3  -1   6 9.14458 4.53954   1
   4  -1   6 78.6646 5.29676   2
   4  -1   6 121.390 5.36961   1
   5  -1   6 1.23114 3.22176   1
   5  -1   6 1.68662 2.91420   2
   6  -1   6 4.06295 3.26959   2
   6  -1   6 -1.6623 3.57888   1
   7  -1   6 36.7251 4.76276   1
   7  -1   6 29.0368 4.09415   2
   8  -1   6 7.66403 3.97752   2
   8  -1   6 9.08574 4.40871   1
  -9   0   6 41.0999 6.82913   2
  -9   0   6 40.4397 7.02340   1
  -8   0   6 8.16909 5.08955   2
  -8   0   6 3.17847 2.77590   1
  -7   0   6 162.751 8.15694   1
  -7   0   6 159.015 12.5843   2
  -6   0   6 167.117 6.58974   2
  -6   0   6 166.016 8.13031   1
  -5   0   6 136.364 5.56089   2
  -5   0   6 146.197 7.42389   1
  -4   0   6 31.3671 1.96722   1
  -4   0   6 28.9695 2.09480   2
  -3   0   6 447.372 15.5393   1
  -3   0   6 436.477 18.1648   2
   2   0   4 1069.71 67.0253  -2
  -2   0   6 1069.71 67.0253   1
  -2   0   6 709.875 44.6121   2
  -2   0   6 827.654 33.7737   1
  -1   0   6 101.132 4.96819   1
  -1   0   6 108.296 5.16258   2
   1   0   5 365.881 23.7625  -2
  -1   0   6 365.881 23.7625   1
   0   0   6 2524.32 85.3134  -2
   0   0   6 2524.32 85.3134   1
   1   0   6 5.13714 1.53279   2
  -1   0   7 30.0694 3.17890  -2
   1   0   6 30.0694 3.17890   1
   1   0   6 4.03087 3.00495   1
   2   0   6 484.161 20.2603   2
  -2   0   8 682.786 43.1395  -2
   2   0   6 682.786 43.1395   1
   2   0   6 614.559 25.3836   1
   3   0   6 9.23508 1.58048   2
   3   0   6 12.9822 1.83490   1
  -3   0   9 94.8747 9.68588  -2
   3   0   6 94.8747 9.68588   1
   4   0   6 35.7513 3.68814   2
   4   0   6 40.0115 4.16561   1
   5   0   6 16.6947 3.80161   1
   5   0   6 12.9427 3.31730   2
   6   0   6 54.0634 5.20897   1
   6   0   6 43.5099 4.41863   2
   7   0   6 10.8120 4.38654   1
   7   0   6 9.53212 3.57195   2
   8   0   6 12.2709 4.53053   1
   8   0   6 10.8066 3.91053   2
  -9   1   6 82.4865 5.53738   1
  -9   1   6 89.3333 9.59164   2
  -8   1   6 -0.0007 2.85453   1
  -8   1   6 1.45367 4.77171   2
  -7   1   6 26.8189 3.40952   1
  -7   1   6 28.6273 3.44115   2
  -6   1   6 70.4819 4.65266   1
  -6   1   6 73.3902 5.31697   2
  -5   1   6 648.789 26.6716   2
  -5   1   6 649.331 27.1382   1
  -4   1   6 252.518 11.2696   1
  -4   1   6 235.487 8.51986   2
   3   1   3 70.0610 8.45492  -2
  -3   1   6 70.0610 8.45492   1
  -3   1   6 58.7320 3.15624   2
  -3   1   6 61.7645 5.14929   1
  -2   1   6 116.045 5.36299   1
   2   1   4 199.913 14.5623  -2
  -2   1   6 199.913 14.5623   1
  -2   1   6 113.180 5.19747   2
  -1   1   6 430.753 17.8087   1
   1   1   5 422.567 27.3630  -2
  -1   1   6 422.567 27.3630   1
  -1   1   6 372.681 15.3335   2
   0   1   6 269.175 9.55608  -2
   0   1   6 269.175 9.55608   1
   1   1   6 6.08097 2.93147   1
  -1   1   7 248.012 17.0353  -2
   1   1   6 248.012 17.0353   1
   1   1   6 2.20790 1.97309   2
   2   1   6 1088.52 44.2542   1
  -2   1   8 1730.51 107.654  -2
   2   1   6 1730.51 107.654   1
   2   1   6 1001.23 40.7495   2
  -3   1   9 338.927 23.1006  -2
   3   1   6 338.927 23.1006   1
   3   1   6 137.269 9.17822   2
   3   1   6 161.030 12.7216   1
   4   1   6 15.8091 3.12746   2
   4   1   6 17.7372 3.32502   1
   5   1   6 1.89253 3.51566   1
   5   1   6 -0.4354 2.90592   2
   6   1   6 -2.2317 3.22883   2
   6   1   6 -4.2437 3.82375   1
   7   1   6 25.4395 3.98811   2
   7   1   6 34.1801 5.06152   1
   8   1   6 15.8662 4.09379   2
   8   1   6 24.5303 4.99272   1
  -9   2   6 25.6767 5.91175   2
  -9   2   6 18.2489 3.53898   1
  -8   2   6 -2.2282 3.00196   1
  -8   2   6 -1.0296 4.58098   2
  -7   2   6 155.809 8.00589   1
  -7   2   6 163.236 12.1040   2
  -6   2   6 1.29782 2.54510   1
  -6   2   6 3.19317 2.78841   2
  -5   2   6 9.32466 2.49686   1
  -5   2   6 8.29468 2.77474   2
  -4   2   6 439.299 18.6672   1
  -4   2   6 430.458 19.6035   2
  -3   2   6 564.471 31.1476   1
   3   2   3 724.766 46.3939  -2
  -3   2   6 724.766 46.3939   1
  -3   2   6 544.615 34.4770   2
   2   2   4 59.3739 8.12483  -2
  -2   2   6 59.3739 8.12483   1
  -2   2   6 3.18842 1.24552   1
  -2   2   6 3.58970 2.82675   2
  -1   2   6 393.005 16.2839   2
   1   2   5 321.678 21.5310  -2
  -1   2   6 321.678 21.5310   1
  -1   2   6 437.708 18.1163   1
   0   2   6 434.973 15.1622  -2
   0   2   6 434.973 15.1622   1
   1   2   6 7.80648 2.87324   1
  -1   2   7 320.541 21.6502  -2
   1   2   6 320.541 21.6502   1
   2   2   6 26.7700 2.34876   2
   2   2   6 27.3437 4.53507   1
  -2   2   8 261.707 18.2763  -2
   2   2   6 261.707 18.2763   1
   3   2   6 88.3393 6.83369   2
  -3   2   9 630.149 40.6800  -2
   3   2   6 630.149 40.6800   1
   3   2   6 97.4677 8.76040   1
   4   2   6 134.770 7.35884   2
   4   2   6 164.610 9.03148   1
   5   2   6 54.6086 4.42957   2
   5   2   6 69.5908 5.51358   1
   6   2   6 73.8418 6.10778   1
   6   2   6 62.3167 5.02604   2
   7   2   6 11.1113 3.73380   2
   7   2   6 10.3679 4.40910   1
   8   2   6 -0.9598 4.52216   1
  -9   3   6 27.7611 3.83708   1
  -9   3   6 28.9496 6.54535   2
  -8   3   6 1.47307 3.18889   1
  -8   3   6 2.74732 5.30100   2
  -7   3   6 168.187 8.61424   1
  -7   3   6 167.884 9.08935   2
  -6   3   6 2.21172 3.03670   2
  -6   3   6 3.56589 2.81822   1
  -5   3   6 113.274 6.33709   1
  -5   3   6 106.106 6.39339   2
  -4   3   6 2.90569 2.47894   1
  -4   3   6 4.69275 2.60651   2
   3   3   3 163.382 14.0098  -2
  -3   3   6 163.382 14.0098   1
  -3   3   6 113.255 5.27197   1
  -3   3   6 105.302 8.56688   2
  -2   3   6 290.070 12.2711   1
   2   3   4 1181.55 74.4388  -2
  -2   3   6 1181.55 74.4388   1
  -2   3   6 277.196 18.3527   2
   1   3   5 301.958 14.2717  -2
  -1   3   6 301.958 14.2717   1
   0   3   6 4.58072 1.54527  -2
   0   3   6 4.58072 1.54527   1
  -1   3   7 337.260 14.4751  -2
   1   3   6 337.260 14.4751   1
   1   3   6 316.081 17.9284   2
   1   3   6 322.864 21.1938   1
   2   3   6 371.578 15.6963   2
   2   3   6 404.319 26.3734   1
  -2   3   8 528.156 34.5001  -2
   2   3   6 528.156 34.5001   1
  -3   3   9 151.430 13.5509  -2
   3   3   6 151.430 13.5509   1
   3   3   6 107.126 9.88449   1
   3   3   6 96.3661 7.67267   2
   4   3   6 91.9136 6.40974   1
   4   3   6 74.1358 5.35860   2
   5   3   6 130.455 7.49384   2
   5   3   6 162.072 9.45161   1
   6   3   6 6.60298 3.97162   1
   6   3   6 10.5991 3.37356   2
   7   3   6 0.55959 4.41931   1
   7   3   6 3.94078 3.60108   2
  -9   4   6 55.5874 4.76523   1
  -9   4   6 53.8632 7.79236   2
  -8   4   6 8.39084 3.45947   1
  -8   4   6 12.4019 5.61277   2
  -7   4   6 3.06286 3.23276   1
  -7   4   6 4.88912 3.37031   2
  -6   4   6 2.67769 3.02155   1
  -6   4   6 2.42944 3.20212   2
  -5   4   6 269.846 13.1481   2
  -5   4   6 266.071 12.0616   1
  -4   4   6 3.12666 2.77669   2
  -4   4   6 2.57229 2.76121   1
   3   4   3 88.9818 10.7544  -2
  -3   4   6 88.9818 10.7544   1
  -3   4   6 2.72802 3.58124   2
  -3   4   6 4.22336 3.24933   1
   2   4   4 151.182 8.44125  -2
  -2   4   6 151.182 8.44125   1
  -2   4   6 93.9497 7.08189   1
  -2   4   6 80.3018 7.44263   2
   1   4   5 203.330 7.99249  -2
  -1   4   6 203.330 7.99249   1
   0   4   6 3.80730 1.95154  -2
   0   4   6 3.80730 1.95154   1
  -1   4   7 209.810 10.9919  -2
   1   4   6 209.810 10.9919   1
   2   4   6 103.257 7.50226   2
  -2   4   8 287.024 20.8160  -2
   2   4   6 287.024 20.8160   1
   2   4   6 115.962 10.1691   1
  -3   4   9 52.2438 9.87177  -2
   3   4   6 52.2438 9.87177   1
   3   4   6 -0.1834 4.33984   1
   3   4   6 0.81858 3.42397   2
   4   4   6 94.8248 6.79281   1
   4   4   6 76.4551 5.49549   2
   5   4   6 168.719 9.82454   1
   5   4   6 142.441 8.05150   2
   6   4   6 52.3926 5.52653   1
   6   4   6 41.5715 4.38588   2
   7   4   6 27.6414 4.17599   2
   7   4   6 34.4446 5.44086   1
  -9   5   6 19.1938 6.65510   1
  -8   5   6 1.42912 3.66629   2
  -8   5   6 -2.4005 3.31663   1
  -7   5   6 77.3586 5.92353   2
  -7   5   6 76.5673 5.38717   1
  -6   5   6 28.8558 3.99562   2
  -6   5   6 28.1599 3.76371   1
  -5   5   6 121.250 7.19639   2
  -5   5   6 128.273 7.15867   1
  -4   5   6 2.26257 2.65626   2
  -4   5   6 3.19163 2.86649   1
   3   5   3 19.5333 9.47281  -2
  -3   5   6 19.5333 9.47281   1
  -3   5   6 31.1090 4.30267   1
  -3   5   6 28.5595 5.28762   2
  -2   5   6 27.7637 4.11834   1
   2   5   4 135.530 8.19958  -2
  -2   5   6 135.530 8.19958   1
  -2   5   6 25.5140 4.99253   2
   1   5   5 83.8947 4.77251  -2
  -1   5   6 83.8947 4.77251   1
   0   5   6 136.133 5.71148  -2
   0   5   6 136.133 5.71148   1
  -1   5   7 236.325 12.3662  -2
   1   5   6 236.325 12.3662   1
  -2   5   8 13.7570 8.05176  -2
   2   5   6 13.7570 8.05176   1
   2   5   6 13.5678 3.98124   2
   2   5   6 11.7120 4.85475   1
   3   5   6 26.7140 6.01077   1
   3   5   6 30.5714 4.99481   2
  -3   5   9 51.9719 10.3738  -2
   3   5   6 51.9719 10.3738   1
   4   5   6 217.302 10.8299   2
   4   5   6 226.591 11.7370   1
   5   5   6 53.2022 5.27664   1
   5   5   6 49.2413 4.78886   2
   6   5   6 3.89389 4.32306   1
   6   5   6 0.93946 3.65533   2
  -8   6   6 20.7043 3.93639   1
  -8   6   6 22.3597 4.35449   2
  -7   6   6 27.8316 3.98215   1
  -7   6   6 29.1458 4.24638   2
  -6   6   6 27.3458 3.93450   2
  -6   6   6 28.4624 3.84576   1
  -5   6   6 9.93944 3.42748   2
  -5   6   6 7.87501 3.17561   1
  -4   6   6 73.2890 5.21431   1
  -4   6   6 68.4079 5.26835   2
   3   6   3 270.051 20.5720  -2
  -3   6   6 270.051 20.5720   1
  -3   6   6 226.455 16.4974   2
  -3   6   6 240.572 14.8074   1
  -2   6   6 30.7964 5.62234   2
   2   6   4 102.492 12.2449  -2
  -2   6   6 102.492 12.2449   1
  -2   6   6 40.3424 4.99356   1
   1   6   5 126.307 6.15762  -2
  -1   6   6 126.307 6.15762   1
   0   6   6 13.2504 3.53725  -2
   0   6   6 13.2504 3.53725   1
  -1   6   7 304.955 15.2496  -2
   1   6   6 304.955 15.2496   1
  -2   6   8 94.1534 11.5789  -2
   2   6   6 94.1534 11.5789   1
   2   6   6 28.8515 5.89981   1
   2   6   6 36.6725 5.10545   2
  -3   6   9 22.7837 9.93432  -2
   3   6   6 22.7837 9.93432   1
   3   6   6 24.6381 5.04434   2
   3   6   6 23.2989 5.91348   1
   4   6   6 11.5695 3.97370   1
   4   6   6 16.3103 3.98923   2
   5   6   6 3.77261 3.78414   2
   5   6   6 6.97742 4.09928   1
   6   6   6 50.0078 5.09937   2
   6   6   6 57.7721 5.91179   1
  -8   7   6 8.84733 5.63683   2
  -8   7   6 6.40720 5.36136   1
  -7   7   6 15.3950 4.11837   2
  -7   7   6 22.2366 3.91608   1
  -6   7   6 34.0432 4.44655   2
  -6   7   6 34.7878 4.22467   1
  -5   7   6 42.0593 4.20334   1
  -5   7   6 43.1249 4.52073   2
  -4   7   6 80.7552 6.20688   2
  -4   7   6 84.1492 5.76580   1
  -3   7   6 28.4807 5.04401   1
  -3   7   6 19.5556 5.76737   2
   3   7   3 83.7557 13.2660  -2
  -3   7   6 83.7557 13.2660   1
  -2   7   6 92.3388 7.98383   1
   2   7   4 124.688 14.5635  -2
  -2   7   6 124.688 14.5635   1
  -2   7   6 81.7403 8.74322   2
   1   7   5 89.8467 5.53682  -2
  -1   7   6 89.8467 5.53682   1
   0   7   6 182.257 10.1467  -2
   0   7   6 182.257 10.1467   1
  -1   7   7 269.304 14.1485  -2
   1   7   6 269.304 14.1485   1
   2   7   6 13.1367 4.78574   2
   2   7   6 7.38028 5.52569   1
  -2   7   8 13.9466 9.52599  -2
   2   7   6 13.9466 9.52599   1
   3   7   6 10.0035 5.17705   2
  -3   7   9 24.0331 11.9820  -2
   3   7   6 24.0331 11.9820   1
   3   7   6 9.44084 5.93369   1
   4   7   6 7.11156 4.13422   1
   4   7   6 9.66226 4.11549   2
   5   7   6 5.81291 3.99187   2
   5   7   6 4.02176 4.37927   1
  -7   8   6 21.1937 4.20844   2
  -6   8   6 6.79524 3.95722   2
  -6   8   6 10.9444 3.53064   1
  -5   8   6 18.4592 3.81103   1
  -5   8   6 15.4703 3.92571   2
  -4   8   6 1.83767 3.59390   2
   4   8   2 17.6752 13.7104  -2
  -4   8   6 17.6752 13.7104   1
  -4   8   6 -1.2412 4.54811   1
  -3   8   6 26.3888 5.17551   1
   3   8   3 19.7840 13.7462  -2
  -3   8   6 19.7840 13.7462   1
  -3   8   6 17.4724 5.99225   2
   2   8   4 169.069 10.3318  -2
  -2   8   6 169.069 10.3318   1
   1   8   5 105.604 13.7476  -2
  -1   8   6 105.604 13.7476   1
   0   8   6 160.394 9.60176  -2
   0   8   6 160.394 9.60176   1
  -1   8   7 105.904 8.46482  -2
   1   8   6 105.904 8.46482   1
  -2   8   8 79.2923 8.53567  -2
   2   8   6 79.2923 8.53567   1
  -3   8   9 157.369 15.8864  -2
   3   8   6 157.369 15.8864   1
   3   8   6 49.8378 7.62985   1
  -4   8  10 57.6022 14.1747  -2
   4   8   6 57.6022 14.1747   1
   4   8   6 14.4615 6.91107   1
   4   8   6 13.1821 5.68121   2
   5   8   6 5.25498 4.77739   2
  -6   9   6 1.02197 5.21347   2
  -5   9   6 2.19886 4.06068   2
  -5   9   6 1.03322 4.88728   1
  -4   9   6 43.6242 5.19127   2
  -4   9   6 44.8474 6.22463   1
  -3   9   6 44.5687 7.40246   2
  -3   9   6 62.8096 7.01153   1
   2   9   4 85.3776 14.8657  -2
  -2   9   6 85.3776 14.8657   1
   1   9   5 10.1207 11.4298  -2
  -1   9   6 10.1207 11.4298   1
   0   9   6 310.045 15.6243  -2
   0   9   6 310.045 15.6243   1
  -1   9   7 33.9421 6.85737  -2
   1   9   6 33.9421 6.85737   1
  -2   9   8 112.993 9.98452  -2
   2   9   6 112.993 9.98452   1
  -3   9   9 107.241 13.7278  -2
   3   9   6 107.241 13.7278   1
   3   9   6 63.8946 8.81171   1
  -4  10   6 7.31220 5.27661   1
  -3  10   6 0.86866 5.92315   2
  -1  10   7 26.2810 9.64974  -2
   1  10   6 26.2810 9.64974   1
   1 -12   6 35.4636 7.50744  -2
  -1 -12   7 35.4636 7.50744   1
   0 -12   7 271.920 17.2260  -2
   0 -12   7 271.920 17.2260   1
  -1 -12   8 8.23188 6.71273  -2
   1 -12   7 8.23188 6.71273   1
   3 -11   4 23.9224 10.0168  -2
  -3 -11   7 23.9224 10.0168   1
   2 -11   5 4.09905 8.23126  -2
  -2 -11   7 4.09905 8.23126   1
   1 -11   6 44.8577 5.43610  -2
  -1 -11   7 44.8577 5.43610   1
   0 -11   7 61.7290 4.98039  -2
   0 -11   7 61.7290 4.98039   1
  -1 -11   8 115.532 7.17907  -2
   1 -11   7 115.532 7.17907   1
  -2 -11   9 152.347 8.71724  -2
   2 -11   7 152.347 8.71724   1
  -3 -11  10 9.11053 6.23967  -2
   3 -11   7 9.11053 6.23967   1
   4 -11   7 3.91716 4.66863   1
  -5 -10   7 -2.8015 4.27454   2
  -5 -10   7 -0.8758 5.30728   1
  -4 -10   7 60.6412 6.45000   2
  -4 -10   7 64.6991 8.02031   1
   2 -10   5 82.4215 6.70482  -2
  -2 -10   7 82.4215 6.70482   1
   1 -10   6 99.4861 6.60926  -2
  -1 -10   7 99.4861 6.60926   1
   0 -10   7 27.6953 3.71762  -2
   0 -10   7 27.6953 3.71762   1
  -1 -10   8 38.1711 5.03082  -2
   1 -10   7 38.1711 5.03082   1
  -2 -10   9 127.036 7.93197  -2
   2 -10   7 127.036 7.93197   1
  -3 -10  10 27.2052 6.25377  -2
   3 -10   7 27.2052 6.25377   1
   4 -10   7 29.6983 4.30166   2
   4 -10   7 29.4184 3.97239   1
   5 -10   7 9.67864 5.62658   2
  -6  -9   7 17.5733 4.78013   2
  -6  -9   7 18.4334 6.23991   1
  -5  -9   7 12.7809 4.49282   2
  -4  -9   7 138.050 7.33393   2
  -4  -9   7 159.053 12.8531   1
   3  -9   4 37.7673 8.71421  -2
  -3  -9   7 37.7673 8.71421   1
   2  -9   5 163.308 9.07719  -2
  -2  -9   7 163.308 9.07719   1
   1  -9   6 144.732 7.96310  -2
  -1  -9   7 144.732 7.96310   1
   0  -9   7 0.14536 2.94528  -2
   0  -9   7 0.14536 2.94528   1
  -1  -9   8 38.9402 5.00377  -2
   1  -9   7 38.9402 5.00377   1
  -2  -9   9 127.219 7.71849  -2
   2  -9   7 127.219 7.71849   1
  -3  -9  10 47.3477 6.12829  -2
   3  -9   7 47.3477 6.12829   1
   4  -9   7 11.4596 3.47943   1
   4  -9   7 12.9027 3.60805   2
   5  -9   7 2.56089 3.37979   1
   5  -9   7 8.52186 3.58950   2
   6  -9   7 -0.0307 4.42922   1
  -7  -8   7 20.9962 6.00947   1
  -7  -8   7 22.3683 4.84469   2
  -6  -8   7 24.4343 6.09349   1
  -6  -8   7 15.2256 4.17303   2
  -5  -8   7 115.158 8.74570   2
  -5  -8   7 123.987 11.3899   1
  -4  -8   7 167.625 8.78276   1
  -4  -8   7 164.729 8.15473   2
   3  -8   4 56.0303 8.53428  -2
  -3  -8   7 56.0303 8.53428   1
   2  -8   5 163.686 8.93664  -2
  -2  -8   7 163.686 8.93664   1
   1  -8   6 52.1262 4.82600  -2
  -1  -8   7 52.1262 4.82600   1
   0  -8   7 87.5570 5.82187  -2
   0  -8   7 87.5570 5.82187   1
  -1  -8   8 11.8488 4.45445  -2
   1  -8   7 11.8488 4.45445   1
  -2  -8   9 13.6543 5.17402  -2
   2  -8   7 13.6543 5.17402   1
  -3  -8  10 6.09240 5.94969  -2
   3  -8   7 6.09240 5.94969   1
   4  -8   7 0.87587 3.19030   1
   4  -8   7 0.17213 3.34603   2
   5  -8   7 110.113 6.87549   2
   5  -8   7 100.811 6.32445   1
   6  -8   7 4.17936 4.76543   2
   6  -8   7 9.53426 3.63498   1
   7  -8   7 0.67978 4.58411   1
  -7  -7   7 4.64777 5.20083   1
  -7  -7   7 5.99369 4.33236   2
  -6  -7   7 77.2142 6.67742   2
  -6  -7   7 83.3003 9.38321   1
  -5  -7   7 117.800 10.2959   1
  -5  -7   7 109.854 8.33026   2
  -4  -7   7 13.6532 2.69621   2
  -4  -7   7 13.7119 4.76533   1
  -3  -7   7 46.8307 4.96030   2
   3  -7   4 64.9079 9.42830  -2
  -3  -7   7 64.9079 9.42830   1
   2  -7   5 528.947 22.5410  -2
  -2  -7   7 528.947 22.5410   1
   1  -7   6 224.822 10.4011  -2
  -1  -7   7 224.822 10.4011   1
   0  -7   7 8.78601 2.94709  -2
   0  -7   7 8.78601 2.94709   1
  -1  -7   8 333.801 14.8761  -2
   1  -7   7 333.801 14.8761   1
  -2  -7   9 173.321 8.96880  -2
   2  -7   7 173.321 8.96880   1
  -3  -7  10 24.6677 5.47538  -2
   3  -7   7 24.6677 5.47538   1
   4  -7   7 5.25395 3.01914   1
   4  -7   7 4.79704 3.17737   2
   5  -7   7 76.6905 5.48634   2
   5  -7   7 91.9373 6.16451   1
   6  -7   7 2.79631 4.87226   2
   6  -7   7 8.28651 3.32642   1
   7  -7   7 32.7563 5.35136   1
   7  -7   7 38.8883 6.99331   2
  -8  -6   7 -1.9398 5.08358   1
  -8  -6   7 0.07023 3.84708   2
  -7  -6   7 1.19388 4.06659   2
  -7  -6   7 0.76845 3.18617   1
  -6  -6   7 5.39136 3.06372   1
  -6  -6   7 2.35128 3.54103   2
  -5  -6   7 48.2416 3.82252   2
  -5  -6   7 49.1047 3.38668   1
  -4  -6   7 134.619 6.75279   2
  -4  -6   7 146.837 6.39998   1
   3  -6   4 648.438 36.9583  -2
  -3  -6   7 648.438 36.9583   1
  -3  -6   7 258.880 15.4249   2
   2  -6   5 244.370 11.4794  -2
  -2  -6   7 244.370 11.4794   1
   1  -6   6 112.646 6.56035  -2
  -1  -6   7 112.646 6.56035   1
   0  -6   7 88.2111 5.56336  -2
   0  -6   7 88.2111 5.56336   1
  -1  -6   8 318.249 14.1398  -2
   1  -6   7 318.249 14.1398   1
  -2  -6   9 277.997 12.8792  -2
   2  -6   7 277.997 12.8792   1
  -3  -6  10 125.550 7.94087  -2
   3  -6   7 125.550 7.94087   1
   4  -6   7 47.6966 4.22351   1
   4  -6   7 36.6513 3.75974   2
   5  -6   7 12.7218 3.41671   1
   5  -6   7 8.88590 4.74968   2
   6  -6   7 10.7872 3.40362   1
   6  -6   7 5.99383 4.85240   2
   7  -6   7 121.325 10.7020   2
  -9  -5   7 8.29462 5.80687   1
  -9  -5   7 10.0466 4.30903   2
  -8  -5   7 54.3412 6.74380   1
  -8  -5   7 45.2740 5.22932   2
  -7  -5   7 71.5973 5.04095   2
  -6  -5   7 1.90465 2.43610   1
  -6  -5   7 0.54433 2.62492   2
  -5  -5   7 8.54816 2.32153   1
  -5  -5   7 5.92318 2.09103   2
  -4  -5   7 57.1026 3.60067   1
  -4  -5   7 57.9502 3.40568   2
  -3  -5   7 124.359 8.33627   2
  -3  -5   7 125.749 6.58191   1
   2  -5   5 90.6559 5.95161  -2
  -2  -5   7 90.6559 5.95161   1
   1  -5   6 65.9134 4.68476  -2
  -1  -5   7 65.9134 4.68476   1
   0  -5   7 433.161 18.2813  -2
   0  -5   7 433.161 18.2813   1
  -1  -5   8 750.885 31.0089  -2
   1  -5   7 750.885 31.0089   1
  -2  -5   9 119.555 7.03141  -2
   2  -5   7 119.555 7.03141   1
   3  -5   7 44.3103 3.79128   2
  -3  -5  10 55.5209 7.57528  -2
   3  -5   7 55.5209 7.57528   1
   3  -5   7 47.4841 5.86566   1
   4  -5   7 56.9192 3.48593   2
   4  -5   7 69.0062 5.10899   1
   5  -5   7 129.528 7.31104   2
   5  -5   7 140.585 7.67128   1
   6  -5   7 49.7287 4.30845   1
   6  -5   7 37.2693 6.71207   2
   7  -5   7 8.58760 5.88079   1
   7  -5   7 6.18729 5.58888   2
   8  -5   7 -2.7109 5.40360   2
  -9  -4   7 46.2169 4.34431   2
  -8  -4   7 5.02478 5.47564   1
  -8  -4   7 1.98814 3.19090   2
  -7  -4   7 44.8968 3.98824   2
  -7  -4   7 50.2069 6.52076   1
  -6  -4   7 127.586 5.85532   1
  -6  -4   7 117.060 6.50961   2
  -5  -4   7 15.0983 2.33526   1
  -5  -4   7 12.4211 2.13872   2
  -4  -4   7 13.6029 2.15214   1
  -4  -4   7 13.1734 2.44681   2
  -3  -4   7 94.6400 5.26339   2
  -3  -4   7 96.2592 5.57271   1
  -2  -4   7 744.010 46.2624   1
   2  -4   5 797.233 33.0682  -2
  -2  -4   7 797.233 33.0682   1
   1  -4   6 117.697 4.90625  -2
  -1  -4   7 117.697 4.90625   1
   0  -4   7 3.91153 1.93156  -2
   0  -4   7 3.91153 1.93156   1
  -1  -4   8 311.385 13.4743  -2
   1  -4   7 311.385 13.4743   1
  -2  -4   9 141.013 6.08371  -2
   2  -4   7 141.013 6.08371   1
   2  -4   7 98.7290 7.29801   2
   3  -4   7 473.851 30.7568   1
   3  -4   7 499.645 31.7505   2
  -3  -4  10 692.718 28.7151  -2
   3  -4   7 692.718 28.7151   1
   4  -4   7 7.44450 2.05645   2
   4  -4   7 8.33806 2.18557   1
   5  -4   7 198.351 9.90415   2
   5  -4   7 213.675 10.1660   1
   6  -4   7 22.4643 6.37012   1
   6  -4   7 11.4855 3.70087   2
   7  -4   7 71.7344 5.64242   2
   7  -4   7 112.389 11.2494   1
   8  -4   7 -1.4787 4.07739   2
  -9  -3   7 64.6734 8.12132   1
  -9  -3   7 58.3615 7.78115   2
  -8  -3   7 18.1873 5.52986   1
  -8  -3   7 20.4379 3.48336   2
  -7  -3   7 32.1838 3.43959   1
  -7  -3   7 33.2020 3.61256   2
  -6  -3   7 40.8894 2.97348   2
  -6  -3   7 40.4806 3.69466   1
  -5  -3   7 54.9196 3.34492   1
  -5  -3   7 54.8566 3.22180   2
  -4  -3   7 16.6351 2.57020   2
  -4  -3   7 16.7680 2.63282   1
  -3  -3   7 55.3486 3.18925   1
  -3  -3   7 52.5892 3.59334   2
  -2  -3   7 42.7275 3.28209   1
  -2  -3   7 37.0331 4.35882   2
   2  -3   5 56.3645 5.87790  -2
  -2  -3   7 56.3645 5.87790   1
   1  -3   6 367.661 13.0249  -2
  -1  -3   7 367.661 13.0249   1
   0  -3   7 2626.00 88.7481  -2
   0  -3   7 2626.00 88.7481   1
  -1  -3   8 316.357 11.3173  -2
   1  -3   7 316.357 11.3173   1
  -2  -3   9 233.807 10.4489  -2
   2  -3   7 233.807 10.4489   1
   2  -3   7 89.9772 7.94944   1
   3  -3   7 650.493 41.7633   1
   3  -3   7 629.562 21.8660   2
  -3  -3  10 997.178 40.8761  -2
   3  -3   7 997.178 40.8761   1
   4  -3   7 5.36636 2.82493   2
  -4  -3  11 35.9326 8.08691  -2
   4  -3   7 35.9326 8.08691   1
   4  -3   7 9.16234 2.80234   1
   5  -3   7 -0.1587 3.14600   2
   5  -3   7 0.14378 2.09710   1
   6  -3   7 16.3606 3.81484   2
   6  -3   7 23.8481 3.95522   1
   7  -3   7 105.122 7.32312   1
   7  -3   7 94.3944 6.77832   2
   8  -3   7 -1.6830 3.78997   2
   8  -3   7 1.82801 5.96576   1
  -9  -2   7 5.83910 5.77544   2
  -9  -2   7 6.41088 5.66673   1
  -8  -2   7 1.44084 5.22860   1
  -8  -2   7 1.35857 2.91545   2
  -7  -2   7 87.2069 5.33375   2
  -7  -2   7 91.1042 5.74413   1
  -6  -2   7 57.6996 4.37801   1
  -6  -2   7 52.4754 3.22361   2
  -5  -2   7 5.36458 1.89594   1
  -5  -2   7 2.35751 1.94728   2
  -4  -2   7 238.935 8.85629   2
  -4  -2   7 243.149 11.2721   1
  -3  -2   7 2.04291 1.81793   2
  -3  -2   7 -0.1551 1.39642   1
   2  -2   5 248.761 16.2044  -2
  -2  -2   7 248.761 16.2044   1
  -2  -2   7 193.319 12.9403   1
  -2  -2   7 201.340 14.3421   2
   1  -2   6 27.0359 2.78214  -2
  -1  -2   7 27.0359 2.78214   1
   0  -2   7 2748.38 92.8032  -2
   0  -2   7 2748.38 92.8032   1
  -1  -2   8 101.686 4.61657  -2
   1  -2   7 101.686 4.61657   1
   2  -2   7 498.711 32.4365   1
   2  -2   7 476.800 26.9991   2
  -2  -2   9 558.625 23.1731  -2
   2  -2   7 558.625 23.1731   1
   3  -2   7 126.372 5.34257   2
   3  -2   7 169.044 13.5122   1
  -3  -2  10 473.052 19.9607  -2
   3  -2   7 473.052 19.9607   1
   4  -2   7 140.374 7.11111   1
  -4  -2  11 167.220 13.4908  -2
   4  -2   7 167.220 13.4908   1
   4  -2   7 94.4445 6.11269   2
   5  -2   7 224.248 10.8508   2
   5  -2   7 321.458 15.5920   1
   6  -2   7 2.87605 3.72438   1
   6  -2   7 0.50064 3.58520   2
   7  -2   7 49.6369 4.98472   2
   7  -2   7 60.7525 5.59208   1
   8  -2   7 2.83529 3.82727   2
   8  -2   7 -1.5071 4.04091   1
  -9  -1   7 37.8970 6.92785   1
  -9  -1   7 34.6047 6.51911   2
  -8  -1   7 1.38004 4.90007   2
  -8  -1   7 -1.0594 2.70060   1
  -7  -1   7 134.324 7.01384   2
  -7  -1   7 136.068 7.23598   1
  -6  -1   7 137.866 5.78302   2
  -6  -1   7 142.840 7.39330   1
  -5  -1   7 9.41210 2.56157   1
  -5  -1   7 9.39017 1.97515   2
  -4  -1   7 10.1387 1.51910   1
  -4  -1   7 5.06034 1.74300   2
  -3  -1   7 1.68445 1.36675   1
  -3  -1   7 3.34911 3.80789   2
  -2  -1   7 345.295 22.9369   2
  -2  -1   7 313.897 13.3222   1
   2  -1   5 1264.81 78.8831  -2
  -2  -1   7 1264.81 78.8831   1
  -1  -1   7 272.880 18.4067   2
   1  -1   6 412.905 18.6219  -2
  -1  -1   7 412.905 18.6219   1
   0  -1   7 18.0852 1.73092  -2
   0  -1   7 18.0852 1.73092   1
  -1  -1   8 1163.81 47.4543  -2
   1  -1   7 1163.81 47.4543   1
   1  -1   7 857.628 53.7528   1
  -2  -1   9 3777.25 152.696  -2
   2  -1   7 3777.25 152.696   1
   2  -1   7 1857.70 75.1919   2
   2  -1   7 2200.51 135.613   1
   3  -1   7 108.846 4.87346   2
   3  -1   7 152.759 7.29477   1
  -3  -1  10 233.469 16.7891  -2
   3  -1   7 233.469 16.7891   1
  -4  -1  11 19.0915 8.39796  -2
   4  -1   7 19.0915 8.39796   1
   4  -1   7 3.24007 2.81193   2
   4  -1   7 13.4478 6.10324   1
   5  -1   7 131.711 7.58554   2
   5  -1   7 168.090 9.39379   1
   6  -1   7 28.6001 3.96627   2
   6  -1   7 41.8647 4.88688   1
   7  -1   7 6.24314 4.23159   1
   7  -1   7 8.40434 3.62774   2
   8  -1   7 -0.2243 3.89926   2
   8  -1   7 -5.2670 4.06868   1
  -9   0   7 67.9574 5.02453   1
  -9   0   7 74.6836 8.37908   2
  -8   0   7 4.17140 4.89688   2
  -8   0   7 5.89620 2.91542   1
  -7   0   7 12.0017 3.07925   2
  -7   0   7 10.2638 3.01215   1
  -6   0   7 22.6787 3.04078   1
  -6   0   7 24.4757 3.37981   2
  -5   0   7 153.501 7.71358   1
  -5   0   7 160.703 6.33541   2
  -4   0   7 654.029 22.5313   2
  -4   0   7 650.840 27.1562   1
  -3   0   7 181.969 8.36721   2
  -3   0   7 185.470 6.90521   1
   2   0   5 237.578 16.6784  -2
  -2   0   7 237.578 16.6784   1
  -2   0   7 202.464 8.94930   1
  -2   0   7 215.746 9.38952   2
  -1   0   7 22.5437 2.04864   1
   1   0   6 15.0269 5.15592  -2
  -1   0   7 15.0269 5.15592   1
  -1   0   7 21.2979 3.71753   2
   0   0   7 104.045 4.37778  -2
   0   0   7 104.045 4.37778   1
  -1   0   8 75.8021 4.72772  -2
   1   0   7 75.8021 4.72772   1
   1   0   7 3.29486 2.15158   2
   1   0   7 3.51198 3.24629   1
  -2   0   9 2647.84 164.142  -2
   2   0   7 2647.84 164.142   1
   2   0   7 659.992 27.2531   1
   2   0   7 505.316 21.1460   2
   3   0   7 386.897 25.7585   1
   3   0   7 263.654 15.9545   2
  -3   0  10 412.142 27.2182  -2
   3   0   7 412.142 27.2182   1
   4   0   7 383.094 18.2261   1
   4   0   7 299.418 13.5045   2
   5   0   7 19.8001 3.55363   2
   5   0   7 24.4521 4.24193   1
   6   0   7 45.5508 5.09813   1
   6   0   7 37.9896 4.30583   2
   7   0   7 80.6566 5.90761   2
   7   0   7 100.610 7.47632   1
   8   0   7 -6.3383 4.22883   1
   8   0   7 1.25674 3.71262   2
  -9   1   7 18.7747 3.41508   1
  -9   1   7 27.6014 6.05561   2
  -8   1   7 -0.9357 2.75644   1
  -8   1   7 4.32633 4.75720   2
  -7   1   7 133.319 7.17051   1
  -7   1   7 140.073 7.87541   2
  -6   1   7 26.0469 3.35470   1
  -6   1   7 25.6078 4.83760   2
  -5   1   7 37.2146 3.42673   1
  -5   1   7 40.4859 3.80674   2
  -4   1   7 335.947 11.9142   2
  -4   1   7 333.715 14.5401   1
  -3   1   7 16.1265 1.61307   2
   3   1   4 26.0210 8.08303  -2
  -3   1   7 26.0210 8.08303   1
  -3   1   7 22.2107 3.57506   1
  -2   1   7 577.156 23.5534   2
   2   1   5 2194.80 136.413  -2
  -2   1   7 2194.80 136.413   1
  -2   1   7 661.172 27.0767   1
  -1   1   7 180.162 7.94246   2
  -1   1   7 195.321 8.57538   1
   1   1   6 164.238 12.1896  -2
  -1   1   7 164.238 12.1896   1
   0   1   7 1477.71 49.8793  -2
   0   1   7 1477.71 49.8793   1
   1   1   7 70.0070 6.44402   1
   1   1   7 63.1687 3.75044   2
  -1   1   8 107.600 9.46870  -2
   1   1   7 107.600 9.46870   1
   2   1   7 32.4808 2.44624   1
  -2   1   9 345.985 23.2641  -2
   2   1   7 345.985 23.2641   1
   2   1   7 29.4018 2.42926   2
  -3   1  10 410.453 27.4120  -2
   3   1   7 410.453 27.4120   1
   3   1   7 107.708 8.15050   2
   3   1   7 117.913 10.1777   1
   4   1   7 526.882 24.2720   1
   4   1   7 415.276 18.0987   2
   5   1   7 31.7260 3.80003   2
   5   1   7 37.4832 4.63126   1
   6   1   7 4.79685 3.47368   2
   6   1   7 2.51326 3.97564   1
   7   1   7 19.2094 3.89157   2
   7   1   7 18.7468 4.80631   1
   8   1   7 0.61899 4.45056   1
 -10   2   7 4.64508 3.76723   1
  -9   2   7 5.37706 6.17765   2
  -9   2   7 5.12575 3.30810   1
  -8   2   7 12.3202 3.12566   1
  -8   2   7 11.0105 5.54201   2
  -7   2   7 158.998 8.12602   1
  -7   2   7 161.558 8.76810   2
  -6   2   7 30.8808 3.74259   2
  -6   2   7 25.3920 3.35278   1
  -5   2   7 150.058 8.08452   2
  -5   2   7 149.254 7.49065   1
  -4   2   7 144.601 7.78604   2
  -4   2   7 151.960 7.49128   1
  -3   2   7 180.046 11.2502   1
  -3   2   7 177.569 12.7534   2
   3   2   4 172.292 14.3939  -2
  -3   2   7 172.292 14.3939   1
  -2   2   7 1709.42 69.1326   1
  -2   2   7 1481.83 91.4996   2
   2   2   5 2048.17 127.496  -2
  -2   2   7 2048.17 127.496   1
   1   2   6 267.605 18.5790  -2
  -1   2   7 267.605 18.5790   1
  -1   2   7 296.788 12.6083   1
  -1   2   7 274.822 11.7003   2
   0   2   7 9.66165 1.58402  -2
   0   2   7 9.66165 1.58402   1
   1   2   7 5.30812 1.65772   1
  -1   2   8 107.719 9.98174  -2
   1   2   7 107.719 9.98174   1
   2   2   7 455.225 19.0241   2
   2   2   7 446.445 28.8068   1
  -2   2   9 694.753 44.5928  -2
   2   2   7 694.753 44.5928   1
   3   2   7 20.9418 3.73336   2
  -3   2  10 309.931 21.7554  -2
   3   2   7 309.931 21.7554   1
   3   2   7 17.1631 5.07512   1
   4   2   7 81.1942 6.19136   1
   4   2   7 62.9812 4.75384   2
   5   2   7 44.0297 4.91689   1
   5   2   7 35.5090 4.03638   2
   6   2   7 145.737 9.26641   1
   6   2   7 111.546 6.98056   2
   7   2   7 -1.9416 4.22297   1
   7   2   7 1.00151 3.45437   2
  -9   3   7 33.3970 4.06437   1
  -9   3   7 34.2762 7.08290   2
  -8   3   7 2.07495 3.26043   1
  -8   3   7 3.15510 5.58209   2
  -7   3   7 -0.7269 3.34057   2
  -7   3   7 -0.3157 2.88298   1
  -6   3   7 -0.5604 3.08437   2
  -6   3   7 1.06218 2.94839   1
  -5   3   7 386.193 17.9504   2
  -5   3   7 389.051 16.9039   1
  -4   3   7 220.215 10.8831   2
  -4   3   7 226.341 10.4639   1
  -3   3   7 46.1629 5.67470   2
   3   3   4 71.8749 10.5275  -2
  -3   3   7 71.8749 10.5275   1
  -3   3   7 46.4910 4.77434   1
  -2   3   7 432.025 17.9659   1
   2   3   5 388.558 26.2648  -2
  -2   3   7 388.558 26.2648   1
  -2   3   7 401.402 26.0629   2
  -1   3   7 4.07642 2.58694   1
   1   3   6 314.792 14.8356  -2
  -1   3   7 314.792 14.8356   1
   0   3   7 1535.15 52.0836  -2
   0   3   7 1535.15 52.0836   1
   1   3   7 164.505 10.2356   2
  -1   3   8 232.544 10.4570  -2
   1   3   7 232.544 10.4570   1
   1   3   7 156.498 11.3766   1
  -2   3   9 809.077 51.7762  -2
   2   3   7 809.077 51.7762   1
   2   3   7 524.851 21.8944   2
   2   3   7 504.856 32.4051   1
   3   3   7 15.6912 5.12182   1
   3   3   7 11.2967 3.84272   2
  -3   3  10 30.2956 9.64484  -2
   3   3   7 30.2956 9.64484   1
   4   3   7 15.3777 3.31141   2
   4   3   7 24.2097 4.03639   1
   5   3   7 6.83647 3.42354   2
   5   3   7 10.8603 3.73651   1
   6   3   7 10.2867 3.57203   2
   6   3   7 10.1906 4.53113   1
   7   3   7 7.45742 3.64111   2
   7   3   7 10.1044 4.87173   1
  -9   4   7 -1.7535 3.36963   1
  -9   4   7 -3.0060 5.76820   2
  -8   4   7 -0.0509 3.28304   1
  -8   4   7 0.27938 3.69760   2
  -7   4   7 24.8571 3.75839   1
  -7   4   7 23.4421 3.94855   2
  -6   4   7 24.0245 3.80080   2
  -6   4   7 26.0721 3.65579   1
  -5   4   7 11.8914 3.13866   2
  -5   4   7 8.08645 3.08826   1
  -4   4   7 85.1630 5.69751   1
  -4   4   7 73.0093 5.17023   2
   3   4   4 683.138 44.3763  -2
  -3   4   7 683.138 44.3763   1
  -3   4   7 626.807 34.7524   1
  -3   4   7 576.858 36.7403   2
  -2   4   7 427.436 27.7887   2
   2   4   5 832.883 37.2953  -2
  -2   4   7 832.883 37.2953   1
  -2   4   7 459.877 25.7910   1
   1   4   6 202.481 8.08999  -2
  -1   4   7 202.481 8.08999   1
   0   4   7 1164.46 39.7240  -2
   0   4   7 1164.46 39.7240   1
  -1   4   8 74.1188 6.29823  -2
   1   4   7 74.1188 6.29823   1
   2   4   7 2.52481 3.54368   2
   2   4   7 5.18729 4.19422   1
  -2   4   9 5.79497 7.91928  -2
   2   4   7 5.79497 7.91928   1
   3   4   7 13.2385 4.84289   1
   3   4   7 17.5460 4.25288   2
  -3   4  10 128.277 13.3340  -2
   3   4   7 128.277 13.3340   1
   4   4   7 189.748 9.57466   2
   4   4   7 225.396 11.8441   1
   5   4   7 0.85388 3.25147   2
   5   4   7 2.22862 3.86651   1
   6   4   7 -1.2922 3.35754   2
   6   4   7 -1.8109 4.37594   1
   7   4   7 1.18494 4.48151   2
  -8   5   7 28.7314 3.98708   1
  -8   5   7 25.8083 4.28250   2
  -7   5   7 30.5410 4.16353   2
  -7   5   7 31.8981 3.99068   1
  -6   5   7 6.33755 3.37441   2
  -6   5   7 3.09630 3.09610   1
  -5   5   7 1.23415 3.24716   2
  -5   5   7 2.16235 3.18988   1
  -4   5   7 8.36627 3.09719   1
  -4   5   7 10.1487 3.24425   2
  -3   5   7 173.763 11.4238   1
   3   5   4 382.061 26.9890  -2
  -3   5   7 382.061 26.9890   1
  -3   5   7 170.691 13.3067   2
   2   5   5 820.717 53.0977  -2
  -2   5   7 820.717 53.0977   1
  -2   5   7 358.531 20.6831   1
  -2   5   7 346.262 23.1912   2
   1   5   6 268.516 10.3010  -2
  -1   5   7 268.516 10.3010   1
   0   5   7 872.192 38.7795  -2
   0   5   7 872.192 38.7795   1
  -1   5   8 159.346 9.43687  -2
   1   5   7 159.346 9.43687   1
   2   5   7 132.908 9.58383   2
  -2   5   9 151.419 14.0480  -2
   2   5   7 151.419 14.0480   1
   2   5   7 137.305 11.7391   1
   3   5   7 31.8304 5.12350   2
   3   5   7 29.8226 6.17165   1
  -3   5  10 30.4169 9.93715  -2
   3   5   7 30.4169 9.93715   1
   4   5   7 120.248 7.81908   1
   4   5   7 103.359 6.86886   2
   5   5   7 19.4295 3.99582   2
   5   5   7 19.2477 4.45332   1
   6   5   7 10.6800 4.37774   1
   6   5   7 8.43717 3.88106   2
  -8   6   7 9.44020 4.00255   2
  -8   6   7 11.8688 3.76045   1
  -7   6   7 14.5031 4.00113   2
  -7   6   7 12.9689 3.74742   1
  -6   6   7 16.5701 3.65012   1
  -6   6   7 17.3614 3.97865   2
  -5   6   7 37.4654 4.29605   2
  -5   6   7 42.4849 4.23431   1
  -4   6   7 9.38240 3.28265   2
  -4   6   7 11.0834 3.37045   1
   3   6   4 32.6622 12.4492  -2
  -3   6   7 32.6622 12.4492   1
  -3   6   7 0.26345 4.06389   1
  -3   6   7 0.45352 4.38945   2
  -2   6   7 48.5994 6.63052   2
   2   6   5 112.317 12.9757  -2
  -2   6   7 112.317 12.9757   1
  -2   6   7 53.0847 5.75646   1
   1   6   6 333.833 12.5084  -2
  -1   6   7 333.833 12.5084   1
   0   6   7 435.927 20.3527  -2
   0   6   7 435.927 20.3527   1
  -1   6   8 183.787 10.5941  -2
   1   6   7 183.787 10.5941   1
   2   6   7 117.587 9.21630   2
  -2   6   9 153.672 14.3992  -2
   2   6   7 153.672 14.3992   1
   2   6   7 114.904 10.8556   1
   3   6   7 36.9026 6.69331   1
   3   6   7 42.1722 5.83545   2
  -3   6  10 110.225 13.0196  -2
   3   6   7 110.225 13.0196   1
   4   6   7 -1.3359 3.78316   1
   4   6   7 0.41168 3.78685   2
   5   6   7 29.8766 4.85363   1
   5   6   7 28.6955 4.40376   2
   6   6   7 35.6741 5.69097   2
  -8   7   7 6.74527 5.83329   1
  -7   7   7 80.8186 5.76257   1
  -7   7   7 67.7149 5.81054   2
  -6   7   7 82.3623 6.42712   2
  -6   7   7 80.2375 5.75201   1
  -5   7   7 5.76350 3.55537   2
  -5   7   7 2.39185 3.33026   1
  -4   7   7 6.40847 3.61606   2
  -4   7   7 5.19209 3.46040   1
  -3   7   7 16.6588 5.33447   2
   3   7   4 32.2711 12.7344  -2
  -3   7   7 32.2711 12.7344   1
  -3   7   7 25.6946 5.16366   1
  -2   7   7 1.27217 5.09737   2
  -2   7   7 -0.6974 4.52516   1
   2   7   5 -5.5237 11.4579  -2
  -2   7   7 -5.5237 11.4579   1
   1   7   6 268.167 13.9753  -2
  -1   7   7 268.167 13.9753   1
   0   7   7 216.576 11.5951  -2
   0   7   7 216.576 11.5951   1
  -1   7   8 82.5752 7.85261  -2
   1   7   7 82.5752 7.85261   1
   2   7   7 40.9511 7.01622   1
  -2   7   9 71.7303 11.2663  -2
   2   7   7 71.7303 11.2663   1
   3   7   7 48.4778 6.33705   2
  -3   7  10 42.9390 12.8066  -2
   3   7   7 42.9390 12.8066   1
   3   7   7 35.2074 6.65126   1
   4   7   7 17.6557 4.42998   1
   4   7   7 15.9649 4.36421   2
   5   7   7 -3.6574 3.92705   2
  -7   8   7 37.7643 6.80583   2
  -6   8   7 8.13312 4.24202   2
  -6   8   7 12.3938 3.89423   1
  -5   8   7 66.7736 5.44196   1
  -5   8   7 62.6871 5.82235   2
   4   8   3 159.526 18.0806  -2
  -4   8   7 159.526 18.0806   1
  -4   8   7 83.0555 9.43160   2
  -4   8   7 94.2133 8.77122   1
   3   8   4 36.7545 14.9393  -2
  -3   8   7 36.7545 14.9393   1
  -3   8   7 43.8971 7.47473   2
  -3   8   7 48.7048 6.24708   1
   2   8   5 33.2099 12.5023  -2
  -2   8   7 33.2099 12.5023   1
   1   8   6 129.226 14.8371  -2
  -1   8   7 129.226 14.8371   1
   0   8   7 22.7596 4.66086  -2
   0   8   7 22.7596 4.66086   1
  -1   8   8 59.3706 7.21015  -2
   1   8   7 59.3706 7.21015   1
  -2   8   9 127.900 13.7799  -2
   2   8   7 127.900 13.7799   1
   3   8   7 6.34038 5.94781   1
  -3   8  10 6.65580 11.8184  -2
   3   8   7 6.65580 11.8184   1
   4   8   7 7.63281 5.57226   1
  -6   9   7 -1.1603 5.45652   2
  -5   9   7 21.8395 4.67681   2
  -5   9   7 19.9791 5.37598   1
  -4   9   7 69.0770 5.54979   1
  -4   9   7 63.6583 5.88645   2
  -3   9   7 -1.3777 5.99575   2
  -3   9   7 2.13866 4.96789   1
   3   9   4 3.40784 15.2663  -2
  -3   9   7 3.40784 15.2663   1
   2   9   5 55.1473 13.8602  -2
  -2   9   7 55.1473 13.8602   1
   1   9   6 48.5362 12.2876  -2
  -1   9   7 48.5362 12.2876   1
   0   9   7 10.9342 7.16010  -2
   0   9   7 10.9342 7.16010   1
  -1   9   8 14.4936 7.11541  -2
   1   9   7 14.4936 7.11541   1
  -2   9   9 13.2389 7.94325  -2
   2   9   7 13.2389 7.94325   1
  -4  10   7 -1.0191 4.89120   1
  -3  10   7 13.2140 6.60024   2
  -1  10   8 16.9447 7.21943  -2
   1  10   7 16.9447 7.21943   1
   1 -12   7 9.34371 6.89270  -2
  -1 -12   8 9.34371 6.89270   1
   0 -12   8 87.4783 8.68205  -2
   0 -12   8 87.4783 8.68205   1
   3 -11   5 2.81657 10.3352  -2
  -3 -11   8 2.81657 10.3352   1
   2 -11   6 5.82539 5.43458  -2
  -2 -11   8 5.82539 5.43458   1
   1 -11   7 126.594 7.80369  -2
  -1 -11   8 126.594 7.80369   1
   0 -11   8 111.449 6.92463  -2
   0 -11   8 111.449 6.92463   1
  -1 -11   9 38.6420 5.28241  -2
   1 -11   8 38.6420 5.28241   1
  -2 -11  10 117.122 7.75584  -2
   2 -11   8 117.122 7.75584   1
  -3 -11  11 105.511 11.4666  -2
   3 -11   8 105.511 11.4666   1
   4 -11   8 2.98832 3.08083   2
   4 -11   8 -5.2914 4.24373   1
  -5 -10   8 2.05090 4.11080   2
  -5 -10   8 -1.2823 5.03934   1
  -4 -10   8 53.5253 5.93274   2
  -4 -10   8 63.9342 8.07168   1
   3 -10   5 53.2212 6.87140  -2
  -3 -10   8 53.2212 6.87140   1
   2 -10   6 22.7128 5.56205  -2
  -2 -10   8 22.7128 5.56205   1
   1 -10   7 40.8415 5.46070  -2
  -1 -10   8 40.8415 5.46070   1
   0 -10   8 44.2668 4.29594  -2
   0 -10   8 44.2668 4.29594   1
  -1 -10   9 17.4928 4.47157  -2
   1 -10   8 17.4928 4.47157   1
  -2 -10  10 190.200 10.2173  -2
   2 -10   8 190.200 10.2173   1
  -3 -10  11 120.648 8.23578  -2
   3 -10   8 120.648 8.23578   1
   4 -10   8 6.69513 3.59045   1
   4 -10   8 7.02125 3.86973   2
   5 -10   8 38.0035 6.55936   1
   5 -10   8 39.4771 4.36488   2
  -6  -9   8 2.57992 5.17037   1
  -6  -9   8 1.20395 4.03994   2
  -5  -9   8 11.1108 5.51662   1
  -5  -9   8 9.18997 4.36380   2
  -4  -9   8 53.1468 7.19179   1
  -4  -9   8 50.8264 4.25938   2
   3  -9   5 73.3358 7.26194  -2
  -3  -9   8 73.3358 7.26194   1
   2  -9   6 253.056 12.3328  -2
  -2  -9   8 253.056 12.3328   1
   1  -9   7 33.4813 4.92758  -2
  -1  -9   8 33.4813 4.92758   1
   0  -9   8 0.16474 3.04834  -2
   0  -9   8 0.16474 3.04834   1
  -1  -9   9 161.875 8.62128  -2
   1  -9   8 161.875 8.62128   1
  -2  -9  10 201.223 10.4168  -2
   2  -9   8 201.223 10.4168   1
  -3  -9  11 15.6899 6.32706  -2
   3  -9   8 15.6899 6.32706   1
   4  -9   8 63.5572 5.31019   2
   4  -9   8 64.5267 5.12466   1
   5  -9   8 75.8511 5.66115   2
   5  -9   8 77.7170 5.71717   1
   6  -9   8 -1.9933 4.13345   2
  -7  -8   8 17.0908 4.79210   2
  -6  -8   8 18.8497 4.29665   2
  -5  -8   8 15.1718 4.28430   2
  -5  -8   8 11.1544 5.19254   1
  -4  -8   8 32.5707 4.16407   1
  -4  -8   8 33.6506 3.54216   2
   3  -8   5 191.363 10.4610  -2
  -3  -8   8 191.363 10.4610   1
   2  -8   6 479.464 20.8529  -2
  -2  -8   8 479.464 20.8529   1
   1  -8   7 12.0939 4.46375  -2
  -1  -8   8 12.0939 4.46375   1
   0  -8   8 139.992 7.46969  -2
   0  -8   8 139.992 7.46969   1
  -1  -8   9 22.7718 4.44187  -2
   1  -8   8 22.7718 4.44187   1
  -2  -8  10 93.8933 6.96968  -2
   2  -8   8 93.8933 6.96968   1
  -3  -8  11 61.7034 6.73811  -2
   3  -8   8 61.7034 6.73811   1
   4  -8   8 127.562 7.26425   1
   4  -8   8 112.609 7.07718   2
   5  -8   8 65.3602 5.26074   1
   5  -8   8 59.0037 4.77361   2
   6  -8   8 4.75588 4.85778   2
   6  -8   8 9.18428 3.72852   1
  -7  -7   8 25.3704 4.83161   2
  -6  -7   8 0.08586 5.29736   1
  -6  -7   8 6.05040 4.05837   2
  -5  -7   8 7.31166 4.28402   1
  -5  -7   8 3.55722 2.81653   2
  -4  -7   8 44.3084 4.34590   1
  -4  -7   8 42.2876 3.76154   2
   3  -7   5 117.652 10.9092  -2
  -3  -7   8 117.652 10.9092   1
   2  -7   6 598.271 25.3531  -2
  -2  -7   8 598.271 25.3531   1
   1  -7   7 341.036 15.1160  -2
  -1  -7   8 341.036 15.1160   1
   0  -7   8 815.934 33.8092  -2
   0  -7   8 815.934 33.8092   1
  -1  -7   9 65.4247 5.51345  -2
   1  -7   8 65.4247 5.51345   1
  -2  -7  10 36.2759 5.62463  -2
   2  -7   8 36.2759 5.62463   1
  -3  -7  11 89.3640 6.95521  -2
   3  -7   8 89.3640 6.95521   1
   4  -7   8 128.753 7.42483   1
   4  -7   8 119.044 7.11150   2
   5  -7   8 -1.5443 3.22921   1
   5  -7   8 -0.1470 4.24120   2
   6  -7   8 23.7762 3.97743   1
   6  -7   8 18.9455 5.54964   2
   7  -7   8 65.1034 8.16589   2
  -8  -6   8 15.3099 4.52931   2
  -8  -6   8 8.98236 5.06797   1
  -7  -6   8 13.3128 4.79066   1
  -7  -6   8 14.6623 4.32215   2
  -6  -6   8 137.218 9.57069   2
  -6  -6   8 147.123 8.25446   1
  -5  -6   8 20.5174 3.13545   2
  -5  -6   8 17.9197 4.89575   1
  -4  -6   8 146.558 7.90024   1
  -4  -6   8 132.130 6.89842   2
   3  -6   5 14.7159 5.51564  -2
  -3  -6   8 14.7159 5.51564   1
   2  -6   6 530.802 22.5563  -2
  -2  -6   8 530.802 22.5563   1
   1  -6   7 295.650 13.1597  -2
  -1  -6   8 295.650 13.1597   1
   0  -6   8 1082.83 44.3953  -2
   0  -6   8 1082.83 44.3953   1
  -1  -6   9 196.809 9.53307  -2
   1  -6   8 196.809 9.53307   1
  -2  -6  10 34.3909 5.10826  -2
   2  -6   8 34.3909 5.10826   1
  -3  -6  11 -3.0389 5.64735  -2
   3  -6   8 -3.0389 5.64735   1
   4  -6   8 4.09302 2.98437   1
   4  -6   8 3.02196 2.85678   2
   5  -6   8 56.0616 4.78111   1
   5  -6   8 51.5456 6.43058   2
   6  -6   8 64.3145 7.42718   2
   6  -6   8 71.6142 5.24216   1
   7  -6   8 9.28954 5.46905   1
   7  -6   8 10.6024 5.46943   2
  -9  -5   8 26.3602 5.90239   1
  -9  -5   8 29.5398 4.83607   2
  -8  -5   8 -1.2148 3.63391   2
  -7  -5   8 3.18423 4.54709   1
  -7  -5   8 4.12802 3.61559   2
  -6  -5   8 248.720 14.9719   2
  -6  -5   8 293.428 11.1259   1
  -5  -5   8 14.2039 2.78744   2
  -5  -5   8 14.5634 2.87725   1
  -4  -5   8 70.2348 4.57842   2
  -4  -5   8 71.0568 4.03254   1
  -3  -5   8 35.1220 3.05504   1
   3  -5   5 32.0043 7.45137  -2
  -3  -5   8 32.0043 7.45137   1
  -3  -5   8 32.0360 4.53424   2
   2  -5   6 1055.73 36.1871  -2
  -2  -5   8 1055.73 36.1871   1
   1  -5   7 651.009 27.0563  -2
  -1  -5   8 651.009 27.0563   1
   0  -5   8 978.773 40.1167  -2
   0  -5   8 978.773 40.1167   1
  -1  -5   9 291.922 13.0072  -2
   1  -5   8 291.922 13.0072   1
  -2  -5  10 1121.82 46.0749  -2
   2  -5   8 1121.82 46.0749   1
   3  -5   8 13.7759 4.63968   2
   3  -5   8 8.90392 4.78993   1
  -3  -5  11 15.3227 6.92511  -2
   3  -5   8 15.3227 6.92511   1
   4  -5   8 88.7325 5.87464   1
   4  -5   8 78.2083 5.30929   2
   5  -5   8 137.940 10.3124   2
   5  -5   8 155.471 8.18968   1
   6  -5   8 9.72590 5.78464   1
   6  -5   8 12.1716 5.38817   2
   7  -5   8 21.6960 6.40855   1
   7  -5   8 11.5260 5.85859   2
  -9  -4   8 56.3711 4.67201   2
  -9  -4   8 63.6280 8.06523   1
  -8  -4   8 3.12712 5.54576   1
  -8  -4   8 2.67154 3.11681   2
  -7  -4   8 41.5525 3.86569   1
  -7  -4   8 40.9332 3.84108   2
  -6  -4   8 27.0831 2.74263   2
  -6  -4   8 24.4535 3.41143   1
  -5  -4   8 1.66944 1.99853   2
  -5  -4   8 2.76023 2.64172   1
  -4  -4   8 742.492 25.7301   1
  -4  -4   8 714.306 29.5815   2
  -3  -4   8 26.8470 2.68825   1
  -3  -4   8 21.3570 2.58311   2
   3  -4   5 220.778 15.3445  -2
  -3  -4   8 220.778 15.3445   1
   2  -4   6 364.546 16.0735  -2
  -2  -4   8 364.546 16.0735   1
  -2  -4   8 360.389 22.7729   1
   1  -4   7 286.789 10.3772  -2
  -1  -4   8 286.789 10.3772   1
   0  -4   8 863.421 35.4039  -2
   0  -4   8 863.421 35.4039   1
  -1  -4   9 164.830 7.96776  -2
   1  -4   8 164.830 7.96776   1
  -2  -4  10 1033.46 42.5518  -2
   2  -4   8 1033.46 42.5518   1
   3  -4   8 146.748 11.7720   1
   3  -4   8 144.534 7.43810   2
  -3  -4  11 183.285 12.3017  -2
   3  -4   8 183.285 12.3017   1
   4  -4   8 57.5092 3.31366   2
   4  -4   8 63.1753 4.94977   1
   5  -4   8 47.6308 4.16300   1
   5  -4   8 47.8089 4.39439   2
   6  -4   8 26.2895 6.67522   1
   6  -4   8 18.0373 3.91032   2
   7  -4   8 93.0957 6.79062   2
   7  -4   8 146.793 12.9991   1
  -9  -3   8 20.7938 6.45205   2
  -9  -3   8 20.0205 6.47891   1
  -8  -3   8 31.4234 3.65327   2
  -8  -3   8 31.2438 6.02720   1
  -7  -3   8 195.603 9.52601   1
  -7  -3   8 186.221 9.04796   2
  -6  -3   8 21.0732 2.58230   2
  -6  -3   8 23.5440 3.23179   1
  -5  -3   8 20.6407 2.25866   1
  -5  -3   8 21.9199 2.39305   2
  -4  -3   8 320.827 14.0124   2
  -4  -3   8 351.062 12.6595   1
  -3  -3   8 3.03284 1.59158   1
  -3  -3   8 6.21666 4.14596   2
  -2  -3   8 378.241 16.2280   1
   2  -3   6 918.265 56.8418  -2
  -2  -3   8 918.265 56.8418   1
  -2  -3   8 359.330 23.3804   2
   1  -3   7 324.766 11.7245  -2
  -1  -3   8 324.766 11.7245   1
   0  -3   8 2811.81 95.0398  -2
   0  -3   8 2811.81 95.0398   1
  -1  -3   9 227.698 8.60828  -2
   1  -3   8 227.698 8.60828   1
  -2  -3  10 80.6935 4.59884  -2
   2  -3   8 80.6935 4.59884   1
   3  -3   8 29.0686 3.22028   2
  -3  -3  11 31.0909 4.35352  -2
   3  -3   8 31.0909 4.35352   1
   3  -3   8 33.9978 6.38003   1
   4  -3   8 66.3268 4.80150   2
  -4  -3  12 275.113 19.6429  -2
   4  -3   8 275.113 19.6429   1
   4  -3   8 79.0518 5.13795   1
   5  -3   8 10.6037 3.49569   2
   5  -3   8 10.4535 3.41972   1
   6  -3   8 0.81113 3.52994   1
   6  -3   8 -1.8312 3.55000   2
   7  -3   8 15.3416 6.50596   1
   7  -3   8 2.25548 3.96251   2
   8  -3   8 1.09440 5.82199   1
   8  -3   8 -0.2222 4.08612   2
  -9  -2   8 16.7695 6.20572   2
  -9  -2   8 20.9468 6.20511   1
  -8  -2   8 2.67291 2.88226   1
  -8  -2   8 6.60539 5.00714   2
  -7  -2   8 92.5581 5.66065   2
  -7  -2   8 103.069 6.26129   1
  -6  -2   8 171.897 6.92349   2
  -6  -2   8 187.103 9.19650   1
  -5  -2   8 388.509 17.0115   1
  -5  -2   8 330.724 12.1094   2
  -4  -2   8 120.901 6.33317   1
  -4  -2   8 121.178 6.27528   2
  -3  -2   8 116.353 4.91688   1
  -3  -2   8 101.031 9.65604   2
   2  -2   6 1022.62 63.1240  -2
  -2  -2   8 1022.62 63.1240   1
  -2  -2   8 1028.85 42.2745   1
  -2  -2   8 939.402 58.8628   2
   1  -2   7 91.1038 4.52696  -2
  -1  -2   8 91.1038 4.52696   1
   0  -2   8 394.538 13.8829  -2
   0  -2   8 394.538 13.8829   1
  -1  -2   9 51.3547 3.54853  -2
   1  -2   8 51.3547 3.54853   1
  -2  -2  10 709.781 29.3081  -2
   2  -2   8 709.781 29.3081   1
   2  -2   8 640.656 40.9627   1
   2  -2   8 587.568 32.8041   2
   3  -2   8 68.4843 3.62836   2
   3  -2   8 88.2934 5.43586   1
  -3  -2  11 91.8187 9.98890  -2
   3  -2   8 91.8187 9.98890   1
   4  -2   8 4.97464 3.11441   2
   4  -2   8 7.82801 2.13482   1
   5  -2   8 48.4433 4.66139   1
   5  -2   8 36.4721 4.22252   2
   6  -2   8 5.28316 3.65887   2
   6  -2   8 13.0943 3.89905   1
   7  -2   8 -4.4142 3.92713   1
   7  -2   8 -1.8332 3.77175   2
   8  -2   8 -4.5164 3.88280   2
   8  -2   8 -1.6099 6.21729   1
  -9  -1   8 28.0874 6.28033   2
  -9  -1   8 22.2700 6.38341   1
  -8  -1   8 18.2766 3.25971   1
  -8  -1   8 16.7992 5.39163   2
  -7  -1   8 8.93709 3.10986   1
  -7  -1   8 9.91089 3.24720   2
  -6  -1   8 43.6517 2.96317   2
  -6  -1   8 46.6807 4.03723   1
  -5  -1   8 439.232 18.8767   1
  -5  -1   8 400.143 17.0466   2
  -4  -1   8 258.965 9.64592   2
  -4  -1   8 269.579 9.90583   1
  -3  -1   8 302.977 13.7923   1
  -3  -1   8 331.597 22.6023   2
  -2  -1   8 85.7819 8.02594   2
  -2  -1   8 81.1967 4.44285   1
   2  -1   6 92.5677 9.28562  -2
  -2  -1   8 92.5677 9.28562   1
   1  -1   7 1050.35 35.8958  -2
  -1  -1   8 1050.35 35.8958   1
  -1  -1   8 526.190 33.5606   2
   0  -1   8 1313.11 44.7539  -2
   0  -1   8 1313.11 44.7539   1
  -1  -1   9 220.096 8.43452  -2
   1  -1   8 220.096 8.43452   1
   2  -1   8 602.890 24.9763   2
   2  -1   8 737.218 46.6682   1
  -2  -1  10 1224.23 49.9574  -2
   2  -1   8 1224.23 49.9574   1
   3  -1   8 196.230 9.00359   1
   3  -1   8 150.975 7.37576   2
  -3  -1  11 287.229 20.2324  -2
   3  -1   8 287.229 20.2324   1
   4  -1   8 0.20878 2.77907   2
   4  -1   8 5.13735 3.37858   1
   5  -1   8 24.5082 4.22443   1
   5  -1   8 14.1898 3.57616   2
   6  -1   8 1.77540 3.93958   1
   6  -1   8 -4.2897 3.33985   2
   7  -1   8 20.5511 4.04695   2
   7  -1   8 19.8245 4.60092   1
   8  -1   8 -0.7575 4.28106   1
   8  -1   8 2.57984 5.59305   2
  -9   0   8 6.77270 5.36727   2
  -9   0   8 -1.7437 2.96822   1
  -8   0   8 4.59326 2.87500   1
  -8   0   8 4.55695 4.88215   2
  -7   0   8 60.4846 4.57153   1
  -7   0   8 67.2108 5.11521   2
  -6   0   8 31.3747 3.59836   1
  -6   0   8 34.1967 5.58944   2
  -5   0   8 55.1042 4.13498   1
  -5   0   8 61.4822 4.91005   2
  -4   0   8 431.207 15.2103   2
  -4   0   8 425.894 18.2536   1
  -3   0   8 493.291 20.7147   2
  -3   0   8 492.436 17.1987   1
  -2   0   8 29.6283 2.59949   2
  -2   0   8 25.2579 2.23032   1
   2   0   6 537.996 34.7711  -2
  -2   0   8 537.996 34.7711   1
   1   0   7 39.6221 5.85775  -2
  -1   0   8 39.6221 5.85775   1
  -1   0   8 63.4211 3.73084   1
  -1   0   8 64.4158 6.84911   2
   0   0   8 473.859 16.5162  -2
   0   0   8 473.859 16.5162   1
  -1   0   9 603.437 25.1685  -2
   1   0   8 603.437 25.1685   1
   2   0   8 114.957 5.84900   1
  -2   0  10 165.973 13.3930  -2
   2   0   8 165.973 13.3930   1
   2   0   8 88.6716 4.91607   2
   3   0   8 34.2306 4.77024   2
   3   0   8 45.5742 6.35013   1
  -3   0  11 342.759 23.4813  -2
   3   0   8 342.759 23.4813   1
   4   0   8 240.015 11.3347   2
   4   0   8 325.835 15.8442   1
   5   0   8 167.544 9.74785   1
   5   0   8 118.526 6.93570   2
   6   0   8 28.4595 3.94090   2
   6   0   8 29.3690 4.77860   1
   7   0   8 -0.3856 3.56883   2
   7   0   8 -0.0086 4.25381   1
   8   0   8 -6.0272 4.21400   1
  -9   1   8 97.7615 6.28808   1
  -8   1   8 9.26215 3.08523   1
  -8   1   8 6.92722 5.56249   2
  -7   1   8 65.8384 4.77936   1
  -7   1   8 77.3436 5.81259   2
  -6   1   8 32.2916 3.64808   1
  -6   1   8 37.1513 3.89233   2
  -5   1   8 60.8216 4.65858   2
  -5   1   8 58.4097 4.38359   1
  -4   1   8 8.73612 2.90069   2
  -4   1   8 6.65237 2.54596   1
  -3   1   8 239.408 14.3860   1
   3   1   5 491.873 32.5320  -2
  -3   1   8 491.873 32.5320   1
  -3   1   8 229.058 16.3129   2
   2   1   6 1335.84 83.7657  -2
  -2   1   8 1335.84 83.7657   1
  -2   1   8 404.005 16.8746   1
  -2   1   8 407.669 17.1415   2
  -1   1   8 5.17621 1.67489   1
  -1   1   8 5.17424 1.45953   2
   1   1   7 75.3371 7.89491  -2
  -1   1   8 75.3371 7.89491   1
   0   1   8 133.348 5.32186  -2
   0   1   8 133.348 5.32186   1
   1   1   8 268.413 11.6052   2
  -1   1   9 404.256 26.8100  -2
   1   1   8 404.256 26.8100   1
   1   1   8 297.603 19.6273   1
   2   1   8 329.124 14.0271   2
  -2   1  10 840.130 53.4494  -2
   2   1   8 840.130 53.4494   1
   2   1   8 403.425 26.4870   1
   3   1   8 2.06753 3.14947   2
   3   1   8 -1.7130 4.62702   1
  -3   1  11 35.4231 8.68818  -2
   3   1   8 35.4231 8.68818   1
   4   1   8 2.19247 3.32327   1
   4   1   8 -2.0290 2.79889   2
   5   1   8 148.027 7.99780   2
   5   1   8 185.561 10.6004   1
   6   1   8 66.8820 5.12254   2
   6   1   8 85.7476 7.07002   1
   7   1   8 31.6311 5.17330   1
   7   1   8 29.1636 4.29746   2
  -9   2   8 47.7557 7.66052   2
  -9   2   8 37.1405 4.16565   1
  -8   2   8 19.8353 3.61165   1
  -8   2   8 20.2888 6.07749   2
  -7   2   8 46.2146 4.50630   2
  -7   2   8 44.0488 4.07320   1
  -6   2   8 13.2383 3.11289   1
  -6   2   8 11.9606 3.41048   2
  -5   2   8 209.145 10.0040   1
  -5   2   8 204.400 10.3183   2
  -4   2   8 43.7436 3.69699   1
  -4   2   8 40.9899 3.90361   2
   3   2   5 142.365 13.0975  -2
  -3   2   8 142.365 13.0975   1
  -3   2   8 0.44820 2.76085   1
  -3   2   8 4.01173 3.81346   2
  -2   2   8 231.546 10.1127   1
   2   2   6 196.345 15.0708  -2
  -2   2   8 196.345 15.0708   1
  -2   2   8 210.876 14.8913   2
  -1   2   8 100.213 5.16460   1
  -1   2   8 96.8212 5.06262   2
   1   2   7 112.444 10.0621  -2
  -1   2   8 112.444 10.0621   1
   0   2   8 2.58645 1.62503  -2
   0   2   8 2.58645 1.62503   1
   1   2   8 91.8148 6.67473   2
   1   2   8 97.7619 5.06650   1
  -1   2   9 118.614 10.8620  -2
   1   2   8 118.614 10.8620   1
   2   2   8 6.16416 2.08846   2
  -2   2  10 94.2310 10.6109  -2
   2   2   8 94.2310 10.6109   1
   2   2   8 3.09777 3.76791   1
   3   2   8 14.7403 4.72648   1
   3   2   8 12.6229 3.56078   2
  -3   2  11 178.626 15.5030  -2
   3   2   8 178.626 15.5030   1
   4   2   8 109.330 6.42901   2
   4   2   8 144.273 8.51966   1
   5   2   8 88.5639 6.79008   1
   5   2   8 67.6172 5.03614   2
   6   2   8 -0.6605 4.20800   1
   6   2   8 -1.3204 3.24311   2
   7   2   8 31.7698 4.41955   2
   7   2   8 46.1972 5.87193   1
  -9   3   8 40.3895 7.32331   2
  -9   3   8 40.0409 4.38031   1
  -8   3   8 5.92493 3.27235   1
  -8   3   8 3.33260 3.55330   2
  -7   3   8 151.242 8.15956   1
  -7   3   8 158.334 8.96092   2
  -6   3   8 49.2921 4.21456   1
  -6   3   8 48.5150 4.58372   2
  -5   3   8 56.7883 4.33582   1
  -5   3   8 59.0420 4.83003   2
  -4   3   8 23.6699 3.36087   1
  -4   3   8 23.8270 3.43167   2
   3   3   5 130.486 12.6885  -2
  -3   3   8 130.486 12.6885   1
  -3   3   8 105.357 9.12521   2
  -3   3   8 106.422 7.65278   1
  -2   3   8 95.2468 5.09030   1
  -2   3   8 93.4277 8.65681   2
   2   3   6 373.060 25.6061  -2
  -2   3   8 373.060 25.6061   1
   1   3   7 224.445 11.2102  -2
  -1   3   8 224.445 11.2102   1
  -1   3   8 53.5068 5.12958   1
   0   3   8 192.042 7.33815  -2
   0   3   8 192.042 7.33815   1
  -1   3   9 362.979 17.2094  -2
   1   3   8 362.979 17.2094   1
  -2   3  10 52.4052 9.27507  -2
   2   3   8 52.4052 9.27507   1
   2   3   8 35.3427 5.24381   1
   2   3   8 36.0397 4.37973   2
   3   3   8 73.5043 8.04722   1
   3   3   8 67.4716 6.49465   2
  -3   3  11 82.6257 11.2099  -2
   3   3   8 82.6257 11.2099   1
   4   3   8 143.845 8.75437   1
   4   3   8 121.883 7.21077   2
   5   3   8 4.28462 4.09271   1
   5   3   8 0.35762 3.33725   2
   6   3   8 5.01926 3.40977   2
   6   3   8 3.36950 4.29423   1
   7   3   8 93.2518 7.49845   1
   7   3   8 69.3201 5.53029   2
  -9   4   8 26.3062 3.90258   1
  -8   4   8 0.53551 3.71367   2
  -8   4   8 0.52347 3.46521   1
  -7   4   8 80.9225 6.14207   2
  -7   4   8 80.9124 5.91386   1
  -6   4   8 6.78735 3.11489   1
  -6   4   8 4.55205 3.43488   2
  -5   4   8 96.3989 6.03857   1
  -5   4   8 97.7731 6.59011   2
  -4   4   8 16.3771 3.14152   1
  -4   4   8 16.6046 3.21481   2
   3   4   5 403.286 27.9412  -2
  -3   4   8 403.286 27.9412   1
  -3   4   8 359.333 23.9974   2
  -3   4   8 379.146 21.6638   1
   2   4   6 214.717 17.0394  -2
  -2   4   8 214.717 17.0394   1
  -2   4   8 145.394 11.1847   2
  -2   4   8 161.365 10.2706   1
   1   4   7 86.8961 4.84205  -2
  -1   4   8 86.8961 4.84205   1
   0   4   8 71.7697 3.94224  -2
   0   4   8 71.7697 3.94224   1
  -1   4   9 407.369 19.2778  -2
   1   4   8 407.369 19.2778   1
  -2   4  10 11.2787 8.41854  -2
   2   4   8 11.2787 8.41854   1
   2   4   8 12.6645 3.88645   2
   2   4   8 8.75047 4.31728   1
   3   4   8 14.8598 5.39674   1
  -3   4  11 26.0999 11.0958  -2
   3   4   8 26.0999 11.0958   1
   3   4   8 21.6199 4.53159   2
   4   4   8 4.42702 3.85707   1
   4   4   8 -3.6986 3.25557   2
   5   4   8 -0.0263 3.27817   2
   5   4   8 -0.1994 3.90431   1
   6   4   8 90.8086 7.19028   1
   6   4   8 72.2924 5.62209   2
  -8   5   8 9.50964 3.51091   1
  -8   5   8 6.47495 3.95545   2
  -7   5   8 16.3929 3.62126   1
  -7   5   8 19.2050 4.06570   2
  -6   5   8 18.2247 3.88890   2
  -6   5   8 17.2490 3.54060   1
  -5   5   8 121.397 7.38180   2
  -5   5   8 127.812 7.20606   1
  -4   5   8 34.3632 3.96314   2
  -4   5   8 41.3401 4.08470   1
  -3   5   8 8.22085 4.57885   2
   3   5   5 79.3645 12.2950  -2
  -3   5   8 79.3645 12.2950   1
  -3   5   8 9.62335 4.13631   1
  -2   5   8 6.81517 3.80865   1
   2   5   6 14.8421 9.35686  -2
  -2   5   8 14.8421 9.35686   1
  -2   5   8 7.12490 4.28109   2
   1   5   7 173.153 7.52941  -2
  -1   5   8 173.153 7.52941   1
   0   5   8 728.626 32.7048  -2
   0   5   8 728.626 32.7048   1
  -1   5   9 290.571 14.6161  -2
   1   5   8 290.571 14.6161   1
  -2   5  10 17.8097 8.61624  -2
   2   5   8 17.8097 8.61624   1
   2   5   8 1.53567 4.80353   1
   2   5   8 4.02393 4.05442   2
  -3   5  11 92.7665 11.7713  -2
   3   5   8 92.7665 11.7713   1
   3   5   8 6.09600 4.28385   2
   3   5   8 1.77208 5.43049   1
   4   5   8 -3.5776 3.52222   2
   4   5   8 -2.2200 3.87411   1
   5   5   8 4.70611 3.70363   2
   5   5   8 -1.0425 4.24093   1
   6   5   8 6.42521 4.79068   2
  -8   6   8 0.57753 5.55578   1
  -8   6   8 0.70325 4.02473   2
  -7   6   8 26.1037 4.27429   2
  -7   6   8 27.1231 4.20409   1
  -6   6   8 3.76794 3.50352   1
  -6   6   8 2.39726 3.69765   2
  -5   6   8 5.51003 3.59312   2
  -5   6   8 9.26166 3.50873   1
  -4   6   8 15.7504 3.58325   1
  -4   6   8 15.8831 3.60625   2
  -3   6   8 110.423 8.93409   1
   3   6   5 92.8442 12.9946  -2
  -3   6   8 92.8442 12.9946   1
  -3   6   8 99.7215 10.1071   2
  -2   6   8 65.7656 7.52536   2
   2   6   6 74.2104 12.5403  -2
  -2   6   8 74.2104 12.5403   1
  -2   6   8 75.5929 7.40273   1
   1   6   7 209.292 11.6174  -2
  -1   6   8 209.292 11.6174   1
   0   6   8 291.435 14.4397  -2
   0   6   8 291.435 14.4397   1
  -1   6   9 72.4720 7.27938  -2
   1   6   8 72.4720 7.27938   1
  -2   6  10 264.210 20.2348  -2
   2   6   8 264.210 20.2348   1
   2   6   8 119.721 11.1603   1
   3   6   8 129.079 9.98101   2
   3   6   8 117.961 11.3483   1
  -3   6  11 261.283 20.0613  -2
   3   6   8 261.283 20.0613   1
   4   6   8 8.64780 4.10549   1
   4   6   8 8.77376 3.98705   2
   5   6   8 -3.4466 4.00142   1
   5   6   8 3.63701 3.76100   2
  -7   7   8 1.27623 4.06002   2
  -7   7   8 1.89477 3.45448   1
  -6   7   8 0.85225 3.92895   2
  -6   7   8 -0.4318 3.38856   1
  -5   7   8 6.63350 3.72228   2
  -5   7   8 4.07790 3.71846   1
  -4   7   8 84.1587 7.70978   1
  -4   7   8 61.4997 5.48339   2
   4   7   4 147.108 17.0942  -2
  -4   7   8 147.108 17.0942   1
  -3   7   8 3.26770 5.02372   2
  -3   7   8 3.00067 4.48926   1
   3   7   5 22.5919 14.0650  -2
  -3   7   8 22.5919 14.0650   1
  -2   7   8 4.10570 5.24260   2
   2   7   6 9.66751 10.6348  -2
  -2   7   8 9.66751 10.6348   1
  -2   7   8 0.22312 4.48991   1
   1   7   7 109.176 12.7808  -2
  -1   7   8 109.176 12.7808   1
   0   7   8 272.950 13.9915  -2
   0   7   8 272.950 13.9915   1
  -1   7   9 84.8058 7.98182  -2
   1   7   8 84.8058 7.98182   1
   2   7   8 184.307 15.0795   1
  -2   7  10 312.305 23.1422  -2
   2   7   8 312.305 23.1422   1
   3   7   8 127.090 12.3643   1
  -3   7  11 140.987 14.8390  -2
   3   7   8 140.987 14.8390   1
   4   7   8 -3.5835 4.08141   1
   4   7   8 -0.3847 7.03431   2
   5   7   8 8.22500 4.54044   2
  -6   8   8 6.56822 3.77516   1
  -6   8   8 6.79170 4.24825   2
  -5   8   8 13.7469 4.42473   2
  -5   8   8 15.0782 4.19581   1
  -4   8   8 6.10247 5.68869   2
   4   8   4 54.6009 16.6571  -2
  -4   8   8 54.6009 16.6571   1
  -4   8   8 4.05550 5.07531   1
  -3   8   8 23.8652 5.41728   1
   3   8   5 14.3915 14.6367  -2
  -3   8   8 14.3915 14.6367   1
  -3   8   8 15.7400 6.39643   2
   2   8   6 86.5182 14.3856  -2
  -2   8   8 86.5182 14.3856   1
   1   8   7 70.0056 12.6573  -2
  -1   8   8 70.0056 12.6573   1
   0   8   8 104.298 7.41195  -2
   0   8   8 104.298 7.41195   1
  -1   8   9 43.9988 7.30340  -2
   1   8   8 43.9988 7.30340   1
  -2   8  10 155.883 15.3270  -2
   2   8   8 155.883 15.3270   1
   2   8   8 125.877 12.5631   1
  -3   8  11 0.01317 12.1438  -2
   3   8   8 0.01317 12.1438   1
   3   8   8 4.48630 6.49667   1
  -5   9   8 4.10879 5.02254   1
  -5   9   8 0.06755 5.93707   2
  -4   9   8 14.1962 4.46747   2
  -4   9   8 15.2674 4.32779   1
   3   9   5 12.9549 16.6122  -2
  -3   9   8 12.9549 16.6122   1
  -3   9   8 1.26727 6.16228   2
   2   9   6 110.756 16.0023  -2
  -2   9   8 110.756 16.0023   1
   1   9   7 36.5208 12.3373  -2
  -1   9   8 36.5208 12.3373   1
   0   9   8 11.9067 7.19897  -2
   0   9   8 11.9067 7.19897   1
  -1   9   9 31.4456 7.46513  -2
   1   9   8 31.4456 7.46513   1
  -2   9  10 134.090 10.4076  -2
   2   9   8 134.090 10.4076   1
   0  10   8 57.9696 9.57624  -2
   0  10   8 57.9696 9.57624   1
   1 -12   8 31.8327 7.34799  -2
  -1 -12   9 31.8327 7.34799   1
   3 -11   6 102.810 12.0160  -2
  -3 -11   9 102.810 12.0160   1
   2 -11   7 140.289 8.79872  -2
  -2 -11   9 140.289 8.79872   1
   1 -11   8 32.1515 5.45588  -2
  -1 -11   9 32.1515 5.45588   1
   0 -11   9 12.0880 3.61738  -2
   0 -11   9 12.0880 3.61738   1
  -1 -11  10 17.9734 5.05813  -2
   1 -11   9 17.9734 5.05813   1
  -2 -11  11 6.01498 5.33178  -2
   2 -11   9 6.01498 5.33178   1
  -5 -10   9 79.6215 8.82112   1
  -4 -10   9 16.5283 6.02986   1
  -4 -10   9 12.2598 3.45120   2
   3 -10   6 23.7244 6.85909  -2
  -3 -10   9 23.7244 6.85909   1
   2 -10   7 127.934 8.28820  -2
  -2 -10   9 127.934 8.28820   1
   1 -10   8 17.7860 4.95913  -2
  -1 -10   9 17.7860 4.95913   1
   0 -10   9 81.6060 5.78310  -2
   0 -10   9 81.6060 5.78310   1
  -1 -10  10 28.0929 5.15446  -2
   1 -10   9 28.0929 5.15446   1
  -2 -10  11 7.23177 5.35780  -2
   2 -10   9 7.23177 5.35780   1
  -3 -10  12 -2.5359 6.58154  -2
   3 -10   9 -2.5359 6.58154   1
   4 -10   9 0.31135 3.73407   2
   4 -10   9 -1.9523 3.55217   1
   5 -10   9 37.4323 6.37248   1
   5 -10   9 38.7404 4.12305   2
  -6  -9   9 47.1418 7.16654   1
  -6  -9   9 35.6112 5.39589   2
  -5  -9   9 16.3222 5.86549   1
  -5  -9   9 16.6265 4.66073   2
  -4  -9   9 5.46378 3.16543   2
  -4  -9   9 3.22045 3.34537   1
   3  -9   6 139.957 8.97374  -2
  -3  -9   9 139.957 8.97374   1
   2  -9   7 134.046 8.31462  -2
  -2  -9   9 134.046 8.31462   1
   1  -9   8 151.738 8.28109  -2
  -1  -9   9 151.738 8.28109   1
   0  -9   9 64.9344 5.03064  -2
   0  -9   9 64.9344 5.03064   1
  -1  -9  10 96.1571 6.45287  -2
   1  -9   9 96.1571 6.45287   1
  -2  -9  11 62.9993 6.24771  -2
   2  -9   9 62.9993 6.24771   1
  -3  -9  12 -7.4253 6.49623  -2
   3  -9   9 -7.4253 6.49623   1
   4  -9   9 -0.5269 3.41911   2
   4  -9   9 -0.0349 3.59460   1
   5  -9   9 32.8566 5.81255   2
   5  -9   9 26.7503 4.14507   1
   6  -9   9 1.42100 3.15557   1
  -7  -8   9 32.2588 5.34792   2
  -6  -8   9 -6.4188 4.94773   1
  -6  -8   9 4.66170 4.29824   2
  -5  -8   9 11.5779 3.36155   1
  -5  -8   9 5.74388 2.92018   2
  -4  -8   9 102.814 5.98977   2
  -4  -8   9 118.605 7.26064   1
   3  -8   6 327.849 15.3613  -2
  -3  -8   9 327.849 15.3613   1
   2  -8   7 17.8147 4.81052  -2
  -2  -8   9 17.8147 4.81052   1
   1  -8   8 24.1842 4.48996  -2
  -1  -8   9 24.1842 4.48996   1
   0  -8   9 84.1616 5.52426  -2
   0  -8   9 84.1616 5.52426   1
  -1  -8  10 126.794 7.36559  -2
   1  -8   9 126.794 7.36559   1
  -2  -8  11 67.9443 6.26360  -2
   2  -8   9 67.9443 6.26360   1
  -3  -8  12 23.6781 6.56914  -2
   3  -8   9 23.6781 6.56914   1
   4  -8   9 4.27400 3.45015   2
   4  -8   9 0.05625 3.35958   1
   5  -8   9 4.42632 3.49188   1
   5  -8   9 2.61974 4.81852   2
   6  -8   9 9.91089 5.02268   2
   6  -8   9 12.9505 3.88943   1
  -7  -7   9 38.8746 5.36270   2
  -6  -7   9 15.1052 4.40337   2
  -6  -7   9 16.0462 5.17607   1
  -5  -7   9 7.76454 2.85299   2
  -5  -7   9 8.03115 3.30976   1
  -4  -7   9 15.2284 3.10726   2
  -4  -7   9 15.0067 3.54020   1
   3  -7   6 340.774 15.8024  -2
  -3  -7   9 340.774 15.8024   1
   2  -7   7 163.447 8.88709  -2
  -2  -7   9 163.447 8.88709   1
   1  -7   8 62.4686 5.06141  -2
  -1  -7   9 62.4686 5.06141   1
   0  -7   9 155.741 8.04678  -2
   0  -7   9 155.741 8.04678   1
  -1  -7  10 339.462 14.9997  -2
   1  -7   9 339.462 14.9997   1
  -2  -7  11 42.3106 5.60690  -2
   2  -7   9 42.3106 5.60690   1
  -3  -7  12 64.0668 6.54937  -2
   3  -7   9 64.0668 6.54937   1
   4  -7   9 17.2086 3.46013   2
   4  -7   9 17.8938 3.64703   1
   5  -7   9 22.3565 4.02758   1
   5  -7   9 24.8417 5.42028   2
   6  -7   9 -2.5824 4.88246   2
   6  -7   9 -1.4752 3.46683   1
  -8  -6   9 1.98558 3.82598   2
  -7  -6   9 60.2323 6.04838   2
  -6  -6   9 66.6334 4.86909   1
  -6  -6   9 50.2031 5.25909   2
  -5  -6   9 9.96888 3.04743   2
  -5  -6   9 12.6281 3.23713   1
  -4  -6   9 11.9263 3.28752   1
  -4  -6   9 9.56849 2.74979   2
   3  -6   6 12.3731 5.82697  -2
  -3  -6   9 12.3731 5.82697   1
   2  -6   7 265.424 12.4931  -2
  -2  -6   9 265.424 12.4931   1
   1  -6   8 179.312 8.89944  -2
  -1  -6   9 179.312 8.89944   1
   0  -6   9 314.945 13.9280  -2
   0  -6   9 314.945 13.9280   1
  -1  -6  10 23.0485 4.27714  -2
   1  -6   9 23.0485 4.27714   1
  -2  -6  11 144.913 8.23623  -2
   2  -6   9 144.913 8.23623   1
  -3  -6  12 793.616 33.2422  -2
   3  -6   9 793.616 33.2422   1
   4  -6   9 -0.3222 2.83204   2
   4  -6   9 -1.1009 3.21836   1
   5  -6   9 21.4867 3.82057   1
   5  -6   9 18.8655 4.76968   2
   6  -6   9 4.63613 5.52600   1
   7  -6   9 37.1304 6.76504   1
   7  -6   9 33.8565 6.80470   2
  -9  -5   9 4.94440 4.08874   2
  -8  -5   9 27.0963 4.72677   2
  -8  -5   9 36.5425 6.15339   1
  -7  -5   9 44.0727 6.22376   1
  -7  -5   9 40.0008 4.78057   2
  -6  -5   9 22.3032 3.64274   1
  -6  -5   9 27.5454 3.34062   2
  -5  -5   9 41.6056 3.03520   1
  -5  -5   9 39.3758 3.60052   2
  -4  -5   9 29.9023 3.30513   2
  -4  -5   9 25.6596 2.50797   1
  -3  -5   9 39.1927 3.18176   1
   3  -5   6 94.1566 9.05190  -2
  -3  -5   9 94.1566 9.05190   1
  -3  -5   9 31.5050 4.93884   2
   2  -5   7 103.933 6.71801  -2
  -2  -5   9 103.933 6.71801   1
   1  -5   8 257.203 11.6532  -2
  -1  -5   9 257.203 11.6532   1
   0  -5   9 1157.65 47.3208  -2
   0  -5   9 1157.65 47.3208   1
  -1  -5  10 187.191 9.08444  -2
   1  -5   9 187.191 9.08444   1
  -2  -5  11 104.064 6.80074  -2
   2  -5   9 104.064 6.80074   1
   3  -5   9 117.952 10.7415   1
  -3  -5  12 151.867 11.4219  -2
   3  -5   9 151.867 11.4219   1
   4  -5   9 6.31097 3.24031   1
   4  -5   9 5.68663 2.60284   2
   5  -5   9 118.732 9.83992   2
   5  -5   9 128.406 7.36560   1
   6  -5   9 8.04389 5.26393   2
   6  -5   9 9.22334 5.97151   1
   7  -5   9 36.9860 7.13728   1
   7  -5   9 30.2121 6.04785   2
  -9  -4   9 11.6987 5.86443   1
  -8  -4   9 -1.1618 5.08790   1
  -8  -4   9 3.89493 3.09604   2
  -7  -4   9 59.2770 4.69839   1
  -7  -4   9 55.8436 4.25961   2
  -6  -4   9 122.755 6.94558   1
  -6  -4   9 109.016 5.19489   2
  -5  -4   9 37.1898 2.87575   1
  -5  -4   9 35.6270 2.80716   2
  -4  -4   9 96.7392 4.71167   1
  -4  -4   9 89.1270 5.34924   2
  -3  -4   9 5.85665 2.19156   1
   3  -4   6 16.5534 5.90914  -2
  -3  -4   9 16.5534 5.90914   1
  -3  -4   9 5.09064 2.52756   2
   2  -4   7 116.136 6.87835  -2
  -2  -4   9 116.136 6.87835   1
  -2  -4   9 32.4181 3.20000   1
   1  -4   8 160.994 6.47581  -2
  -1  -4   9 160.994 6.47581   1
   0  -4   9 451.449 19.0905  -2
   0  -4   9 451.449 19.0905   1
  -1  -4  10 49.1366 4.35165  -2
   1  -4   9 49.1366 4.35165   1
  -2  -4  11 617.901 26.0042  -2
   2  -4   9 617.901 26.0042   1
  -3  -4  12 346.285 20.4027  -2
   3  -4   9 346.285 20.4027   1
   3  -4   9 132.131 11.7763   1
   3  -4   9 134.972 10.4903   2
   4  -4   9 1.14257 2.81317   2
   4  -4   9 -1.2579 2.78577   1
   5  -4   9 285.716 20.4922   1
   5  -4   9 261.199 12.3609   2
   6  -4   9 5.00771 6.01119   1
   6  -4   9 0.12159 3.63541   2
   7  -4   9 5.06772 6.04610   1
   7  -4   9 5.09826 5.63605   2
  -9  -3   9 74.6880 8.54193   1
  -9  -3   9 68.1202 8.23850   2
  -8  -3   9 3.41759 3.10819   1
  -8  -3   9 1.58442 4.88536   2
  -7  -3   9 25.2736 3.24276   2
  -7  -3   9 23.9811 3.53828   1
  -6  -3   9 141.560 6.23196   2
  -6  -3   9 158.476 8.32635   1
  -5  -3   9 46.2066 3.00541   2
  -5  -3   9 40.0829 3.94139   1
  -4  -3   9 119.046 5.29129   1
  -4  -3   9 119.009 6.28772   2
  -3  -3   9 11.3779 4.46673   2
  -3  -3   9 14.1335 1.93184   1
   2  -3   7 203.797 8.16865  -2
  -2  -3   9 203.797 8.16865   1
  -2  -3   9 129.440 10.4663   2
   1  -3   8 228.871 8.69526  -2
  -1  -3   9 228.871 8.69526   1
   0  -3   9 56.3673 3.12426  -2
   0  -3   9 56.3673 3.12426   1
  -1  -3  10 91.4942 4.61451  -2
   1  -3   9 91.4942 4.61451   1
  -2  -3  11 2359.53 80.1046  -2
   2  -3   9 2359.53 80.1046   1
  -3  -3  12 127.511 7.47201  -2
   3  -3   9 127.511 7.47201   1
   3  -3   9 62.2820 4.35692   2
   3  -3   9 70.0559 8.19686   1
   4  -3   9 52.8788 3.37568   1
   4  -3   9 48.0045 4.15521   2
   5  -3   9 131.928 8.01846   2
   5  -3   9 154.693 8.94309   1
   6  -3   9 3.60587 3.67909   2
   6  -3   9 15.0035 6.71091   1
   7  -3   9 98.7134 11.1122   1
   7  -3   9 75.4673 6.13949   2
   8  -3   9 0.23279 5.70984   2
   8  -3   9 3.13168 5.78679   1
  -9  -2   9 49.9521 7.41462   1
  -9  -2   9 58.5690 7.50482   2
  -8  -2   9 -0.7870 2.93214   1
  -8  -2   9 4.27089 4.84190   2
  -7  -2   9 37.2065 4.12167   2
  -7  -2   9 30.8319 3.76819   1
  -6  -2   9 6.49052 2.21708   2
  -6  -2   9 7.96754 3.10298   1
  -5  -2   9 21.9377 3.25267   1
  -5  -2   9 21.3862 2.89274   2
  -4  -2   9 954.742 32.7383   2
  -4  -2   9 977.015 42.9826   1
  -3  -2   9 19.5317 1.92905   1
  -3  -2   9 15.9358 4.65891   2
  -2  -2   9 8.04520 4.06039   2
   2  -2   7 454.412 20.5237  -2
  -2  -2   9 454.412 20.5237   1
   1  -2   8 46.7661 3.56834  -2
  -1  -2   9 46.7661 3.56834   1
   0  -2   9 12.6873 1.80753  -2
   0  -2   9 12.6873 1.80753   1
  -1  -2  10 67.2202 4.15085  -2
   1  -2   9 67.2202 4.15085   1
   2  -2   9 159.374 12.7992   1
  -2  -2  11 1049.65 43.0858  -2
   2  -2   9 1049.65 43.0858   1
   2  -2   9 146.935 10.0042   2
  -3  -2  12 229.681 17.4436  -2
   3  -2   9 229.681 17.4436   1
   3  -2   9 173.760 7.04894   2
   3  -2   9 212.704 9.88342   1
   4  -2   9 452.267 19.7057   2
   4  -2   9 627.822 40.8482   1
  -4  -2  13 655.549 42.3948  -2
   4  -2   9 655.549 42.3948   1
   5  -2   9 30.9272 4.04391   2
   5  -2   9 41.2700 4.55545   1
   6  -2   9 5.29098 3.82588   2
   6  -2   9 6.22174 3.83388   1
   7  -2   9 101.567 7.67691   1
   7  -2   9 80.1287 6.18352   2
   8  -2   9 0.83698 5.68106   2
  -9  -1   9 9.48195 3.27579   1
  -9  -1   9 16.6259 5.76766   2
  -8  -1   9 -1.5739 2.98945   1
  -8  -1   9 3.17055 5.06726   2
  -7  -1   9 189.568 10.1298   2
  -7  -1   9 171.861 8.71756   1
  -6  -1   9 -1.2689 2.88410   1
  -6  -1   9 -2.3985 4.87596   2
  -5  -1   9 43.7186 3.02948   2
  -5  -1   9 41.9670 3.81863   1
  -4  -1   9 208.636 9.97870   1
  -4  -1   9 223.693 8.48304   2
  -3  -1   9 71.7768 4.25640   2
  -3  -1   9 62.4502 4.07511   1
  -2  -1   9 1752.88 108.417   2
  -2  -1   9 1630.02 66.0363   1
   2  -1   7 3358.73 207.959  -2
  -2  -1   9 3358.73 207.959   1
   1  -1   8 198.658 7.82616  -2
  -1  -1   9 198.658 7.82616   1
   0  -1   9 495.281 17.4010  -2
   0  -1   9 495.281 17.4010   1
  -1  -1  10 124.430 5.68660  -2
   1  -1   9 124.430 5.68660   1
   2  -1   9 3.56244 2.06604   2
   2  -1   9 3.92094 4.02705   1
  -2  -1  11 22.0884 4.45636  -2
   2  -1   9 22.0884 4.45636   1
   3  -1   9 56.0903 7.43264   1
   3  -1   9 44.1195 5.24728   2
  -3  -1  12 152.384 13.4439  -2
   3  -1   9 152.384 13.4439   1
   4  -1   9 224.129 10.7645   2
  -4  -1  13 776.674 50.0820  -2
   4  -1   9 776.674 50.0820   1
   4  -1   9 335.782 23.6100   1
   5  -1   9 34.5693 4.08184   2
   5  -1   9 47.1394 4.91468   1
   6  -1   9 50.5023 4.74476   2
   6  -1   9 70.1909 5.92568   1
   7  -1   9 23.0891 4.79806   1
   7  -1   9 17.3597 4.05079   2
   8  -1   9 1.80443 5.19717   1
  -9   0   9 6.88545 3.32673   1
  -8   0   9 13.1002 3.36813   1
  -7   0   9 21.8595 3.55141   1
  -7   0   9 26.6409 4.01443   2
  -6   0   9 13.5934 3.36617   2
  -6   0   9 8.57859 3.14044   1
  -5   0   9 256.120 11.8576   1
  -5   0   9 260.276 12.8208   2
  -4   0   9 2.60543 2.81620   2
  -4   0   9 2.46021 2.46374   1
  -3   0   9 72.4943 4.14797   2
   3   0   6 73.0688 9.98948  -2
  -3   0   9 73.0688 9.98948   1
  -3   0   9 63.1987 3.74362   1
  -2   0   9 1950.51 78.8801   2
  -2   0   9 1714.05 69.5119   1
   2   0   7 2109.92 131.352  -2
  -2   0   9 2109.92 131.352   1
  -1   0   9 419.758 27.1197   2
   1   0   8 508.696 21.4971  -2
  -1   0   9 508.696 21.4971   1
  -1   0   9 423.932 26.8099   1
   0   0   9 300.011 10.7762  -2
   0   0   9 300.011 10.7762   1
  -1   0  10 83.0206 4.44650  -2
   1   0   9 83.0206 4.44650   1
   2   0   9 168.703 7.87609   1
  -2   0  11 191.339 15.1489  -2
   2   0   9 191.339 15.1489   1
   2   0   9 134.435 6.58647   2
   3   0   9 23.8086 4.12468   2
  -3   0  12 75.4799 10.0006  -2
   3   0   9 75.4799 10.0006   1
   3   0   9 35.5492 6.20382   1
   4   0   9 23.6159 3.95394   1
   4   0   9 16.1414 3.32495   2
   5   0   9 52.2410 4.63994   2
   5   0   9 84.5948 6.33197   1
   6   0   9 115.728 8.23567   1
   6   0   9 85.3853 6.11851   2
   7   0   9 4.23924 3.70889   2
   7   0   9 6.38443 4.50962   1
  -9   1   9 11.9945 3.51666   1
  -9   1   9 9.42768 6.27474   2
  -8   1   9 4.48557 3.27935   1
  -8   1   9 1.48764 5.45123   2
  -7   1   9 4.94559 3.51867   2
  -7   1   9 3.93546 3.05618   1
  -6   1   9 27.0632 3.95706   2
  -6   1   9 22.4372 3.49546   1
  -5   1   9 118.607 7.21352   2
  -5   1   9 117.441 6.78014   1
  -4   1   9 75.1598 5.38948   2
  -4   1   9 68.3956 4.95246   1
   3   1   6 296.786 21.3521  -2
  -3   1   9 296.786 21.3521   1
  -3   1   9 144.513 11.8762   2
  -3   1   9 153.400 9.95078   1
  -2   1   9 248.476 10.8799   2
  -2   1   9 221.120 9.73954   1
   2   1   7 242.896 17.8766  -2
  -2   1   9 242.896 17.8766   1
   1   1   8 362.754 24.5361  -2
  -1   1   9 362.754 24.5361   1
  -1   1   9 30.4049 2.63204   1
   0   1   9 3661.65 123.350  -2
   0   1   9 3661.65 123.350   1
  -1   1  10 209.836 15.6293  -2
   1   1   9 209.836 15.6293   1
   1   1   9 187.294 8.52496   1
   1   1   9 154.297 9.76281   2
   2   1   9 311.785 13.4190   2
  -2   1  11 801.523 51.3196  -2
   2   1   9 801.523 51.3196   1
   2   1   9 393.701 25.8254   1
  -3   1  12 78.5132 10.6260  -2
   3   1   9 78.5132 10.6260   1
   3   1   9 7.59957 4.64092   1
   3   1   9 5.74097 3.31531   2
   4   1   9 5.46819 3.57455   1
   4   1   9 1.51244 3.07534   2
   5   1   9 1.36908 4.01795   1
   5   1   9 -2.4602 3.26380   2
   6   1   9 7.00494 3.59419   2
   6   1   9 6.97626 4.53716   1
   7   1   9 12.4038 4.90362   1
   7   1   9 8.83371 3.79681   2
  -9   2   9 3.98451 3.38612   1
  -9   2   9 8.20150 6.31122   2
  -8   2   9 1.46085 3.60393   2
  -8   2   9 0.62043 3.06642   1
  -7   2   9 20.2977 3.94632   2
  -7   2   9 20.1992 3.47518   1
  -6   2   9 109.140 7.00308   2
  -6   2   9 113.325 6.61744   1
  -5   2   9 12.8518 3.10647   1
  -5   2   9 8.92536 3.45235   2
  -4   2   9 -1.1482 2.48589   1
  -4   2   9 2.25633 2.72221   2
  -3   2   9 470.135 30.5312   2
   3   2   6 539.398 35.8341  -2
  -3   2   9 539.398 35.8341   1
  -3   2   9 493.431 27.6281   1
  -2   2   9 150.001 7.15657   1
  -2   2   9 122.203 9.80821   2
   2   2   7 479.524 31.8516  -2
  -2   2   9 479.524 31.8516   1
  -1   2   9 7.59262 2.14918   2
   1   2   8 112.151 6.72952  -2
  -1   2   9 112.151 6.72952   1
  -1   2   9 8.10769 2.80007   1
   0   2   9 1821.95 73.7462  -2
   0   2   9 1821.95 73.7462   1
  -1   2  10 20.8387 4.89830  -2
   1   2   9 20.8387 4.89830   1
   1   2   9 20.1213 3.36413   2
  -2   2  11 582.936 38.2218  -2
   2   2   9 582.936 38.2218   1
   2   2   9 325.665 18.7841   2
   2   2   9 338.164 22.6629   1
   3   2   9 7.11291 3.72736   2
   3   2   9 6.74946 4.96424   1
  -3   2  12 61.2517 11.5099  -2
   3   2   9 61.2517 11.5099   1
   4   2   9 366.570 16.2873   2
   4   2   9 485.942 22.7770   1
   5   2   9 50.3903 5.27769   1
   5   2   9 37.4000 4.17674   2
   6   2   9 9.00156 4.79029   1
   6   2   9 3.42454 3.50653   2
   7   2   9 1.06298 3.37742   2
   7   2   9 -1.0903 4.83454   1
  -9   3   9 88.6940 6.32091   1
  -9   3   9 88.8661 10.0978   2
  -8   3   9 25.4318 4.31027   2
  -8   3   9 19.7738 3.81885   1
  -7   3   9 0.68523 3.30659   1
  -7   3   9 3.68179 3.68502   2
  -6   3   9 29.1328 4.06293   2
  -6   3   9 28.4242 3.57535   1
  -5   3   9 4.24655 2.95578   1
  -5   3   9 7.07361 3.40781   2
  -4   3   9 116.731 6.65152   1
  -4   3   9 118.862 7.02269   2
  -3   3   9 35.9812 5.86406   2
  -3   3   9 37.6853 4.66673   1
   3   3   6 111.475 12.2240  -2
  -3   3   9 111.475 12.2240   1
  -2   3   9 255.832 11.2659   1
  -2   3   9 219.025 15.4169   2
   2   3   7 608.433 39.9128  -2
  -2   3   9 608.433 39.9128   1
   1   3   8 441.683 20.3112  -2
  -1   3   9 441.683 20.3112   1
  -1   3   9 399.461 22.4785   1
   0   3   9 286.807 10.4240  -2
   0   3   9 286.807 10.4240   1
  -1   3  10 213.220 11.1840  -2
   1   3   9 213.220 11.1840   1
  -2   3  11 848.858 54.5016  -2
   2   3   9 848.858 54.5016   1
   2   3   9 421.517 27.4999   1
   2   3   9 425.867 24.1212   2
   3   3   9 27.8268 5.84675   1
   3   3   9 26.6803 4.16705   2
  -3   3  12 53.8133 10.7407  -2
   3   3   9 53.8133 10.7407   1
   4   3   9 2.42360 3.08713   2
   4   3   9 4.92170 3.74978   1
   5   3   9 4.79184 3.27993   2
   5   3   9 1.97153 4.06938   1
   6   3   9 44.6850 5.66980   1
   6   3   9 38.5992 4.39351   2
  -8   4   9 17.6151 4.25001   2
  -8   4   9 16.0439 3.84001   1
  -7   4   9 76.9401 5.50733   1
  -7   4   9 91.2814 6.80064   2
  -6   4   9 72.5837 5.64919   2
  -6   4   9 73.8812 5.32988   1
  -5   4   9 11.6963 3.54559   2
  -5   4   9 10.0877 3.34649   1
  -4   4   9 78.4587 5.57337   1
  -4   4   9 84.5501 6.23160   2
   3   4   6 11.8304 9.86124  -2
  -3   4   9 11.8304 9.86124   1
  -3   4   9 44.4518 4.88994   1
  -3   4   9 45.5783 6.35000   2
   2   4   7 4.47708 8.92126  -2
  -2   4   9 4.47708 8.92126   1
  -2   4   9 1.23624 4.32992   2
  -2   4   9 6.16635 3.57090   1
   1   4   8 456.858 16.3471  -2
  -1   4   9 456.858 16.3471   1
   0   4   9 355.868 16.7197  -2
   0   4   9 355.868 16.7197   1
  -1   4  10 170.208 9.81233  -2
   1   4   9 170.208 9.81233   1
   2   4   9 83.9231 7.29522   2
   2   4   9 78.9512 8.62252   1
  -2   4  11 212.596 16.9453  -2
   2   4   9 212.596 16.9453   1
  -3   4  12 105.358 12.5849  -2
   3   4   9 105.358 12.5849   1
   3   4   9 25.8360 5.92303   1
   3   4   9 36.0083 5.06955   2
   4   4   9 90.7302 6.91028   1
   4   4   9 64.8112 5.17873   2
   5   4   9 12.6008 3.74063   2
   5   4   9 10.7340 4.46531   1
   6   4   9 43.3482 5.77578   1
   6   4   9 37.5541 4.32413   2
  -8   5   9 4.63298 3.53156   1
  -8   5   9 0.87649 3.97417   2
  -7   5   9 133.387 8.38032   2
  -7   5   9 130.887 7.72406   1
  -6   5   9 87.5247 6.50831   2
  -6   5   9 90.2662 6.30953   1
  -5   5   9 19.5803 3.73481   1
  -5   5   9 19.1119 3.64296   2
  -4   5   9 137.454 8.21245   2
  -4   5   9 136.678 7.82466   1
  -3   5   9 19.9640 4.44167   1
   3   5   6 19.5327 10.9844  -2
  -3   5   9 19.5327 10.9844   1
  -3   5   9 16.7782 5.36991   2
  -2   5   9 42.5987 5.38529   1
   2   5   7 155.409 14.8645  -2
  -2   5   9 155.409 14.8645   1
  -2   5   9 40.4128 6.10745   2
   1   5   8 296.179 11.3188  -2
  -1   5   9 296.179 11.3188   1
   0   5   9 303.332 14.7901  -2
   0   5   9 303.332 14.7901   1
  -1   5  10 160.268 9.69545  -2
   1   5   9 160.268 9.69545   1
   2   5   9 15.1207 5.45839   1
  -2   5  11 59.4652 10.7679  -2
   2   5   9 59.4652 10.7679   1
   2   5   9 27.5533 5.03585   2
   3   5   9 23.3977 4.87359   2
  -3   5  12 16.9289 10.5887  -2
   3   5   9 16.9289 10.5887   1
   3   5   9 27.0475 6.32179   1
   4   5   9 50.2757 5.36281   1
   4   5   9 45.9026 4.66130   2
   5   5   9 -2.4043 4.29257   1
   5   5   9 0.49263 3.42519   2
  -8   6   9 0.17405 5.77753   2
  -7   6   9 38.8509 4.94259   2
  -7   6   9 38.9082 4.43504   1
  -6   6   9 8.80212 3.86452   2
  -6   6   9 9.57977 3.49088   1
  -5   6   9 138.206 8.34830   2
  -5   6   9 150.905 8.45275   1
  -4   6   9 129.081 7.98608   2
  -4   6   9 137.359 8.07158   1
   3   6   6 21.1050 12.3378  -2
  -3   6   9 21.1050 12.3378   1
  -3   6   9 4.04634 4.79314   2
  -3   6   9 3.07122 4.36946   1
  -2   6   9 61.3236 7.56525   2
  -2   6   9 77.8803 7.21753   1
   2   6   7 188.445 17.6899  -2
  -2   6   9 188.445 17.6899   1
   1   6   8 92.9686 11.7349  -2
  -1   6   9 92.9686 11.7349   1
   0   6   9 4.60442 3.86745  -2
   0   6   9 4.60442 3.86745   1
  -1   6  10 23.8072 6.04315  -2
   1   6   9 23.8072 6.04315   1
   2   6   9 42.2994 6.70722   1
  -2   6  11 96.6424 12.2436  -2
   2   6   9 96.6424 12.2436   1
   3   6   9 -1.2769 5.49999   1
  -3   6  12 -9.0798 11.7260  -2
   3   6   9 -9.0798 11.7260   1
   4   6   9 2.25192 3.78549   2
   4   6   9 -4.6409 3.95893   1
   5   6   9 24.5804 5.23104   2
  -7   7   9 11.1908 4.37351   2
  -7   7   9 17.3011 6.28966   1
  -6   7   9 3.25688 4.10452   2
  -6   7   9 6.97753 3.73237   1
  -5   7   9 123.509 7.86869   1
  -5   7   9 110.972 7.76340   2
   4   7   5 194.899 19.7218  -2
  -4   7   9 194.899 19.7218   1
  -4   7   9 89.7058 8.67308   1
  -4   7   9 87.7975 6.78015   2
   3   7   6 17.6707 14.5306  -2
  -3   7   9 17.6707 14.5306   1
  -3   7   9 27.1679 5.38889   1
  -3   7   9 21.6048 6.20517   2
  -2   7   9 44.3156 7.04157   2
   2   7   7 92.9439 13.2497  -2
  -2   7   9 92.9439 13.2497   1
   1   7   8 114.833 13.1514  -2
  -1   7   9 114.833 13.1514   1
   0   7   9 10.4074 4.28962  -2
   0   7   9 10.4074 4.28962   1
  -1   7  10 76.0611 7.52133  -2
   1   7   9 76.0611 7.52133   1
   2   7   9 0.33553 5.13988   1
  -2   7  11 -2.3200 9.93693  -2
   2   7   9 -2.3200 9.93693   1
  -3   7  12 62.4570 13.3364  -2
   3   7   9 62.4570 13.3364   1
   3   7   9 -2.9946 5.80908   1
   4   7   9 6.30075 7.35428   2
  -6   8   9 -4.1264 5.87763   2
  -6   8   9 2.08431 3.81431   1
  -5   8   9 45.3858 5.02626   1
  -5   8   9 41.1227 5.12020   2
  -4   8   9 -2.9786 4.90495   1
   4   8   5 1.42906 15.9383  -2
  -4   8   9 1.42906 15.9383   1
  -4   8   9 0.47556 6.14082   2
  -3   8   9 124.347 12.3401   2
   3   8   6 174.257 18.9122  -2
  -3   8   9 174.257 18.9122   1
   2   8   7 127.709 16.1868  -2
  -2   8   9 127.709 16.1868   1
  -2   8   9 71.8978 8.56640   2
   1   8   8 59.8529 11.4039  -2
  -1   8   9 59.8529 11.4039   1
   0   8   9 35.7060 7.76038  -2
   0   8   9 35.7060 7.76038   1
  -1   8  10 61.1246 7.83342  -2
   1   8   9 61.1246 7.83342   1
  -2   8  11 19.0250 7.90810  -2
   2   8   9 19.0250 7.90810   1
  -5   9   9 15.9198 6.89918   1
  -4   9   9 5.05130 7.73297   1
  -4   9   9 5.90050 6.08136   2
  -3   9   9 29.0690 7.31955   2
   3   9   6 111.496 18.0912  -2
  -3   9   9 111.496 18.0912   1
   2   9   7 30.6203 13.9432  -2
  -2   9   9 30.6203 13.9432   1
   1   9   8 50.2396 12.7293  -2
  -1   9   9 50.2396 12.7293   1
   0   9   9 56.9139 8.98625  -2
   0   9   9 56.9139 8.98625   1
  -1   9  10 54.5092 11.1169  -2
   1   9   9 54.5092 11.1169   1
   3 -11   7 22.4848 6.76494  -2
  -3 -11  10 22.4848 6.76494   1
   2 -11   8 121.377 8.37617  -2
  -2 -11  10 121.377 8.37617   1
   1 -11   9 21.5855 5.30802  -2
  -1 -11  10 21.5855 5.30802   1
   0 -11  10 24.9520 4.01056  -2
   0 -11  10 24.9520 4.01056   1
  -1 -11  11 56.0306 5.85215  -2
   1 -11  10 56.0306 5.85215   1
  -2 -11  12 11.3888 7.63222  -2
   2 -11  10 11.3888 7.63222   1
  -5 -10  10 1.94226 5.51984   1
  -4 -10  10 8.34574 3.44758   2
  -4 -10  10 7.81225 5.51863   1
   3 -10   7 23.2739 6.99815  -2
  -3 -10  10 23.2739 6.99815   1
   2 -10   8 193.621 10.4559  -2
  -2 -10  10 193.621 10.4559   1
   1 -10   9 32.3182 5.36872  -2
  -1 -10  10 32.3182 5.36872   1
   0 -10  10 154.389 8.20641  -2
   0 -10  10 154.389 8.20641   1
  -1 -10  11 13.1079 5.07008  -2
   1 -10  10 13.1079 5.07008   1
  -2 -10  12 1.41042 5.57770  -2
   2 -10  10 1.41042 5.57770   1
  -3 -10  13 65.2055 7.23759  -2
   3 -10  10 65.2055 7.23759   1
   4 -10  10 24.5515 4.23537   2
   4 -10  10 25.2183 4.27327   1
  -6  -9  10 23.2950 6.07669   1
  -6  -9  10 20.1679 4.98519   2
  -5  -9  10 -2.8947 4.27133   2
  -5  -9  10 4.90952 5.42607   1
  -4  -9  10 8.33378 3.46160   1
  -4  -9  10 5.88449 3.12010   2
   3  -9   7 48.6811 6.74337  -2
  -3  -9  10 48.6811 6.74337   1
   2  -9   8 195.395 10.4949  -2
  -2  -9  10 195.395 10.4949   1
   1  -9   9 111.617 7.24776  -2
  -1  -9  10 111.617 7.24776   1
   0  -9  10 421.301 18.2973  -2
   0  -9  10 421.301 18.2973   1
  -1  -9  11 84.0725 6.21545  -2
   1  -9  10 84.0725 6.21545   1
  -2  -9  12 14.6025 5.35236  -2
   2  -9  10 14.6025 5.35236   1
  -3  -9  13 44.9906 7.02515  -2
   3  -9  10 44.9906 7.02515   1
   4  -9  10 -0.5442 3.55483   1
   4  -9  10 1.45596 3.56312   2
   5  -9  10 18.2333 3.97823   1
   5  -9  10 14.4848 5.07386   2
  -7  -8  10 2.52612 4.40366   2
  -6  -8  10 125.414 9.15054   2
  -6  -8  10 142.046 12.3099   1
  -5  -8  10 21.2742 3.35783   2
  -5  -8  10 25.1952 3.87652   1
  -4  -8  10 -0.0265 3.21817   1
  -4  -8  10 1.34626 2.99197   2
   3  -8   7 9.50619 6.14085  -2
  -3  -8  10 9.50619 6.14085   1
   2  -8   8 88.1161 6.83799  -2
  -2  -8  10 88.1161 6.83799   1
   1  -8   9 117.685 7.29029  -2
  -1  -8  10 117.685 7.29029   1
   0  -8  10 437.822 18.9588  -2
   0  -8  10 437.822 18.9588   1
  -1  -8  11 126.986 7.44794  -2
   1  -8  10 126.986 7.44794   1
  -2  -8  12 324.462 15.0158  -2
   2  -8  10 324.462 15.0158   1
  -3  -8  13 -0.8586 6.39844  -2
   3  -8  10 -0.8586 6.39844   1
   4  -8  10 0.56814 3.18207   2
   4  -8  10 0.29190 3.44101   1
   5  -8  10 88.3004 6.21624   1
   5  -8  10 75.3813 7.51595   2
   6  -8  10 16.5671 3.93622   1
   6  -8  10 13.1270 4.83534   2
  -7  -7  10 6.16165 4.35584   2
  -6  -7  10 121.690 9.12836   2
  -6  -7  10 123.474 9.63687   1
  -5  -7  10 -2.4200 3.17075   1
  -5  -7  10 -1.0310 3.04183   2
  -4  -7  10 155.770 7.90407   2
  -4  -7  10 173.571 9.02718   1
   3  -7   7 22.2013 6.07446  -2
  -3  -7  10 22.2013 6.07446   1
   2  -7   8 33.8661 5.48345  -2
  -2  -7  10 33.8661 5.48345   1
   1  -7   9 301.124 13.7280  -2
  -1  -7  10 301.124 13.7280   1
   0  -7  10 460.986 19.8041  -2
   0  -7  10 460.986 19.8041   1
  -1  -7  11 126.612 7.34768  -2
   1  -7  10 126.612 7.34768   1
  -2  -7  12 705.133 29.7732  -2
   2  -7  10 705.133 29.7732   1
  -3  -7  13 48.9870 6.41734  -2
   3  -7  10 48.9870 6.41734   1
   4  -7  10 8.03561 3.09133   2
   4  -7  10 8.79773 3.49469   1
   5  -7  10 7.48102 3.73363   1
   5  -7  10 10.6853 4.83985   2
   6  -7  10 9.10793 5.84271   1
   6  -7  10 2.19993 4.87672   2
  -8  -6  10 4.00680 3.85509   2
  -7  -6  10 46.2162 5.26858   2
  -6  -6  10 15.2926 5.09185   1
  -6  -6  10 12.1272 3.86547   2
  -5  -6  10 33.6141 3.83920   1
  -5  -6  10 31.0183 3.52528   2
  -4  -6  10 493.532 20.9882   2
  -4  -6  10 445.451 19.3559   1
   3  -6   7 110.865 7.88033  -2
  -3  -6  10 110.865 7.88033   1
   2  -6   8 37.8354 5.02092  -2
  -2  -6  10 37.8354 5.02092   1
   1  -6   9 22.1160 4.53745  -2
  -1  -6  10 22.1160 4.53745   1
   0  -6  10 49.2282 4.01909  -2
   0  -6  10 49.2282 4.01909   1
  -1  -6  11 176.600 8.99760  -2
   1  -6  10 176.600 8.99760   1
  -2  -6  12 622.666 26.4030  -2
   2  -6  10 622.666 26.4030   1
  -3  -6  13 154.707 9.45378  -2
   3  -6  10 154.707 9.45378   1
   4  -6  10 65.2711 4.87491   2
   4  -6  10 72.4947 5.38929   1
   5  -6  10 1.31932 3.41857   1
   5  -6  10 1.75852 4.57823   2
   6  -6  10 -0.3661 5.52856   1
   7  -6  10 30.0348 6.36755   1
  -9  -5  10 9.96891 5.28866   1
  -8  -5  10 7.41019 5.53034   1
  -8  -5  10 0.71945 3.90391   2
  -7  -5  10 85.2636 6.11390   1
  -7  -5  10 86.5050 7.33058   2
  -6  -5  10 7.59756 4.21309   1
  -6  -5  10 7.34627 2.99816   2
  -5  -5  10 92.8091 5.84499   2
  -5  -5  10 99.0721 5.08374   1
  -4  -5  10 384.056 13.8055   1
  -4  -5  10 375.206 16.3261   2
  -3  -5  10 7.24164 4.34372   1
  -3  -5  10 8.29167 4.29698   2
   3  -5   7 41.4734 7.23867  -2
  -3  -5  10 41.4734 7.23867   1
   2  -5   8 1067.41 44.0721  -2
  -2  -5  10 1067.41 44.0721   1
   1  -5   9 193.965 9.46131  -2
  -1  -5  10 193.965 9.46131   1
   0  -5  10 980.163 40.2758  -2
   0  -5  10 980.163 40.2758   1
  -1  -5  11 290.282 13.1640  -2
   1  -5  10 290.282 13.1640   1
  -2  -5  12 60.8949 5.65627  -2
   2  -5  10 60.8949 5.65627   1
   3  -5  10 15.0535 5.59359   1
  -3  -5  13 25.7469 7.35817  -2
   3  -5  10 25.7469 7.35817   1
   4  -5  10 57.2051 6.19742   2
   4  -5  10 67.9946 5.43753   1
   5  -5  10 28.6894 5.13423   2
   5  -5  10 35.6754 6.45020   1
   6  -5  10 4.47522 5.89861   1
   6  -5  10 0.90953 5.17846   2
   7  -5  10 2.01595 5.83545   1
   7  -5  10 6.52772 5.58204   2
  -9  -4  10 7.88151 5.90701   1
  -8  -4  10 21.1508 5.72934   1
  -7  -4  10 26.6546 3.89859   1
  -7  -4  10 23.9767 4.25573   2
  -6  -4  10 86.9336 5.45706   2
  -6  -4  10 87.7399 6.00075   1
  -5  -4  10 186.010 8.81867   2
  -5  -4  10 184.300 9.35353   1
  -4  -4  10 15.3094 2.16392   2
  -4  -4  10 18.8940 2.23777   1
   3  -4   7 569.902 35.9407  -2
  -3  -4  10 569.902 35.9407   1
  -3  -4  10 104.640 5.93564   1
  -3  -4  10 90.0419 8.42626   2
   2  -4   8 1018.46 35.1040  -2
  -2  -4  10 1018.46 35.1040   1
   1  -4   9 50.2099 3.46201  -2
  -1  -4  10 50.2099 3.46201   1
   0  -4  10 69.1825 4.83444  -2
   0  -4  10 69.1825 4.83444   1
  -1  -4  11 283.401 12.7803  -2
   1  -4  10 283.401 12.7803   1
  -2  -4  12 366.408 16.3325  -2
   2  -4  10 366.408 16.3325   1
  -3  -4  13 210.440 11.1422  -2
   3  -4  10 210.440 11.1422   1
   4  -4  10 5.73676 4.19709   2
   4  -4  10 8.59247 3.15981   1
   5  -4  10 34.9728 7.01151   1
   6  -4  10 4.28662 4.98391   2
   6  -4  10 5.90787 6.14486   1
   7  -4  10 5.40377 5.06844   2
   7  -4  10 2.84992 5.48074   1
  -9  -3  10 0.57785 5.55140   1
  -9  -3  10 -1.4586 5.28023   2
  -8  -3  10 28.9259 5.76610   2
  -8  -3  10 33.4745 3.95323   1
  -7  -3  10 -0.9813 3.25717   1
  -7  -3  10 1.29288 2.67193   2
  -6  -3  10 2.17735 2.26309   2
  -6  -3  10 -1.2164 3.08792   1
  -5  -3  10 217.323 8.35613   2
  -5  -3  10 204.888 10.0053   1
  -4  -3  10 188.411 7.45365   1
  -4  -3  10 179.934 8.69471   2
  -3  -3  10 234.059 17.1338   2
  -3  -3  10 240.244 8.96454   1
   2  -3   8 81.2365 4.80145  -2
  -2  -3  10 81.2365 4.80145   1
   1  -3   9 80.0704 4.37369  -2
  -1  -3  10 80.0704 4.37369   1
   0  -3  10 1533.58 52.1992  -2
   0  -3  10 1533.58 52.1992   1
  -1  -3  11 212.750 8.39531  -2
   1  -3  10 212.750 8.39531   1
  -2  -3  12 404.978 14.8767  -2
   2  -3  10 404.978 14.8767   1
  -3  -3  13 67.9585 7.91181  -2
   3  -3  10 67.9585 7.91181   1
   3  -3  10 54.6828 3.28962   2
   3  -3  10 54.2982 7.31960   1
   4  -3  10 36.1931 6.41549   1
   4  -3  10 36.7892 3.82568   2
   5  -3  10 53.5691 4.98269   2
   5  -3  10 65.0836 8.59859   1
   6  -3  10 2.75615 6.22889   1
   6  -3  10 3.31283 3.75648   2
   7  -3  10 9.19315 4.08222   2
   7  -3  10 18.7069 6.90533   1
  -9  -2  10 35.8780 6.97096   1
  -9  -2  10 35.6674 6.73815   2
  -8  -2  10 22.7515 3.63266   1
  -8  -2  10 23.3124 5.51610   2
  -7  -2  10 41.0778 4.24965   1
  -7  -2  10 53.8135 7.26944   2
  -6  -2  10 105.053 6.90178   2
  -6  -2  10 109.583 6.87201   1
  -5  -2  10 8.54000 2.09625   2
  -5  -2  10 5.65317 3.10188   1
  -4  -2  10 276.589 18.8039   1
  -4  -2  10 293.533 10.7333   2
  -3  -2  10 295.789 10.7419   1
  -3  -2  10 331.238 22.7058   2
   2  -2   8 590.832 26.4373  -2
  -2  -2  10 590.832 26.4373   1
  -2  -2  10 31.1171 5.29675   2
   1  -2   9 51.5975 3.93671  -2
  -1  -2  10 51.5975 3.93671   1
   0  -2  10 287.954 10.6339  -2
   0  -2  10 287.954 10.6339   1
  -1  -2  11 118.747 5.73895  -2
   1  -2  10 118.747 5.73895   1
   2  -2  10 174.934 13.2355   1
  -2  -2  12 176.588 8.92875  -2
   2  -2  10 176.588 8.92875   1
   3  -2  10 41.2243 5.09473   2
  -3  -2  13 42.2926 5.36797  -2
   3  -2  10 42.2926 5.36797   1
   3  -2  10 46.3631 6.82575   1
   4  -2  10 88.1987 5.79327   2
  -4  -2  14 143.879 14.3560  -2
   4  -2  10 143.879 14.3560   1
   4  -2  10 111.428 10.6166   1
   5  -2  10 273.009 13.7914   1
   5  -2  10 194.268 9.87315   2
   6  -2  10 1.34574 3.74093   2
   6  -2  10 -2.1378 3.91704   1
   7  -2  10 13.1521 6.94815   1
   7  -2  10 7.76497 3.97629   2
  -9  -1  10 109.525 6.80344   1
  -9  -1  10 142.208 12.7055   2
  -8  -1  10 3.95075 5.09956   2
  -8  -1  10 7.38790 3.39191   1
  -7  -1  10 7.40288 3.50377   2
  -7  -1  10 3.22837 3.33377   1
  -6  -1  10 75.1451 5.82827   2
  -6  -1  10 81.1992 5.90480   1
  -5  -1  10 72.2315 5.28467   1
  -5  -1  10 78.2984 5.84475   2
  -4  -1  10 21.8647 2.15412   2
  -4  -1  10 18.3372 3.04831   1
  -3  -1  10 99.1094 5.23755   2
  -3  -1  10 86.2100 5.16053   1
  -2  -1  10 500.328 20.8566   1
  -2  -1  10 539.911 34.8192   2
   2  -1   8 1022.48 64.6187  -2
  -2  -1  10 1022.48 64.6187   1
   1  -1   9 92.3479 4.80298  -2
  -1  -1  10 92.3479 4.80298   1
   0  -1  10 232.221 8.74861  -2
   0  -1  10 232.221 8.74861   1
  -1  -1  11 99.6903 5.10244  -2
   1  -1  10 99.6903 5.10244   1
   2  -1  10 326.210 14.0076   2
  -2  -1  12 891.366 36.8182  -2
   2  -1  10 891.366 36.8182   1
   2  -1  10 428.219 28.3060   1
   3  -1  10 29.9203 5.94143   1
   3  -1  10 25.2214 4.78308   2
  -3  -1  13 149.155 14.1819  -2
   3  -1  10 149.155 14.1819   1
  -4  -1  14 8.74535 10.4648  -2
   4  -1  10 8.74535 10.4648   1
   4  -1  10 -0.3345 3.07811   2
   4  -1  10 9.04473 5.49912   1
   5  -1  10 32.9922 4.20642   2
   5  -1  10 44.1773 4.93097   1
   6  -1  10 13.0223 4.33904   1
   6  -1  10 8.30476 3.75613   2
   7  -1  10 93.1146 7.14619   1
   7  -1  10 75.0481 5.95222   2
  -9   0  10 90.5403 10.3003   2
  -9   0  10 60.1825 4.90486   1
  -8   0  10 11.4659 5.65330   2
  -8   0  10 10.3988 3.46956   1
  -7   0  10 146.462 8.63370   2
  -7   0  10 125.542 7.27388   1
  -6   0  10 13.9889 3.65945   2
  -6   0  10 11.4840 3.18176   1
  -5   0  10 71.7936 5.23070   1
  -5   0  10 74.3561 5.72249   2
  -4   0  10 172.265 8.56346   1
  -4   0  10 182.376 9.75320   2
  -3   0  10 30.7681 2.41764   2
  -3   0  10 20.7921 4.05989   1
   3   0   7 319.505 22.7048  -2
  -3   0  10 319.505 22.7048   1
  -2   0  10 38.6348 3.10968   1
   2   0   8 100.333 10.4658  -2
  -2   0  10 100.333 10.4658   1
  -2   0  10 38.4106 2.88214   2
   1   0   9 75.0386 4.19335  -2
  -1   0  10 75.0386 4.19335   1
   0   0  10 186.072 7.15910  -2
   0   0  10 186.072 7.15910   1
  -1   0  11 37.8171 3.33947  -2
   1   0  10 37.8171 3.33947   1
  -2   0  12 122.048 12.2049  -2
   2   0  10 122.048 12.2049   1
   2   0  10 89.2544 5.20655   2
   2   0  10 108.320 9.97509   1
   3   0  10 45.5368 6.53133   1
   3   0  10 37.5700 4.71693   2
  -3   0  13 193.728 16.1784  -2
   3   0  10 193.728 16.1784   1
   4   0  10 219.318 11.6461   1
   4   0  10 147.404 8.03822   2
   5   0  10 1.60036 3.91843   1
   5   0  10 -0.0833 3.19244   2
   6   0  10 4.70818 3.65437   2
   6   0  10 7.59694 4.34726   1
   7   0  10 75.3817 5.86471   2
   7   0  10 100.169 7.56556   1
  -9   1  10 18.7184 6.59292   2
  -9   1  10 12.5626 3.62839   1
  -8   1  10 -0.3259 3.60593   2
  -8   1  10 -2.6580 3.26209   1
  -7   1  10 303.011 13.8890   1
  -7   1  10 315.381 15.4220   2
  -6   1  10 23.1578 3.63513   1
  -6   1  10 23.2609 3.91415   2
  -5   1  10 0.09105 3.36189   2
  -5   1  10 0.17495 2.92958   1
  -4   1  10 10.9136 2.88942   1
  -4   1  10 9.74974 3.22377   2
  -3   1  10 207.374 12.7446   1
   3   1   7 308.786 22.2799  -2
  -3   1  10 308.786 22.2799   1
  -3   1  10 207.570 15.2150   2
  -2   1  10 233.327 10.3228   1
  -2   1  10 273.394 18.9218   2
   2   1   8 525.180 34.4673  -2
  -2   1  10 525.180 34.4673   1
  -1   1  10 12.8363 2.37031   2
   1   1   9 181.881 9.36464  -2
  -1   1  10 181.881 9.36464   1
   0   1  10 25.2938 2.18715  -2
   0   1  10 25.2938 2.18715   1
  -1   1  11 357.600 16.9887  -2
   1   1  10 357.600 16.9887   1
   2   1  10 5.39240 3.01376   2
  -2   1  12 15.5379 8.38258  -2
   2   1  10 15.5379 8.38258   1
   2   1  10 4.00963 3.99936   1
  -3   1  13 130.629 13.4496  -2
   3   1  10 130.629 13.4496   1
   3   1  10 95.6288 7.74235   2
   3   1  10 124.127 10.6967   1
   4   1  10 26.6801 4.20250   1
   4   1  10 18.3976 3.38759   2
   5   1  10 4.93770 4.18321   1
   5   1  10 4.86350 3.41519   2
   6   1  10 12.8106 4.61150   1
   6   1  10 11.0289 3.57744   2
   7   1  10 19.5810 6.05721   2
   7   1  10 16.9460 6.41003   1
  -9   2  10 0.86292 6.25900   2
  -9   2  10 6.02754 3.45770   1
  -8   2  10 -0.3365 3.33240   1
  -8   2  10 2.63799 3.81622   2
  -7   2  10 40.9547 4.16259   1
  -7   2  10 44.6050 4.83968   2
  -6   2  10 21.2367 4.10887   2
  -6   2  10 15.3807 3.48427   1
  -5   2  10 262.750 12.2023   1
  -5   2  10 269.053 13.4709   2
  -4   2  10 1.18254 2.76203   1
  -4   2  10 5.22955 3.29562   2
  -3   2  10 240.735 14.6263   1
   3   2   7 238.009 18.7872  -2
  -3   2  10 238.009 18.7872   1
  -3   2  10 228.059 16.3021   2
   2   2   8 51.7122 8.86297  -2
  -2   2  10 51.7122 8.86297   1
  -2   2  10 71.4504 4.41382   1
  -2   2  10 58.9337 6.56468   2
   1   2   9 27.5466 4.55399  -2
  -1   2  10 27.5466 4.55399   1
  -1   2  10 -0.6330 2.65287   1
   0   2  10 40.3813 2.62465  -2
   0   2  10 40.3813 2.62465   1
  -1   2  11 325.290 15.3978  -2
   1   2  10 325.290 15.3978   1
   2   2  10 24.7470 5.10495   1
   2   2  10 18.2359 3.64675   2
  -2   2  12 176.070 15.0506  -2
   2   2  10 176.070 15.0506   1
   3   2  10 18.0151 5.03363   1
  -3   2  13 23.8076 10.2136  -2
   3   2  10 23.8076 10.2136   1
   3   2  10 16.0247 4.01880   2
   4   2  10 19.5189 3.42468   2
   4   2  10 26.2071 4.36310   1
   5   2  10 9.14691 3.43290   2
   5   2  10 9.50884 4.22659   1
   6   2  10 66.2258 6.41498   1
   6   2  10 46.9327 4.55726   2
  -9   3  10 4.24712 4.68551   1
  -8   3  10 2.55838 3.34693   1
  -8   3  10 -0.8439 3.88197   2
  -7   3  10 2.83970 3.85188   2
  -7   3  10 3.94930 3.21347   1
  -6   3  10 11.1600 3.30914   1
  -6   3  10 14.9941 3.95383   2
  -5   3  10 123.098 7.61313   2
  -5   3  10 114.799 6.91748   1
  -4   3  10 3.79188 3.01694   1
  -4   3  10 8.27667 3.33331   2
  -3   3  10 8.03722 3.67710   1
   3   3   7 5.66621 10.3972  -2
  -3   3  10 5.66621 10.3972   1
  -3   3  10 5.89347 4.41386   2
   2   3   8 42.5067 9.37796  -2
  -2   3  10 42.5067 9.37796   1
  -2   3  10 0.07220 3.09561   1
  -2   3  10 -1.2785 4.19285   2
   1   3   9 259.979 12.7381  -2
  -1   3  10 259.979 12.7381   1
  -1   3  10 202.927 12.3264   1
   0   3  10 926.048 40.7326  -2
   0   3  10 926.048 40.7326   1
  -1   3  11 167.710 9.24417  -2
   1   3  10 167.710 9.24417   1
  -2   3  12 13.4967 9.07728  -2
   2   3  10 13.4967 9.07728   1
   2   3  10 -2.1948 4.25057   1
   2   3  10 3.58133 3.29017   2
   3   3  10 93.3038 7.65379   2
   3   3  10 91.7315 9.07546   1
  -3   3  13 412.084 28.8651  -2
   3   3  10 412.084 28.8651   1
   4   3  10 9.14437 3.92325   1
   4   3  10 14.8562 3.36737   2
   5   3  10 8.15507 4.49492   1
   5   3  10 9.93837 3.41289   2
   6   3  10 2.76390 3.38522   2
   6   3  10 -1.1469 4.62834   1
  -8   4  10 0.21777 3.38479   1
  -8   4  10 -0.9928 3.98676   2
  -7   4  10 25.6060 4.45127   2
  -7   4  10 23.8169 3.85827   1
  -6   4  10 16.1345 3.49634   1
  -6   4  10 14.0684 4.03215   2
  -5   4  10 1.74445 3.08310   1
  -5   4  10 -0.1471 3.53304   2
  -4   4  10 38.5661 4.15001   1
  -4   4  10 40.8193 4.43640   2
  -3   4  10 98.4635 9.74928   2
  -3   4  10 99.0096 7.57246   1
   3   4   7 89.3289 12.0893  -2
  -3   4  10 89.3289 12.0893   1
  -2   4  10 2.86835 4.46658   2
  -2   4  10 4.27014 3.80011   1
   2   4   8 16.0117 9.36961  -2
  -2   4  10 16.0117 9.36961   1
   1   4   9 201.533 8.29891  -2
  -1   4  10 201.533 8.29891   1
   0   4  10 199.829 10.5465  -2
   0   4  10 199.829 10.5465   1
  -1   4  11 6.10061 5.13995  -2
   1   4  10 6.10061 5.13995   1
   2   4  10 205.519 15.2172   1
   2   4  10 214.201 13.4093   2
  -2   4  12 398.322 27.6736  -2
   2   4  10 398.322 27.6736   1
   3   4  10 125.920 9.29345   2
  -3   4  13 336.612 24.5074  -2
   3   4  10 336.612 24.5074   1
   3   4  10 130.935 11.6290   1
   4   4  10 3.75705 3.97807   1
   4   4  10 7.83750 3.44242   2
   5   4  10 18.2046 4.74976   1
   5   4  10 21.7982 4.00372   2
  -8   5  10 13.1596 3.78201   1
  -8   5  10 15.4965 4.20176   2
  -7   5  10 2.86834 4.06642   2
  -7   5  10 2.64110 3.53535   1
  -6   5  10 12.6449 3.51663   1
  -6   5  10 12.1541 4.07831   2
  -5   5  10 0.71500 3.47334   2
  -5   5  10 0.49101 3.42542   1
  -4   5  10 130.110 7.68139   1
  -4   5  10 128.379 7.93028   2
  -3   5  10 5.03325 4.76978   2
   3   5   7 14.5624 11.5737  -2
  -3   5  10 14.5624 11.5737   1
  -3   5  10 7.72286 4.13648   1
   2   5   8 44.9751 10.4683  -2
  -2   5  10 44.9751 10.4683   1
  -2   5  10 15.7293 4.88793   2
  -2   5  10 28.4431 4.96422   1
   1   5   9 210.925 17.1625  -2
  -1   5  10 210.925 17.1625   1
   0   5  10 26.2660 4.01525  -2
   0   5  10 26.2660 4.01525   1
  -1   5  11 139.022 8.86896  -2
   1   5  10 139.022 8.86896   1
   2   5  10 188.823 14.6990   1
  -2   5  12 335.488 24.0950  -2
   2   5  10 335.488 24.0950   1
  -3   5  13 35.9136 11.5430  -2
   3   5  10 35.9136 11.5430   1
   3   5  10 36.8763 5.30656   2
   3   5  10 41.8997 7.06255   1
   4   5  10 13.7140 4.51633   1
   4   5  10 17.0881 3.88376   2
   5   5  10 57.2077 6.03342   1
   5   5  10 60.2535 5.09339   2
  -7   6  10 44.7910 5.17136   2
  -7   6  10 42.8936 4.61914   1
  -6   6  10 10.8828 3.82558   1
  -6   6  10 13.3787 4.35494   2
  -5   6  10 34.2324 4.69989   2
  -5   6  10 32.5662 4.30919   1
  -4   6  10 9.49047 3.97051   2
  -4   6  10 9.56661 3.74984   1
   3   6   7 99.9041 13.9229  -2
  -3   6  10 99.9041 13.9229   1
  -3   6  10 77.9473 8.70083   2
  -3   6  10 86.7049 8.09228   1
  -2   6  10 159.958 13.2899   2
   2   6   8 339.719 25.1579  -2
  -2   6  10 339.719 25.1579   1
   1   6   9 38.5638 9.93634  -2
  -1   6  10 38.5638 9.93634   1
   0   6  10 2.03065 3.77691  -2
   0   6  10 2.03065 3.77691   1
  -1   6  11 -0.1443 5.78433  -2
   1   6  10 -0.1443 5.78433   1
   2   6  10 50.1579 7.18637   1
  -2   6  12 100.643 12.6960  -2
   2   6  10 100.643 12.6960   1
   3   6  10 2.45024 5.64564   1
  -3   6  13 -1.1464 11.1677  -2
   3   6  10 -1.1464 11.1677   1
   4   6  10 113.078 12.5484   2
   4   6  10 80.4638 6.57976   1
  -6   7  10 9.77389 4.38668   2
  -6   7  10 15.6090 3.93499   1
  -5   7  10 9.69814 4.09006   1
  -5   7  10 9.91558 4.18472   2
  -4   7  10 22.3770 4.30243   2
  -4   7  10 24.4203 4.38149   1
  -3   7  10 4.69203 5.73598   2
   3   7   7 33.4976 13.9089  -2
  -3   7  10 33.4976 13.9089   1
  -3   7  10 0.26800 4.75629   1
  -2   7  10 137.588 12.5295   2
   2   7   8 380.427 28.3663  -2
  -2   7  10 380.427 28.3663   1
   1   7   9 117.035 13.1474  -2
  -1   7  10 117.035 13.1474   1
   0   7  10 44.8179 7.77652  -2
   0   7  10 44.8179 7.77652   1
  -1   7  11 73.8455 7.57313  -2
   1   7  10 73.8455 7.57313   1
  -2   7  12 30.1189 10.7761  -2
   2   7  10 30.1189 10.7761   1
   2   7  10 12.5192 6.02421   1
  -3   7  13 19.2983 12.8612  -2
   3   7  10 19.2983 12.8612   1
   3   7  10 30.2458 6.95478   1
  -5   8  10 21.1709 4.52175   1
  -5   8  10 21.3080 4.74513   2
  -4   8  10 47.9403 8.13870   2
   4   8   6 90.7194 18.1504  -2
  -4   8  10 90.7194 18.1504   1
  -4   8  10 61.2773 7.05849   1
  -3   8  10 3.14130 6.25334   2
   3   8   7 11.4145 15.9167  -2
  -3   8  10 11.4145 15.9167   1
   2   8   8 188.558 18.1146  -2
  -2   8  10 188.558 18.1146   1
   1   8   9 97.0070 13.6164  -2
  -1   8  10 97.0070 13.6164   1
   0   8  10 223.010 17.7208  -2
   0   8  10 223.010 17.7208   1
  -1   8  11 71.9728 10.6808  -2
   1   8  10 71.9728 10.6808   1
  -2   8  12 86.9836 13.3334  -2
   2   8  10 86.9836 13.3334   1
  -3   9  10 23.0427 7.20041   2
   3   9   7 29.4205 16.4777  -2
  -3   9  10 29.4205 16.4777   1
   2   9   8 177.665 18.8537  -2
  -2   9  10 177.665 18.8537   1
   1   9   9 83.7922 13.7179  -2
  -1   9  10 83.7922 13.7179   1
   3 -11   8 127.536 12.4194  -2
  -3 -11  11 127.536 12.4194   1
   2 -11   9 -1.7056 5.89286  -2
  -2 -11  11 -1.7056 5.89286   1
   1 -11  10 61.1056 6.14230  -2
  -1 -11  11 61.1056 6.14230   1
   0 -11  11 69.1866 5.38776  -2
   0 -11  11 69.1866 5.38776   1
  -1 -11  12 -1.8710 4.99438  -2
   1 -11  11 -1.8710 4.99438   1
  -5 -10  11 5.76480 5.62241   1
  -4 -10  11 49.6419 4.53974   2
  -4 -10  11 57.5744 5.16436   1
   3 -10   8 122.191 8.86350  -2
  -3 -10  11 122.191 8.86350   1
   2 -10   9 7.40639 5.93750  -2
  -2 -10  11 7.40639 5.93750   1
   1 -10  10 20.5267 5.18441  -2
  -1 -10  11 20.5267 5.18441   1
   0 -10  11 32.8779 4.19645  -2
   0 -10  11 32.8779 4.19645   1
  -1 -10  12 60.1809 6.04424  -2
   1 -10  11 60.1809 6.04424   1
  -2 -10  13 30.5269 5.99690  -2
   2 -10  11 30.5269 5.99690   1
  -3 -10  14 -9.1220 7.18550  -2
   3 -10  11 -9.1220 7.18550   1
   4 -10  11 2.22298 5.17581   2
  -6  -9  11 11.5579 5.51952   1
  -5  -9  11 12.1997 3.48846   1
  -5  -9  11 7.84219 3.17967   2
  -4  -9  11 11.1012 3.74017   1
  -4  -9  11 6.88473 3.40553   2
   3  -9   8 16.0404 6.41118  -2
  -3  -9  11 16.0404 6.41118   1
   2  -9   9 64.2128 6.70255  -2
  -2  -9  11 64.2128 6.70255   1
   1  -9  10 90.1787 6.48161  -2
  -1  -9  11 90.1787 6.48161   1
   0  -9  11 12.5906 3.56403  -2
   0  -9  11 12.5906 3.56403   1
  -1  -9  12 117.082 7.57213  -2
   1  -9  11 117.082 7.57213   1
  -2  -9  13 17.7252 5.90012  -2
   2  -9  11 17.7252 5.90012   1
  -3  -9  14 108.639 8.38421  -2
   3  -9  11 108.639 8.38421   1
   4  -9  11 4.20202 3.56910   2
   4  -9  11 7.68027 4.03610   1
  -6  -8  11 17.5079 4.49333   2
  -5  -8  11 9.29874 3.44493   1
  -5  -8  11 8.53457 3.28992   2
  -4  -8  11 -0.5011 3.15555   2
  -4  -8  11 -1.2539 3.07962   1
   3  -8   8 47.8231 6.78489  -2
  -3  -8  11 47.8231 6.78489   1
   2  -8   9 66.8166 6.42676  -2
  -2  -8  11 66.8166 6.42676   1
   1  -8  10 109.916 6.90865  -2
  -1  -8  11 109.916 6.90865   1
   0  -8  11 49.0209 4.52904  -2
   0  -8  11 49.0209 4.52904   1
  -1  -8  12 1.33164 4.95141  -2
   1  -8  11 1.33164 4.95141   1
  -2  -8  13 14.8545 5.80031  -2
   2  -8  11 14.8545 5.80031   1
  -3  -8  14 238.016 12.4694  -2
   3  -8  11 238.016 12.4694   1
   4  -8  11 -1.9604 3.42305   1
   4  -8  11 -0.0317 3.24492   2
   5  -8  11 5.28396 3.94524   1
   5  -8  11 3.44831 4.59946   2
  -7  -7  11 30.8245 5.17899   2
  -6  -7  11 4.93840 4.28942   2
  -6  -7  11 -0.7157 4.46746   1
  -5  -7  11 18.4501 3.33668   2
  -5  -7  11 20.5779 3.61159   1
  -4  -7  11 50.2304 4.22539   2
  -4  -7  11 60.5782 4.84818   1
   3  -7   8 79.0743 7.22128  -2
  -3  -7  11 79.0743 7.22128   1
   2  -7   9 38.7853 5.63456  -2
  -2  -7  11 38.7853 5.63456   1
   1  -7  10 117.317 7.25928  -2
  -1  -7  11 117.317 7.25928   1
   0  -7  11 292.918 13.1917  -2
   0  -7  11 292.918 13.1917   1
  -1  -7  12 32.1115 4.91248  -2
   1  -7  11 32.1115 4.91248   1
  -2  -7  13 39.5646 5.93905  -2
   2  -7  11 39.5646 5.93905   1
  -3  -7  14 110.080 8.31464  -2
   3  -7  11 110.080 8.31464   1
   4  -7  11 9.85955 3.83803   1
   4  -7  11 9.84557 3.25506   2
   5  -7  11 149.044 8.52661   1
   5  -7  11 121.837 9.87527   2
   6  -7  11 3.02872 5.61474   1
   6  -7  11 -1.9493 4.56848   2
  -8  -6  11 -0.8375 4.19126   2
  -7  -6  11 9.69566 4.25191   2
  -6  -6  11 131.375 7.11292   2
  -6  -6  11 121.699 10.0599   1
  -5  -6  11 51.5570 4.36426   2
  -5  -6  11 58.8585 4.58825   1
  -4  -6  11 4.43008 3.04397   1
  -4  -6  11 5.02500 2.96435   2
   3  -6   8 3.11176 5.56014  -2
  -3  -6  11 3.11176 5.56014   1
   2  -6   9 126.576 7.67415  -2
  -2  -6  11 126.576 7.67415   1
   1  -6  10 164.063 8.63567  -2
  -1  -6  11 164.063 8.63567   1
   0  -6  11 5.05548 2.89457  -2
   0  -6  11 5.05548 2.89457   1
  -1  -6  12 33.3480 4.78021  -2
   1  -6  11 33.3480 4.78021   1
  -2  -6  13 248.458 12.1002  -2
   2  -6  11 248.458 12.1002   1
  -3  -6  14 35.0166 6.55183  -2
   3  -6  11 35.0166 6.55183   1
   4  -6  11 19.1968 3.86793   1
   4  -6  11 14.6412 4.34094   2
   5  -6  11 262.536 16.4978   2
   5  -6  11 281.320 13.1387   1
   6  -6  11 7.87700 5.92447   1
  -8  -5  11 -0.6609 5.42474   1
  -8  -5  11 4.48054 4.00815   2
  -7  -5  11 -0.1699 3.40756   1
  -7  -5  11 -1.4707 3.78265   2
  -6  -5  11 10.9305 4.16018   1
  -6  -5  11 13.4624 3.14577   2
  -5  -5  11 8.59222 3.05972   2
  -5  -5  11 9.57987 2.97504   1
  -4  -5  11 183.862 9.17632   1
  -4  -5  11 172.206 8.55975   2
  -3  -5  11 10.7422 4.39636   2
   3  -5   8 16.2594 6.64761  -2
  -3  -5  11 16.2594 6.64761   1
  -3  -5  11 11.2836 4.52889   1
   2  -5   9 86.6340 6.30407  -2
  -2  -5  11 86.6340 6.30407   1
   1  -5  10 246.580 11.3814  -2
  -1  -5  11 246.580 11.3814   1
   0  -5  11 70.8966 4.81968  -2
   0  -5  11 70.8966 4.81968   1
  -1  -5  12 108.389 6.78015  -2
   1  -5  11 108.389 6.78015   1
  -2  -5  13 614.475 26.2159  -2
   2  -5  11 614.475 26.2159   1
  -3  -5  14 23.6615 6.17631  -2
   3  -5  11 23.6615 6.17631   1
   4  -5  11 95.7149 6.41962   1
   4  -5  11 84.9732 7.35666   2
   5  -5  11 35.5150 5.30519   2
   5  -5  11 44.5078 7.33892   1
   6  -5  11 8.71778 5.75539   2
   6  -5  11 16.5218 6.45334   1
  -9  -4  11 28.8164 6.59181   1
  -8  -4  11 1.46600 3.42237   1
  -7  -4  11 71.9930 5.46077   1
  -7  -4  11 65.7367 6.34651   2
  -6  -4  11 18.9474 3.15978   2
  -6  -4  11 13.2422 3.46106   1
  -5  -4  11 25.3661 3.56393   1
  -5  -4  11 21.7824 3.18943   2
  -4  -4  11 467.796 16.5665   1
  -4  -4  11 431.397 18.6578   2
  -3  -4  11 1.21596 2.34770   1
  -3  -4  11 1.47463 4.32940   2
   3  -4   8 142.517 11.2232  -2
  -3  -4  11 142.517 11.2232   1
   2  -4   9 542.361 19.2185  -2
  -2  -4  11 542.361 19.2185   1
   1  -4  10 272.132 12.3445  -2
  -1  -4  11 272.132 12.3445   1
   0  -4  11 20.8656 3.27412  -2
   0  -4  11 20.8656 3.27412   1
  -1  -4  12 139.397 7.66375  -2
   1  -4  11 139.397 7.66375   1
  -2  -4  13 127.203 7.93244  -2
   2  -4  11 127.203 7.93244   1
  -3  -4  14 33.0635 6.30933  -2
   3  -4  11 33.0635 6.30933   1
   4  -4  11 222.244 13.8761   2
   4  -4  11 247.435 18.2512   1
   5  -4  11 17.0727 6.40579   1
   6  -4  11 15.3713 5.17894   2
   6  -4  11 15.7492 6.63136   1
   7  -4  11 79.6026 9.17004   1
  -9  -3  11 2.23373 5.82907   1
  -8  -3  11 -1.8309 3.48878   1
  -7  -3  11 76.3727 5.79616   2
  -7  -3  11 87.3068 6.31195   1
  -6  -3  11 5.44555 2.28503   2
  -6  -3  11 1.05375 3.16882   1
  -5  -3  11 0.02340 2.03454   2
  -5  -3  11 -2.4096 2.97114   1
  -4  -3  11 29.8975 3.16507   2
  -4  -3  11 36.1059 2.65644   1
   3  -3   8 25.1744 5.57177  -2
  -3  -3  11 25.1744 5.57177   1
  -3  -3  11 0.26759 2.41307   1
  -3  -3  11 -1.3614 4.44771   2
   2  -3   9 2190.01 74.3606  -2
  -2  -3  11 2190.01 74.3606   1
   1  -3  10 178.904 7.35486  -2
  -1  -3  11 178.904 7.35486   1
   0  -3  11 4.27042 1.98297  -2
   0  -3  11 4.27042 1.98297   1
  -1  -3  12 350.912 12.8950  -2
   1  -3  11 350.912 12.8950   1
  -2  -3  13 115.634 7.56252  -2
   2  -3  11 115.634 7.56252   1
   3  -3  11 10.5071 3.00139   2
   3  -3  11 12.1683 5.43420   1
  -3  -3  14 6.43401 7.08093  -2
   3  -3  11 6.43401 7.08093   1
   4  -3  11 53.0222 4.47874   2
   4  -3  11 59.3936 7.67987   1
   5  -3  11 26.9784 4.20897   2
   5  -3  11 30.0311 7.08297   1
   6  -3  11 79.5590 6.04169   2
   6  -3  11 112.270 11.6764   1
   7  -3  11 24.2660 6.89220   1
  -9  -2  11 -1.1252 3.42331   1
  -9  -2  11 -2.8676 5.50957   2
  -8  -2  11 28.8114 4.09765   1
  -8  -2  11 28.5110 6.04516   2
  -7  -2  11 2.44019 3.40221   1
  -7  -2  11 1.05471 3.58630   2
  -6  -2  11 -2.0151 3.04666   1
  -6  -2  11 -2.2264 3.20415   2
  -5  -2  11 142.156 7.92139   1
  -5  -2  11 162.866 6.71946   2
  -4  -2  11 40.2900 3.35353   2
  -4  -2  11 35.0770 5.24105   1
  -3  -2  11 14.5374 2.47488   2
  -3  -2  11 13.1911 1.93377   1
  -2  -2  11 891.198 48.8965   1
   2  -2   9 946.799 42.0164  -2
  -2  -2  11 946.799 42.0164   1
  -2  -2  11 835.961 52.8414   2
   1  -2  10 108.666 5.45385  -2
  -1  -2  11 108.666 5.45385   1
   0  -2  11 1552.54 52.8969  -2
   0  -2  11 1552.54 52.8969   1
  -1  -2  12 299.269 11.2685  -2
   1  -2  11 299.269 11.2685   1
  -2  -2  13 92.5763 5.67226  -2
   2  -2  11 92.5763 5.67226   1
  -3  -2  14 168.357 14.7188  -2
   3  -2  11 168.357 14.7188   1
   3  -2  11 125.279 8.85860   2
   3  -2  11 156.438 13.1040   1
   4  -2  11 3.15762 5.37086   1
   4  -2  11 4.36345 3.37258   2
  -4  -2  15 215.404 18.7643  -2
   4  -2  11 215.404 18.7643   1
   5  -2  11 39.8822 4.62167   1
   5  -2  11 34.4736 4.44745   2
   6  -2  11 37.3894 7.37961   1
   6  -2  11 30.5860 4.60033   2
   7  -2  11 10.4058 6.22042   1
   7  -2  11 1.48319 5.91897   2
  -9  -1  11 12.1669 6.18744   2
  -9  -1  11 10.3480 3.62942   1
  -8  -1  11 10.6267 5.47085   2
  -8  -1  11 13.7861 3.49853   1
  -7  -1  11 32.8369 4.17102   1
  -7  -1  11 29.0932 4.44187   2
  -6  -1  11 68.1131 5.95015   2
  -6  -1  11 71.9839 5.24262   1
  -5  -1  11 36.9475 4.26596   2
  -5  -1  11 30.0382 3.78517   1
  -4  -1  11 4.46124 2.82596   1
  -4  -1  11 8.12844 5.45724   2
  -3  -1  11 82.3095 6.56659   1
  -3  -1  11 87.6786 5.10529   2
   3  -1   8 210.315 16.9817  -2
  -3  -1  11 210.315 16.9817   1
  -2  -1  11 18.9009 2.47895   1
   2  -1   9 -0.5982 8.06985  -2
  -2  -1  11 -0.5982 8.06985   1
  -2  -1  11 18.1768 4.62585   2
   1  -1  10 86.0797 4.70987  -2
  -1  -1  11 86.0797 4.70987   1
   0  -1  11 3757.62 126.906  -2
   0  -1  11 3757.62 126.906   1
  -1  -1  12 103.151 5.33508  -2
   1  -1  11 103.151 5.33508   1
   2  -1  11 19.7411 2.56498   2
   2  -1  11 21.7119 5.00463   1
  -2  -1  13 25.7845 8.57254  -2
   2  -1  11 25.7845 8.57254   1
   3  -1  11 112.197 8.98105   2
  -3  -1  14 259.168 20.0969  -2
   3  -1  11 259.168 20.0969   1
   3  -1  11 137.422 12.2588   1
   4  -1  11 26.9962 3.98040   2
   4  -1  11 39.2745 6.99745   1
  -4  -1  15 25.7387 12.4397  -2
   4  -1  11 25.7387 12.4397   1
   5  -1  11 19.3675 3.82941   2
   5  -1  11 24.1083 4.47275   1
   6  -1  11 5.36429 4.09330   1
   6  -1  11 6.78405 3.87997   2
   7  -1  11 4.47698 5.92408   2
  -9   0  11 31.2605 7.23483   2
  -9   0  11 28.4877 4.13042   1
  -8   0  11 -4.2942 3.20132   1
  -8   0  11 -0.9599 3.78885   2
  -7   0  11 4.98317 3.42408   1
  -7   0  11 6.74832 3.91156   2
  -6   0  11 204.865 10.2140   1
  -6   0  11 210.357 11.2175   2
  -5   0  11 99.4858 6.36216   1
  -5   0  11 106.359 7.15962   2
  -4   0  11 2.06586 2.77438   1
  -4   0  11 1.19594 3.17779   2
  -3   0  11 307.205 21.5655   2
   3   0   8 283.058 21.2289  -2
  -3   0  11 283.058 21.2289   1
  -3   0  11 240.429 14.6384   1
  -2   0  11 9.53941 2.14371   1
  -2   0  11 12.2290 2.14022   2
   2   0   9 108.741 11.2112  -2
  -2   0  11 108.741 11.2112   1
   1   0  10 44.7158 4.75652  -2
  -1   0  11 44.7158 4.75652   1
   0   0  11 1368.60 46.4991  -2
   0   0  11 1368.60 46.4991   1
  -1   0  12 85.2214 4.59113  -2
   1   0  11 85.2214 4.59113   1
   2   0  11 887.867 55.7961   1
   2   0  11 762.087 42.0198   2
  -2   0  13 1268.86 80.0464  -2
   2   0  11 1268.86 80.0464   1
   3   0  11 46.4770 6.54867   1
   3   0  11 42.5185 5.16576   2
  -3   0  14 144.937 15.1333  -2
   3   0  11 144.937 15.1333   1
   4   0  11 92.6998 6.08733   2
   4   0  11 129.182 8.24363   1
   5   0  11 66.5153 5.93545   1
   5   0  11 49.8218 4.65458   2
   6   0  11 2.48254 3.76226   2
   6   0  11 4.53440 4.40945   1
   7   0  11 -7.7217 5.82764   1
  -9   1  11 71.3661 8.96894   2
  -9   1  11 72.4596 5.61206   1
  -8   1  11 11.8972 3.65751   1
  -8   1  11 12.1481 4.11852   2
  -7   1  11 3.52853 3.99344   2
  -7   1  11 1.65578 3.45058   1
  -6   1  11 80.8857 6.46233   2
  -6   1  11 72.2182 5.30975   1
  -5   1  11 53.0698 4.88319   2
  -5   1  11 48.7447 4.22438   1
  -4   1  11 290.929 13.0908   1
  -4   1  11 304.246 15.0492   2
   3   1   8 11.7063 9.54577  -2
  -3   1  11 11.7063 9.54577   1
  -3   1  11 23.6340 5.32244   2
  -3   1  11 25.6245 4.22167   1
  -2   1  11 273.277 11.9191   1
  -2   1  11 321.538 21.8051   2
   2   1   9 521.309 34.6136  -2
  -2   1  11 521.309 34.6136   1
   1   1  10 348.269 12.5496  -2
  -1   1  11 348.269 12.5496   1
   0   1  11 159.317 6.40584  -2
   0   1  11 159.317 6.40584   1
  -1   1  12 356.780 16.8838  -2
   1   1  11 356.780 16.8838   1
  -2   1  13 1326.86 83.7188  -2
   2   1  11 1326.86 83.7188   1
   2   1  11 556.360 31.0097   2
   2   1  11 642.415 40.9599   1
   3   1  11 16.6588 4.09051   2
   3   1  11 19.3701 5.53566   1
  -3   1  14 28.9173 11.6280  -2
   3   1  11 28.9173 11.6280   1
   4   1  11 44.7013 4.22999   2
   4   1  11 64.7715 5.71272   1
   5   1  11 15.3826 4.41099   1
   5   1  11 8.83086 3.58373   2
   6   1  11 34.0017 4.31170   2
   6   1  11 50.6639 5.82318   1
  -9   2  11 25.0366 6.81474   2
  -9   2  11 22.3096 5.20600   1
  -8   2  11 -2.2543 3.33665   1
  -8   2  11 1.56285 4.03141   2
  -7   2  11 154.240 9.25163   2
  -7   2  11 146.879 8.05784   1
  -6   2  11 38.1513 4.73668   2
  -6   2  11 29.6620 3.88769   1
  -5   2  11 3.43622 3.67426   2
  -5   2  11 3.94295 3.03389   1
  -4   2  11 382.915 18.2993   2
  -4   2  11 352.649 15.6963   1
  -3   2  11 117.360 10.7166   2
   3   2   8 122.029 13.4745  -2
  -3   2  11 122.029 13.4745   1
  -3   2  11 121.491 8.82621   1
  -2   2  11 92.1810 8.44381   2
  -2   2  11 104.665 7.70781   1
   2   2   9 498.836 33.5938  -2
  -2   2  11 498.836 33.5938   1
   1   2  10 323.358 11.5479  -2
  -1   2  11 323.358 11.5479   1
   0   2  11 655.854 22.3466  -2
   0   2  11 655.854 22.3466   1
  -1   2  12 41.2734 5.41968  -2
   1   2  11 41.2734 5.41968   1
  -2   2  13 129.394 13.1049  -2
   2   2  11 129.394 13.1049   1
   2   2  11 11.7637 4.62539   1
   2   2  11 13.6912 3.64489   2
   3   2  11 7.25776 5.11149   1
   3   2  11 7.50948 3.78759   2
  -3   2  14 24.6902 10.8350  -2
   3   2  11 24.6902 10.8350   1
   4   2  11 171.684 8.95421   2
   4   2  11 239.417 12.7527   1
   5   2  11 6.04811 4.43644   1
   5   2  11 0.90481 3.32461   2
   6   2  11 18.5590 3.89831   2
   6   2  11 26.1545 5.38121   1
  -8   3  11 15.7256 3.72146   1
  -8   3  11 14.5774 4.35114   2
  -7   3  11 153.701 9.12436   2
  -7   3  11 144.264 7.96672   1
  -6   3  11 55.0107 5.36075   2
  -6   3  11 49.9013 4.49222   1
  -5   3  11 67.6117 5.07991   1
  -5   3  11 71.7677 6.07670   2
  -4   3  11 105.986 6.62126   1
  -4   3  11 117.352 7.68933   2
  -3   3  11 -2.4348 4.78374   2
  -3   3  11 -0.7958 3.13260   1
   3   3   8 52.6594 11.0617  -2
  -3   3  11 52.6594 11.0617   1
  -2   3  11 266.566 18.5842   2
   2   3   9 845.016 54.5265  -2
  -2   3  11 845.016 54.5265   1
  -2   3  11 293.902 17.2019   1
   1   3  10 176.443 7.21980  -2
  -1   3  11 176.443 7.21980   1
   0   3  11 91.1055 6.30302  -2
   0   3  11 91.1055 6.30302   1
  -1   3  12 177.743 9.81656  -2
   1   3  11 177.743 9.81656   1
  -2   3  13 59.8557 10.3952  -2
   2   3  11 59.8557 10.3952   1
   2   3  11 21.9390 4.16492   2
   2   3  11 13.7182 4.83216   1
   3   3  11 8.37466 5.14767   1
   3   3  11 8.77393 3.74337   2
  -3   3  14 22.9305 11.2239  -2
   3   3  11 22.9305 11.2239   1
   4   3  11 43.8615 5.04305   1
   4   3  11 47.8676 4.52368   2
   5   3  11 7.56515 3.55666   2
   5   3  11 3.01466 4.27615   1
  -8   4  11 2.44858 3.63259   1
  -8   4  11 -0.4698 4.19470   2
  -7   4  11 9.39415 3.56331   1
  -7   4  11 6.71043 4.24821   2
  -6   4  11 -0.8163 3.95213   2
  -6   4  11 -2.0365 3.33615   1
  -5   4  11 281.945 13.1419   1
  -5   4  11 294.025 14.5952   2
  -4   4  11 85.9905 5.89219   1
  -4   4  11 97.6995 7.06235   2
  -3   4  11 -4.4302 4.35542   2
  -3   4  11 -2.1455 3.72550   1
   3   4   8 1.44968 10.7414  -2
  -3   4  11 1.44968 10.7414   1
  -2   4  11 142.425 9.78829   1
   2   4   9 278.795 20.5319  -2
  -2   4  11 278.795 20.5319   1
  -2   4  11 121.930 10.6295   2
   1   4  10 20.8608 8.69429  -2
  -1   4  11 20.8608 8.69429   1
   0   4  11 78.3501 5.64751  -2
   0   4  11 78.3501 5.64751   1
  -1   4  12 13.4703 5.44658  -2
   1   4  11 13.4703 5.44658   1
  -2   4  13 100.254 11.9169  -2
   2   4  11 100.254 11.9169   1
   2   4  11 48.2945 6.53298   1
  -3   4  14 1.08456 12.4129  -2
   3   4  11 1.08456 12.4129   1
   3   4  11 5.95653 5.32887   1
   3   4  11 12.7710 4.13440   2
   4   4  11 5.07687 3.47869   2
   4   4  11 2.97619 4.14767   1
   5   4  11 29.9606 4.08487   2
   5   4  11 23.0001 5.00521   1
  -8   5  11 2.23326 6.30311   2
  -7   5  11 0.23559 4.19713   2
  -7   5  11 2.08237 3.45369   1
  -6   5  11 13.6469 4.30526   2
  -6   5  11 11.0105 3.72107   1
  -5   5  11 99.4565 6.62550   1
  -5   5  11 105.550 7.58144   2
  -4   5  11 57.6277 4.96434   1
  -4   5  11 53.8111 5.12052   2
  -3   5  11 108.179 8.68080   1
  -3   5  11 90.9729 9.89380   2
   3   5   8 98.2034 13.2312  -2
  -3   5  11 98.2034 13.2312   1
   2   5   9 100.437 12.6130  -2
  -2   5  11 100.437 12.6130   1
  -2   5  11 42.6574 6.57903   2
  -2   5  11 62.8853 6.27790   1
   1   5  10 193.850 16.3091  -2
  -1   5  11 193.850 16.3091   1
   0   5  11 191.027 10.3330  -2
   0   5  11 191.027 10.3330   1
  -1   5  12 123.160 8.35946  -2
   1   5  11 123.160 8.35946   1
   2   5  11 5.55490 4.77347   1
  -2   5  13 4.68510 10.1182  -2
   2   5  11 4.68510 10.1182   1
  -3   5  14 24.9460 11.8244  -2
   3   5  11 24.9460 11.8244   1
   3   5  11 9.06907 5.65167   1
   4   5  11 5.76647 6.84226   2
   4   5  11 2.60258 4.08186   1
   5   5  11 8.48618 4.22433   2
  -7   6  11 2.25890 3.84177   1
  -7   6  11 -0.6409 4.25047   2
  -6   6  11 1.09039 4.39005   2
  -6   6  11 5.64550 3.82002   1
  -5   6  11 11.1238 4.23833   2
  -5   6  11 12.3228 3.92502   1
  -4   6  11 3.84811 3.71387   1
  -4   6  11 -0.1436 3.76127   2
  -3   6  11 188.150 12.7103   1
  -3   6  11 156.007 12.8118   2
   3   6   8 308.432 24.0787  -2
  -3   6  11 308.432 24.0787   1
  -2   6  11 58.6383 7.58905   2
   2   6   9 133.319 14.6693  -2
  -2   6  11 133.319 14.6693   1
   1   6  10 19.5485 9.42762  -2
  -1   6  11 19.5485 9.42762   1
   0   6  11 46.6235 7.57991  -2
   0   6  11 46.6235 7.57991   1
  -1   6  12 71.6783 7.11706  -2
   1   6  11 71.6783 7.11706   1
  -2   6  13 46.7473 11.0855  -2
   2   6  11 46.7473 11.0855   1
   2   6  11 19.1230 5.71945   1
  -3   6  14 2.44515 12.7802  -2
   3   6  11 2.44515 12.7802   1
   3   6  11 9.84478 5.86145   1
  -6   7  11 -0.6992 5.86798   2
  -6   7  11 1.33828 3.83495   1
  -5   7  11 1.50978 3.90218   1
  -5   7  11 -3.3483 4.00542   2
  -4   7  11 2.49409 3.99309   1
  -4   7  11 3.99705 4.16602   2
  -3   7  11 30.5027 6.83668   2
   3   7   8 181.267 19.1619  -2
  -3   7  11 181.267 19.1619   1
  -2   7  11 2.03334 5.54181   2
   2   7   9 36.0979 12.8759  -2
  -2   7  11 36.0979 12.8759   1
   1   7  10 109.385 12.8811  -2
  -1   7  11 109.385 12.8811   1
   0   7  11 62.3352 8.59210  -2
   0   7  11 62.3352 8.59210   1
  -1   7  12 48.6534 7.29149  -2
   1   7  11 48.6534 7.29149   1
   2   7  11 5.99316 5.74607   1
  -2   7  13 20.1640 9.81840  -2
   2   7  11 20.1640 9.81840   1
  -5   8  11 6.16741 4.90589   1
  -4   8  11 -4.2466 4.12780   2
   4   8   7 11.3266 17.3564  -2
  -4   8  11 11.3266 17.3564   1
   3   8   8 31.1785 16.4811  -2
  -3   8  11 31.1785 16.4811   1
  -3   8  11 7.42650 6.32627   2
   2   8   9 61.8429 13.8906  -2
  -2   8  11 61.8429 13.8906   1
   1   8  10 82.0074 12.2098  -2
  -1   8  11 82.0074 12.2098   1
   0   8  11 48.8390 8.20533  -2
   0   8  11 48.8390 8.20533   1
   3 -11   9 32.9150 8.79685  -2
  -3 -11  12 32.9150 8.79685   1
   2 -11  10 17.3312 8.38078  -2
  -2 -11  12 17.3312 8.38078   1
   1 -11  11 -0.5289 5.11984  -2
  -1 -11  12 -0.5289 5.11984   1
   0 -11  12 133.032 7.74472  -2
   0 -11  12 133.032 7.74472   1
  -5 -10  12 3.12292 5.45262   1
  -4 -10  12 19.7222 3.80756   2
  -4 -10  12 27.1996 4.29243   1
   3 -10   9 7.66945 7.05580  -2
  -3 -10  12 7.66945 7.05580   1
   2 -10  10 3.27034 5.77751  -2
  -2 -10  12 3.27034 5.77751   1
   1 -10  11 59.1619 5.90528  -2
  -1 -10  12 59.1619 5.90528   1
   0 -10  12 107.374 6.83208  -2
   0 -10  12 107.374 6.83208   1
  -1 -10  13 33.9809 5.70948  -2
   1 -10  12 33.9809 5.70948   1
  -2 -10  14 288.516 14.1594  -2
   2 -10  12 288.516 14.1594   1
  -5  -9  12 2.16193 3.44498   2
  -5  -9  12 3.90282 3.51666   1
  -4  -9  12 162.984 8.37707   2
  -4  -9  12 181.840 9.65108   1
   3  -9   9 0.86865 6.15496  -2
  -3  -9  12 0.86865 6.15496   1
   2  -9  10 10.7848 5.61429  -2
  -2  -9  12 10.7848 5.61429   1
   1  -9  11 97.3828 7.00510  -2
  -1  -9  12 97.3828 7.00510   1
   0  -9  12 20.9872 3.84965  -2
   0  -9  12 20.9872 3.84965   1
  -1  -9  13 12.4028 5.29666  -2
   1  -9  12 12.4028 5.29666   1
  -2  -9  14 216.659 11.2436  -2
   2  -9  12 216.659 11.2436   1
  -3  -9  15 87.0488 8.07359  -2
   3  -9  12 87.0488 8.07359   1
   4  -9  12 34.1509 4.81901   1
   4  -9  12 26.7261 3.97597   2
  -6  -8  12 0.78426 4.40622   2
  -6  -8  12 -4.3289 4.12705   1
  -5  -8  12 35.8822 4.16619   2
  -5  -8  12 37.9761 4.25122   1
  -4  -8  12 207.458 10.1019   2
  -4  -8  12 222.077 10.8593   1
   3  -8   9 18.9551 6.63049  -2
  -3  -8  12 18.9551 6.63049   1
   2  -8  10 295.521 13.9469  -2
  -2  -8  12 295.521 13.9469   1
   1  -8  11 1.31690 4.77281  -2
  -1  -8  12 1.31690 4.77281   1
   0  -8  12 47.6451 4.54389  -2
   0  -8  12 47.6451 4.54389   1
  -1  -8  13 94.5671 6.62285  -2
   1  -8  12 94.5671 6.62285   1
  -2  -8  14 154.438 9.10340  -2
   2  -8  12 154.438 9.10340   1
  -3  -8  15 44.3491 7.09907  -2
   3  -8  12 44.3491 7.09907   1
   4  -8  12 25.1031 4.51823   1
   4  -8  12 20.0974 5.43606   2
   5  -8  12 0.89066 3.88477   1
   5  -8  12 3.61808 4.47108   2
  -7  -7  12 35.2330 5.43902   2
  -6  -7  12 4.61479 3.12354   2
  -6  -7  12 2.53779 4.70388   1
  -5  -7  12 44.2539 4.30746   1
  -5  -7  12 42.3095 4.10977   2
  -4  -7  12 117.203 7.16666   1
  -4  -7  12 113.840 6.67936   2
   3  -7   9 57.3801 6.88203  -2
  -3  -7  12 57.3801 6.88203   1
   2  -7  10 677.363 28.7112  -2
  -2  -7  12 677.363 28.7112   1
   1  -7  11 33.3043 5.08385  -2
  -1  -7  12 33.3043 5.08385   1
   0  -7  12 1.54977 3.00679  -2
   0  -7  12 1.54977 3.00679   1
  -1  -7  13 144.688 8.20572  -2
   1  -7  12 144.688 8.20572   1
  -2  -7  14 66.0487 6.69250  -2
   2  -7  12 66.0487 6.69250   1
  -3  -7  15 2.16014 6.78521  -2
   3  -7  12 2.16014 6.78521   1
   4  -7  12 46.4986 4.91259   1
   4  -7  12 42.8218 6.02453   2
   5  -7  12 7.27825 3.87650   1
   5  -7  12 5.03122 4.57333   2
  -8  -6  12 29.1954 4.99505   2
  -7  -6  12 3.86500 5.18406   1
  -7  -6  12 3.24574 4.15302   2
  -6  -6  12 49.1426 6.54657   1
  -6  -6  12 49.1809 4.31390   2
  -5  -6  12 28.4563 3.76460   2
  -5  -6  12 35.7509 5.82251   1
  -4  -6  12 33.3143 3.89046   1
  -4  -6  12 31.2260 3.86252   2
   3  -6   9 672.725 28.5700  -2
  -3  -6  12 672.725 28.5700   1
   2  -6  10 573.803 24.5862  -2
  -2  -6  12 573.803 24.5862   1
   1  -6  11 24.2993 4.42614  -2
  -1  -6  12 24.2993 4.42614   1
   0  -6  12 487.250 20.7889  -2
   0  -6  12 487.250 20.7889   1
  -1  -6  13 93.0885 6.60438  -2
   1  -6  12 93.0885 6.60438   1
  -2  -6  14 55.9545 6.26219  -2
   2  -6  12 55.9545 6.26219   1
  -3  -6  15 67.6808 7.42441  -2
   3  -6  12 67.6808 7.42441   1
   4  -6  12 28.1934 4.28402   1
   4  -6  12 19.2055 4.43493   2
   5  -6  12 0.99031 4.33096   2
   5  -6  12 -1.8763 5.73350   1
   6  -6  12 3.29125 5.85859   1
  -7  -5  12 0.16380 3.83957   2
  -7  -5  12 -3.4766 5.16665   1
  -6  -5  12 38.5619 3.88349   2
  -5  -5  12 99.9130 6.12231   2
  -5  -5  12 112.981 9.71548   1
  -4  -5  12 163.424 8.17948   1
  -4  -5  12 154.936 8.00377   2
   3  -5   9 111.491 7.33066  -2
  -3  -5  12 111.491 7.33066   1
  -3  -5  12 8.76833 4.67128   2
   2  -5  10 46.6317 5.42223  -2
  -2  -5  12 46.6317 5.42223   1
   1  -5  11 108.398 6.68929  -2
  -1  -5  12 108.398 6.68929   1
   0  -5  12 1104.99 45.3856  -2
   0  -5  12 1104.99 45.3856   1
  -1  -5  13 38.7141 4.78368  -2
   1  -5  12 38.7141 4.78368   1
  -2  -5  14 41.5683 5.78790  -2
   2  -5  12 41.5683 5.78790   1
  -3  -5  15 13.9340 6.45855  -2
   3  -5  12 13.9340 6.45855   1
   4  -5  12 49.9942 5.72391   2
   4  -5  12 48.2733 4.65271   1
   5  -5  12 67.1388 6.63466   2
   5  -5  12 74.8006 8.94713   1
   6  -5  12 -0.3368 5.93233   1
   6  -5  12 2.41885 5.03934   2
  -9  -4  12 38.3415 7.02372   1
  -8  -4  12 5.16335 3.69496   1
  -7  -4  12 2.48818 3.67440   1
  -7  -4  12 1.74902 5.25993   2
  -6  -4  12 250.720 11.5230   2
  -6  -4  12 241.104 11.7608   1
  -5  -4  12 -0.7842 2.93213   1
  -5  -4  12 0.24989 2.79173   2
  -4  -4  12 40.2277 2.84709   1
  -4  -4  12 37.6985 3.77761   2
  -3  -4  12 179.597 12.6820   1
   3  -4   9 287.367 13.2926  -2
  -3  -4  12 287.367 13.2926   1
  -3  -4  12 150.522 12.1800   2
   2  -4  10 310.621 14.0836  -2
  -2  -4  12 310.621 14.0836   1
   1  -4  11 124.974 7.06986  -2
  -1  -4  12 124.974 7.06986   1
   0  -4  12 108.313 6.19912  -2
   0  -4  12 108.313 6.19912   1
  -1  -4  13 13.9773 4.47367  -2
   1  -4  12 13.9773 4.47367   1
  -2  -4  14 189.548 10.0767  -2
   2  -4  12 189.548 10.0767   1
  -3  -4  15 169.061 9.92579  -2
   3  -4  12 169.061 9.92579   1
   4  -4  12 28.3391 4.71792   2
   4  -4  12 29.8238 6.20885   1
   5  -4  12 115.485 9.98085   2
   5  -4  12 116.985 11.6250   1
   6  -4  12 1.10130 6.26493   1
   6  -4  12 4.29693 5.17594   2
  -9  -3  12 104.141 6.92568   1
  -8  -3  12 -3.2263 4.94504   2
  -8  -3  12 -1.7228 3.62638   1
  -7  -3  12 40.0329 4.59717   1
  -7  -3  12 36.4923 4.35364   2
  -6  -3  12 65.6963 5.24028   2
  -6  -3  12 67.5857 5.36567   1
  -5  -3  12 2.84427 3.12132   1
  -5  -3  12 2.31373 2.17401   2
  -4  -3  12 205.173 9.95441   1
  -4  -3  12 197.095 9.38992   2
  -3  -3  12 55.9656 4.11213   1
  -3  -3  12 56.5760 7.27695   2
   3  -3   9 102.729 9.20272  -2
  -3  -3  12 102.729 9.20272   1
   2  -3  10 374.272 13.8147  -2
  -2  -3  12 374.272 13.8147   1
   1  -3  11 291.553 11.0697  -2
  -1  -3  12 291.553 11.0697   1
   0  -3  12 47.8228 3.17034  -2
   0  -3  12 47.8228 3.17034   1
  -1  -3  13 1.55139 4.22922  -2
   1  -3  12 1.55139 4.22922   1
  -2  -3  14 499.386 21.6921  -2
   2  -3  12 499.386 21.6921   1
   3  -3  12 23.8684 5.57305   1
   3  -3  12 24.8740 4.28302   2
   4  -3  12 1.05429 5.31044   2
   4  -3  12 5.06401 5.84178   1
   5  -3  12 6.41000 4.70212   2
   5  -3  12 5.96130 5.82774   1
   6  -3  12 2.60455 6.29629   1
   6  -3  12 5.92461 5.21269   2
  -9  -2  12 25.8718 4.07905   1
  -9  -2  12 25.4917 6.35170   2
  -8  -2  12 6.00374 3.71060   1
  -8  -2  12 6.77856 5.53177   2
  -7  -2  12 165.594 9.49915   2
  -7  -2  12 170.294 9.22261   1
  -6  -2  12 -0.9493 3.30286   2
  -6  -2  12 -2.2786 3.43872   1
  -5  -2  12 0.85091 3.35652   2
  -5  -2  12 -1.7555 3.29620   1
  -4  -2  12 333.951 12.2083   2
  -4  -2  12 294.558 20.4102   1
  -3  -2  12 5.19518 1.94939   1
  -3  -2  12 8.21016 2.30049   2
  -2  -2  12 3.38014 4.19764   2
   2  -2  10 149.277 6.91300  -2
  -2  -2  12 149.277 6.91300   1
   1  -2  11 245.140 9.53615  -2
  -1  -2  12 245.140 9.53615   1
   0  -2  12 94.7459 4.78626  -2
   0  -2  12 94.7459 4.78626   1
  -1  -2  13 64.2758 4.50439  -2
   1  -2  12 64.2758 4.50439   1
  -2  -2  14 78.8731 5.35307  -2
   2  -2  12 78.8731 5.35307   1
   3  -2  12 28.6961 4.51337   2
   3  -2  12 30.7839 5.97852   1
  -3  -2  15 157.834 15.2206  -2
   3  -2  12 157.834 15.2206   1
   4  -2  12 108.266 6.80435   2
   4  -2  12 153.487 13.3770   1
   5  -2  12 32.0465 4.18995   2
   5  -2  12 40.5499 7.41858   1
   6  -2  12 15.4357 6.84870   1
   6  -2  12 6.20685 3.89181   2
  -9  -1  12 1.50671 3.71960   1
  -9  -1  12 4.66222 5.86199   2
  -8  -1  12 -1.4680 3.78795   2
  -8  -1  12 -3.2527 3.36534   1
  -7  -1  12 161.345 9.37219   2
  -7  -1  12 151.691 8.32356   1
  -6  -1  12 10.2155 3.76369   2
  -6  -1  12 9.20893 3.38079   1
  -5  -1  12 66.4555 5.24698   2
  -5  -1  12 59.7799 4.84461   1
  -4  -1  12 2.88522 3.22573   2
  -4  -1  12 3.34842 3.04751   1
   3  -1   9 137.902 13.6514  -2
  -3  -1  12 137.902 13.6514   1
  -3  -1  12 103.584 8.10056   1
  -3  -1  12 125.927 11.5830   2
  -2  -1  12 544.648 35.2009   2
   2  -1  10 673.874 43.7341  -2
  -2  -1  12 673.874 43.7341   1
  -2  -1  12 502.356 21.0166   1
   1  -1  11 89.8318 4.80941  -2
  -1  -1  12 89.8318 4.80941   1
   0  -1  12 343.978 12.3281  -2
   0  -1  12 343.978 12.3281   1
  -1  -1  13 40.3662 3.86872  -2
   1  -1  12 40.3662 3.86872   1
  -2  -1  14 246.473 13.3925  -2
   2  -1  12 246.473 13.3925   1
   3  -1  12 110.543 10.7630   1
  -3  -1  15 111.274 13.0448  -2
   3  -1  12 111.274 13.0448   1
   3  -1  12 86.6939 7.79073   2
   4  -1  12 14.1070 6.00396   1
   4  -1  12 6.72391 3.29769   2
  -4  -1  16 95.1445 15.0462  -2
   4  -1  12 95.1445 15.0462   1
   5  -1  12 12.3214 4.28965   1
   5  -1  12 12.7389 3.53226   2
   6  -1  12 38.6352 5.09776   1
   6  -1  12 27.8504 4.37466   2
  -9   0  12 -1.7126 3.61721   1
  -9   0  12 -6.0199 5.63637   2
  -8   0  12 0.96745 4.05212   2
  -8   0  12 1.94795 3.40670   1
  -7   0  12 11.8460 4.15547   2
  -7   0  12 13.1255 3.59392   1
  -6   0  12 -0.6673 3.74596   2
  -6   0  12 4.21689 3.44476   1
  -5   0  12 233.790 12.2336   2
  -5   0  12 201.155 9.90219   1
  -4   0  12 1.39658 2.87458   1
  -4   0  12 3.59139 3.28328   2
  -3   0  12 28.2296 4.35986   1
  -3   0  12 36.8245 6.10784   2
   3   0   9 50.8037 11.0748  -2
  -3   0  12 50.8037 11.0748   1
  -2   0  12 25.3042 2.64080   1
   2   0  10 79.7425 10.9152  -2
  -2   0  12 79.7425 10.9152   1
  -2   0  12 25.1587 5.47275   2
   1   0  11 82.8027 6.20574  -2
  -1   0  12 82.8027 6.20574   1
   0   0  12 238.615 8.87253  -2
   0   0  12 238.615 8.87253   1
  -1   0  13 9.52180 4.94439  -2
   1   0  12 9.52180 4.94439   1
   2   0  12 15.9659 4.97776   1
  -2   0  14 89.4348 11.8114  -2
   2   0  12 89.4348 11.8114   1
  -3   0  15 164.325 15.9099  -2
   3   0  12 164.325 15.9099   1
   3   0  12 135.878 11.3911   1
   3   0  12 105.936 8.37622   2
   4   0  12 126.279 9.55115   2
  -4   0  16 163.295 17.4104  -2
   4   0  12 163.295 17.4104   1
   4   0  12 159.514 13.4955   1
   5   0  12 20.4762 3.74839   2
   5   0  12 29.5542 4.90594   1
   6   0  12 17.6361 4.84144   1
   6   0  12 15.2740 3.94301   2
  -9   1  12 3.29896 4.80576   1
  -9   1  12 -9.5961 5.71573   2
  -8   1  12 -0.8656 4.06345   2
  -8   1  12 0.64070 3.59411   1
  -7   1  12 -1.9376 4.12229   2
  -7   1  12 0.46709 3.45373   1
  -6   1  12 15.3980 3.44616   1
  -6   1  12 15.7364 4.21980   2
  -5   1  12 84.6953 6.44385   2
  -5   1  12 78.2837 5.59200   1
  -4   1  12 38.1147 4.55291   2
  -4   1  12 27.7328 3.66267   1
   3   1   9 23.4927 10.3783  -2
  -3   1  12 23.4927 10.3783   1
  -3   1  12 50.9396 6.71473   2
  -3   1  12 43.5644 4.97780   1
  -2   1  12 9.62307 4.65103   2
  -2   1  12 5.86185 3.34134   1
   2   1  10 7.51371 9.03565  -2
  -2   1  12 7.51371 9.03565   1
   1   1  11 358.391 12.8563  -2
  -1   1  12 358.391 12.8563   1
   0   1  12 817.567 27.9077  -2
   0   1  12 817.567 27.9077   1
  -1   1  13 193.154 10.3908  -2
   1   1  12 193.154 10.3908   1
  -2   1  14 -3.3317 9.05503  -2
   2   1  12 -3.3317 9.05503   1
   2   1  12 4.29836 4.05551   1
   2   1  12 4.57160 3.29891   2
   3   1  12 98.7456 7.83533   2
   3   1  12 118.380 10.8554   1
  -3   1  15 344.859 25.7077  -2
   3   1  12 344.859 25.7077   1
   4   1  12 7.24096 3.21356   2
   4   1  12 4.30705 3.86959   1
   5   1  12 106.680 7.73982   1
   5   1  12 86.1475 7.98676   2
   6   1  12 21.0920 5.19623   1
   6   1  12 15.5798 3.85480   2
  -8   2  12 -0.8024 4.07890   2
  -8   2  12 -0.0212 3.39936   1
  -7   2  12 11.6332 3.76623   1
  -7   2  12 12.2383 4.30793   2
  -6   2  12 2.12063 4.03642   2
  -6   2  12 1.40114 3.38252   1
  -5   2  12 5.82882 3.70439   2
  -5   2  12 4.61488 3.12591   1
  -4   2  12 0.70274 2.89514   1
  -4   2  12 1.62182 3.50442   2
  -3   2  12 36.8707 6.34724   2
  -3   2  12 37.0346 4.52349   1
   3   2   9 31.7122 11.2132  -2
  -3   2  12 31.7122 11.2132   1
  -2   2  12 120.001 8.46037   1
  -2   2  12 122.127 10.5057   2
   2   2  10 179.780 15.2376  -2
  -2   2  12 179.780 15.2376   1
   1   2  11 55.8861 3.95942  -2
  -1   2  12 55.8861 3.95942   1
   0   2  12 25.3103 3.38176  -2
   0   2  12 25.3103 3.38176   1
  -1   2  13 80.0155 6.49230  -2
   1   2  12 80.0155 6.49230   1
   2   2  12 270.904 16.0284   2
   2   2  12 286.898 19.7152   1
  -2   2  14 467.301 31.8146  -2
   2   2  12 467.301 31.8146   1
  -3   2  15 127.290 15.0142  -2
   3   2  12 127.290 15.0142   1
   3   2  12 44.4325 5.13237   2
   3   2  12 58.0526 7.27730   1
   4   2  12 4.86197 4.17246   1
   4   2  12 7.37703 3.40278   2
   5   2  12 55.1186 4.66597   2
   5   2  12 73.8949 6.55734   1
  -8   3  12 9.42572 3.68254   1
  -8   3  12 11.1695 4.39409   2
  -7   3  12 -1.7193 4.13392   2
  -7   3  12 1.41640 3.55371   1
  -6   3  12 0.16044 3.20476   1
  -6   3  12 0.00826 4.04603   2
  -5   3  12 -2.2469 3.25683   1
  -5   3  12 -2.5741 3.60888   2
  -4   3  12 90.3963 6.02110   1
  -4   3  12 99.5942 7.06287   2
  -3   3  12 14.8636 3.98321   1
  -3   3  12 5.83803 4.76478   2
   3   3   9 32.5519 12.0163  -2
  -3   3  12 32.5519 12.0163   1
  -2   3  12 9.58208 4.79965   2
  -2   3  12 12.5145 3.60221   1
   2   3  10 27.6159 9.63407  -2
  -2   3  12 27.6159 9.63407   1
   1   3  11 200.391 9.51057  -2
  -1   3  12 200.391 9.51057   1
   0   3  12 212.125 10.6312  -2
   0   3  12 212.125 10.6312   1
  -1   3  13 143.095 8.55207  -2
   1   3  12 143.095 8.55207   1
  -2   3  14 242.878 19.0283  -2
   2   3  12 242.878 19.0283   1
   2   3  12 108.960 9.86680   1
   2   3  12 117.168 8.42127   2
   3   3  12 1.66045 3.65321   2
   3   3  12 1.52821 4.98368   1
  -3   3  15 40.6166 12.0199  -2
   3   3  12 40.6166 12.0199   1
   4   3  12 64.4268 6.01596   1
   4   3  12 62.7936 4.96856   2
   5   3  12 78.0163 5.87736   2
   5   3  12 80.4335 6.80655   1
  -8   4  12 -7.9035 6.26122   2
  -7   4  12 69.6807 6.22882   2
  -7   4  12 59.3465 5.13307   1
  -6   4  12 9.01985 4.28340   2
  -6   4  12 9.34230 3.48147   1
  -5   4  12 30.6230 4.70198   2
  -5   4  12 21.7438 3.60213   1
  -4   4  12 15.6659 3.57620   1
  -4   4  12 18.0193 4.19378   2
   3   4   9 105.031 13.3423  -2
  -3   4  12 105.031 13.3423   1
  -3   4  12 66.1708 6.23789   1
  -3   4  12 50.7295 6.77807   2
  -2   4  12 177.562 11.4804   1
   2   4  10 505.279 34.3398  -2
  -2   4  12 505.279 34.3398   1
  -2   4  12 153.188 12.3809   2
   1   4  11 21.9793 9.01506  -2
  -1   4  12 21.9793 9.01506   1
   0   4  12 64.9188 5.18224  -2
   0   4  12 64.9188 5.18224   1
  -1   4  13 5.41935 5.19145  -2
   1   4  12 5.41935 5.19145   1
   2   4  12 0.16219 4.59629   1
  -2   4  14 3.54681 10.2133  -2
   2   4  12 3.54681 10.2133   1
  -3   4  15 21.6559 12.0344  -2
   3   4  12 21.6559 12.0344   1
   3   4  12 22.2551 5.83491   1
   4   4  12 128.626 7.50185   2
   4   4  12 120.398 8.35349   1
   5   4  12 10.2352 4.27504   2
  -7   5  12 24.2317 5.00464   2
  -7   5  12 25.2710 4.22684   1
  -6   5  12 2.39793 3.40688   1
  -6   5  12 1.29543 4.33338   2
  -5   5  12 18.3970 3.86766   1
  -5   5  12 23.3079 4.45556   2
  -4   5  12 13.1208 3.75079   1
  -4   5  12 11.5168 4.00346   2
  -3   5  12 -1.0754 5.19996   2
  -3   5  12 5.10253 4.22688   1
   3   5   9 48.3119 11.9041  -2
  -3   5  12 48.3119 11.9041   1
   2   5  10 443.058 31.0065  -2
  -2   5  12 443.058 31.0065   1
  -2   5  12 113.093 10.6750   2
   1   5  11 179.118 15.5567  -2
  -1   5  12 179.118 15.5567   1
   0   5  12 169.484 14.1541  -2
   0   5  12 169.484 14.1541   1
  -1   5  13 174.420 10.0875  -2
   1   5  12 174.420 10.0875   1
   2   5  12 0.94830 5.01658   1
  -2   5  14 1.19311 11.7308  -2
   2   5  12 1.19311 11.7308   1
  -3   5  15 5.33783 13.3200  -2
   3   5  12 5.33783 13.3200   1
   3   5  12 9.33816 5.71912   1
   4   5  12 32.7728 7.07057   1
  -6   6  12 31.2606 5.14345   2
  -6   6  12 28.3717 4.39858   1
  -5   6  12 48.6177 4.80579   1
  -5   6  12 45.7095 5.30728   2
  -4   6  12 15.7916 4.05177   1
  -4   6  12 17.8960 4.42547   2
  -3   6  12 -0.6339 5.47259   2
   3   6   9 20.9662 13.4077  -2
  -3   6  12 20.9662 13.4077   1
   2   6  10 154.849 15.7217  -2
  -2   6  12 154.849 15.7217   1
  -2   6  12 38.0568 6.70048   2
   1   6  11 97.9222 12.0872  -2
  -1   6  12 97.9222 12.0872   1
   0   6  12 328.311 23.3579  -2
   0   6  12 328.311 23.3579   1
  -1   6  13 66.4386 7.00083  -2
   1   6  12 66.4386 7.00083   1
   2   6  12 9.57212 5.47770   1
  -2   6  14 17.2786 12.0912  -2
   2   6  12 17.2786 12.0912   1
   3   6  12 3.85617 5.54418   1
  -5   7  12 -1.9404 4.26030   2
  -5   7  12 -0.7446 3.83869   1
  -4   7  12 -4.2235 3.98895   2
  -4   7  12 2.36614 3.85159   1
  -3   7  12 71.7216 8.87954   2
   3   7   9 108.224 15.2557  -2
  -3   7  12 108.224 15.2557   1
  -2   7  12 18.2915 6.11974   2
   2   7  10 64.7968 13.7384  -2
  -2   7  12 64.7968 13.7384   1
   1   7  11 80.7737 11.8592  -2
  -1   7  12 80.7737 11.8592   1
   0   7  12 194.810 15.9994  -2
   0   7  12 194.810 15.9994   1
  -1   7  13 47.9837 10.5112  -2
   1   7  12 47.9837 10.5112   1
  -2   7  14 125.588 13.1945  -2
   2   7  12 125.588 13.1945   1
  -3   8  12 6.56533 6.34816   2
   2   8  10 161.954 17.4430  -2
  -2   8  12 161.954 17.4430   1
  -5 -10  13 -5.5481 3.14156   2
  -4 -10  13 0.41864 5.20731   2
  -4 -10  13 9.20269 3.82223   1
   3 -10  10 64.3145 7.35948  -2
  -3 -10  13 64.3145 7.35948   1
   2 -10  11 35.6250 6.55245  -2
  -2 -10  13 35.6250 6.55245   1
   1 -10  12 36.7089 5.43893  -2
  -1 -10  13 36.7089 5.43893   1
   0 -10  13 3.26581 3.61219  -2
   0 -10  13 3.26581 3.61219   1
  -1 -10  14 20.2997 5.29699  -2
   1 -10  13 20.2997 5.29699   1
  -5  -9  13 25.7320 4.10154   2
  -5  -9  13 31.0535 4.22210   1
  -4  -9  13 -3.9527 3.54131   1
  -4  -9  13 -3.2664 3.27173   2
   3  -9  10 48.1873 6.75944  -2
  -3  -9  13 48.1873 6.75944   1
   2  -9  11 13.4441 5.46591  -2
  -2  -9  13 13.4441 5.46591   1
   1  -9  12 10.3477 5.18681  -2
  -1  -9  13 10.3477 5.18681   1
   0  -9  13 58.0717 5.17602  -2
   0  -9  13 58.0717 5.17602   1
  -1  -9  14 39.7413 5.25895  -2
   1  -9  13 39.7413 5.25895   1
  -2  -9  15 0.13063 6.12388  -2
   2  -9  13 0.13063 6.12388   1
  -3  -9  16 7.31829 7.09437  -2
   3  -9  13 7.31829 7.09437   1
   4  -9  13 0.01582 5.34512   1
  -6  -8  13 62.8611 6.41611   2
  -6  -8  13 61.6398 6.83798   1
  -5  -8  13 30.6051 4.05376   1
  -5  -8  13 25.1555 4.01000   2
  -4  -8  13 0.97884 3.45833   1
  -4  -8  13 -1.0485 3.20287   2
   3  -8  10 2.63483 6.21024  -2
  -3  -8  13 2.63483 6.21024   1
   2  -8  11 12.6499 5.20462  -2
  -2  -8  13 12.6499 5.20462   1
   1  -8  12 94.6537 6.81380  -2
  -1  -8  13 94.6537 6.81380   1
   0  -8  13 3.62117 3.32397  -2
   0  -8  13 3.62117 3.32397   1
  -1  -8  14 29.0407 5.32358  -2
   1  -8  13 29.0407 5.32358   1
  -2  -8  15 100.309 7.95550  -2
   2  -8  13 100.309 7.95550   1
  -3  -8  16 11.2334 7.94427  -2
   3  -8  13 11.2334 7.94427   1
   4  -8  13 28.9900 4.72171   1
   4  -8  13 19.3904 5.22783   2
   5  -8  13 66.2263 7.28732   1
  -7  -7  13 8.69926 4.51193   2
  -6  -7  13 -3.0598 4.65602   1
  -6  -7  13 3.97655 3.33318   2
  -5  -7  13 -2.4798 3.12038   2
  -5  -7  13 -2.8367 4.54554   1
  -4  -7  13 115.479 6.67866   2
  -4  -7  13 106.524 9.50355   1
   3  -7  10 45.0988 6.78367  -2
  -3  -7  13 45.0988 6.78367   1
   2  -7  11 29.8297 5.51182  -2
  -2  -7  13 29.8297 5.51182   1
   1  -7  12 147.266 8.35386  -2
  -1  -7  13 147.266 8.35386   1
   0  -7  13 130.871 7.60540  -2
   0  -7  13 130.871 7.60540   1
  -1  -7  14 93.3717 6.95413  -2
   1  -7  13 93.3717 6.95413   1
  -2  -7  15 97.6167 7.71596  -2
   2  -7  13 97.6167 7.71596   1
  -3  -7  16 5.72597 7.15249  -2
   3  -7  13 5.72597 7.15249   1
   4  -7  13 37.9125 4.84224   1
   4  -7  13 35.7157 5.58119   2
   5  -7  13 5.59948 4.07294   2
   5  -7  13 7.46304 6.25902   1
  -7  -6  13 74.0653 8.26740   1
  -7  -6  13 52.5124 5.77932   2
  -6  -6  13 1.03077 3.07337   2
  -6  -6  13 -0.2517 4.89592   1
  -5  -6  13 5.27661 3.30092   2
  -5  -6  13 8.77396 4.90429   1
  -4  -6  13 97.3250 6.18016   1
  -4  -6  13 99.5266 6.26625   2
   3  -6  10 130.405 8.27563  -2
  -3  -6  13 130.405 8.27563   1
   2  -6  11 233.416 11.4015  -2
  -2  -6  13 233.416 11.4015   1
   1  -6  12 81.6251 5.90494  -2
  -1  -6  13 81.6251 5.90494   1
   0  -6  13 40.1016 4.08333  -2
   0  -6  13 40.1016 4.08333   1
  -1  -6  14 399.129 17.7133  -2
   1  -6  13 399.129 17.7133   1
  -2  -6  15 23.6327 5.88817  -2
   2  -6  13 23.6327 5.88817   1
  -3  -6  16 0.45685 7.10048  -2
   3  -6  13 0.45685 7.10048   1
   4  -6  13 44.5336 5.30544   2
   4  -6  13 45.4145 4.86555   1
   5  -6  13 6.81177 6.10942   1
   5  -6  13 1.53508 3.98095   2
  -8  -5  13 -0.4394 5.12802   1
  -7  -5  13 5.00997 5.51146   1
  -6  -5  13 26.1984 3.54561   2
  -5  -5  13 53.6896 4.36782   2
  -5  -5  13 60.5578 6.84665   1
  -4  -5  13 2.17552 2.69743   1
  -4  -5  13 4.77012 2.89924   2
   3  -5  10 18.0475 5.43935  -2
  -3  -5  13 18.0475 5.43935   1
  -3  -5  13 3.21722 4.70349   2
   2  -5  11 582.675 24.8550  -2
  -2  -5  13 582.675 24.8550   1
   1  -5  12 35.5481 4.82583  -2
  -1  -5  13 35.5481 4.82583   1
   0  -5  13 113.629 6.59600  -2
   0  -5  13 113.629 6.59600   1
  -1  -5  14 233.835 11.3846  -2
   1  -5  13 233.835 11.3846   1
  -2  -5  15 283.335 13.7161  -2
   2  -5  13 283.335 13.7161   1
  -3  -5  16 108.316 8.12070  -2
   3  -5  13 108.316 8.12070   1
   4  -5  13 2.24396 3.89198   2
   4  -5  13 1.88465 5.79645   1
   5  -5  13 9.74147 5.81040   1
  -8  -4  13 21.3672 4.31350   1
  -7  -4  13 1.72366 5.18593   2
  -7  -4  13 -0.4530 3.69961   1
  -6  -4  13 1.36751 3.55839   1
  -6  -4  13 -1.2007 4.99955   2
  -5  -4  13 12.7956 3.09767   2
  -5  -4  13 16.7602 3.39845   1
  -4  -4  13 112.187 6.57380   2
  -4  -4  13 130.024 9.64460   1
   3  -4  10 181.199 9.42640  -2
  -3  -4  13 181.199 9.42640   1
   2  -4  11 111.826 7.23256  -2
  -2  -4  13 111.826 7.23256   1
   1  -4  12 11.3712 4.48753  -2
  -1  -4  13 11.3712 4.48753   1
   0  -4  13 1342.03 54.9492  -2
   0  -4  13 1342.03 54.9492   1
  -1  -4  14 169.599 8.99684  -2
   1  -4  13 169.599 8.99684   1
  -2  -4  15 68.9968 6.66842  -2
   2  -4  13 68.9968 6.66842   1
  -3  -4  16 251.414 12.6767  -2
   3  -4  13 251.414 12.6767   1
   4  -4  13 2.59310 3.61850   2
   4  -4  13 6.43133 5.83663   1
   5  -4  13 2.75992 6.08534   1
   5  -4  13 6.60928 4.82946   2
   6  -4  13 18.0320 6.60960   1
  -9  -3  13 -0.2742 3.58798   1
  -8  -3  13 19.2735 4.18713   1
  -7  -3  13 7.78561 3.91392   1
  -7  -3  13 11.3141 5.65416   2
  -6  -3  13 104.681 10.8710   2
  -6  -3  13 79.4682 5.83777   1
  -5  -3  13 0.77854 3.20889   1
  -5  -3  13 3.54236 3.13321   2
  -4  -3  13 3.44206 2.98242   1
  -4  -3  13 3.20580 2.66735   2
  -3  -3  13 7.82103 2.09113   1
  -3  -3  13 10.9032 5.30122   2
   2  -3  11 114.301 6.09912  -2
  -2  -3  13 114.301 6.09912   1
   1  -3  12 1.74596 3.68180  -2
  -1  -3  13 1.74596 3.68180   1
   0  -3  13 1591.84 64.9266  -2
   0  -3  13 1591.84 64.9266   1
  -1  -3  14 30.3573 4.68343  -2
   1  -3  13 30.3573 4.68343   1
  -2  -3  15 370.508 16.6896  -2
   2  -3  13 370.508 16.6896   1
  -3  -3  16 209.357 17.1673  -2
   3  -3  13 209.357 17.1673   1
   4  -3  13 10.3828 4.84354   2
   4  -3  13 6.49911 5.78519   1
   5  -3  13 78.4505 9.40730   1
   5  -3  13 64.3387 6.84076   2
   6  -3  13 7.47055 4.72199   2
   6  -3  13 7.38030 6.26369   1
  -9  -2  13 42.6982 7.14380   2
  -9  -2  13 47.0351 4.85811   1
  -8  -2  13 -1.2759 4.96965   2
  -8  -2  13 0.58323 3.80377   1
  -7  -2  13 -0.6219 3.72456   2
  -7  -2  13 -1.3013 3.63914   1
  -6  -2  13 168.088 9.06241   1
  -6  -2  13 200.037 10.6399   2
  -5  -2  13 68.7678 5.23725   1
  -5  -2  13 86.1153 6.49189   2
  -4  -2  13 59.0211 7.08806   1
  -4  -2  13 80.1332 8.93524   2
  -3  -2  13 1.36415 3.39910   1
  -3  -2  13 2.27632 4.88378   2
   3  -2  10 21.2156 10.6283  -2
  -3  -2  13 21.2156 10.6283   1
   2  -2  11 74.5981 5.19046  -2
  -2  -2  13 74.5981 5.19046   1
   1  -2  12 52.8511 4.15404  -2
  -1  -2  13 52.8511 4.15404   1
   0  -2  13 74.5268 4.09915  -2
   0  -2  13 74.5268 4.09915   1
  -1  -2  14 141.619 6.47025  -2
   1  -2  13 141.619 6.47025   1
  -2  -2  15 1085.28 48.3514  -2
   2  -2  13 1085.28 48.3514   1
   3  -2  13 14.0760 5.65221   1
   4  -2  13 0.77957 3.42577   2
   4  -2  13 1.81684 5.72916   1
   5  -2  13 60.2600 5.09225   2
   5  -2  13 80.4773 9.36002   1
   6  -2  13 6.97012 4.97788   2
   6  -2  13 2.29012 5.75333   1
  -9  -1  13 77.8469 8.77610   2
  -9  -1  13 70.8276 7.46953   1
  -8  -1  13 -4.5064 3.62252   1
  -8  -1  13 -4.4900 3.89062   2
  -7  -1  13 7.96397 4.13030   2
  -7  -1  13 12.0530 3.71601   1
  -6  -1  13 37.1043 4.35381   1
  -6  -1  13 41.9929 4.78415   2
  -5  -1  13 31.3518 4.23368   2
  -5  -1  13 23.4390 3.82286   1
  -4  -1  13 427.595 18.7509   1
  -4  -1  13 542.616 35.8785   2
   3  -1  10 97.6104 12.6132  -2
  -3  -1  13 97.6104 12.6132   1
  -3  -1  13 126.310 11.1518   2
  -3  -1  13 102.385 8.40909   1
  -2  -1  13 1.20448 2.12449   1
  -2  -1  13 -0.1153 4.20973   2
   2  -1  11 8.08948 9.17351  -2
  -2  -1  13 8.08948 9.17351   1
   1  -1  12 38.6892 3.74077  -2
  -1  -1  13 38.6892 3.74077   1
   0  -1  13 72.6654 4.03687  -2
   0  -1  13 72.6654 4.03687   1
  -1  -1  14 188.518 7.67539  -2
   1  -1  13 188.518 7.67539   1
  -2  -1  15 1175.20 52.3054  -2
   2  -1  13 1175.20 52.3054   1
  -3  -1  16 7.08127 11.4242  -2
   3  -1  13 7.08127 11.4242   1
   3  -1  13 8.94071 3.83929   2
   3  -1  13 10.1245 5.39057   1
   4  -1  13 83.6732 5.91765   2
  -4  -1  17 128.990 16.3678  -2
   4  -1  13 128.990 16.3678   1
   4  -1  13 122.097 11.0185   1
   5  -1  13 -0.3168 4.09049   1
   5  -1  13 4.34277 3.60898   2
   6  -1  13 24.6908 3.95494   2
  -9   0  13 -5.8333 5.68084   2
  -8   0  13 -2.1165 3.55576   1
  -8   0  13 -0.6222 4.05264   2
  -7   0  13 203.371 10.2436   1
  -7   0  13 209.091 11.5113   2
  -6   0  13 2.29015 3.32690   1
  -6   0  13 3.10696 3.88147   2
  -5   0  13 4.20085 3.12159   1
  -5   0  13 3.60532 3.68136   2
  -4   0  13 462.201 20.0223   1
  -4   0  13 571.956 26.3445   2
  -3   0  13 146.189 12.0335   2
   3   0  10 138.782 14.0521  -2
  -3   0  13 138.782 14.0521   1
  -3   0  13 127.610 9.03192   1
  -2   0  13 355.313 23.7651   2
  -2   0  13 351.682 20.3646   1
   2   0  11 1010.86 64.4636  -2
  -2   0  13 1010.86 64.4636   1
   1   0  12 15.4945 4.57667  -2
  -1   0  13 15.4945 4.57667   1
   0   0  13 115.177 5.16130  -2
   0   0  13 115.177 5.16130   1
  -1   0  14 46.9221 5.38905  -2
   1   0  13 46.9221 5.38905   1
  -2   0  15 155.099 9.93660  -2
   2   0  13 155.099 9.93660   1
   3   0  13 3.41579 3.84776   2
  -3   0  16 -2.7946 11.5987  -2
   3   0  13 -2.7946 11.5987   1
   3   0  13 7.72473 5.17070   1
   4   0  13 199.406 12.7265   2
  -4   0  17 377.485 28.4033  -2
   4   0  13 377.485 28.4033   1
   4   0  13 271.682 19.6332   1
   5   0  13 5.85280 3.55903   2
   5   0  13 7.50121 4.54751   1
   6   0  13 4.36102 6.16039   1
   6   0  13 2.91131 5.99111   2
  -8   1  13 17.9260 4.62539   2
  -8   1  13 17.7915 3.92508   1
  -7   1  13 56.0326 5.67970   2
  -7   1  13 55.4087 4.98387   1
  -6   1  13 68.2500 5.30874   1
  -6   1  13 78.3216 6.89646   2
  -5   1  13 119.963 7.94240   2
  -5   1  13 101.968 6.45260   1
  -4   1  13 2.50289 3.03478   1
  -4   1  13 4.87157 3.73743   2
  -3   1  13 5.60380 4.82944   2
  -3   1  13 8.53375 3.72596   1
   3   1  10 66.4494 11.8311  -2
  -3   1  13 66.4494 11.8311   1
   2   1  11 1239.20 78.5075  -2
  -2   1  13 1239.20 78.5075   1
  -2   1  13 562.453 31.3090   1
  -2   1  13 639.638 40.8646   2
   1   1  12 199.921 7.85164  -2
  -1   1  13 199.921 7.85164   1
   0   1  13 6.55205 2.91219  -2
   0   1  13 6.55205 2.91219   1
  -1   1  14 67.4521 6.38759  -2
   1   1  13 67.4521 6.38759   1
   2   1  13 4.48178 4.10114   1
  -2   1  15 1.43742 10.5215  -2
   2   1  13 1.43742 10.5215   1
   2   1  13 4.44399 3.36857   2
   3   1  13 16.2587 4.05625   2
   3   1  13 15.1944 5.46272   1
  -3   1  16 115.756 15.0788  -2
   3   1  13 115.756 15.0788   1
   4   1  13 20.9292 4.51217   1
   4   1  13 22.9677 3.78313   2
   5   1  13 8.92006 4.65404   1
   5   1  13 4.48233 3.60558   2
  -8   2  13 15.4772 4.69227   2
  -8   2  13 16.3203 3.97791   1
  -7   2  13 4.80969 4.30544   2
  -7   2  13 4.77848 3.67819   1
  -6   2  13 22.6017 4.69691   2
  -6   2  13 23.3882 3.93117   1
  -5   2  13 299.365 13.5818   1
  -5   2  13 363.164 17.8824   2
  -4   2  13 94.0770 6.23209   1
  -4   2  13 110.555 7.52853   2
  -3   2  13 2.49953 5.03893   2
  -3   2  13 -1.6573 3.50834   1
   3   2  10 20.1844 11.4827  -2
  -3   2  13 20.1844 11.4827   1
  -2   2  13 100.501 7.53576   1
   2   2  11 153.182 14.1939  -2
  -2   2  13 153.182 14.1939   1
  -2   2  13 105.240 9.66745   2
   1   2  12 81.1815 4.62838  -2
  -1   2  13 81.1815 4.62838   1
   0   2  13 445.935 20.1110  -2
   0   2  13 445.935 20.1110   1
  -1   2  14 25.8598 5.25571  -2
   1   2  13 25.8598 5.25571   1
   2   2  13 57.4682 6.69052   1
   2   2  13 67.3563 6.49839   2
  -2   2  15 74.1845 11.3994  -2
   2   2  13 74.1845 11.3994   1
  -3   2  16 9.68199 11.5524  -2
   3   2  13 9.68199 11.5524   1
   3   2  13 18.0715 5.49036   1
   3   2  13 10.4225 3.87886   2
   4   2  13 9.95461 3.38581   2
   4   2  13 10.3711 5.91468   1
  -4   2  17 -4.4700 12.9152  -2
   4   2  13 -4.4700 12.9152   1
   5   2  13 6.82811 4.47996   1
   5   2  13 8.38055 3.57044   2
  -8   3  13 2.49566 3.77316   1
  -8   3  13 -0.7067 4.39720   2
  -7   3  13 2.51949 3.68047   1
  -7   3  13 4.81168 4.49069   2
  -6   3  13 46.9980 4.47672   1
  -6   3  13 53.7349 5.68398   2
  -5   3  13 12.0145 4.31934   2
  -5   3  13 8.50182 3.44172   1
  -4   3  13 2.39728 3.81656   2
  -4   3  13 2.62015 3.02878   1
  -3   3  13 252.852 18.0160   2
  -3   3  13 244.880 14.8943   1
   3   3  10 393.803 28.4106  -2
  -3   3  13 393.803 28.4106   1
   2   3  11 89.3021 11.7224  -2
  -2   3  13 89.3021 11.7224   1
  -2   3  13 43.7246 4.82321   1
  -2   3  13 39.6329 6.13087   2
   1   3  12 194.756 16.0861  -2
  -1   3  13 194.756 16.0861   1
   0   3  13 482.781 21.5973  -2
   0   3  13 482.781 21.5973   1
  -1   3  14 112.902 7.83107  -2
   1   3  13 112.902 7.83107   1
  -2   3  15 -6.9367 10.1784  -2
   2   3  13 -6.9367 10.1784   1
   2   3  13 3.50652 4.37935   1
   3   3  13 22.6648 5.68416   1
   3   3  13 17.5411 3.98725   2
  -3   3  16 16.7902 12.2016  -2
   3   3  13 16.7902 12.2016   1
   4   3  13 20.2920 3.76640   2
   4   3  13 16.0102 4.49454   1
   5   3  13 8.40814 4.09941   2
  -7   4  13 5.71095 4.61750   2
  -7   4  13 6.82808 3.74559   1
  -6   4  13 9.13540 4.56304   2
  -6   4  13 6.20065 3.47117   1
  -5   4  13 8.63447 4.29516   2
  -5   4  13 7.27309 3.48499   1
  -4   4  13 22.8002 4.36967   2
  -4   4  13 23.0001 3.63226   1
   3   4  10 373.156 27.2102  -2
  -3   4  13 373.156 27.2102   1
  -3   4  13 165.669 11.0642   1
  -3   4  13 152.771 12.7697   2
  -2   4  13 30.0133 5.72794   2
   2   4  11 135.092 14.2378  -2
  -2   4  13 135.092 14.2378   1
   1   4  12 22.4745 9.15429  -2
  -1   4  13 22.4745 9.15429   1
   0   4  13 35.6548 4.29982  -2
   0   4  13 35.6548 4.29982   1
  -1   4  14 71.9256 6.58129  -2
   1   4  13 71.9256 6.58129   1
  -2   4  15 110.125 12.9893  -2
   2   4  13 110.125 12.9893   1
   2   4  13 61.1832 7.13078   1
  -3   4  16 7.25952 12.2982  -2
   3   4  13 7.25952 12.2982   1
   3   4  13 15.4489 5.59326   1
   4   4  13 36.6548 5.11690   1
   4   4  13 44.8509 8.44446   2
  -6   5  13 -1.5931 4.41688   2
  -6   5  13 0.11366 3.61605   1
  -5   5  13 -0.6733 4.10791   2
  -5   5  13 0.02689 3.46018   1
  -4   5  13 25.4500 4.44764   2
  -4   5  13 26.1308 3.95965   1
  -3   5  13 1.52937 3.95078   1
   3   5  10 72.3557 13.1940  -2
  -3   5  13 72.3557 13.1940   1
  -3   5  13 -0.6760 5.22738   2
  -2   5  13 -4.5391 4.35473   2
   2   5  11 37.7057 10.7871  -2
  -2   5  13 37.7057 10.7871   1
   1   5  12 255.136 19.7305  -2
  -1   5  13 255.136 19.7305   1
   0   5  13 11.2732 6.10811  -2
   0   5  13 11.2732 6.10811   1
  -1   5  14 75.7904 7.01391  -2
   1   5  13 75.7904 7.01391   1
   2   5  13 9.70459 5.22629   1
  -2   5  15 9.42779 11.2289  -2
   2   5  13 9.42779 11.2289   1
  -3   5  16 106.066 13.6584  -2
   3   5  13 106.066 13.6584   1
   3   5  13 26.8686 6.32180   1
  -6   6  13 21.9311 5.26586   1
  -5   6  13 -0.7277 3.72730   1
  -5   6  13 1.90408 4.24055   2
  -4   6  13 -0.3131 4.11624   2
  -4   6  13 1.15313 3.66659   1
  -3   6  13 1.49467 5.12332   2
   3   6  10 44.5719 14.2416  -2
  -3   6  13 44.5719 14.2416   1
   2   6  11 81.3804 12.7365  -2
  -2   6  13 81.3804 12.7365   1
  -2   6  13 29.1835 6.19477   2
   1   6  12 105.222 12.3230  -2
  -1   6  13 105.222 12.3230   1
   0   6  13 1.54044 6.17047  -2
   0   6  13 1.54044 6.17047   1
  -1   6  14 10.4481 8.76931  -2
   1   6  13 10.4481 8.76931   1
  -2   6  15 10.1389 9.43298  -2
   2   6  13 10.1389 9.43298   1
  -5   7  13 2.36332 4.59005   1
  -4   7  13 4.33563 4.16576   2
  -4   7  13 13.8684 7.58338   1
  -3   7  13 -0.7392 5.84995   2
   3   7  10 82.1513 15.8601  -2
  -3   7  13 82.1513 15.8601   1
  -2   7  13 -0.5119 5.61521   2
   2   7  11 43.5599 12.1283  -2
  -2   7  13 43.5599 12.1283   1
   1   7  12 68.3179 11.3397  -2
  -1   7  13 68.3179 11.3397   1
   0   7  13 5.88991 6.45848  -2
   0   7  13 5.88991 6.45848   1
  -4 -10  14 45.0027 4.66517   1
   3 -10  11 -1.4177 7.04099  -2
  -3 -10  14 -1.4177 7.04099   1
   2 -10  12 277.782 13.6201  -2
  -2 -10  14 277.782 13.6201   1
   1 -10  13 24.3631 5.53321  -2
  -1 -10  14 24.3631 5.53321   1
   0 -10  14 5.40547 4.10231  -2
   0 -10  14 5.40547 4.10231   1
  -1 -10  15 69.6533 6.17763  -2
   1 -10  14 69.6533 6.17763   1
  -5  -9  14 1.28142 3.42224   2
  -5  -9  14 4.80066 4.61425   1
  -4  -9  14 1.10359 3.46843   1
  -4  -9  14 -2.1653 3.30073   2
   3  -9  11 103.925 7.92305  -2
  -3  -9  14 103.925 7.92305   1
   2  -9  12 211.013 11.0242  -2
  -2  -9  14 211.013 11.0242   1
   1  -9  13 33.4537 5.37308  -2
  -1  -9  14 33.4537 5.37308   1
   0  -9  14 158.877 8.84422  -2
   0  -9  14 158.877 8.84422   1
  -1  -9  15 41.5022 5.73023  -2
   1  -9  14 41.5022 5.73023   1
  -2  -9  16 -4.3503 6.37467  -2
   2  -9  14 -4.3503 6.37467   1
  -3  -9  17 2.26656 10.3636  -2
   3  -9  14 2.26656 10.3636   1
  -6  -8  14 5.05880 4.71926   1
  -6  -8  14 3.34298 3.40772   2
  -5  -8  14 0.87929 3.39120   2
  -5  -8  14 0.14002 4.73339   1
  -4  -8  14 -1.2626 3.37382   1
  -4  -8  14 -2.0083 3.34440   2
   3  -8  11 202.744 10.9474  -2
  -3  -8  14 202.744 10.9474   1
   2  -8  12 147.000 8.63765  -2
  -2  -8  14 147.000 8.63765   1
   1  -8  13 38.4539 5.27291  -2
  -1  -8  14 38.4539 5.27291   1
   0  -8  14 333.305 15.1053  -2
   0  -8  14 333.305 15.1053   1
  -1  -8  15 5.38372 5.50654  -2
   1  -8  14 5.38372 5.50654   1
  -2  -8  16 -5.9406 6.18545  -2
   2  -8  14 -5.9406 6.18545   1
  -3  -8  17 45.7189 7.94558  -2
   3  -8  14 45.7189 7.94558   1
   4  -8  14 7.38855 5.45912   1
  -7  -7  14 0.81905 5.62117   1
  -7  -7  14 2.82131 4.36188   2
  -6  -7  14 79.4503 5.57046   2
  -6  -7  14 90.1189 8.82344   1
  -5  -7  14 2.33885 3.44476   2
  -5  -7  14 1.46927 4.68941   1
  -4  -7  14 5.20929 3.26142   1
  -4  -7  14 5.19270 3.50717   2
   3  -7  11 91.4994 7.27238  -2
  -3  -7  14 91.4994 7.27238   1
   2  -7  12 58.5359 6.14079  -2
  -2  -7  14 58.5359 6.14079   1
   1  -7  13 91.7226 6.42172  -2
  -1  -7  14 91.7226 6.42172   1
   0  -7  14 417.111 18.3595  -2
   0  -7  14 417.111 18.3595   1
  -1  -7  15 13.1467 5.11167  -2
   1  -7  14 13.1467 5.11167   1
  -2  -7  16 21.4825 6.26616  -2
   2  -7  14 21.4825 6.26616   1
  -3  -7  17 35.9524 7.52208  -2
   3  -7  14 35.9524 7.52208   1
   4  -7  14 4.96751 3.96064   1
   4  -7  14 6.55929 4.38386   2
  -7  -6  14 37.2287 6.91342   1
  -6  -6  14 186.090 9.26422   2
  -6  -6  14 198.892 13.8383   1
  -5  -6  14 4.18483 3.29406   2
  -5  -6  14 6.12441 4.45412   1
  -4  -6  14 19.9287 3.41287   1
  -4  -6  14 14.8633 3.57948   2
   3  -6  11 25.1613 5.87891  -2
  -3  -6  14 25.1613 5.87891   1
   2  -6  12 51.1437 5.72818  -2
  -2  -6  14 51.1437 5.72818   1
   1  -6  13 353.654 15.8702  -2
  -1  -6  14 353.654 15.8702   1
   0  -6  14 35.4687 4.03941  -2
   0  -6  14 35.4687 4.03941   1
  -1  -6  15 25.2335 5.04603  -2
   1  -6  14 25.2335 5.04603   1
  -2  -6  16 154.032 9.48349  -2
   2  -6  14 154.032 9.48349   1
  -3  -6  17 105.811 8.63539  -2
   3  -6  14 105.811 8.63539   1
   4  -6  14 0.75065 3.60872   2
   4  -6  14 1.54416 6.10746   1
   5  -6  14 8.59711 5.61179   1
  -8  -5  14 1.15578 5.24395   1
  -7  -5  14 17.7008 5.57853   2
  -7  -5  14 15.4745 6.05659   1
  -6  -5  14 9.66050 5.31270   2
  -5  -5  14 26.0248 5.40959   1
  -5  -5  14 22.2387 3.53973   2
  -4  -5  14 315.077 14.3023   2
  -4  -5  14 328.227 19.7899   1
   3  -5  11 12.5979 5.49728  -2
  -3  -5  14 12.5979 5.49728   1
   2  -5  12 41.5754 5.34962  -2
  -2  -5  14 41.5754 5.34962   1
   1  -5  13 183.071 9.40800  -2
  -1  -5  14 183.071 9.40800   1
   0  -5  14 4.49354 3.21960  -2
   0  -5  14 4.49354 3.21960   1
  -1  -5  15 4.38835 5.07973  -2
   1  -5  14 4.38835 5.07973   1
  -2  -5  16 198.011 10.7259  -2
   2  -5  14 198.011 10.7259   1
  -3  -5  17 37.2930 6.82428  -2
   3  -5  14 37.2930 6.82428   1
   4  -5  14 7.85229 6.02563   1
   4  -5  14 0.49528 3.78839   2
   5  -5  14 26.9811 7.02496   1
  -8  -4  14 4.36436 3.90311   1
  -7  -4  14 171.993 13.9021   2
  -7  -4  14 164.550 9.33579   1
  -6  -4  14 0.98871 4.85468   1
  -6  -4  14 -3.3918 5.07704   2
  -5  -4  14 7.54451 5.47668   2
  -5  -4  14 6.42949 4.91632   1
  -4  -4  14 233.540 14.9177   1
  -4  -4  14 211.988 10.2166   2
   3  -4  11 26.9218 5.17699  -2
  -3  -4  14 26.9218 5.17699   1
   2  -4  12 115.405 7.39468  -2
  -2  -4  14 115.405 7.39468   1
   1  -4  13 157.620 8.53304  -2
  -1  -4  14 157.620 8.53304   1
   0  -4  14 115.530 6.84114  -2
   0  -4  14 115.530 6.84114   1
  -1  -4  15 56.5782 5.70711  -2
   1  -4  14 56.5782 5.70711   1
  -2  -4  16 27.1374 5.85610  -2
   2  -4  14 27.1374 5.85610   1
  -3  -4  17 62.5065 11.5819  -2
   3  -4  14 62.5065 11.5819   1
   4  -4  14 10.1208 3.80797   2
   4  -4  14 12.7060 6.28145   1
   5  -4  14 38.5485 7.46947   1
   5  -4  14 42.0640 6.36753   2
  -8  -3  14 -4.7323 3.83865   1
  -7  -3  14 71.1837 8.49588   2
  -7  -3  14 67.2277 5.65218   1
  -6  -3  14 4.01065 3.62575   1
  -6  -3  14 11.4308 6.10208   2
  -5  -3  14 89.8221 6.38497   1
  -5  -3  14 86.5953 9.19564   2
  -4  -3  14 3.03297 3.06577   1
  -4  -3  14 3.68864 4.83412   2
  -3  -3  14 2.95557 2.95621   1
  -3  -3  14 3.30473 5.00613   2
   2  -3  12 479.655 20.5887  -2
  -2  -3  14 479.655 20.5887   1
   1  -3  13 32.2498 4.90363  -2
  -1  -3  14 32.2498 4.90363   1
   0  -3  14 211.247 10.1468  -2
   0  -3  14 211.247 10.1468   1
  -1  -3  15 33.8415 4.81462  -2
   1  -3  14 33.8415 4.81462   1
  -2  -3  16 144.999 13.4840  -2
   2  -3  14 144.999 13.4840   1
  -3  -3  17 69.4541 11.0267  -2
   3  -3  14 69.4541 11.0267   1
   4  -3  14 38.6895 7.01814   1
   4  -3  14 40.9215 5.66213   2
   5  -3  14 14.1833 5.13489   2
   5  -3  14 15.8091 6.53731   1
  -8  -2  14 13.0417 4.30825   1
  -8  -2  14 14.9247 3.98639   2
  -7  -2  14 0.55593 3.86253   2
  -7  -2  14 1.11501 3.56890   1
  -6  -2  14 3.42939 3.65144   1
  -6  -2  14 6.88814 3.76636   2
  -5  -2  14 284.406 14.1746   2
  -5  -2  14 255.165 12.2584   1
  -4  -2  14 28.8126 4.01818   1
  -4  -2  14 38.7383 6.67691   2
   3  -2  11 125.308 14.4876  -2
  -3  -2  14 125.308 14.4876   1
  -3  -2  14 1.14060 4.97807   2
  -3  -2  14 1.42622 3.63306   1
   2  -2  12 62.2737 4.95159  -2
  -2  -2  14 62.2737 4.95159   1
   1  -2  13 127.502 6.03530  -2
  -1  -2  14 127.502 6.03530   1
   0  -2  14 462.947 16.3303  -2
   0  -2  14 462.947 16.3303   1
  -1  -2  15 103.356 5.43358  -2
   1  -2  14 103.356 5.43358   1
  -2  -2  16 55.8915 9.58244  -2
   2  -2  14 55.8915 9.58244   1
   3  -2  14 120.835 11.2477   1
   4  -2  14 48.5401 4.66718   2
   4  -2  14 63.0052 8.14695   1
   5  -2  14 34.5667 5.29325   2
   5  -2  14 36.7479 7.29432   1
  -9  -1  14 1.19787 5.27050   2
  -8  -1  14 1.00688 3.83512   1
  -8  -1  14 -5.9201 4.13236   2
  -7  -1  14 1.73777 3.92523   2
  -7  -1  14 3.19910 3.78270   1
  -6  -1  14 42.2384 4.58083   1
  -6  -1  14 52.0492 5.15744   2
  -5  -1  14 23.1577 3.76896   1
  -5  -1  14 24.3345 4.10266   2
  -4  -1  14 13.4192 3.60404   1
  -4  -1  14 20.1521 6.58297   2
  -3  -1  14 126.889 11.1523   2
   3  -1  11 175.846 16.7005  -2
  -3  -1  14 175.846 16.7005   1
  -3  -1  14 104.581 8.16263   1
   2  -1  12 189.739 16.3258  -2
  -2  -1  14 189.739 16.3258   1
   1  -1  13 197.033 7.82916  -2
  -1  -1  14 197.033 7.82916   1
   0  -1  14 273.416 10.0980  -2
   0  -1  14 273.416 10.0980   1
  -1  -1  15 197.856 10.7917  -2
   1  -1  14 197.856 10.7917   1
  -2  -1  16 23.4058 6.76036  -2
   2  -1  14 23.4058 6.76036   1
   3  -1  14 28.5645 6.02838   1
  -3  -1  17 102.510 14.2280  -2
   3  -1  14 102.510 14.2280   1
   3  -1  14 22.6954 4.53730   2
   4  -1  14 4.33265 3.52728   2
   4  -1  14 2.18713 3.96338   1
   5  -1  14 60.8867 5.16172   2
   5  -1  14 85.0076 9.52670   1
   6  -1  14 13.6337 5.48079   2
  -8   0  14 8.63084 3.93306   1
  -8   0  14 8.41784 4.28728   2
  -7   0  14 -5.7317 4.00414   2
  -7   0  14 -0.1528 3.73823   1
  -6   0  14 2.69344 4.05998   2
  -6   0  14 3.32315 3.60847   1
  -5   0  14 29.7185 3.84330   1
  -5   0  14 36.4952 4.80319   2
  -4   0  14 -0.3616 2.94294   1
  -4   0  14 5.65703 3.62621   2
   3   0  11 78.5155 12.6577  -2
  -3   0  14 78.5155 12.6577   1
  -3   0  14 90.4892 9.16319   2
  -3   0  14 79.3594 7.24200   1
  -2   0  14 62.6822 6.20583   1
   2   0  12 84.4372 11.3747  -2
  -2   0  14 84.4372 11.3747   1
  -2   0  14 62.4745 7.18217   2
   1   0  13 52.3262 5.64267  -2
  -1   0  14 52.3262 5.64267   1
   0   0  14 326.572 15.3521  -2
   0   0  14 326.572 15.3521   1
  -1   0  15 156.882 9.08655  -2
   1   0  14 156.882 9.08655   1
  -2   0  16 318.837 16.0845  -2
   2   0  14 318.837 16.0845   1
   3   0  14 2.61998 3.74360   2
  -3   0  17 -7.2062 11.8813  -2
   3   0  14 -7.2062 11.8813   1
   3   0  14 4.86464 5.09854   1
   4   0  14 1.93622 3.84299   1
   4   0  14 5.94404 3.81732   2
   5   0  14 78.6903 6.64091   1
   5   0  14 71.6814 5.40542   2
  -8   1  14 4.10844 4.46099   2
  -8   1  14 2.57989 3.64358   1
  -7   1  14 4.95040 4.31504   2
  -7   1  14 8.15972 3.62250   1
  -6   1  14 15.3915 3.59787   1
  -6   1  14 14.7258 4.48461   2
  -5   1  14 4.97544 4.27280   2
  -5   1  14 3.06860 3.23327   1
  -4   1  14 88.1387 5.88735   1
  -4   1  14 117.887 7.84726   2
  -3   1  14 18.0094 5.65095   2
  -3   1  14 9.94168 3.83889   1
   3   1  11 23.8037 11.3075  -2
  -3   1  14 23.8037 11.3075   1
  -2   1  14 2.86476 3.32146   1
  -2   1  14 1.97518 4.11188   2
   2   1  12 17.6610 9.96525  -2
  -2   1  14 17.6610 9.96525   1
   1   1  13 63.2952 4.31870  -2
  -1   1  14 63.2952 4.31870   1
   0   1  14 491.667 22.2001  -2
   0   1  14 491.667 22.2001   1
  -1   1  15 236.386 12.0940  -2
   1   1  14 236.386 12.0940   1
  -2   1  16 64.6036 7.43271  -2
   2   1  14 64.6036 7.43271   1
  -3   1  17 100.534 14.7104  -2
   3   1  14 100.534 14.7104   1
   3   1  14 25.9661 5.83282   1
   3   1  14 23.0055 4.30290   2
   4   1  14 78.5117 7.27486   2
   4   1  14 102.427 7.74811   1
   5   1  14 17.4323 3.74005   2
   5   1  14 23.1591 6.96957   1
  -8   2  14 -4.2218 4.40216   2
  -8   2  14 -1.1683 3.75937   1
  -7   2  14 42.8718 4.79475   1
  -7   2  14 48.7430 5.70251   2
  -6   2  14 10.9536 3.47654   1
  -6   2  14 9.86203 4.48300   2
  -5   2  14 4.98701 3.19072   1
  -5   2  14 8.70239 4.39668   2
  -4   2  14 20.9902 3.53334   1
  -4   2  14 29.9550 4.74125   2
  -3   2  14 19.2594 4.02563   1
  -3   2  14 17.0978 5.70016   2
   3   2  11 35.2971 12.3251  -2
  -3   2  14 35.2971 12.3251   1
  -2   2  14 146.823 9.96862   1
  -2   2  14 149.381 12.0496   2
   2   2  12 502.522 34.0612  -2
  -2   2  14 502.522 34.0612   1
   1   2  13 55.3895 10.4141  -2
  -1   2  14 55.3895 10.4141   1
   0   2  14 79.1309 5.96802  -2
   0   2  14 79.1309 5.96802   1
  -1   2  15 81.6907 6.55129  -2
   1   2  14 81.6907 6.55129   1
  -2   2  16 133.029 9.18592  -2
   2   2  14 133.029 9.18592   1
  -3   2  17 76.8017 13.0724  -2
   3   2  14 76.8017 13.0724   1
   3   2  14 58.0624 7.25779   1
   3   2  14 52.8583 5.39016   2
   4   2  14 110.795 6.77667   2
   4   2  14 112.687 8.15528   1
   5   2  14 6.79157 3.83213   2
  -7   3  14 23.3863 5.12151   2
  -7   3  14 19.3336 4.07270   1
  -6   3  14 -5.7111 4.20807   2
  -6   3  14 -0.9395 3.25918   1
  -5   3  14 16.5231 4.61580   2
  -5   3  14 12.9639 3.59195   1
  -4   3  14 9.31946 3.31999   1
  -4   3  14 8.66244 4.15918   2
  -3   3  14 28.5034 4.47775   1
  -3   3  14 25.5695 6.04321   2
   3   3  11 49.1342 11.6023  -2
  -3   3  14 49.1342 11.6023   1
   2   3  12 302.587 23.0719  -2
  -2   3  14 302.587 23.0719   1
  -2   3  14 112.076 8.35871   1
  -2   3  14 115.970 10.3583   2
   1   3  13 151.801 14.0922  -2
  -1   3  14 151.801 14.0922   1
   0   3  14 157.343 8.66711  -2
   0   3  14 157.343 8.66711   1
  -1   3  15 305.017 14.8433  -2
   1   3  14 305.017 14.8433   1
  -2   3  16 129.216 13.8905  -2
   2   3  14 129.216 13.8905   1
   2   3  14 59.5747 6.87476   1
  -3   3  17 9.32353 12.5083  -2
   3   3  14 9.32353 12.5083   1
   3   3  14 16.2939 5.07368   1
   4   3  14 2.47443 4.19938   1
   4   3  14 10.4305 6.72438   2
  -7   4  14 3.00316 4.72282   2
  -7   4  14 8.64173 3.79899   1
  -6   4  14 36.1400 5.43625   2
  -6   4  14 35.2840 4.40488   1
  -5   4  14 32.2493 3.98508   1
  -5   4  14 34.7366 5.06254   2
  -4   4  14 -2.6283 4.05569   2
  -4   4  14 0.78232 3.20982   1
   3   4  11 37.7041 11.9100  -2
  -3   4  14 37.7041 11.9100   1
  -3   4  14 3.17477 5.22020   2
  -3   4  14 10.6955 3.96906   1
  -2   4  14 3.03825 4.73937   2
   2   4  12 27.4036 10.4706  -2
  -2   4  14 27.4036 10.4706   1
   1   4  13 92.9990 11.6590  -2
  -1   4  14 92.9990 11.6590   1
   0   4  14 383.703 26.5983  -2
   0   4  14 383.703 26.5983   1
  -1   4  15 47.4528 6.06717  -2
   1   4  14 47.4528 6.06717   1
  -2   4  16 113.584 8.91904  -2
   2   4  14 113.584 8.91904   1
  -3   4  17 15.2936 12.8270  -2
   3   4  14 15.2936 12.8270   1
   3   4  14 6.68103 5.22966   1
  -6   5  14 38.5261 4.52666   1
  -6   5  14 40.8926 5.67049   2
  -5   5  14 -0.0815 3.52870   1
  -5   5  14 -4.7159 4.34355   2
  -4   5  14 33.8864 4.15120   1
  -4   5  14 26.9261 4.81545   2
  -3   5  14 8.54081 5.61325   2
   3   5  11 55.8900 12.6991  -2
  -3   5  14 55.8900 12.6991   1
  -2   5  14 -5.0169 4.75122   2
   2   5  12 24.6973 10.8739  -2
  -2   5  14 24.6973 10.8739   1
   1   5  13 99.2842 12.0855  -2
  -1   5  14 99.2842 12.0855   1
   0   5  14 208.651 16.5271  -2
   0   5  14 208.651 16.5271   1
  -1   5  15 91.8377 11.5205  -2
   1   5  14 91.8377 11.5205   1
  -2   5  16 122.543 9.26307  -2
   2   5  14 122.543 9.26307   1
  -5   6  14 24.5766 5.05089   1
  -4   6  14 68.6984 6.18142   2
  -4   6  14 105.214 11.9497   1
   3   6  11 57.3747 13.4945  -2
  -3   6  14 57.3747 13.4945   1
  -3   6  14 -1.3627 5.52769   2
   2   6  12 39.2612 11.6359  -2
  -2   6  14 39.2612 11.6359   1
  -2   6  14 2.51981 5.32577   2
   1   6  13 31.0487 9.97093  -2
  -1   6  14 31.0487 9.97093   1
   0   6  14 31.0175 7.29147  -2
   0   6  14 31.0175 7.29147   1
  -3   7  14 7.84288 6.05915   2
   3 -10  12 5.96241 10.1045  -2
  -3 -10  15 5.96241 10.1045   1
   2 -10  13 14.0649 5.97534  -2
  -2 -10  15 14.0649 5.97534   1
   1 -10  14 62.6341 6.39507  -2
  -1 -10  15 62.6341 6.39507   1
  -5  -9  15 -2.6813 5.35379   2
  -5  -9  15 4.81307 4.24678   1
  -4  -9  15 62.4847 5.32194   1
  -4  -9  15 63.2720 5.35422   2
   3  -9  12 77.4153 7.79953  -2
  -3  -9  15 77.4153 7.79953   1
   2  -9  13 1.75238 5.85687  -2
  -2  -9  15 1.75238 5.85687   1
   1  -9  14 38.1816 5.88916  -2
  -1  -9  15 38.1816 5.88916   1
   0  -9  15 38.8575 4.90411  -2
   0  -9  15 38.8575 4.90411   1
  -1  -9  16 109.505 7.94894  -2
   1  -9  15 109.505 7.94894   1
  -2  -9  17 1.50202 9.18773  -2
   2  -9  15 1.50202 9.18773   1
  -6  -8  15 15.7800 3.63568   2
  -6  -8  15 21.7022 5.16976   1
  -5  -8  15 3.31644 3.64612   2
  -5  -8  15 10.8058 4.95256   1
  -4  -8  15 13.2418 3.61855   1
  -4  -8  15 11.1527 3.73065   2
   3  -8  12 34.4426 6.42950  -2
  -3  -8  15 34.4426 6.42950   1
   2  -8  13 88.0394 7.19282  -2
  -2  -8  15 88.0394 7.19282   1
   1  -8  14 11.9399 5.17450  -2
  -1  -8  15 11.9399 5.17450   1
   0  -8  15 57.2375 5.81405  -2
   0  -8  15 57.2375 5.81405   1
  -1  -8  16 170.353 9.81230  -2
   1  -8  15 170.353 9.81230   1
  -2  -8  17 38.7788 7.03910  -2
   2  -8  15 38.7788 7.03910   1
  -3  -8  18 56.9723 11.4190  -2
   3  -8  15 56.9723 11.4190   1
   4  -8  15 0.74729 5.05217   1
  -7  -7  15 12.2062 6.03705   1
  -6  -7  15 2.13938 3.33543   2
  -6  -7  15 2.85530 4.54310   1
  -5  -7  15 3.45117 3.52721   2
  -5  -7  15 5.35323 4.44014   1
  -4  -7  15 60.7700 5.17249   2
  -4  -7  15 51.1174 4.44568   1
   3  -7  12 6.24112 5.76825  -2
  -3  -7  15 6.24112 5.76825   1
   2  -7  13 89.8784 6.80418  -2
  -2  -7  15 89.8784 6.80418   1
   1  -7  14 17.5164 5.12408  -2
  -1  -7  15 17.5164 5.12408   1
   0  -7  15 154.835 8.44730  -2
   0  -7  15 154.835 8.44730   1
  -1  -7  16 80.0964 6.69700  -2
   1  -7  15 80.0964 6.69700   1
  -2  -7  17 188.856 10.6198  -2
   2  -7  15 188.856 10.6198   1
  -3  -7  18 61.7437 8.29295  -2
   3  -7  15 61.7437 8.29295   1
  -7  -6  15 1.23785 5.74596   1
  -7  -6  15 1.72885 4.65649   2
  -6  -6  15 -6.1510 4.89900   1
  -6  -6  15 -1.8081 3.09921   2
  -5  -6  15 2.30252 3.24848   2
  -5  -6  15 3.97388 4.42671   1
  -4  -6  15 83.5529 6.00356   2
  -4  -6  15 92.6055 8.15348   1
   3  -6  12 45.7240 6.33215  -2
  -3  -6  15 45.7240 6.33215   1
   2  -6  13 21.6418 5.21400  -2
  -2  -6  15 21.6418 5.21400   1
   1  -6  14 22.2392 4.99685  -2
  -1  -6  15 22.2392 4.99685   1
   0  -6  15 570.031 24.4127  -2
   0  -6  15 570.031 24.4127   1
  -1  -6  16 50.0932 6.05793  -2
   1  -6  15 50.0932 6.05793   1
  -2  -6  17 134.346 8.95699  -2
   2  -6  15 134.346 8.95699   1
  -3  -6  18 242.236 12.8729  -2
   3  -6  15 242.236 12.8729   1
   4  -6  15 -0.8831 5.57843   1
   4  -6  15 3.20358 3.71297   2
  -7  -5  15 4.01820 5.19067   2
  -7  -5  15 4.56450 5.72393   1
  -6  -5  15 53.9968 7.33966   2
  -6  -5  15 63.9032 7.93615   1
  -5  -5  15 1.99471 3.11969   2
  -5  -5  15 3.21447 4.35873   1
  -4  -5  15 10.1887 3.38518   2
  -4  -5  15 6.52964 4.06229   1
   3  -5  12 11.0406 5.07660  -2
  -3  -5  15 11.0406 5.07660   1
   2  -5  13 266.493 12.7015  -2
  -2  -5  15 266.493 12.7015   1
   1  -5  14 4.24035 4.48266  -2
  -1  -5  15 4.24035 4.48266   1
   0  -5  15 289.324 13.3842  -2
   0  -5  15 289.324 13.3842   1
  -1  -5  16 46.8024 5.78182  -2
   1  -5  15 46.8024 5.78182   1
  -2  -5  17 244.959 12.6206  -2
   2  -5  15 244.959 12.6206   1
  -3  -5  18 35.8013 11.0024  -2
   3  -5  15 35.8013 11.0024   1
   4  -5  15 7.82591 3.97923   2
   4  -5  15 10.0021 6.18278   1
  -8  -4  15 11.7463 5.70017   1
  -7  -4  15 6.62670 5.70942   1
  -7  -4  15 8.29947 5.67714   2
  -6  -4  15 107.933 9.58562   1
  -6  -4  15 100.256 10.4126   2
  -5  -4  15 11.4726 4.67173   1
  -5  -4  15 17.0209 5.89319   2
  -4  -4  15 97.4507 7.98807   1
  -4  -4  15 86.9272 5.70473   2
   3  -4  12 142.409 11.2261  -2
  -3  -4  15 142.409 11.2261   1
   2  -4  13 73.8298 6.21720  -2
  -2  -4  15 73.8298 6.21720   1
   1  -4  14 52.1885 5.23531  -2
  -1  -4  15 52.1885 5.23531   1
   0  -4  15 51.0151 4.41411  -2
   0  -4  15 51.0151 4.41411   1
  -1  -4  16 55.9388 5.72552  -2
   1  -4  15 55.9388 5.72552   1
  -2  -4  17 631.048 26.9612  -2
   2  -4  15 631.048 26.9612   1
  -3  -4  18 19.2555 10.5696  -2
   3  -4  15 19.2555 10.5696   1
   4  -4  15 17.2793 6.31414   1
  -8  -3  15 12.4653 5.37034   2
  -8  -3  15 1.33107 3.85513   1
  -7  -3  15 29.7859 4.62712   1
  -7  -3  15 37.4847 7.00730   2
  -6  -3  15 3.60884 3.84428   1
  -6  -3  15 3.47219 5.94278   2
  -5  -3  15 6.35413 3.72024   1
  -5  -3  15 8.46547 5.99060   2
  -4  -3  15 355.932 24.4464   2
  -4  -3  15 374.461 16.6570   1
  -3  -3  15 48.0374 5.42720   1
  -3  -3  15 40.4411 6.34707   2
   2  -3  13 315.885 14.2055  -2
  -2  -3  15 315.885 14.2055   1
   1  -3  14 37.3198 4.80109  -2
  -1  -3  15 37.3198 4.80109   1
   0  -3  15 169.787 8.60348  -2
   0  -3  15 169.787 8.60348   1
  -1  -3  16 18.1392 4.94949  -2
   1  -3  15 18.1392 4.94949   1
  -2  -3  17 450.850 30.2732  -2
   2  -3  15 450.850 30.2732   1
  -3  -3  18 11.2596 10.3204  -2
   3  -3  15 11.2596 10.3204   1
   4  -3  15 133.404 9.90716   2
   4  -3  15 162.050 13.7147   1
   5  -3  15 10.4724 4.76858   2
   5  -3  15 5.99938 5.96055   1
  -8  -2  15 1.91951 3.98521   1
  -8  -2  15 4.32056 5.87770   2
  -7  -2  15 52.2407 4.98336   1
  -7  -2  15 68.2329 8.91109   2
  -6  -2  15 11.6636 3.85463   1
  -6  -2  15 11.4706 3.86520   2
  -5  -2  15 2.02407 3.76028   2
  -5  -2  15 2.50066 3.53307   1
  -4  -2  15 176.949 9.14056   1
  -4  -2  15 188.348 14.7089   2
   3  -2  12 126.279 14.5873  -2
  -3  -2  15 126.279 14.5873   1
  -3  -2  15 114.237 10.2413   2
  -3  -2  15 110.785 8.48922   1
   2  -2  13 859.227 29.8830  -2
  -2  -2  15 859.227 29.8830   1
   1  -2  14 97.4599 5.16229  -2
  -1  -2  15 97.4599 5.16229   1
   0  -2  15 6.14098 2.21939  -2
   0  -2  15 6.14098 2.21939   1
  -1  -2  16 13.4344 7.33797  -2
   1  -2  15 13.4344 7.33797   1
  -2  -2  17 29.3669 8.59638  -2
   2  -2  15 29.3669 8.59638   1
  -3  -2  18 28.2396 9.72025  -2
   3  -2  15 28.2396 9.72025   1
   4  -2  15 119.522 9.41317   2
   4  -2  15 140.226 12.3252   1
   5  -2  15 10.6829 4.71812   2
   5  -2  15 5.30733 5.44402   1
  -8  -1  15 10.4163 4.19895   2
  -8  -1  15 11.1151 3.98657   1
  -7  -1  15 1.62618 3.95116   2
  -7  -1  15 5.08622 3.90567   1
  -6  -1  15 -1.2229 3.45022   1
  -6  -1  15 2.14155 4.07856   2
  -5  -1  15 64.0942 5.13501   1
  -5  -1  15 83.6584 6.34425   2
  -4  -1  15 2.60299 3.40253   1
  -4  -1  15 5.56129 5.51876   2
   3  -1  12 73.9706 13.3572  -2
  -3  -1  15 73.9706 13.3572   1
  -3  -1  15 15.9612 5.33025   2
  -3  -1  15 15.8113 4.43438   1
   2  -1  13 1086.48 69.2671  -2
  -2  -1  15 1086.48 69.2671   1
   1  -1  14 179.254 7.35317  -2
  -1  -1  15 179.254 7.35317   1
   0  -1  15 45.4162 2.98029  -2
   0  -1  15 45.4162 2.98029   1
  -1  -1  16 12.9674 5.19743  -2
   1  -1  15 12.9674 5.19743   1
  -2  -1  17 30.2206 6.70328  -2
   2  -1  15 30.2206 6.70328   1
   3  -1  15 2.65589 5.14959   1
   3  -1  15 -1.3434 3.83786   2
   4  -1  15 5.50351 3.26379   2
   4  -1  15 4.46607 5.61671   1
   5  -1  15 4.54246 3.32618   2
  -8   0  15 26.5770 4.30278   1
  -8   0  15 24.5232 4.89979   2
  -7   0  15 26.7940 4.38624   1
  -7   0  15 27.2951 4.98779   2
  -6   0  15 50.9329 4.81270   1
  -6   0  15 61.2219 5.74922   2
  -5   0  15 119.143 8.47120   2
  -5   0  15 89.0721 5.95732   1
  -4   0  15 4.43123 4.00662   2
  -4   0  15 2.68161 3.22471   1
  -3   0  15 26.9679 4.63153   1
  -3   0  15 30.0764 6.15080   2
   3   0  12 108.417 13.4149  -2
  -3   0  15 108.417 13.4149   1
   2   0  13 171.561 9.36714  -2
  -2   0  15 171.561 9.36714   1
   1   0  14 148.859 8.63501  -2
  -1   0  15 148.859 8.63501   1
   0   0  15 927.916 40.9392  -2
   0   0  15 927.916 40.9392   1
  -1   0  16 26.2847 5.55106  -2
   1   0  15 26.2847 5.55106   1
  -2   0  17 59.6913 7.27017  -2
   2   0  15 59.6913 7.27017   1
   3   0  15 8.51595 5.24916   1
  -3   0  18 28.6688 12.9391  -2
   3   0  15 28.6688 12.9391   1
   3   0  15 5.33352 3.94505   2
   4   0  15 7.21244 5.61038   1
  -4   0  19 -0.0703 14.6911  -2
   4   0  15 -0.0703 14.6911   1
   4   0  15 5.66851 4.15415   2
   5   0  15 19.8724 6.32622   2
  -8   1  15 1.39545 4.42646   2
  -8   1  15 3.59223 5.76290   1
  -7   1  15 24.4508 5.01448   2
  -7   1  15 26.8362 4.31027   1
  -6   1  15 57.1266 4.87812   1
  -6   1  15 71.6300 6.32233   2
  -5   1  15 21.4816 4.54081   2
  -5   1  15 14.5241 3.67344   1
  -4   1  15 9.12624 3.38135   1
  -4   1  15 9.99404 4.33198   2
   3   1  12 312.945 24.0681  -2
  -3   1  15 312.945 24.0681   1
  -3   1  15 199.559 12.5785   1
  -3   1  15 203.476 15.1913   2
   2   1  13 39.6915 10.8746  -2
  -2   1  15 39.6915 10.8746   1
  -2   1  15 2.47317 3.33083   1
  -2   1  15 0.99829 4.49803   2
   1   1  14 221.684 10.4170  -2
  -1   1  15 221.684 10.4170   1
   0   1  15 551.723 24.5234  -2
   0   1  15 551.723 24.5234   1
  -1   1  16 43.1053 5.73294  -2
   1   1  15 43.1053 5.73294   1
  -2   1  17 17.0942 6.33674  -2
   2   1  15 17.0942 6.33674   1
   3   1  15 4.16461 5.06439   1
   3   1  15 6.61784 3.62719   2
  -3   1  18 -7.5093 13.2643  -2
   3   1  15 -7.5093 13.2643   1
  -4   1  19 24.8570 15.0513  -2
   4   1  15 24.8570 15.0513   1
   4   1  15 25.2376 4.63514   2
   4   1  15 34.2862 6.56992   1
  -7   2  15 -3.6488 4.62409   2
  -7   2  15 1.04825 3.72129   1
  -6   2  15 1.45806 4.46517   2
  -6   2  15 -0.3583 3.33208   1
  -5   2  15 80.9094 6.61778   2
  -5   2  15 62.4710 5.01823   1
  -4   2  15 56.9984 4.76799   1
  -4   2  15 68.4439 6.00652   2
  -3   2  15 68.2431 8.00795   2
   3   2  12 139.759 14.7962  -2
  -3   2  15 139.759 14.7962   1
  -3   2  15 58.6477 5.63493   1
  -2   2  15 8.57647 4.75621   2
   2   2  13 110.681 13.6441  -2
  -2   2  15 110.681 13.6441   1
  -2   2  15 9.68808 3.52602   1
   1   2  14 125.214 12.7946  -2
  -1   2  15 125.214 12.7946   1
   0   2  15 9.78169 3.35615  -2
   0   2  15 9.78169 3.35615   1
  -1   2  16 45.2849 5.61245  -2
   1   2  15 45.2849 5.61245   1
  -2   2  17 154.390 9.94456  -2
   2   2  15 154.390 9.94456   1
   3   2  15 10.8454 5.23358   1
  -3   2  18 17.6166 14.2898  -2
   3   2  15 17.6166 14.2898   1
   4   2  15 19.3296 4.40694   1
  -7   3  15 49.8776 6.09221   2
  -7   3  15 42.7764 4.51503   1
  -6   3  15 2.33172 3.34718   1
  -6   3  15 2.10476 4.68102   2
  -5   3  15 0.36179 4.49156   2
  -5   3  15 5.38800 3.39927   1
  -4   3  15 54.2644 5.65209   2
  -4   3  15 58.3338 4.78713   1
  -3   3  15 44.1691 5.09287   1
   3   3  12 75.1681 13.5593  -2
  -3   3  15 75.1681 13.5593   1
  -3   3  15 37.2704 6.18412   2
   2   3  13 20.2761 10.1879  -2
  -2   3  15 20.2761 10.1879   1
  -2   3  15 5.76912 4.65037   2
   1   3  14 406.710 28.6054  -2
  -1   3  15 406.710 28.6054   1
   0   3  15 1.67138 6.07039  -2
   0   3  15 1.67138 6.07039   1
  -1   3  16 75.9468 6.71753  -2
   1   3  15 75.9468 6.71753   1
  -2   3  17 20.3053 6.31488  -2
   2   3  15 20.3053 6.31488   1
   3   3  15 53.4584 7.09893   1
  -3   3  18 186.641 17.8113  -2
   3   3  15 186.641 17.8113   1
  -6   4  15 16.1955 3.87677   1
  -6   4  15 16.6295 5.10246   2
  -5   4  15 2.53170 4.35713   2
  -5   4  15 6.42405 3.26321   1
  -4   4  15 5.15066 4.22198   2
  -4   4  15 6.91364 3.39894   1
  -3   4  15 4.62053 4.84044   2
   3   4  12 76.4998 13.2825  -2
  -3   4  15 76.4998 13.2825   1
  -2   4  15 38.1440 5.79047   2
   2   4  13 154.249 15.3971  -2
  -2   4  15 154.249 15.3971   1
   1   4  14 65.0362 10.8132  -2
  -1   4  15 65.0362 10.8132   1
   0   4  15 28.4828 7.04624  -2
   0   4  15 28.4828 7.04624   1
  -1   4  16 64.6834 10.7798  -2
   1   4  15 64.6834 10.7798   1
  -2   4  17 19.5336 6.64379  -2
   2   4  15 19.5336 6.64379   1
  -5   5  15 65.4330 5.27910   1
  -5   5  15 61.1254 6.21141   2
  -4   5  15 12.0031 3.64277   1
  -4   5  15 1.31513 4.28425   2
  -3   5  15 9.84284 5.67950   2
   3   5  12 57.1772 13.2729  -2
  -3   5  15 57.1772 13.2729   1
   2   5  13 28.8594 11.4090  -2
  -2   5  15 28.8594 11.4090   1
  -2   5  15 0.22969 4.89090   2
   1   5  14 108.180 12.7006  -2
  -1   5  15 108.180 12.7006   1
   0   5  15 36.0599 7.49129  -2
   0   5  15 36.0599 7.49129   1
  -1   5  16 50.8971 10.2427  -2
   1   5  15 50.8971 10.2427   1
  -2   5  17 25.7920 9.16753  -2
   2   5  15 25.7920 9.16753   1
  -5   6  15 42.0447 5.48946   1
  -3   6  15 -2.8749 5.48626   2
  -4  -9  16 13.3456 5.14206   1
  -4  -9  16 13.4548 5.29311   2
   3  -9  13 11.8533 6.44488  -2
  -3  -9  16 11.8533 6.44488   1
   2  -9  14 1.65109 5.93885  -2
  -2  -9  16 1.65109 5.93885   1
   1  -9  15 94.0164 7.04752  -2
  -1  -9  16 94.0164 7.04752   1
   0  -9  16 89.9129 6.68606  -2
   0  -9  16 89.9129 6.68606   1
  -1  -9  17 25.6405 8.71237  -2
   1  -9  16 25.6405 8.71237   1
  -5  -8  16 5.43390 4.78708   1
  -5  -8  16 6.79280 3.77642   2
  -4  -8  16 52.7798 5.09789   2
  -4  -8  16 54.6074 6.60256   1
   3  -8  13 3.15250 6.17312  -2
  -3  -8  16 3.15250 6.17312   1
   2  -8  14 -5.7797 5.59750  -2
  -2  -8  16 -5.7797 5.59750   1
   1  -8  15 147.992 8.75333  -2
  -1  -8  16 147.992 8.75333   1
   0  -8  16 -4.3410 4.29623  -2
   0  -8  16 -4.3410 4.29623   1
  -1  -8  17 56.6019 6.70759  -2
   1  -8  16 56.6019 6.70759   1
  -2  -8  18 92.1587 8.25729  -2
   2  -8  16 92.1587 8.25729   1
  -6  -7  16 2.16623 3.27250   2
  -6  -7  16 2.56423 4.77475   1
  -5  -7  16 23.0457 3.91145   2
  -5  -7  16 29.1150 5.55047   1
  -4  -7  16 199.922 13.6915   1
  -4  -7  16 195.332 10.1180   2
   3  -7  13 3.06328 5.81406  -2
  -3  -7  16 3.06328 5.81406   1
   2  -7  14 11.3233 5.44721  -2
  -2  -7  16 11.3233 5.44721   1
   1  -7  15 70.0736 6.27690  -2
  -1  -7  16 70.0736 6.27690   1
   0  -7  16 2.22970 4.19772  -2
   0  -7  16 2.22970 4.19772   1
  -1  -7  17 8.54770 5.69829  -2
   1  -7  16 8.54770 5.69829   1
  -2  -7  18 76.1306 7.77316  -2
   2  -7  16 76.1306 7.77316   1
  -3  -7  19 -3.6785 9.73763  -2
   3  -7  16 -3.6785 9.73763   1
  -7  -6  16 38.0521 6.17006   2
  -6  -6  16 7.69319 5.16871   1
  -6  -6  16 8.43412 5.42456   2
  -5  -6  16 51.5880 4.59607   2
  -5  -6  16 51.5937 6.22322   1
  -4  -6  16 69.9900 5.33233   2
  -4  -6  16 78.4354 7.40465   1
   3  -6  13 -2.3389 5.66408  -2
  -3  -6  16 -2.3389 5.66408   1
   2  -6  14 137.686 8.43225  -2
  -2  -6  16 137.686 8.43225   1
   1  -6  15 54.4272 5.79832  -2
  -1  -6  16 54.4272 5.79832   1
   0  -6  16 48.9050 4.96896  -2
   0  -6  16 48.9050 4.96896   1
  -1  -6  17 90.4804 7.23153  -2
   1  -6  16 90.4804 7.23153   1
  -2  -6  18 46.7010 7.02697  -2
   2  -6  16 46.7010 7.02697   1
  -3  -6  19 17.0887 10.9867  -2
   3  -6  16 17.0887 10.9867   1
  -7  -5  16 8.06326 5.78351   2
  -7  -5  16 15.9509 6.28215   1
  -6  -5  16 1.08564 5.39908   2
  -6  -5  16 11.3268 5.90185   1
  -5  -5  16 59.5186 6.47103   1
  -5  -5  16 57.7761 7.52368   2
  -4  -5  16 3.25249 3.20328   2
  -4  -5  16 1.10050 3.93310   1
   3  -5  13 99.4403 9.87323  -2
  -3  -5  16 99.4403 9.87323   1
   2  -5  14 181.483 9.67457  -2
  -2  -5  16 181.483 9.67457   1
   1  -5  15 42.7388 5.27260  -2
  -1  -5  16 42.7388 5.27260   1
   0  -5  16 -0.2105 3.65745  -2
   0  -5  16 -0.2105 3.65745   1
  -1  -5  17 61.6270 6.40150  -2
   1  -5  16 61.6270 6.40150   1
  -2  -5  18 41.1353 6.38882  -2
   2  -5  16 41.1353 6.38882   1
  -3  -5  19 26.7298 9.89178  -2
   3  -5  16 26.7298 9.89178   1
   4  -5  16 16.4784 6.38299   1
   4  -5  16 11.1396 4.08340   2
  -7  -4  16 29.5363 6.63320   2
  -7  -4  16 23.0512 6.36866   1
  -6  -4  16 8.72444 5.83804   2
  -6  -4  16 4.43574 5.10243   1
  -5  -4  16 120.627 11.3197   2
  -4  -4  16 11.4722 5.34125   2
  -4  -4  16 12.2008 4.39808   1
   3  -4  13 204.452 13.7845  -2
  -3  -4  16 204.452 13.7845   1
   2  -4  14 27.4855 5.09442  -2
  -2  -4  16 27.4855 5.09442   1
   1  -4  15 56.1401 5.55190  -2
  -1  -4  16 56.1401 5.55190   1
   0  -4  16 179.346 9.06446  -2
   0  -4  16 179.346 9.06446   1
  -1  -4  17 134.104 8.11588  -2
   1  -4  16 134.104 8.11588   1
  -2  -4  18 10.3336 8.28829  -2
   2  -4  16 10.3336 8.28829   1
  -3  -4  19 28.9118 11.0442  -2
   3  -4  16 28.9118 11.0442   1
   4  -4  16 20.3203 5.30008   2
   4  -4  16 18.1920 6.19353   1
  -8  -3  16 2.70357 6.27327   1
  -8  -3  16 7.40793 5.51926   2
  -7  -3  16 13.3121 4.15538   1
  -7  -3  16 17.3546 6.26704   2
  -6  -3  16 65.1787 7.64247   1
  -6  -3  16 64.9393 8.58930   2
  -5  -3  16 4.19459 5.84479   2
  -5  -3  16 13.8827 5.40977   1
  -4  -3  16 60.0809 7.49800   2
  -4  -3  16 54.5227 5.78048   1
   3  -3  13 189.508 13.1734  -2
  -3  -3  16 189.508 13.1734   1
   2  -3  14 137.671 7.82171  -2
  -2  -3  16 137.671 7.82171   1
   1  -3  15 24.2927 4.43363  -2
  -1  -3  16 24.2927 4.43363   1
   0  -3  16 6.62793 2.90930  -2
   0  -3  16 6.62793 2.90930   1
  -1  -3  17 104.442 10.2420  -2
   1  -3  16 104.442 10.2420   1
  -2  -3  18 20.1553 8.85214  -2
   2  -3  16 20.1553 8.85214   1
  -3  -3  19 15.3377 9.83922  -2
   3  -3  16 15.3377 9.83922   1
   4  -3  16 2.78825 4.23794   2
   4  -3  16 8.11358 5.90364   1
  -8  -2  16 -2.4971 6.34885   1
  -8  -2  16 0.31445 5.68995   2
  -7  -2  16 12.0408 6.46957   2
  -7  -2  16 0.55223 4.04637   1
  -6  -2  16 30.9819 7.19127   2
  -6  -2  16 21.6488 4.24848   1
  -5  -2  16 16.7772 4.09166   1
  -5  -2  16 20.0109 6.81139   2
  -4  -2  16 17.2120 3.88703   1
  -4  -2  16 22.9521 6.09788   2
   3  -2  13 40.2618 12.2195  -2
  -3  -2  16 40.2618 12.2195   1
  -3  -2  16 46.5920 7.06129   2
   2  -2  14 56.5904 5.78859  -2
  -2  -2  16 56.5904 5.78859   1
   1  -2  15 5.75558 3.66993  -2
  -1  -2  16 5.75558 3.66993   1
   0  -2  16 345.163 14.9917  -2
   0  -2  16 345.163 14.9917   1
  -1  -2  17 107.415 10.5807  -2
   1  -2  16 107.415 10.5807   1
  -2  -2  18 73.5859 9.98842  -2
   2  -2  16 73.5859 9.98842   1
  -3  -2  19 63.4279 11.2790  -2
   3  -2  16 63.4279 11.2790   1
   4  -2  16 0.33634 4.28044   2
   4  -2  16 -0.1544 5.01112   1
  -8  -1  16 -2.0826 3.93233   2
  -8  -1  16 -4.7709 5.58333   1
  -7  -1  16 28.9078 4.61181   1
  -7  -1  16 35.9422 4.86895   2
  -6  -1  16 5.63174 3.86243   1
  -6  -1  16 7.18714 4.20490   2
  -5  -1  16 15.7709 3.64335   1
  -5  -1  16 14.0335 4.39465   2
  -4  -1  16 83.5484 9.20763   2
  -4  -1  16 66.3915 5.19345   1
  -3  -1  16 5.78862 4.09307   1
  -3  -1  16 9.74080 5.16781   2
   3  -1  13 2.00010 12.4697  -2
  -3  -1  16 2.00010 12.4697   1
   2  -1  14 34.0320 10.2866  -2
  -2  -1  16 34.0320 10.2866   1
   1  -1  15 23.3351 5.07596  -2
  -1  -1  16 23.3351 5.07596   1
   0  -1  16 523.142 23.6659  -2
   0  -1  16 523.142 23.6659   1
  -1  -1  17 86.4508 6.80149  -2
   1  -1  16 86.4508 6.80149   1
  -2  -1  18 21.7787 7.95899  -2
   2  -1  16 21.7787 7.95899   1
  -3  -1  19 192.538 16.1896  -2
   3  -1  16 192.538 16.1896   1
   3  -1  16 68.4706 6.74852   2
   4  -1  16 47.3390 7.17869   1
   4  -1  16 35.3582 5.15485   2
  -8   0  16 -0.7185 4.21399   2
  -7   0  16 72.1891 5.78280   1
  -7   0  16 80.6647 6.61845   2
  -6   0  16 15.8339 3.93172   1
  -6   0  16 10.1068 4.52999   2
  -5   0  16 10.7480 3.50393   1
  -5   0  16 13.2316 4.58354   2
  -4   0  16 14.4458 6.17326   2
  -4   0  16 7.25693 3.21323   1
  -3   0  16 1.43102 3.68909   1
  -3   0  16 -1.1501 5.05004   2
   3   0  13 33.8946 12.7580  -2
  -3   0  16 33.8946 12.7580   1
   2   0  14 307.901 13.9562  -2
  -2   0  16 307.901 13.9562   1
   1   0  15 42.7045 9.06930  -2
  -1   0  16 42.7045 9.06930   1
   0   0  16 44.5246 4.26231  -2
   0   0  16 44.5246 4.26231   1
  -1   0  17 161.578 9.36210  -2
   1   0  16 161.578 9.36210   1
  -2   0  18 398.179 19.1336  -2
   2   0  16 398.179 19.1336   1
  -3   0  19 11.1844 13.6075  -2
   3   0  16 11.1844 13.6075   1
   3   0  16 10.7982 5.26803   1
   3   0  16 12.2561 4.07075   2
   4   0  16 24.0072 4.50971   2
   4   0  16 32.0787 6.11147   1
  -7   1  16 9.64375 3.93085   1
  -7   1  16 3.84626 4.65664   2
  -6   1  16 0.07779 4.54636   2
  -6   1  16 0.02902 3.58578   1
  -5   1  16 29.7416 4.18744   1
  -5   1  16 38.5773 5.16410   2
  -4   1  16 65.1619 5.95503   2
  -4   1  16 55.6027 4.72259   1
  -3   1  16 120.166 10.5760   2
   3   1  13 156.964 16.0767  -2
  -3   1  16 156.964 16.0767   1
  -3   1  16 108.477 8.20742   1
   2   1  14 83.5830 6.71201  -2
  -2   1  16 83.5830 6.71201   1
   1   1  15 54.9270 10.6495  -2
  -1   1  16 54.9270 10.6495   1
   0   1  16 125.906 7.31942  -2
   0   1  16 125.906 7.31942   1
  -1   1  17 122.025 7.98456  -2
   1   1  16 122.025 7.98456   1
  -2   1  18 253.809 13.3829  -2
   2   1  16 253.809 13.3829   1
   3   1  16 48.8957 6.78952   1
  -3   1  19 60.7453 14.8287  -2
   3   1  16 60.7453 14.8287   1
   4   1  16 13.0868 3.91058   2
   4   1  16 9.87578 6.89794   1
  -7   2  16 17.5024 5.17792   2
  -7   2  16 19.4965 4.14130   1
  -6   2  16 31.4984 4.22148   1
  -6   2  16 38.9162 5.60913   2
  -5   2  16 23.7484 3.71073   1
  -5   2  16 28.5133 5.31952   2
  -4   2  16 24.8214 3.76820   1
  -4   2  16 24.7870 4.79471   2
   3   2  13 49.3397 11.8308  -2
  -3   2  16 49.3397 11.8308   1
  -3   2  16 16.0297 5.24527   2
  -3   2  16 17.9032 4.07912   1
   2   2  14 165.207 16.2363  -2
  -2   2  16 165.207 16.2363   1
   1   2  15 66.7195 10.6485  -2
  -1   2  16 66.7195 10.6485   1
   0   2  16 424.965 29.0327  -2
   0   2  16 424.965 29.0327   1
  -1   2  17 65.9181 6.25240  -2
   1   2  16 65.9181 6.25240   1
  -2   2  18 68.1837 7.55014  -2
   2   2  16 68.1837 7.55014   1
   3   2  16 6.77857 5.05369   1
  -3   2  19 42.8188 12.8851  -2
   3   2  16 42.8188 12.8851   1
  -6   3  16 28.8500 4.15472   1
  -6   3  16 33.1728 5.44234   2
  -5   3  16 7.76468 3.47986   1
  -5   3  16 8.88053 4.56370   2
  -4   3  16 50.9324 5.59895   2
  -4   3  16 57.5515 4.74863   1
   3   3  13 52.3862 13.3612  -2
  -3   3  16 52.3862 13.3612   1
  -3   3  16 9.85991 4.97012   2
  -3   3  16 6.07719 3.65203   1
  -2   3  16 55.3825 6.81882   2
   2   3  14 147.933 15.0221  -2
  -2   3  16 147.933 15.0221   1
   1   3  15 85.7870 10.5593  -2
  -1   3  16 85.7870 10.5593   1
   0   3  16 75.3845 9.17702  -2
   0   3  16 75.3845 9.17702   1
  -1   3  17 47.6200 10.4198  -2
   1   3  16 47.6200 10.4198   1
  -2   3  18 159.856 10.1974  -2
   2   3  16 159.856 10.1974   1
  -6   4  16 1.31871 4.19050   1
  -5   4  16 55.6905 6.15815   2
  -5   4  16 54.2500 4.82865   1
  -4   4  16 103.227 6.51380   1
  -4   4  16 78.0921 6.57473   2
  -3   4  16 6.85789 5.32621   2
   3   4  13 61.2673 13.1688  -2
  -3   4  16 61.2673 13.1688   1
   2   4  14 162.103 15.9219  -2
  -2   4  16 162.103 15.9219   1
   1   4  15 77.6606 11.5636  -2
  -1   4  16 77.6606 11.5636   1
   0   4  16 16.6447 6.93695  -2
   0   4  16 16.6447 6.93695   1
  -1   4  17 45.2938 10.3039  -2
   1   4  16 45.2938 10.3039   1
  -2   4  18 160.323 13.8840  -2
   2   4  16 160.323 13.8840   1
  -5   5  16 5.70297 3.95863   1
  -4   5  16 34.4883 4.99339   2
   3   5  13 156.098 16.6667  -2
  -3   5  16 156.098 16.6667   1
  -3   5  16 63.0842 7.84552   2
   2   5  14 172.483 16.5183  -2
  -2   5  16 172.483 16.5183   1
   1   5  15 49.1730 11.3089  -2
  -1   5  16 49.1730 11.3089   1
   2  -9  15 -6.4818 7.93873  -2
  -2  -9  17 -6.4818 7.93873   1
   1  -9  16 10.0563 7.57135  -2
  -1  -9  17 10.0563 7.57135   1
  -5  -8  17 -3.9336 4.54028   2
  -4  -8  17 35.3811 4.74240   2
  -4  -8  17 41.2154 6.11523   1
   3  -8  14 39.7605 6.43265  -2
  -3  -8  17 39.7605 6.43265   1
   2  -8  15 36.7256 6.19057  -2
  -2  -8  17 36.7256 6.19057   1
   1  -8  16 41.7131 5.69461  -2
  -1  -8  17 41.7131 5.69461   1
   0  -8  17 84.3427 6.20309  -2
   0  -8  17 84.3427 6.20309   1
  -1  -8  18 31.7882 5.67410  -2
   1  -8  17 31.7882 5.67410   1
  -5  -7  17 2.21725 3.55549   2
  -5  -7  17 0.10905 4.58315   1
  -4  -7  17 11.0896 3.78992   2
  -4  -7  17 11.0401 4.90335   1
   3  -7  14 30.5526 6.21063  -2
  -3  -7  17 30.5526 6.21063   1
   2  -7  15 174.221 9.94014  -2
  -2  -7  17 174.221 9.94014   1
   1  -7  16 8.98599 4.96554  -2
  -1  -7  17 8.98599 4.96554   1
   0  -7  17 2.52026 4.09369  -2
   0  -7  17 2.52026 4.09369   1
  -1  -7  18 12.4201 5.78707  -2
   1  -7  17 12.4201 5.78707   1
  -2  -7  19 119.786 8.88035  -2
   2  -7  17 119.786 8.88035   1
  -6  -6  17 14.0324 5.72013   2
  -5  -6  17 8.02252 5.73251   2
  -5  -6  17 1.44866 4.52163   1
  -4  -6  17 65.5284 5.29636   2
  -4  -6  17 66.9027 6.82356   1
   3  -6  14 89.8410 9.94333  -2
  -3  -6  17 89.8410 9.94333   1
   2  -6  15 124.814 7.92512  -2
  -2  -6  17 124.814 7.92512   1
   1  -6  16 88.1717 6.82890  -2
  -1  -6  17 88.1717 6.82890   1
   0  -6  17 91.5331 6.45779  -2
   0  -6  17 91.5331 6.45779   1
  -1  -6  18 3.91058 5.47214  -2
   1  -6  17 3.91058 5.47214   1
  -2  -6  19 121.184 8.57273  -2
   2  -6  17 121.184 8.57273   1
  -7  -5  17 16.7664 5.69589   2
  -6  -5  17 27.4267 6.31047   2
  -6  -5  17 32.4207 6.21223   1
  -5  -5  17 2.81650 4.24817   1
  -5  -5  17 4.19982 5.59222   2
  -4  -5  17 153.261 12.6711   2
  -4  -5  17 152.749 10.5531   1
   3  -5  14 30.2180 7.58316  -2
  -3  -5  17 30.2180 7.58316   1
   2  -5  15 206.112 10.4274  -2
  -2  -5  17 206.112 10.4274   1
   1  -5  16 61.9211 5.77153  -2
  -1  -5  17 61.9211 5.77153   1
   0  -5  17 224.282 11.0561  -2
   0  -5  17 224.282 11.0561   1
  -1  -5  18 12.5320 5.22553  -2
   1  -5  17 12.5320 5.22553   1
  -2  -5  19 38.3584 9.50674  -2
   2  -5  17 38.3584 9.50674   1
  -3  -5  20 10.3905 11.0631  -2
   3  -5  17 10.3905 11.0631   1
  -7  -4  17 6.37659 5.82528   2
  -7  -4  17 13.4475 5.59592   1
  -6  -4  17 51.6287 7.21020   1
  -6  -4  17 40.8940 7.25022   2
  -5  -4  17 -3.4250 4.96819   2
  -4  -4  17 9.37058 5.74161   2
  -4  -4  17 15.2385 4.16676   1
   3  -4  14 42.3945 7.53969  -2
  -3  -4  17 42.3945 7.53969   1
   2  -4  15 528.118 29.9898  -2
  -2  -4  17 528.118 29.9898   1
   1  -4  16 114.513 7.08268  -2
  -1  -4  17 114.513 7.08268   1
   0  -4  17 16.3941 3.45537  -2
   0  -4  17 16.3941 3.45537   1
  -1  -4  18 43.5413 5.52879  -2
   1  -4  17 43.5413 5.52879   1
  -2  -4  19 60.0528 9.55092  -2
   2  -4  17 60.0528 9.55092   1
  -3  -4  20 10.7895 10.7540  -2
   3  -4  17 10.7895 10.7540   1
  -7  -3  17 0.85963 5.74747   2
  -7  -3  17 5.21627 5.47590   1
  -6  -3  17 52.3056 8.01943   2
  -6  -3  17 51.8477 6.69705   1
  -5  -3  17 17.6357 5.99466   2
  -5  -3  17 18.6235 5.53041   1
  -4  -3  17 61.1409 8.01220   2
   3  -3  14 55.2162 7.46729  -2
  -3  -3  17 55.2162 7.46729   1
   2  -3  15 408.031 23.6126  -2
  -2  -3  17 408.031 23.6126   1
   1  -3  16 97.9996 6.24970  -2
  -1  -3  17 97.9996 6.24970   1
   0  -3  17 211.645 9.99553  -2
   0  -3  17 211.645 9.99553   1
  -1  -3  18 7.83506 6.99272  -2
   1  -3  17 7.83506 6.99272   1
  -2  -3  19 82.5408 10.5129  -2
   2  -3  17 82.5408 10.5129   1
  -3  -3  20 39.4279 10.4053  -2
   3  -3  17 39.4279 10.4053   1
  -7  -2  17 56.7762 5.38562   1
  -7  -2  17 69.0641 9.12073   2
  -6  -2  17 26.7812 7.03920   2
  -6  -2  17 24.6806 4.35250   1
  -5  -2  17 11.8581 3.81115   1
  -5  -2  17 13.3179 5.97116   2
  -4  -2  17 50.8472 7.25917   2
  -4  -2  17 55.4060 4.86458   1
  -3  -2  17 8.82854 5.11055   2
   2  -2  15 21.1338 5.95225  -2
  -2  -2  17 21.1338 5.95225   1
   1  -2  16 103.871 6.18502  -2
  -1  -2  17 103.871 6.18502   1
   0  -2  17 773.779 48.7443  -2
   0  -2  17 773.779 48.7443   1
  -1  -2  18 2.35267 7.20358  -2
   1  -2  17 2.35267 7.20358   1
  -2  -2  19 8.48464 8.15171  -2
   2  -2  17 8.48464 8.15171   1
  -3  -2  20 26.2095 9.82387  -2
   3  -2  17 26.2095 9.82387   1
   4  -2  17 6.21388 4.22201   2
  -7  -1  17 38.4737 4.66209   1
  -7  -1  17 51.1755 8.59093   2
  -6  -1  17 78.4967 6.11668   1
  -6  -1  17 103.105 7.58067   2
  -5  -1  17 78.7717 6.55331   2
  -5  -1  17 65.7517 5.29093   1
  -4  -1  17 6.96139 3.56745   1
  -4  -1  17 9.48740 5.74782   2
   3  -1  14 118.135 15.3652  -2
  -3  -1  17 118.135 15.3652   1
  -3  -1  17 80.7737 7.52160   1
  -3  -1  17 73.2372 8.26636   2
   2  -1  15 67.4850 12.2560  -2
  -2  -1  17 67.4850 12.2560   1
   1  -1  16 124.912 13.3846  -2
  -1  -1  17 124.912 13.3846   1
   0  -1  17 183.404 9.54950  -2
   0  -1  17 183.404 9.54950   1
  -1  -1  18 25.1842 7.10521  -2
   1  -1  17 25.1842 7.10521   1
  -2  -1  19 72.9107 9.92407  -2
   2  -1  17 72.9107 9.92407   1
  -3  -1  20 17.0188 8.69806  -2
   3  -1  17 17.0188 8.69806   1
   4  -1  17 13.7052 4.18612   2
  -7   0  17 5.75256 4.52582   2
  -7   0  17 4.43713 3.91867   1
  -6   0  17 40.1847 5.28590   2
  -6   0  17 32.2882 4.40930   1
  -5   0  17 91.3110 6.24957   1
  -5   0  17 124.989 8.77570   2
   4   0  13 271.672 22.5663  -2
  -4   0  17 271.672 22.5663   1
  -4   0  17 91.7831 7.92430   1
  -4   0  17 105.493 10.8778   2
   3   0  14 33.8237 12.7059  -2
  -3   0  17 33.8237 12.7059   1
  -3   0  17 11.4527 5.49004   2
  -3   0  17 8.80983 4.02966   1
   2   0  15 73.9302 6.44421  -2
  -2   0  17 73.9302 6.44421   1
   1   0  16 193.581 16.4055  -2
  -1   0  17 193.581 16.4055   1
   0   0  17 11.7208 3.43975  -2
   0   0  17 11.7208 3.43975   1
  -1   0  18 55.0953 6.21234  -2
   1   0  17 55.0953 6.21234   1
  -2   0  19 212.674 11.7212  -2
   2   0  17 212.674 11.7212   1
  -3   0  20 19.1027 9.04335  -2
   3   0  17 19.1027 9.04335   1
  -7   1  17 24.0214 6.86499   1
  -7   1  17 32.4353 7.02159   2
  -6   1  17 -1.5469 4.61491   2
  -6   1  17 2.67788 3.59226   1
  -5   1  17 16.3609 3.77635   1
  -5   1  17 22.3771 4.98140   2
  -4   1  17 112.659 8.20025   2
  -4   1  17 109.659 6.83278   1
  -3   1  17 84.2898 8.65198   2
   3   1  14 133.465 15.4353  -2
  -3   1  17 133.465 15.4353   1
  -3   1  17 71.4408 6.58597   1
   2   1  15 41.6418 11.6116  -2
  -2   1  17 41.6418 11.6116   1
   1   1  16 149.915 14.6765  -2
  -1   1  17 149.915 14.6765   1
   0   1  17 3.99669 6.41724  -2
   0   1  17 3.99669 6.41724   1
  -1   1  18 121.728 7.95697  -2
   1   1  17 121.728 7.95697   1
  -2   1  19 20.5551 6.75259  -2
   2   1  17 20.5551 6.75259   1
  -3   1  20 125.774 9.83222  -2
   3   1  17 125.774 9.83222   1
  -6   2  17 5.64934 3.36817   1
  -6   2  17 4.71761 4.68800   2
  -5   2  17 9.45881 3.31356   1
  -5   2  17 4.60973 4.71913   2
  -4   2  17 5.97104 3.11631   1
  -4   2  17 13.7210 6.22027   2
   3   2  14 120.332 15.5993  -2
  -3   2  17 120.332 15.5993   1
  -3   2  17 18.5242 4.06204   1
  -3   2  17 19.7795 5.74434   2
   2   2  15 200.632 18.1751  -2
  -2   2  17 200.632 18.1751   1
   1   2  16 90.3649 12.5512  -2
  -1   2  17 90.3649 12.5512   1
   0   2  17 23.9047 7.03303  -2
   0   2  17 23.9047 7.03303   1
  -1   2  18 58.9424 6.05586  -2
   1   2  17 58.9424 6.05586   1
  -2   2  19 33.3358 6.51192  -2
   2   2  17 33.3358 6.51192   1
  -6   3  17 5.31309 4.16699   1
  -5   3  17 124.946 7.28748   1
  -5   3  17 132.930 9.24339   2
  -4   3  17 13.1432 3.44102   1
  -4   3  17 4.30964 4.40633   2
   3   3  14 54.5150 13.8659  -2
  -3   3  17 54.5150 13.8659   1
  -3   3  17 11.0481 5.47709   2
   2   3  15 47.9834 12.5995  -2
  -2   3  17 47.9834 12.5995   1
   1   3  16 49.0566 9.46406  -2
  -1   3  17 49.0566 9.46406   1
   0   3  17 8.50126 6.75337  -2
   0   3  17 8.50126 6.75337   1
  -1   3  18 34.9220 9.05713  -2
   1   3  17 34.9220 9.05713   1
  -2   3  19 17.3977 7.96087  -2
   2   3  17 17.3977 7.96087   1
  -5   4  17 16.6751 4.31070   1
  -4   4  17 13.2668 4.46647   2
  -4   4  17 21.0727 7.02957   1
  -3   4  17 19.1616 5.70678   2
   3   4  14 75.4838 14.6223  -2
  -3   4  17 75.4838 14.6223   1
   2   4  15 50.2891 11.7922  -2
  -2   4  17 50.2891 11.7922   1
   1   4  16 42.7507 10.4839  -2
  -1   4  17 42.7507 10.4839   1
   0   4  17 6.81971 6.58090  -2
   0   4  17 6.81971 6.58090   1
  -4  -8  18 0.75648 5.02464   2
   2  -8  16 77.1797 7.04843  -2
  -2  -8  18 77.1797 7.04843   1
   1  -8  17 27.1831 5.57059  -2
  -1  -8  18 27.1831 5.57059   1
   0  -8  18 -1.8670 4.46350  -2
   0  -8  18 -1.8670 4.46350   1
  -4  -7  18 14.3698 3.99574   2
  -4  -7  18 16.9809 4.98810   1
   3  -7  15 57.7442 9.13285  -2
  -3  -7  18 57.7442 9.13285   1
   2  -7  16 72.4669 6.79019  -2
  -2  -7  18 72.4669 6.79019   1
   1  -7  17 12.2630 5.14841  -2
  -1  -7  18 12.2630 5.14841   1
   0  -7  18 4.63508 4.49220  -2
   0  -7  18 4.63508 4.49220   1
  -1  -7  19 56.6157 6.67264  -2
   1  -7  18 56.6157 6.67264   1
  -2  -7  20 4.16452 8.11750  -2
   2  -7  18 4.16452 8.11750   1
  -5  -6  18 12.6802 4.80116   1
  -5  -6  18 7.60292 5.96341   2
  -4  -6  18 -2.3664 5.72084   2
  -4  -6  18 -1.2871 4.24431   1
   3  -6  15 206.047 14.4112  -2
  -3  -6  18 206.047 14.4112   1
   2  -6  16 35.8933 5.91454  -2
  -2  -6  18 35.8933 5.91454   1
   1  -6  17 7.69770 5.10260  -2
  -1  -6  18 7.69770 5.10260   1
   0  -6  18 105.776 7.19592  -2
   0  -6  18 105.776 7.19592   1
  -1  -6  19 65.9232 6.82269  -2
   1  -6  18 65.9232 6.82269   1
  -2  -6  20 23.5425 9.59060  -2
   2  -6  18 23.5425 9.59060   1
  -6  -5  18 44.0333 6.75147   1
  -6  -5  18 38.5064 6.91106   2
  -5  -5  18 4.36912 5.26657   2
  -5  -5  18 2.13894 4.52469   1
  -4  -5  18 9.27711 5.57828   2
  -4  -5  18 10.8588 4.06149   1
   3  -5  15 40.5305 7.23906  -2
  -3  -5  18 40.5305 7.23906   1
   2  -5  16 42.6404 7.52717  -2
  -2  -5  18 42.6404 7.52717   1
   1  -5  17 13.9844 4.82397  -2
  -1  -5  18 13.9844 4.82397   1
   0  -5  18 4.42442 3.29109  -2
   0  -5  18 4.42442 3.29109   1
  -1  -5  19 37.1402 5.55529  -2
   1  -5  18 37.1402 5.55529   1
  -2  -5  20 1.23932 8.54781  -2
   2  -5  18 1.23932 8.54781   1
  -6  -4  18 16.4589 5.37138   1
  -6  -4  18 16.5691 6.28445   2
  -5  -4  18 6.79439 5.80566   2
  -5  -4  18 7.47287 5.42052   1
  -4  -4  18 6.73558 3.85910   1
  -4  -4  18 10.3760 5.81927   2
   3  -4  15 20.5430 6.90669  -2
  -3  -4  18 20.5430 6.90669   1
   2  -4  16 13.2870 6.17408  -2
  -2  -4  18 13.2870 6.17408   1
   1  -4  17 30.2676 4.86190  -2
  -1  -4  18 30.2676 4.86190   1
   0  -4  18 268.846 12.3819  -2
   0  -4  18 268.846 12.3819   1
  -1  -4  19 22.6738 8.30646  -2
   1  -4  18 22.6738 8.30646   1
  -2  -4  20 40.2690 9.65667  -2
   2  -4  18 40.2690 9.65667   1
  -6  -3  18 17.2021 6.49843   2
  -6  -3  18 20.7895 5.87040   1
  -5  -3  18 2.58144 5.50778   2
  -5  -3  18 8.27126 5.24932   1
  -4  -3  18 22.2899 5.92926   2
  -4  -3  18 29.4214 5.36529   1
   3  -3  15 4.39453 7.83145  -2
  -3  -3  18 4.39453 7.83145   1
   2  -3  16 13.3926 5.89730  -2
  -2  -3  18 13.3926 5.89730   1
   1  -3  17 6.60684 3.94513  -2
  -1  -3  18 6.60684 3.94513   1
   0  -3  18 100.006 9.41324  -2
   0  -3  18 100.006 9.41324   1
  -1  -3  19 54.8775 8.28033  -2
   1  -3  18 54.8775 8.28033   1
  -2  -3  20 102.406 11.4498  -2
   2  -3  18 102.406 11.4498   1
  -6  -2  18 14.0218 6.48816   2
  -6  -2  18 12.7084 5.37526   1
  -5  -2  18 3.26084 5.98185   2
  -5  -2  18 1.88956 4.50188   1
  -4  -2  18 16.1336 4.98971   1
  -4  -2  18 15.5356 6.04246   2
   1  -2  17 0.02388 4.87031  -2
  -1  -2  18 0.02388 4.87031   1
   0  -2  18 5.05866 4.43255  -2
   0  -2  18 5.05866 4.43255   1
  -1  -2  19 20.9578 6.96120  -2
   1  -2  18 20.9578 6.96120   1
  -2  -2  20 309.254 21.8894  -2
   2  -2  18 309.254 21.8894   1
  -7  -1  18 10.7731 6.70578   1
  -6  -1  18 5.98278 6.63980   2
  -6  -1  18 4.27830 3.64748   1
  -5  -1  18 29.3387 4.30387   1
  -5  -1  18 36.0878 7.44543   2
  -4  -1  18 108.659 7.01026   1
  -4  -1  18 125.381 11.1102   2
  -3  -1  18 48.5703 5.70125   1
   3  -1  15 113.786 15.5841  -2
  -3  -1  18 113.786 15.5841   1
  -3  -1  18 55.6382 7.29679   2
   2  -1  16 75.9040 12.5275  -2
  -2  -1  18 75.9040 12.5275   1
   0  -1  18 24.8619 4.75756  -2
   0  -1  18 24.8619 4.75756   1
  -1  -1  19 23.9678 7.07968  -2
   1  -1  18 23.9678 7.07968   1
  -2  -1  20 122.007 11.9628  -2
   2  -1  18 122.007 11.9628   1
  -7   0  18 26.8634 6.58089   2
  -6   0  18 15.3909 4.04637   1
  -6   0  18 13.5758 4.95009   2
  -5   0  18 7.29340 3.47335   1
  -5   0  18 13.0970 4.81228   2
  -4   0  18 43.0226 5.21763   2
   4   0  14 76.5190 14.3543  -2
  -4   0  18 76.5190 14.3543   1
  -4   0  18 35.8554 4.94046   1
  -3   0  18 27.6339 4.46091   1
   3   0  15 77.7192 14.2223  -2
  -3   0  18 77.7192 14.2223   1
  -3   0  18 28.5734 6.08636   2
   2   0  16 392.603 17.1620  -2
  -2   0  18 392.603 17.1620   1
   1   0  17 62.5019 11.0275  -2
  -1   0  18 62.5019 11.0275   1
   0   0  18 194.561 15.9533  -2
   0   0  18 194.561 15.9533   1
  -1   0  19 26.8103 6.92831  -2
   1   0  18 26.8103 6.92831   1
  -2   0  20 28.6223 8.40769  -2
   2   0  18 28.6223 8.40769   1
  -6   1  18 8.29302 4.90583   2
  -6   1  18 3.74230 3.65766   1
  -5   1  18 40.4360 5.41827   2
  -5   1  18 34.9219 4.19901   1
   4   1  14 160.539 17.9797  -2
  -4   1  18 160.539 17.9797   1
  -4   1  18 40.4589 5.26638   2
  -4   1  18 34.2311 4.68183   1
  -3   1  18 11.2650 3.88709   1
  -3   1  18 13.2347 5.41562   2
   3   1  15 69.5346 14.2572  -2
  -3   1  18 69.5346 14.2572   1
   2   1  16 324.352 24.4572  -2
  -2   1  18 324.352 24.4572   1
   1   1  17 170.007 15.8416  -2
  -1   1  18 170.007 15.8416   1
   0   1  18 7.88712 6.70622  -2
   0   1  18 7.88712 6.70622   1
  -1   1  19 4.74963 5.37221  -2
   1   1  18 4.74963 5.37221   1
  -2   1  20 81.5488 7.85924  -2
   2   1  18 81.5488 7.85924   1
  -5   2  18 32.6138 5.34588   2
  -5   2  18 32.0214 4.01002   1
  -4   2  18 80.8086 5.66906   1
  -4   2  18 80.6194 7.01910   2
   3   2  15 57.8773 13.6838  -2
  -3   2  18 57.8773 13.6838   1
  -3   2  18 19.7596 5.71744   2
   2   2  16 94.4946 12.9098  -2
  -2   2  18 94.4946 12.9098   1
   1   2  17 76.1599 11.5081  -2
  -1   2  18 76.1599 11.5081   1
   0   2  18 210.082 17.3587  -2
   0   2  18 210.082 17.3587   1
  -1   2  19 79.8899 11.3697  -2
   1   2  18 79.8899 11.3697   1
  -5   3  18 7.45028 4.03389   1
  -4   3  18 19.2841 6.99665   1
  -4   3  18 15.7274 4.65835   2
   3   3  15 257.512 21.3969  -2
  -3   3  18 257.512 21.3969   1
  -3   3  18 121.248 11.0165   2
   2   3  16 203.683 18.0380  -2
  -2   3  18 203.683 18.0380   1
   1   3  17 45.0158 9.47746  -2
  -1   3  18 45.0158 9.47746   1
   0   3  18 79.8779 9.73241  -2
   0   3  18 79.8779 9.73241   1
   2  -8  17 33.0948 8.71903  -2
  -2  -8  19 33.0948 8.71903   1
   2  -7  17 98.1584 7.43034  -2
  -2  -7  19 98.1584 7.43034   1
   1  -7  18 44.4482 5.65463  -2
  -1  -7  19 44.4482 5.65463   1
   0  -7  19 133.269 8.25653  -2
   0  -7  19 133.269 8.25653   1
  -1  -7  20 55.3414 8.43815  -2
   1  -7  19 55.3414 8.43815   1
  -4  -6  19 0.02854 5.75316   2
  -4  -6  19 4.22436 3.98473   1
   3  -6  16 10.5568 7.85141  -2
  -3  -6  19 10.5568 7.85141   1
   2  -6  17 113.827 10.0528  -2
  -2  -6  19 113.827 10.0528   1
   1  -6  18 48.9603 5.97637  -2
  -1  -6  19 48.9603 5.97637   1
   0  -6  19 72.4757 5.71040  -2
   0  -6  19 72.4757 5.71040   1
  -1  -6  20 62.3376 6.38988  -2
   1  -6  19 62.3376 6.38988   1
  -5  -5  19 -1.9675 5.48412   2
  -4  -5  19 108.714 10.8531   2
  -4  -5  19 122.591 9.04855   1
   3  -5  16 32.5467 7.42076  -2
  -3  -5  19 32.5467 7.42076   1
   2  -5  17 48.7999 7.14618  -2
  -2  -5  19 48.7999 7.14618   1
   1  -5  18 35.8327 5.04398  -2
  -1  -5  19 35.8327 5.04398   1
   0  -5  19 92.3666 5.40271  -2
   0  -5  19 92.3666 5.40271   1
  -1  -5  20 14.6530 8.55689  -2
   1  -5  19 14.6530 8.55689   1
  -5  -4  19 11.6966 5.05506   1
  -5  -4  19 7.63930 6.07281   2
  -4  -4  19 32.9773 5.00569   1
  -4  -4  19 37.6659 6.89521   2
   3  -4  16 29.4470 6.95780  -2
  -3  -4  19 29.4470 6.95780   1
   2  -4  17 47.2435 6.53007  -2
  -2  -4  19 47.2435 6.53007   1
   1  -4  18 20.4802 4.54627  -2
  -1  -4  19 20.4802 4.54627   1
   0  -4  19 205.618 9.88247  -2
   0  -4  19 205.618 9.88247   1
  -1  -4  20 27.1430 7.80499  -2
   1  -4  19 27.1430 7.80499   1
  -5  -3  19 77.1783 8.99987   2
  -5  -3  19 79.6187 7.81896   1
  -4  -3  19 26.2277 5.22053   1
  -4  -3  19 20.4460 6.28853   2
   2  -3  17 86.6876 8.11458  -2
  -2  -3  19 86.6876 8.11458   1
   1  -3  18 39.5014 5.84093  -2
  -1  -3  19 39.5014 5.84093   1
   0  -3  19 47.9711 6.34242  -2
   0  -3  19 47.9711 6.34242   1
  -1  -3  20 9.31665 7.62188  -2
   1  -3  19 9.31665 7.62188   1
  -2  -3  21 102.288 11.3711  -2
   2  -3  19 102.288 11.3711   1
  -5  -2  19 79.7028 9.20438   2
  -5  -2  19 74.9703 7.45431   1
  -4  -2  19 112.538 11.0256   2
  -4  -2  19 109.667 8.66315   1
   0  -2  19 54.2261 6.43125  -2
   0  -2  19 54.2261 6.43125   1
  -1  -2  20 49.8794 8.35433  -2
   1  -2  19 49.8794 8.35433   1
  -2  -2  21 160.914 13.5838  -2
   2  -2  19 160.914 13.5838   1
  -6  -1  19 1.93208 6.31382   1
  -5  -1  19 1.89331 3.48426   1
  -5  -1  19 3.07935 5.98182   2
  -4  -1  19 56.7477 4.87582   1
  -4  -1  19 48.9422 6.98777   2
  -3  -1  19 120.078 9.06960   1
   2  -1  17 70.3601 7.70042  -2
  -2  -1  19 70.3601 7.70042   1
  -1  -1  20 65.2145 8.44178  -2
   1  -1  19 65.2145 8.44178   1
  -2  -1  21 9.40298 7.56830  -2
   2  -1  19 9.40298 7.56830   1
  -6   0  19 -1.0058 5.64893   1
  -5   0  19 30.5728 7.04210   2
  -5   0  19 22.4685 3.89940   1
  -4   0  19 3.82793 4.10120   1
  -4   0  19 5.21663 5.68238   2
   4   0  15 57.8893 14.6894  -2
  -4   0  19 57.8893 14.6894   1
   3   0  16 65.0019 14.2453  -2
  -3   0  19 65.0019 14.2453   1
  -3   0  19 4.79750 5.12051   2
  -3   0  19 3.73646 3.68450   1
   2   0  17 248.353 20.2562  -2
  -2   0  19 248.353 20.2562   1
   1   0  18 52.7066 10.7688  -2
  -1   0  19 52.7066 10.7688   1
  -6   1  19 -4.7097 5.81890   2
  -5   1  19 53.7212 8.87153   2
  -5   1  19 57.1180 4.93835   1
  -4   1  19 3.23687 3.91868   1
   4   1  15 91.0145 15.6307  -2
  -4   1  19 91.0145 15.6307   1
  -4   1  19 2.64733 5.55749   2
   3   1  16 98.7135 14.7288  -2
  -3   1  19 98.7135 14.7288   1
  -3   1  19 3.84272 4.71786   2
   2   1  17 46.0390 12.1315  -2
  -2   1  19 46.0390 12.1315   1
   1   1  18 27.7367 10.7699  -2
  -1   1  19 27.7367 10.7699   1
   0   1  19 12.8307 7.04148  -2
   0   1  19 12.8307 7.04148   1
  -1   1  20 22.5270 10.7032  -2
   1   1  19 22.5270 10.7032   1
  -5   2  19 9.05668 3.80386   1
  -4   2  19 -0.6414 4.33357   2
   4   2  15 63.6236 14.3084  -2
  -4   2  19 63.6236 14.3084   1
  -4   2  19 2.20790 3.49377   1
  -3   2  19 17.2339 5.20249   2
   3   2  16 65.1943 14.0394  -2
  -3   2  19 65.1943 14.0394   1
   2   2  17 64.8558 13.1274  -2
  -2   2  19 64.8558 13.1274   1
   1   2  18 82.9401 11.8449  -2
  -1   2  19 82.9401 11.8449   1
   0   2  19 13.6574 7.21573  -2
   0   2  19 13.6574 7.21573   1
   1  -7  19 32.5266 9.21466  -2
  -1  -7  20 32.5266 9.21466   1
   2  -6  18 12.9440 6.62698  -2
  -2  -6  20 12.9440 6.62698   1
   1  -6  19 53.8039 5.90500  -2
  -1  -6  20 53.8039 5.90500   1
   0  -6  20 94.4365 6.57319  -2
   0  -6  20 94.4365 6.57319   1
   3  -5  17 2.78118 7.79799  -2
  -3  -5  20 2.78118 7.79799   1
   2  -5  18 9.73079 6.42218  -2
  -2  -5  20 9.73079 6.42218   1
   1  -5  19 10.0801 5.58162  -2
  -1  -5  20 10.0801 5.58162   1
   0  -5  20 9.45743 3.32196  -2
   0  -5  20 9.45743 3.32196   1
  -4  -4  20 40.2596 7.05863   2
   3  -4  17 -2.9770 7.57230  -2
  -3  -4  20 -2.9770 7.57230   1
   2  -4  18 39.0177 6.68860  -2
  -2  -4  20 39.0177 6.68860   1
   1  -4  19 21.1579 5.37916  -2
  -1  -4  20 21.1579 5.37916   1
   0  -4  20 1.40507 4.81160  -2
   0  -4  20 1.40507 4.81160   1
  -1  -4  21 30.7324 7.71539  -2
   1  -4  20 30.7324 7.71539   1
  -4  -3  20 80.2175 7.61607   1
  -4  -3  20 66.3808 8.22516   2
   2  -3  18 84.9617 7.90824  -2
  -2  -3  20 84.9617 7.90824   1
   0  -3  20 3.40552 4.46023  -2
   0  -3  20 3.40552 4.46023   1
  -1  -3  21 12.8529 7.66880  -2
   1  -3  20 12.8529 7.66880   1
  -5  -2  20 2.98690 4.55108   1
  -4  -2  20 10.3760 4.31029   1
  -4  -2  20 13.3620 5.80251   2
  -1  -2  21 21.3553 7.14623  -2
   1  -2  20 21.3553 7.14623   1
  -5  -1  20 16.3016 4.39836   1
  -4  -1  20 3.89126 4.25795   1
  -4  -1  20 5.09949 5.10899   2
   3  -1  17 14.1737 7.37228  -2
  -3  -1  20 14.1737 7.37228   1
  -5   0  20 41.4224 7.47722   1
  -4   0  20 27.2369 4.72045   1
  -4   0  20 22.4189 6.15840   2
   4   0  16 120.951 16.5766  -2
  -4   0  20 120.951 16.5766   1
   3   0  17 70.5649 14.3185  -2
  -3   0  20 70.5649 14.3185   1
  -4   1  20 1.92168 3.61742   1
  -4   1  20 -3.6065 6.73792   2
   4   1  16 79.7595 15.0113  -2
  -4   1  20 79.7595 15.0113   1
   3   1  17 187.741 18.3414  -2
  -3   1  20 187.741 18.3414   1
   2   1  18 135.302 15.2735  -2
  -2   1  20 135.302 15.2735   1
   1   1  19 24.3822 9.75018  -2
  -1   1  20 24.3822 9.75018   1
   0   1  20 191.739 15.9064  -2
   0   1  20 191.739 15.9064   1
   1  -5  20 8.58738 5.58043  -2
  -1  -5  21 8.58738 5.58043   1
   2  -4  19 0.50988 5.89896  -2
  -2  -4  21 0.50988 5.89896   1
   3  -2  18 51.2867 8.41840  -2
  -3  -2  21 51.2867 8.41840   1
   3  -1  18 37.8983 7.22694  -2
  -3  -1  21 37.8983 7.22694   1
   0   0   0    0.00    0.00   0
;
_shelx_hkl_checksum              3022
_shelx_res_file
;
TITL 10mz567_0m in P-1
    10mz567.res
    created by SHELXL-2018/3 at 08:28:27 on 01-Oct-2018
CELL  0.71073   7.0161   8.5634  14.8970  103.257  102.974   91.703
ZERR     2.00   0.0011   0.0013   0.0023    0.002    0.002    0.002
LATT   1
SFAC  C    H    N    BR
UNIT  28   18   4    10
TEMP  -173.50
SIZE     0.21   0.43   0.45
FMAP   2
PLAN   20
ACTA
BOND   $H
CONF
L.S.   10
EADP Br5 Br5B
SIMU 0.01 C10 > Br5B
SADI C12 C10 C12 C10B
SADI C8 C10 C14 C10 C8 C10B C14 C10B
LIST 6
WGHT    0.079700
BASF   0.48134
FVAR       0.39585   0.96009
BR1   4    0.908355    1.087917    0.367707    11.00000    0.02137    0.01954 =
         0.03148    0.00696    0.00474    0.00001
BR2   4    0.462226    1.079672    0.371009    11.00000    0.02478    0.02123 =
         0.03143    0.00908    0.01087    0.00664
N1    3    0.766400    0.629151    0.535058    11.00000    0.01970    0.01970 =
         0.01696    0.00488    0.00215    0.00078
N2    3    0.775553    0.490128    0.549580    11.00000    0.02426    0.02002 =
         0.01856    0.00666    0.00525    0.00129
C1    1    0.718657    0.630120    0.436813    11.00000    0.01768    0.01655 =
         0.01831    0.00375    0.00159   -0.00032
C3    1    0.653585    0.964371    0.308954    11.00000    0.02484    0.01688 =
         0.00855   -0.00059    0.00238    0.00051
C4    1    0.627859    0.658408    0.250598    11.00000    0.02369    0.02081 =
         0.01366    0.00034    0.00272    0.00051
AFIX  43
H4    2    0.595699    0.667201    0.186613    11.00000   -1.20000
AFIX   0
C5    1    0.706359    0.781078    0.417118    11.00000    0.02323    0.01590 =
         0.01206   -0.00094    0.00356    0.00202
AFIX  43
H5    2    0.729007    0.874865    0.467909    11.00000   -1.20000
AFIX   0
C6    1    0.640910    0.506954    0.269722    11.00000    0.02452    0.02133 =
         0.02077   -0.00065    0.00158   -0.00022
AFIX  43
H6    2    0.619070    0.413565    0.218693    11.00000   -1.20000
AFIX   0
C7    1    0.886820    0.312960    0.755604    11.00000    0.02761    0.02361 =
         0.03125    0.01496    0.00876    0.00458
AFIX  43
H7    2    0.901178    0.208546    0.766690    11.00000   -1.20000
AFIX   0
C8    1    0.911834    0.445154    0.830850    11.00000    0.02694    0.02491 =
         0.02559    0.01156    0.00477    0.00378
AFIX  43
H8    2    0.944967    0.431907    0.893937    11.00000   -1.20000
AFIX   0
C9    1    0.685290    0.491073    0.362136    11.00000    0.02446    0.01442 =
         0.02306    0.00271    0.00414   -0.00069
AFIX  43
H9    2    0.693124    0.387486    0.374978    11.00000   -1.20000
AFIX   0
C11   1    0.821198    0.483772    0.646407    11.00000    0.01907    0.02097 =
         0.01764    0.00734    0.00259    0.00203
C12   1    0.888920    0.598577    0.815240    11.00000    0.02304    0.02526 =
         0.02081    0.00742    0.00504    0.00092
C14   1    0.844984    0.620025    0.722814    11.00000    0.02184    0.01791 =
         0.02303    0.00826    0.00464    0.00223
AFIX  43
H14   2    0.831452    0.724552    0.711806    11.00000   -1.20000
AFIX   0
C15   1    0.840337    0.332149    0.662938    11.00000    0.02460    0.01678 =
         0.02453    0.00603    0.00610    0.00348
AFIX  43
H15   2    0.821753    0.240510    0.610947    11.00000   -1.20000
AFIX   0
C16   1    0.661153    0.796289    0.323641    11.00000    0.01866    0.02114 =
         0.01749    0.00572    0.00634    0.00158
BR3   4    0.585684    0.977682    0.177816    11.00000    0.06422    0.02888 =
         0.01355    0.00605    0.00291    0.00237
PART 1 21
C10   1    0.906036    0.745561    0.894420    21.00000    0.03485    0.03013 =
         0.01693    0.00725   -0.00025    0.00120
AFIX  13
H10   2    0.878219    0.840293    0.866313    21.00000   -1.20000
AFIX   0
BR4   4    0.716151    0.726067    0.970060    21.00000    0.04147    0.04236 =
         0.02011    0.00218    0.01072    0.00670
BR5   4    1.168520    0.787353    0.980053    21.00000    0.03843    0.03947 =
         0.02735    0.00950   -0.00450   -0.00990
PART 2 -21
SAME C10 > Br5
C10B  1    0.942262    0.735128    0.900568   -21.00000    0.04021    0.03486 =
         0.02175    0.00675   -0.00147   -0.00165
AFIX  13
H10B  2    0.851659    0.724703    0.942383   -21.00000   -1.20000
AFIX   0
BR4B  4    0.910352    0.930396    0.866986   -21.00000    0.06328    0.04498 =
         0.02708   -0.00004   -0.00440    0.00862
BR5B  4    1.208522    0.711063    0.968284   -21.00000    0.03843    0.03947 =
         0.02735    0.00950   -0.00450   -0.00990
PART 0
HKLF 5
REM  10mz567_0m in P-1
REM wR2 = 0.1365, GooF = S = 0.989, Restrained GooF = 0.991 for all data
REM R1 = 0.0507 for 6827 Fo > 4sig(Fo) and 0.0674 for all 8987 data
REM 213 parameters refined using 58 restraints
END
WGHT      0.0793      0.0000
REM Highest difference peak  1.809,  deepest hole -1.559,  1-sigma level  0.199
Q1    1   0.7415  0.6467  0.9671  11.00000  0.05    1.70
Q2    1   0.8053  0.7632  0.9630  11.00000  0.05    1.66
Q3    1   0.7508  0.7953  1.0074  11.00000  0.05    1.42
Q4    1   1.2557  0.7408  0.9850  11.00000  0.05    1.39
Q5    1   0.4421  1.0421  0.3170  11.00000  0.05    1.30
Q6    1   0.8276  1.0551  0.3874  11.00000  0.05    1.24
Q7    1   0.4999  0.9365  0.1890  11.00000  0.05    1.22
Q8    1   0.6776  0.9432  0.1949  11.00000  0.05    1.19
Q9    1   0.3791  1.0445  0.3853  11.00000  0.05    1.19
Q10   1   0.9986  1.1177  0.3548  11.00000  0.05    1.18
Q11   1   0.8912  1.0223  0.3201  11.00000  0.05    1.18
Q12   1   0.5582  1.0480  0.3897  11.00000  0.05    1.11
Q13   1   0.5932  0.8963  0.1376  11.00000  0.05    1.11
Q14   1   0.6197  0.9391  0.2476  11.00000  0.05    1.05
Q15   1   0.8765  1.1445  0.3033  11.00000  0.05    1.00
Q16   1   1.0006  1.0479  0.3888  11.00000  0.05    0.98
Q17   1   1.2535  0.8436  0.9695  11.00000  0.05    0.97
Q18   1   0.9391  1.0574  0.4329  11.00000  0.05    0.96
Q19   1   0.5513  1.1261  0.3561  11.00000  0.05    0.95
Q20   1   0.8081  1.1321  0.3495  11.00000  0.05    0.93
;
_shelx_res_checksum              24874
loop_
_space_group_symop_operation_xyz
'x, y, z'
'-x, -y, -z'
loop_
_atom_site_type_symbol
_atom_site_label
_atom_site_fract_x
_atom_site_fract_y
_atom_site_fract_z
_atom_site_U_iso_or_equiv
_atom_site_adp_type
_atom_site_calc_flag
_atom_site_occupancy
_atom_site_disorder_assembly
_atom_site_disorder_group
Br Br1 0.90836(8) 1.08792(7) 0.36771(5) 0.02429(15) Uani d 1 . .
Br Br2 0.46223(8) 1.07967(7) 0.37101(5) 0.02458(15) Uani d 1 . .
N N1 0.7664(6) 0.6292(6) 0.5351(3) 0.0191(9) Uani d 1 . .
N N2 0.7756(6) 0.4901(6) 0.5496(3) 0.0206(9) Uani d 1 . .
C C1 0.7187(7) 0.6301(7) 0.4368(4) 0.0181(10) Uani d 1 . .
C C3 0.6536(7) 0.9644(6) 0.3090(4) 0.0177(10) Uani d 1 . .
C C4 0.6279(8) 0.6584(7) 0.2506(4) 0.0203(10) Uani d 1 . .
H H4 0.595699 0.667201 0.186613 0.024 Uiso calc 1 . .
C C5 0.7064(7) 0.7811(7) 0.4171(4) 0.0179(10) Uani d 1 . .
H H5 0.729007 0.874865 0.467909 0.021 Uiso calc 1 . .
C C6 0.6409(8) 0.5070(7) 0.2697(4) 0.0238(11) Uani d 1 . .
H H6 0.619070 0.413565 0.218693 0.029 Uiso calc 1 . .
C C7 0.8868(8) 0.3130(8) 0.7556(4) 0.0258(12) Uani d 1 . .
H H7 0.901178 0.208546 0.766690 0.031 Uiso calc 1 . .
C C8 0.9118(8) 0.4452(7) 0.8309(4) 0.0251(12) Uani d 1 . .
H H8 0.944967 0.431907 0.893937 0.030 Uiso calc 1 . .
C C9 0.6853(8) 0.4911(7) 0.3621(4) 0.0212(10) Uani d 1 . .
H H9 0.693124 0.387486 0.374978 0.025 Uiso calc 1 . .
C C11 0.8212(7) 0.4838(7) 0.6464(4) 0.0191(10) Uani d 1 . .
C C12 0.8889(8) 0.5986(7) 0.8152(4) 0.0228(11) Uani d 1 . .
C C14 0.8450(7) 0.6200(7) 0.7228(4) 0.0205(10) Uani d 1 . .
H H14 0.831452 0.724552 0.711806 0.025 Uiso calc 1 . .
C C15 0.8403(8) 0.3321(7) 0.6629(4) 0.0217(11) Uani d 1 . .
H H15 0.821753 0.240510 0.610947 0.026 Uiso calc 1 . .
C C16 0.6612(7) 0.7963(7) 0.3236(4) 0.0186(10) Uani d 1 . .
Br Br3 0.58568(11) 0.97768(9) 0.17782(4) 0.03647(18) Uani d 1 . .
C C10 0.9060(9) 0.7456(8) 0.8944(4) 0.0281(13) Uani d 0.9601(19) A 1
H H10 0.878219 0.840293 0.866313 0.034 Uiso calc 0.9601(19) A 1
Br Br4 0.71615(10) 0.72607(10) 0.97006(5) 0.0349(2) Uani d 0.9601(19) A 1
Br Br5 1.16852(11) 0.78735(12) 0.98005(6) 0.0371(2) Uani d 0.9601(19) A 1
C C10B 0.942(6) 0.735(2) 0.9006(16) 0.034(7) Uani d 0.0399(19) A 2
H H10B 0.851659 0.724703 0.942383 0.041 Uiso calc 0.0399(19) A 2
Br Br4B 0.910(3) 0.930(2) 0.8670(14) 0.049(5) Uani d 0.0399(19) A 2
Br Br5B 1.209(3) 0.711(3) 0.9683(15) 0.0371(2) Uani d 0.0399(19) A 2
loop_
_atom_site_aniso_label
_atom_site_aniso_U_11
_atom_site_aniso_U_22
_atom_site_aniso_U_33
_atom_site_aniso_U_12
_atom_site_aniso_U_13
_atom_site_aniso_U_23
Br1 0.0214(3) 0.0195(3) 0.0315(3) 0.00001(18) 0.0047(2) 0.0070(2)
Br2 0.0248(3) 0.0212(3) 0.0314(3) 0.0066(2) 0.0109(2) 0.0091(2)
N1 0.020(2) 0.020(2) 0.017(2) 0.0008(16) 0.0021(16) 0.0049(18)
N2 0.024(2) 0.020(2) 0.019(2) 0.0013(17) 0.0053(17) 0.0067(19)
C1 0.018(2) 0.017(3) 0.018(2) -0.0003(17) 0.0016(18) 0.004(2)
C3 0.025(2) 0.017(3) 0.009(2) 0.0005(18) 0.0024(18) -0.0006(19)
C4 0.024(2) 0.021(3) 0.014(2) 0.0005(19) 0.0027(19) 0.000(2)
C5 0.023(2) 0.016(3) 0.012(2) 0.0020(18) 0.0036(18) -0.0009(19)
C6 0.025(3) 0.021(3) 0.021(3) 0.000(2) 0.002(2) -0.001(2)
C7 0.028(3) 0.024(3) 0.031(3) 0.005(2) 0.009(2) 0.015(2)
C8 0.027(3) 0.025(3) 0.026(3) 0.004(2) 0.005(2) 0.012(2)
C9 0.024(2) 0.014(3) 0.023(3) -0.0007(19) 0.004(2) 0.003(2)
C11 0.019(2) 0.021(3) 0.018(3) 0.0020(18) 0.0026(19) 0.007(2)
C12 0.023(3) 0.025(3) 0.021(3) 0.001(2) 0.005(2) 0.007(2)
C14 0.022(2) 0.018(3) 0.023(3) 0.0022(19) 0.005(2) 0.008(2)
C15 0.025(2) 0.017(3) 0.025(3) 0.0035(19) 0.006(2) 0.006(2)
C16 0.019(2) 0.021(3) 0.017(3) 0.0016(18) 0.0063(19) 0.006(2)
Br3 0.0642(4) 0.0289(4) 0.0136(3) 0.0024(3) 0.0029(3) 0.0060(2)
C10 0.035(3) 0.030(3) 0.017(3) 0.001(2) 0.000(2) 0.007(3)
Br4 0.0415(4) 0.0424(4) 0.0201(3) 0.0067(3) 0.0107(3) 0.0022(3)
Br5 0.0384(4) 0.0395(5) 0.0274(4) -0.0099(3) -0.0045(3) 0.0095(3)
C10B 0.040(11) 0.035(11) 0.022(10) -0.002(10) -0.001(10) 0.007(10)
Br4B 0.063(10) 0.045(10) 0.027(9) 0.009(8) -0.004(7) 0.000(8)
Br5B 0.0384(4) 0.0395(5) 0.0274(4) -0.0099(3) -0.0045(3) 0.0095(3)
loop_
_atom_type_symbol
_atom_type_description
_atom_type_scat_dispersion_real
_atom_type_scat_dispersion_imag
_atom_type_scat_source
C C 0.0033 0.0016 'International Tables Vol C Tables 4.2.6.8 and 6.1.1.4'
H H 0.0000 0.0000 'International Tables Vol C Tables 4.2.6.8 and 6.1.1.4'
N N 0.0061 0.0033 'International Tables Vol C Tables 4.2.6.8 and 6.1.1.4'
Br Br -0.2901 2.4595 'International Tables Vol C Tables 4.2.6.8 and 6.1.1.4'
loop_
_geom_angle_atom_site_label_1
_geom_angle_atom_site_label_2
_geom_angle_atom_site_label_3
_geom_angle
N2 N1 C1 113.7(5)
N1 N2 C11 115.5(5)
C5 C1 C9 119.9(5)
C5 C1 N1 115.8(5)
C9 C1 N1 124.2(5)
C16 C3 Br3 115.2(4)
C16 C3 Br1 110.3(3)
Br3 C3 Br1 106.9(3)
C16 C3 Br2 110.6(3)
Br3 C3 Br2 107.0(2)
Br1 C3 Br2 106.4(2)
C16 C4 C6 120.8(5)
C16 C4 H4 119.6
C6 C4 H4 119.6
C1 C5 C16 120.7(5)
C1 C5 H5 119.6
C16 C5 H5 119.6
C9 C6 C4 120.7(5)
C9 C6 H6 119.7
C4 C6 H6 119.7
C8 C7 C15 119.9(6)
C8 C7 H7 120.0
C15 C7 H7 120.0
C7 C8 C12 120.4(6)
C7 C8 H8 119.8
C12 C8 H8 119.8
C6 C9 C1 119.1(5)
C6 C9 H9 120.5
C1 C9 H9 120.5
C15 C11 C14 120.3(5)
C15 C11 N2 115.8(5)
C14 C11 N2 123.9(5)
C8 C12 C14 120.3(6)
C8 C12 C10B 116.3(10)
C14 C12 C10B 122.8(11)
C8 C12 C10 122.6(6)
C14 C12 C10 117.1(6)
C12 C14 C11 118.7(5)
C12 C14 H14 120.7
C11 C14 H14 120.7
C11 C15 C7 120.3(6)
C11 C15 H15 119.9
C7 C15 H15 119.9
C4 C16 C5 118.8(5)
C4 C16 C3 124.0(5)
C5 C16 C3 117.1(5)
C12 C10 Br4 111.1(4)
C12 C10 Br5 112.4(4)
Br4 C10 Br5 107.9(3)
C12 C10 H10 108.4
Br4 C10 H10 108.4
Br5 C10 H10 108.4
C12 C10B Br4B 110.8(14)
C12 C10B Br5B 107.0(18)
Br4B C10B Br5B 115(2)
C12 C10B H10B 108.1
Br4B C10B H10B 108.1
Br5B C10B H10B 108.1
loop_
_geom_bond_atom_site_label_1
_geom_bond_atom_site_label_2
_geom_bond_distance
Br1 C3 1.960(5)
Br2 C3 1.962(5)
N1 N2 1.259(7)
N1 C1 1.428(7)
N2 C11 1.420(7)
C1 C5 1.391(8)
C1 C9 1.403(8)
C3 C16 1.505(8)
C3 Br3 1.935(5)
C4 C16 1.383(7)
C4 C6 1.392(8)
C4 H4 0.9500
C5 C16 1.394(7)
C5 H5 0.9500
C6 C9 1.381(8)
C6 H6 0.9500
C7 C8 1.374(9)
C7 C15 1.394(8)
C7 H7 0.9500
C8 C12 1.394(8)
C8 H8 0.9500
C9 H9 0.9500
C11 C15 1.381(8)
C11 C14 1.407(8)
C12 C14 1.398(8)
C12 C10B 1.484(19)
C12 C10 1.495(9)
C14 H14 0.9500
C15 H15 0.9500
C10 Br4 1.954(7)
C10 Br5 1.960(6)
C10 H10 1.0000
C10B Br4B 1.86(2)
C10B Br5B 1.95(3)
C10B H10B 1.0000
loop_
_geom_torsion_atom_site_label_1
_geom_torsion_atom_site_label_2
_geom_torsion_atom_site_label_3
_geom_torsion_atom_site_label_4
_geom_torsion
C1 N1 N2 C11 -179.5(4)
N2 N1 C1 C5 179.9(4)
N2 N1 C1 C9 -0.3(7)
C9 C1 C5 C16 0.0(8)
N1 C1 C5 C16 179.8(4)
C16 C4 C6 C9 0.7(8)
C15 C7 C8 C12 0.7(8)
C4 C6 C9 C1 -0.5(8)
C5 C1 C9 C6 0.1(8)
N1 C1 C9 C6 -179.7(5)
N1 N2 C11 C15 -177.1(5)
N1 N2 C11 C14 3.4(7)
C7 C8 C12 C14 -1.6(8)
C7 C8 C12 C10B -173(2)
C7 C8 C12 C10 177.3(5)
C8 C12 C14 C11 1.1(8)
C10B C12 C14 C11 172(2)
C10 C12 C14 C11 -177.9(5)
C15 C11 C14 C12 0.3(8)
N2 C11 C14 C12 179.7(5)
C14 C11 C15 C7 -1.1(8)
N2 C11 C15 C7 179.4(5)
C8 C7 C15 C11 0.6(8)
C6 C4 C16 C5 -0.6(8)
C6 C4 C16 C3 178.8(5)
C1 C5 C16 C4 0.3(8)
C1 C5 C16 C3 -179.2(4)
Br3 C3 C16 C4 1.6(7)
Br1 C3 C16 C4 -119.5(5)
Br2 C3 C16 C4 123.0(5)
Br3 C3 C16 C5 -179.0(4)
Br1 C3 C16 C5 59.9(5)
Br2 C3 C16 C5 -57.5(5)
C8 C12 C10 Br4 -58.4(7)
C14 C12 C10 Br4 120.5(5)
C8 C12 C10 Br5 62.7(7)
C14 C12 C10 Br5 -118.4(5)
C8 C12 C10B Br4B 178.3(15)
C14 C12 C10B Br4B 7(3)
C8 C12 C10B Br5B 53(3)
C14 C12 C10B Br5B -118.3(12)

_cod_database_fobs_code 2021366
