#------------------------------------------------------------------------------
#$Date: 2018-11-10 05:27:00 +0200 (Sat, 10 Nov 2018) $
#$Revision: 211886 $
#$URL: file:///home/coder/svn-repositories/cod/cif/2/02/13/2021331.cif $
#------------------------------------------------------------------------------
#
# This file is available in the Crystallography Open Database (COD),
# http://www.crystallography.net/. The original data for this entry
# were provided by IUCr Journals, http://journals.iucr.org/.
#
# The file may be used within the scientific community so long as
# proper attribution is given to the journal article from which the
# data were obtained.
#
data_2021331
loop_
_publ_author_name
'Li, Ni-Ya'
'Liu, Dong'
_publ_section_title
;
 Synthesis, structure and photoluminescence properties of a
 three-dimensional cadmium(II) (4,5)-connected coordination network
;
_journal_coeditor_code           QS3076
_journal_issue                   12
_journal_name_full               'Acta Crystallographica Section C'
_journal_page_first
;
;
_journal_paper_doi               10.1107/S2053229618015073
_journal_volume                  74
_journal_year                    2018
_chemical_formula_iupac          '[Cd2 (C14 H8 O5)2 (C12 H10 N2)]'
_chemical_formula_moiety         'C40 H26 Cd2 N2 O10'
_chemical_formula_sum            'C40 H26 Cd2 N2 O10'
_chemical_formula_weight         919.44
_chemical_name_systematic
Poly[[\m~2~-<i>trans</i>-1,2-bis(pyridin-3-yl)ethylene-\k^2^<i>N</i>:<i>N</i>']bis(\m~4~-4,4'-oxydibenzoato-\k^6^<i>O</i>:<i>O</i>,<i>O</i>':<i>O</i>'':<i>O</i>'',<i>O</i>''')dicadmium(II)]
_space_group_crystal_system      triclinic
_space_group_IT_number           2
_space_group_name_Hall           '-P 1'
_space_group_name_H-M_alt        'P -1'
_symmetry_space_group_name_Hall  '-P 1'
_symmetry_space_group_name_H-M   'P -1'
_atom_sites_solution_hydrogens   geom
_audit_creation_method           SHELXL-2014/7
_cell_angle_alpha                84.85(3)
_cell_angle_beta                 85.98(3)
_cell_angle_gamma                83.70(3)
_cell_formula_units_Z            1
_cell_length_a                   7.6924(15)
_cell_length_b                   10.128(2)
_cell_length_c                   12.240(2)
_cell_measurement_reflns_used    17558
_cell_measurement_temperature    223(2)
_cell_measurement_theta_max      27.538
_cell_measurement_theta_min      3.063
_cell_volume                     942.3(3)
_computing_cell_refinement
;
SMART (Bruker, 2001)
;
_computing_data_collection
;
SMART (Bruker, 2001)
;
_computing_data_reduction
;
SAINT-Plus (Bruker, 2009)
;
_computing_molecular_graphics
;
DIAMOND (Brandenburg, 2010)
;
_computing_publication_material
;
publCIF (Westrip, 2010)
;
_computing_structure_refinement
;
SHELXL2014 (Sheldrick, 2015b)
;
_computing_structure_solution
;
SHELXT (Sheldrick, 2015a)
;
_diffrn_ambient_temperature      223(2)
_diffrn_measured_fraction_theta_full 0.992
_diffrn_measured_fraction_theta_max 0.991
_diffrn_measurement_device_type  'Bruker SMART CCD area detector'
_diffrn_measurement_method       'phi and omega scans'
_diffrn_radiation_type           MoK\a
_diffrn_radiation_wavelength     0.71073
_diffrn_reflns_av_R_equivalents  0.0156
_diffrn_reflns_av_unetI/netI     0.0138
_diffrn_reflns_limit_h_max       9
_diffrn_reflns_limit_h_min       -9
_diffrn_reflns_limit_k_max       13
_diffrn_reflns_limit_k_min       -13
_diffrn_reflns_limit_l_max       15
_diffrn_reflns_limit_l_min       -14
_diffrn_reflns_number            17558
_diffrn_reflns_theta_full        25.242
_diffrn_reflns_theta_max         27.538
_diffrn_reflns_theta_min         3.063
_diffrn_source                   'fine-focus sealed tube'
_exptl_absorpt_coefficient_mu    1.189
_exptl_absorpt_correction_T_max  0.821
_exptl_absorpt_correction_T_min  0.743
_exptl_absorpt_correction_type   multi-scan
_exptl_absorpt_process_details
;
(SADABS; Bruker, 2008)
;
_exptl_crystal_colour            colorless
_exptl_crystal_density_diffrn    1.620
_exptl_crystal_description       block
_exptl_crystal_F_000             456
_exptl_crystal_size_max          0.280
_exptl_crystal_size_mid          0.250
_exptl_crystal_size_min          0.160
_refine_diff_density_max         0.315
_refine_diff_density_min         -0.591
_refine_ls_extinction_method     none
_refine_ls_goodness_of_fit_ref   1.129
_refine_ls_hydrogen_treatment    constr
_refine_ls_matrix_type           full
_refine_ls_number_parameters     244
_refine_ls_number_reflns         4296
_refine_ls_number_restraints     0
_refine_ls_restrained_S_all      1.129
_refine_ls_R_factor_all          0.0211
_refine_ls_R_factor_gt           0.0193
_refine_ls_shift/su_max          0.001
_refine_ls_shift/su_mean         0.000
_refine_ls_structure_factor_coef Fsqd
_refine_ls_weighting_details
'w=1/[\s^2^(Fo^2^)+(0.0229P)^2^+0.3899P] where P=(Fo^2^+2Fc^2^)/3'
_refine_ls_weighting_scheme      calc
_refine_ls_wR_factor_gt          0.0475
_refine_ls_wR_factor_ref         0.0486
_reflns_number_gt                4065
_reflns_number_total             4296
_reflns_threshold_expression     'I > 2\s(I)'
_cod_data_source_file            qs3076sup1.cif
_cod_data_source_block           I
_cod_database_code               2021331
_shelx_space_group_comment
;
The symmetry employed for this shelxl refinement is uniquely defined
by the following loop, which should always be used as a source of
symmetry information in preference to the above space-group names.
They are only intended as comments.
;
_shelx_estimated_absorpt_t_min   0.732
_shelx_estimated_absorpt_t_max   0.833
_shelx_hkl_file
;
  -2   0   0  516.29    9.30
  -2   0   0  513.63    9.30
   2   0   0  509.64    9.30
  -3   0   0   30.09    0.69
  -3   0   0   32.11    0.76
   3   0   0   30.79    0.75
   3   0   0   30.03    0.69
   3   0   0   30.16    0.75
  -4   0   0  716.93   12.74
  -4   0   0  673.35   12.66
  -4   0   0  703.01   12.75
   4   0   0  693.39   12.74
   4   0   0  694.98   12.73
   4   0   0  709.29   12.64
  -5   0   0    4.47    0.30
  -5   0   0    4.16    0.38
  -5   0   0    3.85    0.40
   5   0   0    3.63    0.44
   5   0   0    4.18    0.30
   5   0   0    4.25    0.37
  -6   0   0  145.54    2.91
  -6   0   0  143.89    3.00
  -6   0   0  142.35    3.03
   6   0   0  138.81    3.00
   6   0   0  141.71    3.00
   6   0   0  144.94    2.85
  -7   0   0   11.04    0.70
  -7   0   0   10.92    0.85
  -7   0   0   11.48    0.73
   7   0   0   12.13    0.56
   7   0   0   11.47    0.70
   7   0   0   11.13    0.70
  -8   0   0   34.76    1.29
  -8   0   0   35.09    1.10
  -8   0   0   37.58    1.31
   8   0   0   35.89    1.33
   8   0   0   35.06    1.08
   8   0   0   35.92    1.30
  -9   0   0    0.92    0.33
  -9   0   0    1.19    0.42
   9   0   0    1.26    0.38
   9  -1   0    1.53    0.42
   9  -1   0    1.98    0.33
  -9   1   0    2.41    0.35
  -9   1   0    1.42    0.46
   8  -1   0   69.47    1.97
   8  -1   0   75.25    1.98
   8  -1   0   73.11    1.70
  -8   1   0   74.59    1.99
  -8   1   0   71.95    1.72
  -8   1   0   69.50    1.97
   7  -1   0   13.07    0.57
   7  -1   0   12.40    0.73
   7  -1   0   12.18    0.75
  -7   1   0   12.47    0.76
  -7   1   0   12.48    0.57
  -7   1   0   13.32    0.75
   6  -1   0   97.22    2.18
   6  -1   0   93.53    2.17
   6  -1   0   96.68    1.99
  -6   1   0   97.35    2.20
  -6   1   0   94.65    2.00
  -6   1   0   96.88    2.18
   5  -1   0    8.79    0.49
   5  -1   0    9.20    0.38
   5  -1   0    8.58    0.69
  -5   1   0    8.45    0.59
  -5   1   0    9.41    0.39
  -5   1   0    9.17    0.50
   4  -1   0  397.58    7.44
   4  -1   0  403.86    7.44
   4  -1   0  395.85    7.30
  -4   1   0  419.70    7.45
  -4   1   0  394.84    7.44
  -4   1   0  390.54    7.34
   3  -1   0    0.29    0.11
   3  -1   0    0.31    0.10
  -3   1   0    0.28    0.10
  -3   1   0    0.35    0.07
  -3   1   0    0.29    0.11
   2  -1   0  386.97    7.05
   2  -1   0  385.72    7.04
  -2   1   0  392.47    6.98
  -2   1   0  382.27    7.04
   1  -1   0  114.73    2.37
   1  -1   0  135.56    2.40
  -1   1   0  130.97    2.39
  -1   1   0  135.36    2.38
  -1  -1   0  205.33    4.13
  -1  -1   0  227.95    4.12
   1   1   0  241.39    4.13
   1   1   0  221.40    4.11
   1   1   0  236.83    4.17
  -2  -1   0  340.06    6.25
  -2  -1   0  343.28    6.27
  -2  -1   0  341.88    6.24
   2   1   0  340.09    6.25
   2   1   0  348.65    6.24
  -3  -1   0   43.02    0.94
  -3  -1   0   42.59    0.99
  -3  -1   0   43.20    1.00
   3   1   0   43.49    0.94
   3   1   0   43.99    0.98
  -4  -1   0  545.72    9.92
  -4  -1   0  534.15    9.98
  -4  -1   0  546.34   10.01
   4   1   0  557.48   10.01
   4   1   0  538.38    9.99
   4   1   0  546.38    9.92
  -5  -1   0    7.43    0.38
  -5  -1   0    7.82    0.44
  -5  -1   0    7.60    0.47
   5   1   0    7.64    0.38
   5   1   0    7.48    0.55
   5   1   0    7.55    0.43
  -6  -1   0  205.08    4.15
  -6  -1   0  204.42    4.10
  -6  -1   0  204.34    3.99
   6   1   0  207.38    4.14
   6   1   0  207.61    3.99
   6   1   0  202.68    4.11
  -7  -1   0    0.95    0.28
  -7  -1   0    0.92    0.39
  -7  -1   0    1.40    0.23
   7   1   0    1.17    0.22
   7   1   0    0.47    0.30
   7   1   0    1.36    0.29
  -8  -1   0   73.94    2.00
  -8  -1   0   74.22    1.97
  -8  -1   0   73.14    1.78
   8   1   0   71.21    1.98
   8   1   0   72.84    1.78
   8   1   0   75.16    1.96
  -9  -1   0    1.29    0.40
  -9  -1   0    1.29    0.34
   9   1   0    1.25    0.38
   9   1   0    1.06    0.32
   9  -2   0    0.83    0.30
   9  -2   0    0.68    0.40
  -9   2   0    0.48    0.42
   8  -2   0   45.69    1.48
   8  -2   0   39.79    1.45
   8  -2   0   43.45    1.16
  -8   2   0   43.20    1.46
   7  -2   0   24.42    0.76
   7  -2   0   25.34    1.00
   7  -2   0   24.67    0.97
  -7   2   0   24.52    0.99
  -7   2   0   23.32    0.99
   6  -2   0   97.23    2.23
   6  -2   0   97.03    2.00
   6  -2   0   97.38    2.23
  -6   2   0   96.12    2.02
  -6   2   0   97.59    2.22
  -6   2   0   98.16    2.23
   5  -2   0    8.18    0.50
   5  -2   0    8.08    0.35
   5  -2   0    7.41    0.69
  -5   2   0    8.01    0.49
  -5   2   0    8.53    0.37
  -5   2   0    8.05    0.49
   4  -2   0  119.73    2.42
   4  -2   0  119.26    2.45
   4  -2   0  116.71    2.29
  -4   2   0  119.05    2.43
  -4   2   0  120.13    2.45
   3  -2   0   17.55    0.55
   3  -2   0   19.20    0.54
   3  -2   0   17.56    0.45
  -3   2   0   17.63    0.53
   2  -2   0  117.78    2.28
   2  -2   0  119.40    2.31
   2  -2   0  120.04    2.23
  -2   2   0  118.34    2.31
  -2   2   0  118.08    2.28
  -1   2   0  485.20    8.77
   0  -2   0   72.31    1.39
   0  -2   0   71.34    1.39
   0   2   0   73.85    1.39
   0   2   0   71.48    1.36
   0   2   0   73.63    1.39
  -1  -2   0  130.07    2.41
  -1  -2   0  131.30    2.40
  -1  -2   0  126.39    2.42
   1   2   0  128.43    2.39
  -2  -2   0  192.89    3.72
  -2  -2   0  204.01    3.74
  -2  -2   0  201.14    3.74
   2   2   0  199.01    3.74
   2   2   0  203.78    3.73
   2   2   0  204.42    3.74
  -3  -2   0   28.38    0.79
  -3  -2   0   29.42    0.74
  -3  -2   0   28.49    0.71
   3   2   0   30.73    0.74
   3   2   0   28.48    0.71
   3   2   0   29.21    0.72
  -4  -2   0  447.79    8.12
  -4  -2   0  439.28    8.05
  -4  -2   0  434.08    8.07
   4   2   0  438.25    8.05
   4   2   0  437.25    8.08
   4   2   0  429.56    8.10
  -5  -2   0   65.22    1.55
  -5  -2   0   67.38    1.46
  -5  -2   0   66.12    1.50
   5   2   0   65.83    1.52
   5   2   0   62.39    1.96
   5   2   0   66.05    1.46
  -6  -2   0  248.02    4.92
  -6  -2   0  244.92    4.86
   6   2   0  249.41    4.79
   6   2   0  249.28    4.92
   6   2   0  251.77    4.88
  -7  -2   0    9.46    0.66
  -7  -2   0    8.84    0.80
  -7  -2   0    9.39    0.56
   7   2   0    8.34    1.02
   7   2   0    8.96    0.67
   7   2   0    8.63    0.55
  -8  -2   0   82.07    2.06
  -8  -2   0   79.72    1.90
  -8  -2   0   79.48    2.09
   8   2   0   66.23    2.28
   8   2   0   81.05    2.04
   8   2   0   76.97    2.09
  -9  -2   0    1.18    0.39
  -9  -2   0    0.82    0.33
   9   2   0    0.15    0.29
   9   2   0    0.86    0.35
   9  -3   0    0.32    0.29
   9  -3   0   -0.11    0.42
  -9   3   0    0.09    0.42
   8  -3   0   51.20    1.87
   8  -3   0   52.96    1.63
   8  -3   0   50.81    1.28
  -8   3   0   50.02    1.60
   7  -3   0    5.85    0.63
   7  -3   0    6.58    0.44
   7  -3   0    4.91    0.65
  -7   3   0    6.80    0.69
  -7   3   0    6.21    0.68
   6  -3   0   88.02    1.79
   6  -3   0   88.07    2.02
   6  -3   0   75.62    2.46
  -6   3   0   88.13    2.05
  -6   3   0   87.94    2.04
   5  -3   0   26.97    0.90
   5  -3   0   26.91    0.88
   5  -3   0   26.31    0.69
  -5   3   0   26.87    0.87
  -5   3   0   27.39    0.89
   4  -3   0  308.73    5.72
   4  -3   0  312.24    5.86
   4  -3   0  311.80    5.90
  -4   3   0  311.29    5.90
  -4   3   0  311.62    5.86
   3  -3   0   33.32    0.82
   3  -3   0   32.80    0.86
   3  -3   0   33.53    0.75
   3  -3   0   32.56    0.74
  -3   3   0   33.46    0.83
  -3   3   0   34.34    0.86
   2  -3   0  143.54    2.79
   2  -3   0  152.26    2.85
   2  -3   0  141.95    2.74
  -2   3   0  150.77    2.84
  -2   3   0  146.65    2.79
   1  -3   0   37.56    0.82
   1  -3   0   36.24    0.78
  -1   3   0   37.45    0.82
  -1   3   0   36.94    0.77
  -1   3   0   37.13    0.79
   0  -3   0  302.24    5.49
   0  -3   0  299.79    5.49
   0   3   0  299.97    5.50
   0   3   0  297.74    5.50
   0   3   0  302.13    5.45
  -1  -3   0   68.48    1.36
  -1  -3   0   67.63    1.31
   1   3   0   65.42    1.35
   1   3   0   66.38    1.31
  -2  -3   0  104.88    2.05
  -2  -3   0  102.93    2.04
  -2  -3   0  107.29    2.08
   2   3   0  104.76    2.05
   2   3   0  105.25    2.06
   2   3   0  105.27    2.07
  -3  -3   0    2.44    0.23
  -3  -3   0    1.84    0.23
  -3  -3   0    2.17    0.20
   3   3   0    2.13    0.23
   3   3   0    2.32    0.24
   3   3   0    2.08    0.21
  -4  -3   0  316.36    5.85
  -4  -3   0  310.15    5.81
  -4  -3   0  301.69    5.80
   4   3   0  312.37    5.85
   4   3   0  309.34    5.81
   4   3   0  311.89    5.82
  -5  -3   0    0.15    0.13
  -5  -3   0    0.16    0.13
  -5  -3   0    0.18    0.17
   5   3   0    0.16    0.30
   5   3   0    0.10    0.14
   5   3   0   -0.10    0.13
  -6  -3   0   97.34    2.14
  -6  -3   0   97.48    2.24
  -6  -3   0   98.54    2.18
   6   3   0   99.07    2.24
   6   3   0   98.03    2.14
   6   3   0   97.88    2.19
  -7  -3   0    0.53    0.27
  -7  -3   0    0.85    0.23
  -7  -3   0    0.96    0.27
   7   3   0    0.80    0.23
   7   3   0    0.82    0.30
  -8  -3   0   47.07    1.37
  -8  -3   0   48.85    1.55
  -8  -3   0   45.95    1.50
   8   3   0   47.03    1.37
   8   3   0   45.62    1.53
   8   3   0   47.17    1.47
  -9  -3   0   -0.32    0.33
  -9  -3   0    0.32    0.41
   9   3   0    0.18    0.33
   9   3   0   -0.24    0.28
   9  -4   0    3.74    0.69
  -9   4   0    2.75    0.55
   8  -4   0   31.88    1.31
   8  -4   0   32.39    0.94
   8  -4   0   32.12    1.00
  -8   4   0   32.32    1.28
   7  -4   0    5.45    0.47
   7  -4   0    4.37    0.66
   7  -4   0    5.62    0.43
   7  -4   0    5.74    0.66
  -7   4   0    3.93    0.65
  -7   4   0    5.87    0.71
   6  -4   0   74.49    1.60
   6  -4   0   73.44    1.56
   6  -4   0   73.10    1.80
   6  -4   0   72.42    1.84
  -6   4   0   73.01    1.82
  -6   4   0   73.69    1.84
   5  -4   0   52.75    1.34
   5  -4   0   53.70    1.41
   5  -4   0   52.45    1.19
   5  -4   0   52.55    1.17
  -5   4   0   54.31    1.37
  -5   4   0   53.35    1.39
   4  -4   0  286.92    5.36
   4  -4   0  281.15    5.22
   4  -4   0  285.21    5.43
  -4   4   0  281.79    5.36
  -4   4   0  275.41    5.45
   3  -4   0    5.95    0.32
   3  -4   0    5.96    0.27
   3  -4   0    5.91    0.38
   3  -4   0    5.93    0.29
  -3   4   0    5.68    0.33
  -3   4   0    6.79    0.38
   2  -4   0  375.01    6.99
   2  -4   0  388.50    7.10
   2  -4   0  382.22    7.03
  -2   4   0  385.23    7.03
  -2   4   0  388.65    7.09
   1  -4   0    8.84    0.34
   1  -4   0    8.63    0.30
  -1   4   0    8.59    0.35
  -1   4   0    8.83    0.29
   0  -4   0  426.07    7.77
   0  -4   0  421.05    7.77
   0   4   0  432.06    7.71
   0   4   0  415.65    7.77
   0   4   0  436.97    7.78
  -1  -4   0   50.92    1.05
  -1  -4   0   50.52    1.11
  -1  -4   0   50.40    1.08
   1   4   0   52.28    1.11
   1   4   0   51.22    1.04
  -2  -4   0  207.03    3.84
  -2  -4   0  199.60    3.79
  -2  -4   0  204.64    3.79
   2   4   0  200.20    3.78
   2   4   0  198.17    3.83
  -3  -4   0   38.54    0.91
  -3  -4   0   36.34    0.94
  -3  -4   0   38.36    0.93
   3   4   0   38.37    0.93
   3   4   0   38.31    0.95
   3   4   0   39.09    0.93
  -4  -4   0  182.56    3.58
  -4  -4   0  184.24    3.62
  -4  -4   0  186.40    3.61
   4   4   0  186.32    3.62
   4   4   0  184.28    3.61
   4   4   0  184.59    3.60
  -5  -4   0   10.94    0.50
  -5  -4   0   11.54    0.56
  -5  -4   0   10.50    0.52
   5   4   0   10.25    0.51
   5   4   0   10.23    0.51
   5   4   0   10.20    0.54
  -6  -4   0   70.85    1.68
  -6  -4   0   69.60    1.75
  -6  -4   0   71.12    1.69
   6   4   0   69.11    1.74
   6   4   0   72.37    1.71
   6   4   0   70.80    1.69
  -7  -4   0   -0.22    0.23
  -7  -4   0   -0.13    0.24
  -7  -4   0    0.19    0.25
   7   4   0   -0.09    0.26
   7   4   0    0.50    0.38
   7   4   0    0.19    0.38
  -8  -4   0   48.48    1.54
  -8  -4   0   51.36    1.59
  -8  -4   0   50.01    1.45
   8   4   0   50.03    1.50
   8   4   0   46.49    1.59
   8   4   0   48.54    1.42
  -9  -4   0    2.25    0.49
  -9  -4   0    2.43    0.51
   9   4   0    2.04    0.42
   9   4   0    1.96    0.38
   8  -5   0   30.59    0.99
   8  -5   0   31.97    1.35
   8  -5   0   29.14    0.91
  -8   5   0   30.30    1.28
   7  -5   0    5.89    0.49
   7  -5   0    6.85    0.72
   7  -5   0    6.70    0.50
   7  -5   0    6.68    0.72
  -7   5   0    6.57    0.71
   6  -5   0   45.14    1.31
   6  -5   0   44.96    1.10
   6  -5   0   46.39    1.40
   6  -5   0   46.26    1.09
  -6   5   0   48.38    1.40
  -6   5   0   45.01    1.38
   5  -5   0    3.74    0.32
   5  -5   0    3.88    0.51
   5  -5   0    4.37    0.45
   5  -5   0    3.96    0.32
  -5   5   0    4.26    0.53
  -5   5   0    3.85    0.48
   4  -5   0  431.35    8.18
   4  -5   0  439.91    8.20
   4  -5   0  463.02    8.42
   4  -5   0  450.23    8.32
  -4   5   0  449.75    8.32
  -4   5   0  450.82    8.40
   3  -5   0   16.27    0.54
   3  -5   0   16.30    0.48
   3  -5   0   16.63    0.62
  -3   5   0   16.03    0.54
  -3   5   0   16.29    0.60
   2  -5   0  285.22    5.34
   2  -5   0  294.03    5.45
  -2   5   0  285.70    5.35
  -2   5   0  282.91    5.37
  -2   5   0  296.58    5.45
   1  -5   0   10.90    0.42
   1  -5   0   11.19    0.39
  -1   5   0   12.57    0.39
  -1   5   0   11.29    0.36
  -1   5   0   11.13    0.40
  -1   5   0   11.33    0.42
   0  -5   0  585.09   10.66
   0  -5   0  597.30   10.66
   0   5   0  567.86   10.66
   0   5   0  593.76   10.68
  -1  -5   0    4.21    0.29
  -1  -5   0    4.15    0.25
  -1  -5   0    4.50    0.23
   1   5   0    4.37    0.22
   1   5   0    3.87    0.28
  -2  -5   0  433.61    8.02
  -2  -5   0  430.40    7.98
  -2  -5   0  436.79    8.06
   2   5   0  453.54    8.20
   2   5   0  429.12    8.06
  -3  -5   0    2.63    0.31
  -3  -5   0    3.02    0.29
  -3  -5   0    3.40    0.27
   3   5   0    3.27    0.32
   3   5   0    3.25    0.28
  -4  -5   0  386.63    7.41
  -4  -5   0  393.23    7.30
  -4  -5   0  392.55    7.34
   4   5   0  399.79    7.34
   4   5   0  387.97    7.35
   4   5   0  394.82    7.34
  -5  -5   0    1.60    0.25
  -5  -5   0    2.33    0.35
   5   5   0    1.68    0.25
   5   5   0    2.48    0.39
   5   5   0    2.69    0.41
  -6  -5   0   83.17    1.90
  -6  -5   0   81.45    1.97
  -6  -5   0   82.99    1.94
   6   5   0   80.77    1.93
   6   5   0   82.93    1.93
   6   5   0   80.50    1.97
  -7  -5   0    1.67    0.31
  -7  -5   0    2.22    0.33
  -7  -5   0    1.40    0.33
   7   5   0    2.32    0.34
   7   5   0    1.74    0.29
   7   5   0    1.99    0.39
  -8  -5   0   54.17    1.60
  -8  -5   0   55.94    1.70
  -8  -5   0   53.13    1.64
   8   5   0   55.13    1.61
   8   5   0   57.25    1.60
   8   5   0   55.58    2.09
  -9  -5   0    3.18    0.53
   9   5   0    1.94    0.39
   9   5   0    1.97    0.42
   8  -6   0   18.16    1.20
  -8   6   0   17.42    1.09
   7  -6   0   10.44    0.82
   7  -6   0    9.72    0.53
   7  -6   0    8.64    0.84
   7  -6   0    9.14    0.56
  -7   6   0    9.65    0.81
   6  -6   0    4.90    0.61
   6  -6   0    3.72    0.64
   6  -6   0    4.15    0.43
   6  -6   0    3.61    0.39
  -6   6   0    2.58    0.47
  -6   6   0    2.63    0.39
   5  -6   0    3.79    0.57
   5  -6   0    5.26    0.37
   5  -6   0    5.19    0.38
   5  -6   0    4.86    0.48
  -5   6   0    3.82    0.55
  -5   6   0    4.83    0.52
   4  -6   0   83.18    1.95
   4  -6   0   83.28    1.76
   4  -6   0   81.86    1.84
   4  -6   0   80.89    1.72
  -4   6   0   84.81    1.85
  -4   6   0   85.55    1.95
   3  -6   0   30.23    0.77
   3  -6   0   30.20    0.91
  -3   6   0   30.31    0.90
  -3   6   0   30.46    0.82
   2  -6   0  114.43    2.39
   2  -6   0  113.26    2.29
  -2   6   0  116.02    2.33
  -2   6   0  115.36    2.28
  -2   6   0  117.24    2.39
   1  -6   0   99.74    2.00
   1  -6   0   98.98    2.05
  -1   6   0   97.97    2.05
  -1   6   0   98.08    2.02
  -1   6   0   99.76    1.96
  -1   6   0   96.93    1.94
   0  -6   0  578.99   10.49
   0  -6   0  565.98   10.49
   0   6   0  570.12   10.38
   0   6   0  574.06   10.50
   0   6   0  581.07   10.52
  -1  -6   0    0.77    0.13
  -1  -6   0    0.49    0.13
   1   6   0    0.34    0.13
   1   6   0    0.52    0.10
  -2  -6   0  322.89    6.09
  -2  -6   0  320.89    6.07
  -2  -6   0  333.14    6.14
  -2  -6   0  327.04    6.03
   2   6   0  327.59    6.02
   2   6   0  320.45    6.12
  -3  -6   0   75.80    1.62
  -3  -6   0   74.39    1.60
  -3  -6   0   72.47    1.71
   3   6   0   74.21    1.60
   3   6   0   72.17    1.67
  -4  -6   0  368.88    6.98
  -4  -6   0  372.27    6.97
  -4  -6   0  376.55    7.05
   4   6   0  379.67    7.00
   4   6   0  363.63    7.03
  -5  -6   0    0.32    0.23
  -5  -6   0    0.29    0.21
  -5  -6   0    0.19    0.21
   5   6   0    0.49    0.20
   5   6   0    0.21    0.20
  -6  -6   0   66.87    1.80
  -6  -6   0   68.26    1.67
  -6  -6   0   68.81    1.72
   6   6   0   65.41    1.73
   6   6   0   67.94    1.70
   6   6   0   65.79    1.71
  -7  -6   0    0.08    0.29
  -7  -6   0    0.22    0.29
  -7  -6   0    0.19    0.28
   7   6   0    0.01    0.25
   7   6   0    0.17    0.30
   7   6   0   -0.23    0.34
  -8  -6   0   59.88    1.78
  -8  -6   0   56.07    1.75
   8   6   0   58.37    1.70
   8   6   0   58.48    1.68
  -9  -6   0    3.80    0.60
   9   6   0    2.83    0.47
   9   6   0    2.37    0.47
   7  -7   0   13.78    0.63
   7  -7   0   15.24    0.94
   7  -7   0   13.92    1.01
   7  -7   0   15.57    0.96
  -7   7   0   14.86    0.96
   6  -7   0   70.02    1.55
   6  -7   0   67.94    1.54
   6  -7   0   69.55    1.93
   6  -7   0   68.98    1.79
  -6   7   0   68.36    1.79
  -6   7   0   72.01    2.33
   5  -7   0  141.51    2.88
   5  -7   0  145.59    3.21
   5  -7   0  145.63    2.91
   5  -7   0  145.00    3.07
  -5   7   0  151.69    3.09
  -5   7   0  146.23    3.19
   4  -7   0   67.31    1.49
   4  -7   0   68.29    1.54
  -4   7   0   67.98    1.59
  -4   7   0   68.11    1.71
   3  -7   0   62.92    1.40
   3  -7   0   63.50    1.56
  -3   7   0   62.90    1.55
  -3   7   0   64.44    1.44
   2  -7   0   85.19    1.90
   2  -7   0   88.87    1.81
  -2   7   0   85.20    1.81
  -2   7   0   87.43    1.85
  -2   7   0   78.22    2.03
  -2   7   0   86.98    1.76
   1  -7   0   87.94    1.83
   1  -7   0   85.91    1.87
  -1   7   0   84.99    1.73
  -1   7   0   85.31    1.88
  -1   7   0   87.16    1.89
   0  -7   0  271.70    5.20
   0  -7   0  273.52    5.19
   0   7   0  276.80    5.22
   0   7   0  282.94    5.31
   0   7   0  265.95    5.06
  -1  -7   0   48.20    1.12
  -1  -7   0   49.60    1.25
  -1  -7   0   49.96    1.18
   1   7   0   49.80    1.22
   1   7   0   51.15    1.29
  -2  -7   0  289.99    5.38
  -2  -7   0  286.68    5.46
  -2  -7   0  282.24    5.49
  -2  -7   0  288.55    5.43
   2   7   0  285.81    5.49
   2   7   0  290.25    5.36
  -3  -7   0   12.50    0.60
  -3  -7   0   11.41    0.53
  -3  -7   0   12.14    0.51
  -3  -7   0   11.65    0.53
   3   7   0   12.68    0.50
   3   7   0   11.99    0.59
  -4  -7   0  100.84    2.18
  -4  -7   0  102.27    2.28
  -4  -7   0  104.05    2.19
   4   7   0  100.45    2.18
   4   7   0  100.24    2.26
  -5  -7   0   28.01    0.93
  -5  -7   0   27.17    0.96
  -5  -7   0   28.46    0.91
   5   7   0   27.04    0.96
   5   7   0   28.40    0.94
  -6  -7   0  126.53    2.76
  -6  -7   0  128.41    2.85
  -6  -7   0  122.90    3.14
   6   7   0  127.53    2.83
   6   7   0  129.50    2.84
  -7  -7   0   10.27    0.77
  -7  -7   0    9.23    0.83
  -7  -7   0    8.69    0.77
   7   7   0   10.02    0.76
   7   7   0   10.44    0.90
   7   7   0    9.13    0.76
  -8  -7   0   30.30    1.32
  -8  -7   0   32.26    1.31
   8   7   0   32.44    1.27
   8   7   0   33.65    1.28
   7  -8   0   10.51    1.08
   7  -8   0   12.32    1.04
  -7   8   0   11.93    0.97
   6  -8   0   83.90    1.84
   6  -8   0   82.44    1.82
   6  -8   0   83.36    2.22
  -6   8   0   84.91    2.08
   5  -8   0    7.51    0.73
   5  -8   0    8.91    0.51
   5  -8   0    8.45    0.53
  -5   8   0    6.80    0.73
  -5   8   0    8.73    0.67
   4  -8   0   43.97    1.32
   4  -8   0   43.11    1.11
  -4   8   0   43.86    1.31
  -4   8   0   43.60    1.17
   3  -8   0   21.68    0.85
   3  -8   0   22.05    0.72
  -3   8   0   21.83    0.71
  -3   8   0   22.23    0.85
   2  -8   0   96.08    2.12
   2  -8   0   93.62    2.01
  -2   8   0   94.52    1.98
  -2   8   0   95.24    2.13
  -2   8   0   94.85    2.07
  -2   8   0   94.20    1.94
   1  -8   0   86.68    1.91
  -1   8   0   82.40    1.94
  -1   8   0   88.03    1.90
  -1   8   0   85.31    1.75
  -1   8   0   84.45    1.74
   0  -8   0  117.63    2.42
   0  -8   0  114.69    2.43
   0   8   0  117.09    2.45
   0   8   0  116.87    2.47
   0   8   0  113.80    2.28
   0   8   0  114.91    2.36
  -1  -8   0   41.19    1.06
  -1  -8   0   42.26    1.13
   1   8   0   41.54    0.96
   1   8   0   40.61    1.12
  -2  -8   0   69.72    1.64
  -2  -8   0   67.29    1.59
  -2  -8   0   68.79    1.57
  -2  -8   0   68.09    1.51
   2   8   0   67.54    1.63
   2   8   0   67.83    1.48
  -3  -8   0  125.23    2.59
  -3  -8   0  122.42    2.60
  -3  -8   0  121.47    2.67
  -3  -8   0  127.16    2.56
   3   8   0  125.85    2.69
   3   8   0  123.23    2.53
  -4  -8   0   21.81    0.75
  -4  -8   0   20.67    0.76
  -4  -8   0   20.76    0.80
  -4  -8   0   20.98    0.86
   4   8   0   20.80    0.86
  -5  -8   0   27.71    0.96
  -5  -8   0   29.08    0.97
  -5  -8   0   30.52    1.08
   5   8   0   29.62    1.05
   5   8   0   29.02    1.00
  -6  -8   0  187.19    4.03
  -6  -8   0  182.57    3.92
  -6  -8   0  179.05    3.78
   6   8   0  185.87    3.90
   6   8   0  183.69    3.84
  -7  -8   0   12.23    0.86
  -7  -8   0   12.73    0.88
   7   8   0   12.47    0.85
   7   8   0   11.82    1.07
  -8  -8   0   24.25    1.24
  -8  -8   0   24.01    1.44
   8   8   0   26.28    1.22
   6  -9   0   13.44    0.65
   6  -9   0   13.39    1.05
  -6   9   0   11.43    0.89
   5  -9   0   18.51    0.80
   5  -9   0   18.73    0.74
   5  -9   0   18.41    1.00
  -5   9   0   17.77    0.87
   4  -9   0   33.99    1.00
   4  -9   0   34.54    1.19
  -4   9   0   33.16    1.19
  -4   9   0   35.73    1.04
   3  -9   0   14.52    0.83
   3  -9   0   13.94    0.65
  -3   9   0   14.58    0.77
  -3   9   0   14.48    0.60
  -3   9   0   14.17    0.64
   2  -9   0   47.48    1.22
   2  -9   0   47.20    1.31
  -2   9   0   46.71    1.11
  -2   9   0   47.19    1.32
  -2   9   0   45.43    1.12
  -2   9   0   46.27    1.26
   1  -9   0  110.48    2.41
   1  -9   0  109.67    2.37
  -1   9   0  106.72    2.20
  -1   9   0  110.97    2.21
  -1   9   0  114.43    2.46
  -1   9   0  111.42    2.40
   0  -9   0   61.73    1.48
   0  -9   0   62.22    1.51
   0   9   0   58.95    1.30
   0   9   0   59.84    1.50
   0   9   0   59.32    1.30
  -1  -9   0   50.07    1.27
  -1  -9   0   51.63    1.36
   1   9   0   49.61    1.14
   1   9   0   49.29    1.33
  -2  -9   0   86.47    2.02
  -2  -9   0   87.12    1.86
  -2  -9   0   86.99    1.91
   2   9   0   87.47    1.81
   2   9   0   77.74    2.48
  -3  -9   0   37.12    1.03
  -3  -9   0   37.29    1.05
  -3  -9   0   36.57    1.08
  -3  -9   0   37.28    1.18
   3   9   0   38.07    1.18
   3   9   0   37.96    1.01
  -4  -9   0   74.12    1.71
  -4  -9   0   73.45    1.87
  -4  -9   0   71.64    1.74
  -4  -9   0   70.68    1.73
   4   9   0   72.62    1.84
   4   9   0   70.93    1.70
  -5  -9   0   25.18    0.96
  -5  -9   0   26.88    0.95
  -5  -9   0   25.22    0.95
  -5  -9   0   22.73    1.04
   5   9   0   26.03    1.04
   5   9   0   25.77    0.98
  -6  -9   0   52.41    1.51
  -6  -9   0   50.84    1.49
   6   9   0   51.04    1.55
   6   9   0   51.61    1.58
  -7  -9   0    9.19    0.82
  -7  -9   0   10.10    0.91
   7   9   0    7.63    1.06
   7   9   0    6.74    0.90
   5 -10   0   19.18    0.83
   5 -10   0   18.53    1.08
   4 -10   0   28.69    1.00
   4 -10   0   28.22    1.15
  -4  10   0   28.73    0.96
  -4  10   0   28.18    1.05
   3 -10   0   10.48    0.72
   3 -10   0   11.38    0.72
  -3  10   0   10.49    0.77
  -3  10   0   10.74    0.58
  -3  10   0   11.23    0.63
   2 -10   0   55.92    1.45
   2 -10   0   55.07    1.51
  -2  10   0   55.53    1.28
  -2  10   0   55.42    1.53
  -2  10   0   54.41    1.48
  -2  10   0   55.35    1.30
   1 -10   0   44.99    1.30
   1 -10   0   47.45    1.30
  -1  10   0   45.26    1.30
  -1  10   0   44.50    1.06
  -1  10   0   44.79    1.07
  -1  10   0   46.38    1.34
   0 -10   0  123.66    2.67
   0 -10   0  128.36    2.73
   0  10   0  124.58    3.01
   0  10   0  123.05    2.46
   0  10   0  123.14    2.46
  -1 -10   0   16.49    0.70
  -1 -10   0   18.26    0.82
   1  10   0   16.47    0.77
   1  10   0   17.17    0.58
  -2 -10   0   43.40    1.32
  -2 -10   0   44.73    1.20
  -2 -10   0   40.17    1.24
   2  10   0   42.88    1.07
   2  10   0   44.55    1.30
  -3 -10   0   19.99    0.84
  -3 -10   0   19.36    0.94
  -3 -10   0   20.01    0.75
  -3 -10   0   20.55    0.79
   3  10   0   19.28    0.74
   3  10   0   20.09    0.89
  -4 -10   0   53.17    1.44
  -4 -10   0   56.83    1.43
  -4 -10   0   52.31    1.46
  -4 -10   0   52.60    1.64
   4  10   0   53.55    1.42
   4  10   0   54.41    1.58
  -5 -10   0   23.51    1.47
  -5 -10   0   29.13    1.06
  -5 -10   0   27.67    1.09
   5  10   0   28.12    1.10
   5  10   0   28.11    1.13
  -6 -10   0   28.75    1.12
  -6 -10   0   28.56    1.18
  -6 -10   0   29.14    1.14
   6  10   0   27.98    1.25
   6  10   0   29.38    1.27
  -7 -10   0    5.27    0.60
  -7 -10   0    7.65    0.87
   7  10   0    7.46    1.18
   4 -11   0   15.71    1.01
  -4  11   0   17.39    1.11
   3 -11   0   16.90    0.92
   3 -11   0   16.49    0.94
  -3  11   0   17.39    0.74
  -3  11   0   16.52    0.83
  -3  11   0   18.26    1.23
   2 -11   0   21.47    0.95
   2 -11   0   20.96    0.98
  -2  11   0   21.96    0.73
  -2  11   0   23.54    0.98
  -2  11   0   21.82    1.02
  -2  11   0   23.14    0.72
   1 -11   0   27.03    1.06
   1 -11   0   27.49    1.02
  -1  11   0   29.08    1.09
  -1  11   0   26.25    0.78
  -1  11   0   27.46    0.76
  -1  11   0   28.94    1.07
   0 -11   0   25.71    1.12
   0 -11   0   28.32    1.08
   0  11   0   27.87    1.02
   0  11   0   27.44    0.75
   0  11   0   27.12    0.77
  -1 -11   0    9.58    0.66
  -1 -11   0    9.60    0.83
   1  11   0   10.66    0.53
   1  11   0   11.50    0.49
   1  11   0   10.68    0.72
  -2 -11   0   61.59    1.60
  -2 -11   0   58.93    1.64
  -2 -11   0   58.48    1.71
   2  11   0   60.09    1.40
   2  11   0   59.55    1.66
  -3 -11   0   14.69    0.71
  -3 -11   0   14.07    0.74
  -3 -11   0   14.39    0.85
   3  11   0   12.28    0.86
   3  11   0   15.09    0.86
  -4 -11   0   49.22    1.61
  -4 -11   0   51.60    1.41
  -4 -11   0   49.07    1.48
   4  11   0   52.32    1.59
   4  11   0   51.98    1.41
  -5 -11   0    9.99    0.79
  -5 -11   0   10.97    0.87
  -5 -11   0   10.21    0.95
   5  11   0   10.21    0.95
   5  11   0    9.16    0.88
  -6 -11   0   35.48    1.35
  -6 -11   0   35.38    1.31
  -6 -11   0   36.86    1.30
   6  11   0   37.29    1.80
   6  11   0   35.81    1.41
   3 -12   0   20.31    1.11
   2 -12   0   25.09    1.15
   2 -12   0   26.23    1.12
  -2  12   0   25.04    1.12
   1 -12   0   36.49    1.23
   1 -12   0   33.90    1.34
  -1  12   0   34.45    0.90
  -1  12   0   35.10    1.26
   0 -12   0   17.77    0.88
   0 -12   0   16.31    1.09
   0  12   0   19.58    0.99
   0  12   0   19.97    0.91
   0  12   0   17.79    0.60
  -1 -12   0   35.73    1.17
   1  12   0   34.69    0.91
   1  12   0   34.52    1.24
   1  12   0   35.58    0.95
  -2 -12   0   24.93    0.99
  -2 -12   0   24.65    1.12
   2  12   0   25.61    0.85
   2  12   0   25.00    1.10
  -3 -12   0   39.31    1.34
  -3 -12   0   37.81    1.24
   3  12   0   37.83    1.38
  -4 -12   0   26.32    1.03
  -4 -12   0   25.23    1.03
  -4 -12   0   26.22    1.11
   4  12   0   24.71    1.23
   0 -13   0    9.07    0.86
   0  13   0    8.19    0.89
  -1 -13   0   12.82    1.11
  -1 -13   0   15.19    0.89
   1  13   0   14.35    1.02
  -2 -13   0   49.05    2.08
  -2 -13   0   54.63    1.56
   2  13   0   55.29    1.74
   1  13  -1   26.78    1.29
  -1 -13   1   25.87    1.15
   4  12  -1   23.52    1.22
  -4 -12   1   22.27    1.18
  -4 -12   1   24.52    1.30
  -4 -12   1   22.43    1.04
   3  12  -1   21.60    1.13
  -3 -12   1   21.13    0.97
  -3 -12   1   23.95    1.15
   2  12  -1   24.20    0.69
   2  12  -1   26.12    1.14
  -2 -12   1   24.56    0.99
  -2 -12   1   25.44    1.19
   1  12  -1   20.53    1.02
  -1 -12   1   19.70    0.93
   0  12  -1   25.98    1.12
   0 -12   1   26.24    1.06
  -1  12  -1   12.24    0.88
   1 -12   1   11.94    0.86
   1 -12   1   11.88    1.20
   2 -12   1   21.16    1.17
   2 -12   1   20.91    1.06
  -6 -11   1   28.85    1.15
  -6 -11   1   26.38    1.36
  -6 -11   1   28.27    1.23
   5  11  -1    6.13    0.81
   5  11  -1    6.70    0.86
  -5 -11   1    6.31    0.97
  -5 -11   1    6.27    0.91
  -5 -11   1    5.51    0.74
   4  11  -1   37.38    1.36
   4  11  -1   37.39    1.14
  -4 -11   1   38.07    1.24
  -4 -11   1   37.67    1.33
  -4 -11   1   37.44    1.12
   3  11  -1    1.68    0.34
   3  11  -1    1.85    0.30
  -3 -11   1    2.06    0.42
  -3 -11   1    2.14    0.35
   2  11  -1   65.18    1.77
   2  11  -1   63.81    1.40
  -2 -11   1   62.40    1.77
  -2 -11   1   65.02    1.67
  -2 -11   1   64.55    1.89
   1  11  -1   36.78    1.23
  -1 -11   1   35.47    1.16
   0  11  -1   28.15    1.08
   0 -11   1   27.16    1.12
   0 -11   1   27.56    1.02
  -1  11  -1   26.46    1.05
   1 -11   1   26.99    1.09
   1 -11   1   26.06    1.02
  -2  11  -1   24.58    1.10
  -2  11  -1   23.22    1.02
   2 -11   1   24.80    1.03
   2 -11   1   23.64    1.06
  -3  11  -1   14.00    0.59
   3 -11   1   12.80    0.88
   3 -11   1   15.64    0.94
   4 -11   1   24.67    1.06
   4 -11   1   24.17    1.19
   7  10  -1    6.42    0.88
   7  10  -1    5.47    0.90
   6  10  -1   37.41    1.35
   6  10  -1   38.10    1.44
  -6 -10   1   37.76    1.33
  -6 -10   1   38.64    1.41
  -6 -10   1   37.59    1.29
   5  10  -1    0.60    0.36
   5  10  -1    0.68    0.35
  -5 -10   1    0.70    0.30
  -5 -10   1    0.42    0.30
  -5 -10   1    0.19    0.38
   4  10  -1   52.80    1.54
   4  10  -1   50.90    1.48
  -4 -10   1   50.71    1.49
  -4 -10   1   48.15    1.61
  -4 -10   1   51.92    1.34
   3  10  -1    7.41    0.49
   3  10  -1    6.28    0.65
  -3 -10   1    7.31    0.60
  -3 -10   1    7.90    0.51
  -3 -10   1    6.51    0.67
  -3 -10   1    6.10    0.73
   2  10  -1   45.02    1.34
   2  10  -1   45.18    1.06
  -2 -10   1   45.25    1.38
  -2 -10   1   44.78    1.36
  -2 -10   1   44.95    1.27
   1  10  -1   22.09    0.65
   1  10  -1   21.93    0.60
   1  10  -1   22.66    0.90
  -1 -10   1   22.72    0.87
  -1 -10   1   23.78    0.95
   0  10  -1   68.29    1.74
   0  10  -1   67.74    1.38
   0 -10   1   67.95    1.72
   0 -10   1   68.54    1.74
  -1  10  -1    8.02    0.35
  -1  10  -1    8.58    0.68
  -1  10  -1    9.46    0.66
   1 -10   1    8.20    0.62
   1 -10   1    8.23    0.66
  -2  10  -1   79.59    1.64
  -2  10  -1   76.84    1.60
  -2  10  -1   77.90    1.97
   2 -10   1   78.91    1.89
   2 -10   1   76.57    1.95
  -3  10  -1    8.25    0.49
  -3  10  -1    7.82    0.78
  -3  10  -1    8.74    0.52
   3 -10   1    8.38    0.74
   3 -10   1    8.67    0.72
  -4  10  -1   27.34    0.94
  -4  10  -1   26.50    0.88
   4 -10   1   26.91    1.15
   4 -10   1   27.54    1.07
  -5  10  -1   15.42    0.82
   5 -10   1   15.88    1.08
   5 -10   1   15.91    1.07
   7   9  -1    8.81    0.90
   7   9  -1    6.75    1.06
  -7  -9   1    7.46    0.83
  -7  -9   1    6.19    0.97
   6   9  -1   74.19    1.95
   6   9  -1   78.06    2.03
  -6  -9   1   72.49    1.95
  -6  -9   1   74.38    2.12
   5   9  -1   12.73    0.82
   5   9  -1   13.40    0.77
  -5  -9   1   12.59    0.84
  -5  -9   1   13.11    0.69
  -5  -9   1   13.17    0.82
  -5  -9   1   11.00    0.88
   4   9  -1   83.57    2.38
   4   9  -1   94.75    2.21
  -4  -9   1   93.90    2.03
  -4  -9   1   90.68    2.14
  -4  -9   1   92.05    2.21
  -4  -9   1   90.24    2.12
   3   9  -1    8.82    0.48
   3   9  -1    9.61    0.65
  -3  -9   1    9.20    0.49
  -3  -9   1    8.98    0.58
  -3  -9   1    9.29    0.63
  -3  -9   1    9.45    0.67
   2   9  -1  179.07    3.67
   2   9  -1  176.96    3.40
  -2  -9   1  169.58    3.65
  -2  -9   1  177.85    3.44
  -2  -9   1  181.38    3.62
  -2  -9   1  180.53    3.68
   1   9  -1   17.03    0.83
   1   9  -1   18.30    0.53
  -1  -9   1   18.71    0.81
  -1  -9   1   19.39    0.74
   0   9  -1  123.79    2.38
   0   9  -1  119.47    2.37
   0   9  -1  126.14    2.69
   0  -9   1  126.05    2.67
   0  -9   1  127.36    2.68
  -1   9  -1   63.15    1.33
  -1   9  -1   67.41    1.67
  -1   9  -1   64.06    1.34
  -1   9  -1   66.31    1.63
   1  -9   1   65.79    1.64
   1  -9   1   66.92    1.61
  -2   9  -1   90.11    1.86
  -2   9  -1   93.19    2.12
  -2   9  -1   92.57    2.16
  -2   9  -1   92.22    1.85
   2  -9   1   91.06    2.05
  -3   9  -1    7.26    0.47
  -3   9  -1    7.56    0.64
  -3   9  -1    7.48    0.45
   3  -9   1    7.48    0.59
   3  -9   1    7.28    0.63
  -4   9  -1   85.54    1.86
  -4   9  -1   81.16    2.13
   4  -9   1   85.08    2.13
   4  -9   1   83.06    1.93
  -5   9  -1   67.26    1.66
   5  -9   1   66.19    1.64
   5  -9   1   65.02    1.66
   5  -9   1   68.70    1.92
  -6   9  -1   24.80    1.33
   6  -9   1   26.75    0.97
   6  -9   1   27.97    1.31
   8   8  -1   39.99    1.49
  -8  -8   1   36.97    1.48
   7   8  -1    5.16    0.61
   7   8  -1    6.08    0.76
  -7  -8   1    4.39    0.54
  -7  -8   1    6.16    0.75
   6   8  -1   57.38    1.60
   6   8  -1   56.10    1.61
  -6  -8   1   56.43    1.58
  -6  -8   1   52.19    1.63
  -6  -8   1   56.77    1.62
   5   8  -1   21.77    0.86
   5   8  -1   21.24    0.91
  -5  -8   1   22.08    0.84
  -5  -8   1   21.22    0.90
  -5  -8   1   22.81    0.95
   4   8  -1   54.33    1.36
   4   8  -1   55.75    1.51
  -4  -8   1   56.60    1.47
  -4  -8   1   57.67    1.37
  -4  -8   1   56.92    1.51
  -4  -8   1   55.47    1.45
   3   8  -1  123.07    3.35
   3   8  -1  134.69    2.68
  -3  -8   1  134.74    2.83
  -3  -8   1  137.06    2.88
  -3  -8   1  134.26    2.81
  -3  -8   1  137.52    2.69
   2   8  -1  147.94    2.87
   2   8  -1  150.18    3.10
  -2  -8   1  149.42    3.05
  -2  -8   1  147.82    2.90
  -2  -8   1  148.03    3.10
   1   8  -1   33.37    0.99
   1   8  -1   34.07    0.79
  -1  -8   1   35.00    1.01
  -1  -8   1   33.88    0.97
   0   8  -1  174.30    3.51
   0   8  -1  174.57    3.25
   0   8  -1  172.70    3.26
   0  -8   1  173.19    3.50
   0  -8   1  177.17    3.51
  -1   8  -1   23.24    0.79
  -1   8  -1   22.87    0.58
  -1   8  -1   23.61    0.82
  -1   8  -1   22.10    0.58
   1  -8   1   22.62    0.80
   1  -8   1   24.38    0.78
  -2   8  -1   60.08    1.50
  -2   8  -1   59.08    1.34
  -2   8  -1   58.24    1.26
  -2   8  -1   59.01    1.46
   2  -8   1   58.84    1.49
   2  -8   1   57.90    1.41
  -3   8  -1   31.12    1.05
  -3   8  -1   30.88    0.84
   3  -8   1   31.47    0.94
  -4   8  -1   70.24    1.58
  -4   8  -1   67.33    1.77
   4  -8   1   66.34    1.58
   4  -8   1   66.80    1.78
  -5   8  -1   15.40    0.74
  -5   8  -1   14.51    0.89
   5  -8   1   15.43    0.69
   5  -8   1   14.03    0.88
   5  -8   1   15.05    0.69
  -6   8  -1   29.58    1.11
   6  -8   1   29.96    1.11
   6  -8   1   29.98    0.96
   6  -8   1   29.72    1.25
   6  -8   1   30.77    1.01
  -7   8  -1    4.33    0.51
   7  -8   1    5.06    0.81
   7  -8   1    5.53    0.88
   7  -8   1    4.46    0.59
   8   7  -1   29.95    1.28
   8   7  -1   30.03    1.23
  -8  -7   1   29.09    1.30
   7   7  -1    4.05    0.67
   7   7  -1    3.57    0.50
  -7  -7   1    3.04    0.42
  -7  -7   1    2.63    0.42
  -7  -7   1    2.29    0.42
   6   7  -1  123.90    2.73
   6   7  -1  120.72    2.69
  -6  -7   1  123.24    2.69
  -6  -7   1  106.42    3.10
  -6  -7   1  125.97    2.75
   5   7  -1   15.11    0.75
   5   7  -1   14.71    0.70
  -5  -7   1   14.56    0.71
  -5  -7   1   14.82    0.74
  -5  -7   1   15.68    0.68
   4   7  -1  124.33    2.72
   4   7  -1  125.75    2.61
  -4  -7   1  127.23    2.62
  -4  -7   1  127.96    2.74
  -4  -7   1  127.60    2.69
   3   7  -1    1.10    0.18
   3   7  -1    0.87    0.22
  -3  -7   1    0.83    0.18
  -3  -7   1    0.78    0.21
  -3  -7   1    1.08    0.21
  -3  -7   1    0.97    0.23
   2   7  -1  177.10    3.49
   2   7  -1  179.06    3.61
  -2  -7   1  181.06    3.44
  -2  -7   1  179.17    3.61
  -2  -7   1  181.30    3.58
  -2  -7   1  185.58    3.62
   1   7  -1   55.29    1.12
   1   7  -1   54.10    1.31
  -1  -7   1   54.46    1.29
  -1  -7   1   49.76    1.43
   0   7  -1  292.90    5.52
   0   7  -1  311.34    5.78
   0   7  -1  296.16    5.51
   0   7  -1  305.63    5.74
   0  -7   1  306.30    5.74
   0  -7   1  302.36    5.73
  -1   7  -1    3.88    0.38
  -1   7  -1    3.42    0.39
  -1   7  -1    2.99    0.22
  -1   7  -1    2.78    0.22
   1  -7   1    3.11    0.34
   1  -7   1    3.00    0.37
  -2   7  -1   87.30    1.94
  -2   7  -1   84.75    1.89
  -2   7  -1   86.10    1.73
   2  -7   1   86.82    1.94
   2  -7   1   85.44    1.84
  -3   7  -1   48.51    1.12
  -3   7  -1   48.65    1.29
   3  -7   1   46.37    1.16
   3  -7   1   46.57    1.29
  -4   7  -1  149.23    3.18
  -4   7  -1  153.83    3.01
   4  -7   1  146.68    3.24
   4  -7   1  146.51    2.97
   4  -7   1  148.56    3.04
  -5   7  -1   -0.09    0.28
  -5   7  -1    0.52    0.26
   5  -7   1    0.40    0.30
   5  -7   1    0.45    0.24
   5  -7   1    0.57    0.20
   5  -7   1    0.45    0.21
   6  -7   1   54.20    1.33
   6  -7   1   53.03    1.49
   6  -7   1   52.79    1.62
  -7   7  -1    6.28    0.76
   7  -7   1    7.30    0.59
   7  -7   1    8.18    0.91
   7  -7   1    7.90    0.64
   7  -7   1    6.09    0.81
   9   6  -1    0.51    0.40
   9   6  -1   -0.16    0.43
  -9  -6   1   -0.12    0.46
   8   6  -1   48.89    1.52
   8   6  -1   50.48    1.57
  -8  -6   1   46.20    1.61
  -8  -6   1   49.96    1.63
   7   6  -1   15.51    0.80
   7   6  -1   15.04    0.92
   7   6  -1   15.19    0.87
  -7  -6   1   14.46    0.84
  -7  -6   1   15.54    0.86
  -7  -6   1   15.20    0.84
   6   6  -1  178.93    3.79
   6   6  -1  187.03    3.80
   6   6  -1  186.35    3.82
  -6  -6   1  184.55    3.82
  -6  -6   1  184.16    3.81
  -6  -6   1  180.43    3.77
   5   6  -1   35.29    1.08
   5   6  -1   35.89    1.05
  -5  -6   1   36.96    1.07
  -5  -6   1   36.39    1.06
  -5  -6   1   36.44    1.10
   4   6  -1  266.56    5.23
   4   6  -1  270.38    5.16
  -4  -6   1  274.64    5.17
  -4  -6   1  273.79    5.22
  -4  -6   1  266.59    5.24
   3   6  -1    1.11    0.20
   3   6  -1    1.01    0.19
  -3  -6   1    0.97    0.20
  -3  -6   1    1.15    0.18
  -3  -6   1    1.27    0.20
   2   6  -1  282.45    5.23
   2   6  -1  267.53    5.09
  -2  -6   1  275.59    5.07
  -2  -6   1  272.01    5.19
  -2  -6   1  271.15    5.21
  -2  -6   1  272.15    5.21
   1   6  -1   21.81    0.52
   1   6  -1   20.87    0.67
  -1  -6   1   21.17    0.67
  -1  -6   1   22.11    0.66
  -1  -6   1   21.39    0.55
   0   6  -1  307.81    5.73
   0   6  -1  307.58    5.72
   0   6  -1  316.59    5.92
   0   6  -1  325.34    5.95
   0  -6   1  316.17    5.90
   0  -6   1  318.20    5.92
  -1   6  -1   85.39    1.67
  -1   6  -1   85.98    1.85
  -1   6  -1   85.52    1.66
  -1   6  -1   85.06    1.84
   1  -6   1   86.72    1.80
   1  -6   1   85.30    1.84
  -2   6  -1  215.88    4.18
  -2   6  -1  212.25    4.13
  -2   6  -1  214.61    4.01
   2  -6   1  214.08    4.18
   2  -6   1  215.53    4.09
  -3   6  -1    9.24    0.42
  -3   6  -1    9.76    0.51
   3  -6   1    8.79    0.52
   3  -6   1    9.51    0.43
   3  -6   1    9.14    0.41
  -4   6  -1   98.30    2.06
  -4   6  -1   94.23    2.17
   4  -6   1   95.58    2.04
   4  -6   1   96.80    2.20
   4  -6   1   96.57    2.05
   4  -6   1   94.76    2.00
  -5   6  -1    2.33    0.30
  -5   6  -1    1.71    0.34
   5  -6   1    1.90    0.24
   5  -6   1    2.91    0.43
   5  -6   1    1.35    0.30
   5  -6   1    2.09    0.24
  -6   6  -1   36.65    1.26
  -6   6  -1   38.50    1.24
   6  -6   1   39.36    1.20
   6  -6   1   39.14    1.29
   6  -6   1   38.59    1.03
   6  -6   1   37.40    1.03
  -7   6  -1    6.38    0.72
   7  -6   1    5.97    0.77
   7  -6   1    7.85    0.81
   7  -6   1    7.23    0.53
   7  -6   1    6.42    0.74
  -8   6  -1   37.41    1.43
   8  -6   1   40.44    1.55
   8  -6   1   35.75    1.19
   9   5  -1    0.80    0.39
   9   5  -1    1.28    0.36
  -9  -5   1   -0.11    0.43
   8   5  -1   57.95    1.83
   8   5  -1   56.23    1.59
   8   5  -1   58.66    2.47
  -8  -5   1   54.29    1.62
  -8  -5   1   53.72    1.71
  -8  -5   1   58.15    1.73
   7   5  -1   -0.23    0.22
   7   5  -1    0.42    0.28
   7   5  -1   -0.10    0.31
  -7  -5   1    0.17    0.26
  -7  -5   1   -0.02    0.26
  -7  -5   1   -0.51    0.26
   6   5  -1   74.55    1.82
   6   5  -1   71.33    1.77
   6   5  -1   72.51    1.83
  -6  -5   1   75.93    1.80
  -6  -5   1   71.94    1.83
  -6  -5   1   76.89    1.81
   5   5  -1    0.54    0.19
   5   5  -1    0.52    0.20
   5   5  -1    0.45    0.20
  -5  -5   1    0.25    0.19
  -5  -5   1    0.64    0.20
  -5  -5   1    0.51    0.22
   4   5  -1  258.19    4.88
   4   5  -1  252.12    4.92
   4   5  -1  255.50    4.93
  -4  -5   1  254.19    4.93
  -4  -5   1  252.97    4.89
  -4  -5   1  260.63    4.92
   3   5  -1    5.67    0.38
   3   5  -1    5.75    0.32
  -3  -5   1    5.96    0.35
  -3  -5   1    5.49    0.38
  -3  -5   1    5.64    0.34
   2   5  -1  222.95    4.16
   2   5  -1  223.92    4.28
  -2  -5   1  224.34    4.28
  -2  -5   1  223.69    4.17
  -2  -5   1  222.53    4.29
   1   5  -1   39.36    0.97
   1   5  -1   39.03    0.82
  -1  -5   1   38.74    0.94
  -1  -5   1   39.58    0.84
  -1  -5   1   39.10    0.95
   0   5  -1  499.24    8.97
   0   5  -1  491.62    8.94
   0   5  -1  480.99    8.77
   0  -5   1  494.35    8.94
   0  -5   1  472.37    8.92
  -1   5  -1    3.40    0.28
  -1   5  -1    2.50    0.16
  -1   5  -1    3.07    0.26
  -1   5  -1    2.63    0.18
   1  -5   1    2.67    0.26
   1  -5   1    3.16    0.24
  -2   5  -1  187.63    3.50
  -2   5  -1  187.57    3.63
   2  -5   1  188.94    3.64
   2  -5   1  182.51    3.55
  -3   5  -1   12.94    0.64
  -3   5  -1   14.22    0.49
   3  -5   1   14.37    0.48
   3  -5   1   13.24    0.47
  -4   5  -1  236.45    4.52
  -4   5  -1  235.43    4.62
   4  -5   1  236.59    4.48
   4  -5   1  230.58    4.45
   4  -5   1  235.50    4.64
   4  -5   1  237.04    4.53
  -5   5  -1    8.76    0.59
  -5   5  -1    8.63    0.54
   5  -5   1    8.61    0.52
   5  -5   1    9.14    0.46
   5  -5   1    8.43    0.91
   5  -5   1    8.78    0.49
  -6   5  -1   42.99    1.28
  -6   5  -1   45.20    1.35
   6  -5   1   43.29    1.11
   6  -5   1   43.06    1.34
   6  -5   1   44.30    1.26
   6  -5   1   42.54    1.09
  -7   5  -1    4.84    0.66
   7  -5   1    4.42    0.56
   7  -5   1    3.65    0.45
   7  -5   1    4.59    0.47
   7  -5   1    5.27    0.68
  -8   5  -1   42.30    1.49
   8  -5   1   42.02    1.22
   8  -5   1   42.85    1.55
   8  -5   1   40.95    1.15
   9   4  -1    1.01    0.36
   9   4  -1    0.34    0.37
  -9  -4   1    0.64    0.40
  -9  -4   1    1.30    0.45
   8   4  -1   33.50    1.39
   8   4  -1   32.30    1.13
   8   4  -1   33.37    1.22
  -8  -4   1   35.01    1.17
  -8  -4   1   31.97    1.29
  -8  -4   1   32.89    1.28
   7   4  -1    1.73    0.35
   7   4  -1    1.76    0.30
  -7  -4   1    1.81    0.31
  -7  -4   1    1.41    0.34
  -7  -4   1    1.40    0.28
   6   4  -1   66.28    1.71
   6   4  -1   69.98    1.65
   6   4  -1   68.92    1.70
  -6  -4   1   69.23    1.74
  -6  -4   1   71.07    1.67
  -6  -4   1   69.30    1.69
   5   4  -1    5.87    0.48
   5   4  -1    7.07    0.44
   5   4  -1    7.17    0.46
  -5  -4   1    6.21    0.44
  -5  -4   1    6.39    0.47
  -5  -4   1    6.01    0.63
   4   4  -1  224.48    4.34
   4   4  -1  225.02    4.32
   4   4  -1  222.42    4.31
  -4  -4   1  223.55    4.32
  -4  -4   1  225.14    4.33
  -4  -4   1  225.03    4.33
   3   4  -1    0.56    0.13
   3   4  -1    0.23    0.12
   3   4  -1    0.47    0.13
  -3  -4   1    0.43    0.12
  -3  -4   1    0.52    0.14
  -3  -4   1    0.59    0.13
   2   4  -1  308.37    5.65
   2   4  -1  316.16    5.73
  -2  -4   1  304.89    5.72
  -2  -4   1  303.40    5.72
  -2  -4   1  304.18    5.65
   1   4  -1    1.65    0.13
   1   4  -1    1.19    0.19
  -1  -4   1    1.50    0.19
  -1  -4   1    1.41    0.19
  -1  -4   1    1.33    0.13
  -1   4  -1   15.41    0.37
  -1   4  -1   15.35    0.46
  -1   4  -1   15.45    0.49
   1  -4   1   15.06    0.48
   1  -4   1   16.13    0.63
  -2   4  -1  300.69    5.49
  -2   4  -1  308.18    5.61
   2  -4   1  293.65    5.49
   2  -4   1  300.64    5.61
   2  -4   1  292.25    5.62
  -3   4  -1    9.69    0.39
   3  -4   1    9.90    0.39
   3  -4   1   10.23    0.40
   3  -4   1    9.97    0.47
   3  -4   1   10.76    0.39
  -4   4  -1  319.66    6.02
  -4   4  -1  325.30    6.10
   4  -4   1  326.86    6.17
   4  -4   1  317.79    5.95
   4  -4   1  317.54    6.10
   4  -4   1  313.50    5.95
  -5   4  -1   11.86    0.60
  -5   4  -1   13.12    0.65
   5  -4   1   11.19    0.70
   5  -4   1   12.89    0.52
   5  -4   1   12.73    0.49
   5  -4   1   13.17    0.66
  -6   4  -1   82.47    1.97
  -6   4  -1   80.27    1.92
   6  -4   1   78.71    1.97
   6  -4   1   78.85    1.72
   6  -4   1   80.67    1.92
   6  -4   1   78.05    1.76
  -7   4  -1    3.93    0.62
  -7   4  -1    5.23    0.72
   7  -4   1    5.17    0.66
   7  -4   1    6.62    0.46
   7  -4   1    5.53    0.54
   7  -4   1    5.15    0.65
  -8   4  -1   29.71    1.24
   8  -4   1   30.42    1.52
   8  -4   1   32.36    1.29
   8  -4   1   30.28    1.06
   8  -4   1   30.45    0.97
  -9   4  -1    8.99    1.03
   9  -4   1    6.38    0.71
   9  -4   1    5.82    0.86
   9   3  -1    0.54    0.35
   9   3  -1   -0.16    0.28
  -9  -3   1    0.50    0.35
  -9  -3   1    0.26    0.43
   8   3  -1   32.66    1.31
   8   3  -1   34.36    1.25
   8   3  -1   33.77    1.12
  -8  -3   1   33.93    1.13
  -8  -3   1   34.16    1.30
  -8  -3   1   34.00    1.29
   7   3  -1    5.23    0.50
   7   3  -1    4.03    0.60
   7   3  -1    5.74    0.57
  -7  -3   1    4.39    0.61
  -7  -3   1    5.66    0.53
  -7  -3   1    4.92    0.60
   6   3  -1   77.42    1.76
   6   3  -1   76.72    1.83
   6   3  -1   78.35    1.86
  -6  -3   1   76.50    1.87
  -6  -3   1   77.98    1.83
  -6  -3   1   75.01    1.75
   5   3  -1    0.38    0.15
   5   3  -1   -0.16    0.26
   5   3  -1    0.37    0.16
  -5  -3   1    0.29    0.15
  -5  -3   1    0.48    0.20
  -5  -3   1    0.05    0.17
   4   3  -1  173.34    3.44
   4   3  -1  175.65    3.41
   4   3  -1  175.04    3.44
  -4  -3   1  176.39    3.44
  -4  -3   1  177.48    3.42
  -4  -3   1  175.93    3.45
   3   3  -1   35.73    0.88
   3   3  -1   34.66    0.85
   3   3  -1   35.32    0.86
  -3  -3   1   36.57    0.88
  -3  -3   1   36.05    0.87
  -3  -3   1   35.99    0.87
   2   3  -1  216.19    4.03
   2   3  -1  211.90    3.97
   2   3  -1  212.41    4.01
  -2  -3   1  212.51    4.01
  -2  -3   1  216.11    4.05
  -2  -3   1  212.46    3.97
   1   3  -1   88.99    1.71
   1   3  -1   91.30    1.79
  -1  -3   1   91.70    1.71
  -1  -3   1   90.38    1.80
   0   3  -1   36.57    0.82
   0   3  -1   34.95    0.80
   0  -3   1   37.28    0.82
   0  -3   1   35.61    0.80
  -1   3  -1   76.61    1.56
  -1   3  -1   78.01    1.47
  -1   3  -1   77.62    1.55
   1  -3   1   76.74    1.53
   1  -3   1   77.64    1.47
   1  -3   1   79.11    1.57
  -2   3  -1  294.56    5.29
  -2   3  -1  291.44    5.37
   2  -3   1  287.34    5.37
   2  -3   1  279.96    5.30
   2  -3   1  288.19    5.29
  -3   3  -1    2.28    0.26
  -3   3  -1    2.21    0.23
   3  -3   1    2.86    0.24
   3  -3   1    2.21    0.21
   3  -3   1    2.21    0.27
   3  -3   1    2.02    0.25
  -4   3  -1  578.10   10.54
  -4   3  -1  567.78   10.58
   4  -3   1  579.56   10.45
   4  -3   1  580.80   10.60
   4  -3   1  564.42   10.53
  -5   3  -1   83.11    1.86
  -5   3  -1   82.47    1.83
   5  -3   1   80.29    1.68
   5  -3   1   72.86    2.11
   5  -3   1   81.07    1.86
  -6   3  -1   78.50    1.91
  -6   3  -1   79.02    1.89
   6  -3   1   79.19    1.71
   6  -3   1   80.42    1.89
   6  -3   1   76.28    2.45
  -7   3  -1    1.73    0.34
  -7   3  -1    1.27    0.32
   7  -3   1    1.17    0.31
   7  -3   1    0.84    0.32
   7  -3   1    1.43    0.22
  -8   3  -1   80.10    2.12
   8  -3   1   80.94    1.84
   8  -3   1   81.26    2.15
   8  -3   1   77.93    2.14
  -9   3  -1    1.43    0.46
   9  -3   1    2.03    0.50
   9   2  -1    1.94    0.34
   9   2  -1    1.77    0.42
  -9  -2   1    2.11    0.46
  -9  -2   1    2.16    0.37
   8   2  -1   55.60    1.73
   8   2  -1   60.26    1.71
   8   2  -1   58.51    1.53
  -8  -2   1   60.13    1.76
  -8  -2   1   57.92    1.52
  -8  -2   1   56.15    1.72
   7   2  -1    9.91    0.55
   7   2  -1   10.18    0.71
   7   2  -1   10.30    0.66
  -7  -2   1    9.81    0.74
  -7  -2   1   10.14    0.56
  -7  -2   1   10.54    0.68
   6   2  -1  146.13    3.09
   6   2  -1  149.00    3.09
   6   2  -1  143.18    2.96
  -6  -2   1  148.02    3.08
  -6  -2   1  149.38    3.13
  -6  -2   1  145.84    3.01
   5   2  -1    5.45    0.36
   5   2  -1    4.91    0.40
  -5  -2   1    4.98    0.43
  -5  -2   1    5.03    0.41
  -5  -2   1    5.44    0.36
   4   2  -1  786.86   14.37
   4   2  -1  786.66   14.43
   4   2  -1  817.27   14.44
  -4  -2   1  775.94   14.42
  -4  -2   1  798.74   14.45
  -4  -2   1  794.56   14.37
   3   2  -1   35.36    0.85
   3   2  -1   36.02    0.82
   3   2  -1   35.50    0.85
  -3  -2   1   35.05    0.85
  -3  -2   1   35.11    0.82
  -3  -2   1   34.50    0.85
   2   2  -1  229.61    4.35
   2   2  -1  231.74    4.33
   2   2  -1  238.87    4.34
  -2  -2   1  233.14    4.34
  -2  -2   1  236.37    4.36
  -2  -2   1  234.98    4.33
   1   2  -1   87.02    1.66
   1   2  -1   89.56    1.71
  -1  -2   1   86.34    1.72
  -1  -2   1   89.62    1.71
  -1  -2   1   88.98    1.66
  -1   2  -1   56.22    1.05
  -1   2  -1   52.82    1.11
   1  -2   1   52.58    1.09
   1  -2   1   54.22    1.12
   1  -2   1   54.37    1.04
  -2   2  -1  186.56    3.54
  -2   2  -1  174.57    3.28
   2  -2   1  172.13    3.33
   2  -2   1  173.73    3.29
   2  -2   1  173.53    3.28
  -3   2  -1   10.43    0.39
  -3   2  -1   10.89    0.42
   3  -2   1   10.67    0.38
   3  -2   1   11.58    0.36
   3  -2   1   11.70    0.43
  -4   2  -1  188.25    3.72
  -4   2  -1  189.26    3.67
   4  -2   1  186.53    3.70
   4  -2   1  188.36    3.58
   4  -2   1  193.34    3.67
  -5   2  -1   19.00    0.69
  -5   2  -1   18.97    0.70
   5  -2   1   17.00    0.77
   5  -2   1   17.73    0.70
   5  -2   1   19.25    0.58
  -6   2  -1   93.05    2.14
  -6   2  -1   92.96    2.14
   6  -2   1   91.90    1.96
   6  -2   1   93.13    2.15
   6  -2   1   95.85    2.14
  -7   2  -1    6.47    0.84
  -7   2  -1    7.41    0.66
   7  -2   1    7.33    0.48
   7  -2   1    7.36    0.64
   7  -2   1    6.83    0.65
  -8   2  -1   86.14    2.24
  -8   2  -1   95.17    3.07
   8  -2   1   85.47    1.96
   8  -2   1   84.07    2.22
   8  -2   1   83.72    2.23
  -9   2  -1   -0.28    0.41
   9  -2   1   -0.33    0.38
   9  -2   1   -0.10    0.37
   9   1  -1    0.60    0.36
   9   1  -1    0.29    0.29
  -9  -1   1    0.71    0.32
  -9  -1   1   -0.35    0.37
   8   1  -1  114.26    2.67
   8   1  -1  109.00    2.40
   8   1  -1  108.39    2.65
  -8  -1   1  113.64    2.69
  -8  -1   1  108.78    2.64
  -8  -1   1  109.09    2.42
   7   1  -1   14.29    0.61
   7   1  -1   13.68    0.77
   7   1  -1   13.42    0.74
  -7  -1   1   13.75    0.76
  -7  -1   1   14.03    0.63
  -7  -1   1   12.78    0.77
   6   1  -1  231.79    4.67
   6   1  -1  237.73    4.69
   6   1  -1  236.15    4.52
  -6  -1   1  238.25    4.71
  -6  -1   1  235.19    4.66
  -6  -1   1  237.33    4.53
   5   1  -1    3.77    0.30
   5   1  -1    4.08    0.37
  -5  -1   1    2.65    0.39
  -5  -1   1    4.38    0.30
  -5  -1   1    3.75    0.39
   4   1  -1  444.31    8.21
   4   1  -1  444.20    8.20
   4   1  -1  444.11    8.11
  -4  -1   1  437.58    8.11
  -4  -1   1  442.25    8.20
  -4  -1   1  449.88    8.22
   3   1  -1    4.16    0.26
   3   1  -1    4.36    0.23
  -3  -1   1    4.15    0.28
  -3  -1   1    4.28    0.22
  -3  -1   1    4.67    0.27
  -1   1  -1  124.01    2.26
   1  -1   1  119.50    2.26
   1  -1   1  124.22    2.29
  -2   1  -1  339.42    6.16
  -2   1  -1  331.93    6.14
   2  -1   1  342.91    6.14
   2  -1   1  335.97    6.18
   2  -1   1  333.66    6.16
  -3   1  -1    2.69    0.23
  -3   1  -1    3.53    0.20
  -3   1  -1    2.55    0.23
   3  -1   1    2.54    0.23
   3  -1   1    2.90    0.23
  -4   1  -1  709.61   13.09
  -4   1  -1  722.29   13.18
  -4   1  -1  740.26   13.19
   4  -1   1  715.27   13.08
   4  -1   1  719.29   13.18
   4  -1   1  730.98   13.18
  -5   1  -1   13.19    0.81
  -5   1  -1   15.23    0.51
  -5   1  -1   14.84    0.61
   5  -1   1   15.57    0.61
   5  -1   1   14.06    0.61
   5  -1   1   15.10    0.51
  -6   1  -1  113.04    2.47
  -6   1  -1  109.93    2.31
  -6   1  -1  111.97    2.45
   6  -1   1  111.27    2.45
   6  -1   1  111.17    2.30
   6  -1   1  111.48    2.45
  -7   1  -1    0.27    0.26
  -7   1  -1    0.23    0.27
  -7   1  -1    0.16    0.19
   7  -1   1    0.27    0.19
   7  -1   1   -0.28    0.25
   7  -1   1   -0.14    0.24
  -8   1  -1   68.24    1.72
  -8   1  -1   72.47    1.94
  -8   1  -1   68.80    1.92
   8  -1   1   73.08    1.93
   8  -1   1   70.67    1.70
   8  -1   1   70.05    1.94
  -9   1  -1    1.62    0.42
  -9   1  -1    1.20    0.33
   9  -1   1    0.92    0.30
   9  -1   1    0.77    0.41
   9   0  -1    1.19    0.30
   9   0  -1    1.22    0.41
  -9   0   1    1.46    0.33
  -9   0   1    1.19    0.43
   8   0  -1   27.20    1.17
   8   0  -1   26.96    1.13
   8   0  -1   26.22    0.91
  -8   0   1   25.22    1.17
  -8   0   1   27.66    0.93
  -8   0   1   27.87    1.16
   7   0  -1   29.67    0.87
   7   0  -1   30.51    1.08
   7   0  -1   29.64    1.06
  -7   0   1   28.78    1.09
  -7   0   1   29.68    0.87
  -7   0   1   29.99    1.06
   6   0  -1  197.78    3.98
   6   0  -1  196.40    3.78
   6   0  -1  194.20    3.98
  -6   0   1  195.91    3.97
  -6   0   1  195.61    3.79
  -6   0   1  198.29    4.01
   5   0  -1   20.84    0.60
   5   0  -1   21.11    0.72
  -5   0   1   21.72    0.60
  -5   0   1   21.05    0.74
   4   0  -1  194.97    3.74
   4   0  -1  189.56    3.60
   4   0  -1  191.66    3.73
  -4   0   1  191.25    3.61
  -4   0   1  195.61    3.74
  -4   0   1  193.22    3.75
   3   0  -1    3.66    0.19
   3   0  -1    3.85    0.25
   3   0  -1    2.86    0.24
  -3   0   1    3.87    0.19
  -3   0   1    3.98    0.25
  -3   0   1    2.89    0.26
   1   0  -1   85.03    1.48
   1   0  -1   87.42    1.53
  -1   0   1   86.11    1.52
  -1   0   1   70.63    1.47
  -1   0   1   73.28    1.52
  -1   0  -1   89.73    1.83
  -1   0  -1  103.42    1.82
   1   0   1   90.90    1.80
   1   0   1  100.22    1.83
  -2   0  -1  252.87    4.72
  -2   0  -1  257.49    4.71
  -2   0  -1  253.26    4.69
   2   0   1  260.36    4.70
   2   0   1  256.62    4.72
   2   0   1  258.50    4.71
  -3   0  -1   26.81    0.69
  -3   0  -1   27.37    0.69
  -3   0  -1   28.13    0.65
   3   0   1   27.84    0.65
   3   0   1   28.28    0.69
   3   0   1   26.27    0.69
  -4   0  -1  690.63   12.61
  -4   0  -1  686.59   12.59
  -4   0  -1  691.94   12.53
   4   0   1  684.28   12.59
   4   0   1  690.36   12.53
   4   0   1  704.01   12.62
  -5   0  -1    2.05    0.33
  -5   0  -1    1.81    0.26
  -5   0  -1    2.43    0.36
   5   0   1    1.74    0.26
   5   0   1    1.16    0.22
   5   0   1    1.50    0.21
  -6   0  -1  112.91    2.51
  -6   0  -1  114.69    2.48
  -6   0  -1  116.21    2.38
   6   0   1  118.49    2.39
   6   0   1  112.64    2.51
   6   0   1  115.16    2.49
  -7   0  -1    0.17    0.25
  -7   0  -1    0.26    0.26
   7   0   1    0.34    0.24
   7   0   1    0.27    0.18
   7   0   1    0.15    0.25
  -8   0  -1   35.33    1.28
  -8   0  -1   34.15    1.26
  -8   0  -1   34.92    1.10
   8   0   1   33.38    1.07
   8   0   1   34.81    1.24
   8   0   1   34.13    1.29
  -9   0  -1   -0.27    0.38
  -9   0  -1    0.15    0.32
   9   0   1    0.20    0.30
   9   0   1    0.05    0.36
   9  -1  -1    6.52    0.88
   9  -1  -1    5.26    0.59
  -9   1   1    6.75    0.94
  -9   1   1    5.43    0.65
   8  -1  -1   32.64    1.27
   8  -1  -1   32.12    1.27
   8  -1  -1   31.83    0.96
  -8   1   1   33.15    1.27
  -8   1   1   29.70    1.28
  -8   1   1   31.29    1.33
   7  -1  -1   19.24    0.89
   7  -1  -1   19.15    0.87
   7  -1  -1   19.73    0.67
  -7   1   1   19.70    0.67
  -7   1   1   20.28    0.90
  -7   1   1   19.60    0.91
   6  -1  -1   87.33    1.83
   6  -1  -1   90.37    2.07
   6  -1  -1   88.15    2.06
  -6   1   1   88.03    2.06
  -6   1   1   89.45    2.08
  -6   1   1   88.42    1.85
   5  -1  -1   24.29    0.64
   5  -1  -1   25.66    0.94
  -5   1   1   24.30    0.80
  -5   1   1   24.44    0.81
  -5   1   1   25.16    0.65
   4  -1  -1  370.29    6.97
   4  -1  -1  370.70    6.80
   4  -1  -1  381.07    6.97
  -4   1   1  370.74    6.97
  -4   1   1  366.00    6.81
  -4   1   1  382.22    6.97
   3  -1  -1  114.10    2.26
   3  -1  -1  115.52    2.26
   3  -1  -1  113.70    2.13
  -3   1   1  113.52    2.13
  -3   1   1  112.69    2.26
  -3   1   1  112.68    2.25
   2  -1  -1   31.87    0.65
   2  -1  -1   32.44    0.73
   2  -1  -1   31.61    0.73
  -2   1   1   30.57    0.72
  -2   1   1   32.74    0.63
  -1  -1  -1   59.55    1.17
  -1  -1  -1   65.28    1.19
  -1  -1  -1   63.48    1.14
   1   1   1   59.03    1.18
   1   1   1   63.75    1.18
   1   1   1   52.55    1.16
  -2  -1  -1  465.29    8.36
  -2  -1  -1  469.52    8.41
   2   1   1  459.68    8.40
   2   1   1  456.30    8.36
   2   1   1  460.82    8.38
  -3  -1  -1  117.82    2.43
  -3  -1  -1  120.04    2.39
  -3  -1  -1  128.23    2.55
   3   1   1  121.92    2.39
   3   1   1  120.24    2.36
   3   1   1  120.37    2.35
  -4  -1  -1  539.77    9.84
  -4  -1  -1  538.93    9.88
  -4  -1  -1  539.87    9.81
   4   1   1  529.34    9.81
   4   1   1  539.64    9.85
   4   1   1  537.79    9.88
  -5  -1  -1    2.23    0.35
  -5  -1  -1    2.51    0.31
  -5  -1  -1    2.95    0.29
   5   1   1    2.23    0.29
   5   1   1    1.59    0.26
   5   1   1    2.03    0.34
  -6  -1  -1  146.61    3.10
  -6  -1  -1  143.30    3.01
  -6  -1  -1  149.59    3.06
   6   1   1  149.22    3.06
   6   1   1  145.51    3.10
   6   1   1  150.33    2.98
  -7  -1  -1   22.68    0.90
  -7  -1  -1   22.92    0.93
  -7  -1  -1   22.88    0.80
   7   1   1   22.41    0.79
   7   1   1   23.01    0.93
  -8  -1  -1   58.78    1.66
  -8  -1  -1   59.51    1.54
  -8  -1  -1   60.16    1.72
   8   1   1   58.48    1.58
   8   1   1   56.04    1.70
   8   1   1   58.46    1.67
  -9  -1  -1    1.46    0.44
  -9  -1  -1    0.92    0.34
   9   1   1    0.46    0.30
   9   1   1    0.94    0.37
   9  -2  -1    4.77    0.58
   9  -2  -1    2.85    0.48
  -9   2   1    3.82    0.58
   8  -2  -1   19.84    0.73
   8  -2  -1   22.07    1.06
   8  -2  -1   20.32    1.25
  -8   2   1   21.49    1.06
   7  -2  -1   26.98    1.04
   7  -2  -1   27.20    1.03
   7  -2  -1   26.75    0.76
  -7   2   1   26.32    1.04
  -7   2   1   26.56    1.05
   6  -2  -1   57.14    1.48
   6  -2  -1   56.89    1.24
   6  -2  -1   56.46    1.50
  -6   2   1   56.63    1.51
  -6   2   1   53.61    1.25
  -6   2   1   55.68    1.49
   5  -2  -1   16.13    0.64
   5  -2  -1   15.63    0.65
   5  -2  -1   16.01    0.47
  -5   2   1   17.33    0.67
  -5   2   1   16.00    0.67
  -5   2   1   15.99    0.56
   4  -2  -1   78.51    1.53
   4  -2  -1   77.85    1.72
   4  -2  -1   79.79    1.71
  -4   2   1   78.17    1.72
  -4   2   1   78.14    1.55
  -4   2   1   78.60    1.72
   3  -2  -1   60.63    1.32
   3  -2  -1   60.45    1.32
   3  -2  -1   60.09    1.17
  -3   2   1   60.75    1.32
  -3   2   1   59.18    1.32
   2  -2  -1  147.59    2.82
   2  -2  -1  157.49    2.91
   2  -2  -1  149.71    2.79
   2  -2  -1  153.30    2.90
  -2   2   1  152.54    2.91
  -2   2   1  157.84    2.91
  -1   2   1  492.33    8.88
  -1  -2  -1    7.18    0.20
  -1  -2  -1    6.71    0.24
  -1  -2  -1    6.96    0.24
   1   2   1    7.15    0.25
   1   2   1    6.81    0.24
  -2  -2  -1  467.10    8.39
  -2  -2  -1  454.30    8.38
   2   2   1  461.47    8.38
   2   2   1  464.28    8.39
   2   2   1  460.32    8.34
  -3  -2  -1   42.23    0.95
  -3  -2  -1   42.10    0.98
  -3  -2  -1   42.85    0.93
   3   2   1   41.65    0.98
   3   2   1   41.21    0.95
   3   2   1   43.10    0.94
  -4  -2  -1  400.45    7.44
  -4  -2  -1  401.46    7.38
  -4  -2  -1  393.46    7.37
   4   2   1  399.43    7.38
   4   2   1  397.45    7.44
   4   2   1  405.97    7.39
  -5  -2  -1    6.46    0.44
  -5  -2  -1    7.27    0.38
  -5  -2  -1    6.77    0.39
   5   2   1    6.62    0.40
   5   2   1    7.23    0.40
  -6  -2  -1  169.92    3.50
  -6  -2  -1  169.28    3.39
  -6  -2  -1  171.89    3.43
   6   2   1  169.67    3.38
   6   2   1  168.11    3.43
   6   2   1  163.47    3.48
  -7  -2  -1    6.94    0.62
  -7  -2  -1    7.57    0.53
  -7  -2  -1    7.82    0.61
   7   2   1    7.27    0.53
   7   2   1    7.39    0.60
   7   2   1    6.51    0.62
  -8  -2  -1  134.66    3.07
  -8  -2  -1  131.78    2.99
  -8  -2  -1  130.48    2.88
   8   2   1  134.94    2.99
   8   2   1  133.47    2.89
   8   2   1  129.58    3.05
  -9  -2  -1   -0.65    0.33
  -9  -2  -1   -0.65    0.31
   9   2   1   -0.08    0.32
   9   2   1   -0.35    0.27
   9  -3  -1    0.45    0.46
   9  -3  -1    0.73    0.28
  -9   3   1    0.56    0.50
   8  -3  -1   34.77    0.99
   8  -3  -1   36.80    1.36
  -8   3   1   38.16    1.39
   7  -3  -1   28.31    1.07
   7  -3  -1   26.14    1.05
   7  -3  -1   27.27    0.76
  -7   3   1   28.36    1.10
  -7   3   1   26.19    1.06
   6  -3  -1  127.92    3.49
   6  -3  -1  138.55    2.92
   6  -3  -1  134.33    2.62
  -6   3   1  138.08    2.94
  -6   3   1  135.72    2.93
   5  -3  -1   31.47    0.94
   5  -3  -1   30.74    0.97
   5  -3  -1   30.61    0.73
  -5   3   1   31.36    0.96
  -5   3   1   31.07    0.97
   4  -3  -1  210.13    4.09
   4  -3  -1  205.72    4.05
   4  -3  -1  204.44    3.83
  -4   3   1  208.50    4.04
  -4   3   1  208.87    4.05
   3  -3  -1   36.07    0.74
   3  -3  -1   35.59    0.74
   3  -3  -1   35.08    0.88
   3  -3  -1   35.33    0.89
  -3   3   1   36.17    0.90
  -3   3   1   34.97    0.88
   2  -3  -1  163.10    3.18
   2  -3  -1  155.42    2.97
   2  -3  -1  165.74    3.10
  -2   3   1  162.55    3.10
  -2   3   1  164.00    3.09
   1  -3  -1  223.54    4.05
   1  -3  -1  217.76    3.99
  -1   3   1  212.98    3.99
  -1   3   1  221.08    4.05
  -1   3   1  216.66    4.04
   0  -3  -1  264.10    4.77
   0  -3  -1  262.85    4.79
   0   3   1  265.78    4.79
   0   3   1  259.83    4.78
   0   3   1  258.76    4.81
  -1  -3  -1   38.14    0.78
  -1  -3  -1   38.04    0.78
  -1  -3  -1   37.72    0.83
  -1  -3  -1   39.20    0.83
   1   3   1   38.30    0.83
   1   3   1   37.30    0.82
  -2  -3  -1  231.04    4.22
  -2  -3  -1  223.16    4.16
  -2  -3  -1  225.29    4.23
   2   3   1  231.50    4.22
   2   3   1  222.81    4.22
   2   3   1  224.29    4.17
  -3  -3  -1    1.58    0.23
  -3  -3  -1    1.32    0.18
  -3  -3  -1    1.45    0.22
   3   3   1    2.16    0.20
   3   3   1    1.45    0.22
   3   3   1    1.75    0.23
  -4  -3  -1  239.86    4.50
  -4  -3  -1  231.89    4.52
  -4  -3  -1  240.06    4.57
   4   3   1  242.05    4.58
   4   3   1  240.11    4.51
   4   3   1  235.03    4.53
  -5  -3  -1   24.42    0.81
  -5  -3  -1   25.99    0.75
  -5  -3  -1   25.32    0.76
   5   3   1   24.82    0.76
   5   3   1   25.88    0.78
  -6  -3  -1  124.04    2.72
  -6  -3  -1  124.23    2.63
  -6  -3  -1  125.22    2.63
   6   3   1  124.42    2.72
   6   3   1  126.09    2.64
   6   3   1  126.35    2.66
  -7  -3  -1    1.05    0.24
  -7  -3  -1    1.08    0.30
  -7  -3  -1    1.28    0.29
   7   3   1    1.20    0.26
   7   3   1    1.10    0.27
   7   3   1    1.66    0.33
  -8  -3  -1   65.35    1.73
  -8  -3  -1   67.37    1.83
  -8  -3  -1   69.98    1.92
   8   3   1   67.61    1.81
   8   3   1   67.24    1.75
   8   3   1   66.55    1.92
  -9  -3  -1    1.17    0.44
  -9  -3  -1    0.77    0.37
   9   3   1    1.24    0.36
   9   3   1    1.22    0.33
   9  -4  -1    1.61    0.87
  -9   4   1    1.63    0.52
   8  -4  -1   21.65    0.74
   8  -4  -1   23.45    1.13
   8  -4  -1   21.60    0.71
  -8   4   1   21.47    1.14
   7  -4  -1   14.71    0.53
   7  -4  -1   14.55    0.54
   7  -4  -1   13.00    0.82
   7  -4  -1   14.55    0.84
  -7   4   1   14.11    0.90
  -7   4   1   13.90    0.84
   6  -4  -1   87.69    2.08
   6  -4  -1   85.66    2.03
   6  -4  -1   84.49    1.72
   6  -4  -1   87.79    1.75
  -6   4   1   83.74    2.05
  -6   4   1   79.71    2.25
   5  -4  -1    0.35    0.22
   5  -4  -1    0.30    0.19
   4  -4  -1  274.58    5.17
   4  -4  -1  258.35    4.91
   4  -4  -1  278.65    5.14
   4  -4  -1  268.92    4.92
  -4   4   1  252.65    5.33
  -4   4   1  273.95    5.14
   3  -4  -1   12.64    0.36
   3  -4  -1   12.63    0.50
   3  -4  -1   12.35    0.46
   3  -4  -1   11.96    0.34
  -3   4   1   11.68    0.47
  -3   4   1   11.83    0.48
   2  -4  -1  536.42    9.56
   2  -4  -1  514.04    9.53
   2  -4  -1  515.92    9.42
  -2   4   1  526.50    9.53
  -2   4   1  519.18    9.54
   1  -4  -1  106.35    2.07
   1  -4  -1  106.75    2.02
  -1   4   1  107.26    2.07
  -1   4   1  103.15    2.07
  -1   4   1  106.22    2.03
  -1  -4  -1    0.50    0.10
  -1  -4  -1    0.63    0.10
   1   4   1    0.36    0.09
   1   4   1    0.50    0.09
  -2  -4  -1  171.33    3.26
  -2  -4  -1  167.04    3.21
  -2  -4  -1  169.17    3.29
   2   4   1  172.30    3.29
   2   4   1  177.26    3.48
  -3  -4  -1  150.75    2.96
  -3  -4  -1  148.67    2.94
   3   4   1  151.83    2.90
   3   4   1  150.22    2.95
   3   4   1  149.70    2.94
  -4  -4  -1  197.28    3.79
  -4  -4  -1  198.43    3.85
  -4  -4  -1  195.71    3.88
   4   4   1  202.58    3.88
   4   4   1  198.71    3.81
   4   4   1  196.97    3.86
  -5  -4  -1   17.11    0.64
  -5  -4  -1   16.52    0.67
  -5  -4  -1   16.79    0.59
   5   4   1   17.14    0.62
   5   4   1   17.60    0.68
   5   4   1   15.87    0.64
  -6  -4  -1  118.66    2.49
  -6  -4  -1  117.12    2.59
  -6  -4  -1  117.04    2.51
   6   4   1  115.55    2.50
   6   4   1  116.21    2.58
   6   4   1  115.65    2.52
  -7  -4  -1    3.86    0.59
  -7  -4  -1    3.11    0.53
  -7  -4  -1    4.11    0.54
   7   4   1    3.31    0.51
   7   4   1    3.71    0.51
   7   4   1    3.05    0.38
  -8  -4  -1   54.08    1.65
  -8  -4  -1   52.54    1.52
  -8  -4  -1   51.96    1.57
   8   4   1   52.55    1.54
   8   4   1   52.47    1.51
   8   4   1   50.81    1.66
  -9  -4  -1    1.90    0.50
   9   4   1    2.72    0.40
   9   4   1    1.93    0.39
   8  -5  -1   11.66    0.53
   8  -5  -1   12.30    0.99
  -8   5   1   11.58    0.99
   7  -5  -1    9.56    0.45
   7  -5  -1   11.06    0.80
   7  -5  -1    8.49    0.78
   7  -5  -1    8.59    0.45
  -7   5   1    9.63    0.77
   6  -5  -1   47.62    1.07
   6  -5  -1   47.42    1.08
   6  -5  -1   48.77    1.44
   6  -5  -1   49.35    1.41
  -6   5   1   50.00    1.45
  -6   5   1   48.61    1.60
   5  -5  -1   43.70    1.21
   5  -5  -1   42.81    1.07
   5  -5  -1   44.59    1.28
   5  -5  -1   42.48    0.96
  -5   5   1   42.86    1.25
  -5   5   1   44.17    1.22
   4  -5  -1  220.76    4.33
   4  -5  -1  223.36    4.14
   4  -5  -1  214.81    4.12
   4  -5  -1  224.98    4.39
  -4   5   1  223.14    4.34
  -4   5   1  226.73    4.38
   3  -5  -1   39.94    1.04
   3  -5  -1   40.07    0.87
   3  -5  -1   40.54    1.01
  -3   5   1   39.62    1.00
  -3   5   1   40.25    1.04
   2  -5  -1  226.51    4.23
   2  -5  -1  219.39    4.10
  -2   5   1  221.37    4.18
  -2   5   1  221.45    4.22
  -2   5   1  217.16    4.13
   1  -5  -1   60.26    1.33
   1  -5  -1   60.30    1.29
  -1   5   1   59.98    1.26
  -1   5   1   59.06    1.32
  -1   5   1   60.88    1.29
  -1   5   1   60.74    1.28
   0  -5  -1  357.84    6.57
   0  -5  -1  358.51    6.55
   0   5   1  357.86    6.56
   0   5   1  357.38    6.58
   0   5   1  355.64    6.57
  -1  -5  -1   23.42    0.63
  -1  -5  -1   22.76    0.57
  -1  -5  -1   22.49    0.60
   1   5   1   23.56    0.64
   1   5   1   21.94    0.58
  -2  -5  -1  431.01    7.84
  -2  -5  -1  440.05    7.89
  -2  -5  -1  414.89    7.79
  -2  -5  -1  416.54    7.80
   2   5   1  425.89    7.83
   2   5   1  432.02    7.88
  -3  -5  -1   81.91    1.67
  -3  -5  -1   82.82    1.74
   3   5   1   81.35    1.73
   3   5   1   80.09    1.76
  -4  -5  -1  194.81    3.79
  -4  -5  -1  184.82    3.83
  -4  -5  -1  192.48    3.70
   4   5   1  197.20    3.74
   4   5   1  194.31    3.79
   4   5   1  191.73    3.79
  -5  -5  -1   49.39    1.27
  -5  -5  -1   48.70    1.26
  -5  -5  -1   46.42    1.17
   5   5   1   47.65    1.21
   5   5   1   46.58    1.24
   5   5   1   49.57    1.28
  -6  -5  -1   73.21    1.82
  -6  -5  -1   73.33    1.78
  -6  -5  -1   73.80    1.71
   6   5   1   73.72    1.82
   6   5   1   73.02    1.73
   6   5   1   70.15    1.87
  -7  -5  -1   27.95    1.02
  -7  -5  -1   28.10    1.00
  -7  -5  -1   27.59    1.08
   7   5   1   28.71    1.02
   7   5   1   27.63    1.08
   7   5   1   27.89    1.01
  -8  -5  -1   52.90    1.61
  -8  -5  -1   55.12    1.64
  -8  -5  -1   56.47    1.71
   8   5   1   56.29    1.60
   8   5   1   56.02    1.60
  -9  -5  -1   12.01    1.04
   9   5   1   12.33    0.91
   9   5   1   13.04    0.94
   8  -6  -1   11.66    1.05
  -8   6   1    9.43    1.01
   7  -6  -1   14.48    0.95
   7  -6  -1   13.58    0.52
   7  -6  -1   14.49    0.92
   7  -6  -1   14.22    0.53
  -7   6   1   15.61    0.92
   6  -6  -1   39.80    1.31
   6  -6  -1   40.16    1.25
   6  -6  -1   39.92    0.93
   6  -6  -1   39.26    0.93
  -6   6   1   39.20    1.33
  -6   6   1   40.21    1.29
   5  -6  -1   66.06    1.63
   5  -6  -1   65.35    1.38
   5  -6  -1   67.28    1.73
   5  -6  -1   65.02    1.43
  -5   6   1   65.32    1.70
  -5   6   1   66.52    1.64
   4  -6  -1   44.04    1.21
   4  -6  -1   42.01    0.97
   4  -6  -1   42.39    0.97
  -4   6   1   42.59    1.19
  -4   6   1   42.40    1.14
   3  -6  -1   72.89    1.64
   3  -6  -1   70.50    1.45
  -3   6   1   69.59    1.56
  -3   6   1   67.44    1.76
   2  -6  -1  150.84    2.92
   2  -6  -1  154.53    3.05
  -2   6   1  151.99    2.96
  -2   6   1  151.77    2.99
  -2   6   1  154.26    3.04
   1  -6  -1  238.16    4.52
   1  -6  -1  240.09    4.48
  -1   6   1  241.78    4.53
  -1   6   1  239.55    4.49
  -1   6   1  236.04    4.51
  -1   6   1  235.81    4.49
   0  -6  -1  236.47    4.41
   0  -6  -1  237.96    4.43
   0   6   1  233.29    4.65
   0   6   1  234.72    4.43
   0   6   1  230.61    4.43
  -1  -6  -1   42.87    1.01
  -1  -6  -1   41.75    0.96
  -1  -6  -1   45.24    1.04
   1   6   1   42.26    0.97
   1   6   1   42.38    1.03
  -2  -6  -1  415.00    7.64
  -2  -6  -1  422.66    7.72
  -2  -6  -1  406.45    7.62
  -2  -6  -1  416.13    7.66
   2   6   1  411.69    7.64
   2   6   1  418.60    7.72
  -3  -6  -1  351.36    6.64
  -3  -6  -1  349.36    6.93
  -3  -6  -1  361.30    6.70
   3   6   1  364.65    6.76
   3   6   1  366.76    6.70
  -4  -6  -1  297.00    5.65
  -4  -6  -1  311.02    5.78
  -4  -6  -1  298.29    5.73
   4   6   1  300.68    5.73
   4   6   1  296.05    5.76
  -5  -6  -1    7.12    0.52
  -5  -6  -1    6.15    0.52
  -5  -6  -1    7.63    0.46
   5   6   1    6.14    0.52
   5   6   1    7.07    0.48
   5   6   1    7.34    0.54
  -6  -6  -1  211.81    4.20
  -6  -6  -1  204.84    4.09
  -6  -6  -1  185.02    4.64
   6   6   1  209.60    4.20
   6   6   1  212.72    4.15
   6   6   1  209.94    4.22
  -7  -6  -1   21.39    0.90
  -7  -6  -1   21.26    0.95
  -7  -6  -1   21.48    0.97
   7   6   1   22.07    0.94
   7   6   1   19.57    1.17
   7   6   1   22.20    1.03
  -8  -6  -1   54.82    1.65
  -8  -6  -1   56.61    1.73
   8   6   1   57.22    1.63
   8   6   1   57.63    1.66
  -9  -6  -1    9.41    1.00
   9   6   1    9.90    0.93
   9   6   1   10.88    0.92
   7  -7  -1   13.44    0.98
   7  -7  -1   13.29    0.51
   7  -7  -1   12.49    0.98
  -7   7   1   12.22    0.92
   6  -7  -1   24.43    0.69
   6  -7  -1   24.36    1.10
   6  -7  -1   25.14    1.02
   6  -7  -1   25.13    0.69
  -6   7   1   24.94    1.13
  -6   7   1   25.25    1.05
   5  -7  -1  138.30    2.70
   5  -7  -1  140.90    3.07
   5  -7  -1  136.09    2.69
  -5   7   1  139.12    2.97
  -5   7   1  138.23    3.05
   4  -7  -1   29.50    1.01
   4  -7  -1   29.48    0.79
   4  -7  -1   29.11    0.76
  -4   7   1   29.51    0.92
  -4   7   1   30.26    1.00
   3  -7  -1   49.90    1.30
   3  -7  -1   49.76    1.13
  -3   7   1   50.92    1.30
  -3   7   1   48.88    1.22
   2  -7  -1  173.42    3.41
   2  -7  -1  172.94    3.29
  -2   7   1  171.51    3.41
  -2   7   1  170.82    3.33
  -2   7   1  169.35    3.32
  -2   7   1  164.50    3.36
   1  -7  -1  281.42    5.24
   1  -7  -1  282.93    5.29
  -1   7   1  274.08    5.23
  -1   7   1  275.45    5.26
  -1   7   1  284.28    5.31
  -1   7   1  275.80    5.25
   0  -7  -1  205.24    3.89
   0  -7  -1  202.42    3.86
   0   7   1  196.87    3.88
   0   7   1  198.15    3.82
   0   7   1  202.70    3.89
  -1  -7  -1   35.59    0.88
  -1  -7  -1   33.97    0.91
  -1  -7  -1   35.90    0.95
   1   7   1   35.58    0.87
   1   7   1   35.88    0.95
  -2  -7  -1  200.33    3.92
  -2  -7  -1  196.47    3.80
  -2  -7  -1  196.49    3.82
  -2  -7  -1  199.35    3.84
   2   7   1  199.03    3.91
   2   7   1  199.96    3.82
  -3  -7  -1   46.64    1.23
  -3  -7  -1   47.22    1.13
  -3  -7  -1   47.21    1.17
  -3  -7  -1   45.98    1.11
   3   7   1   47.50    1.16
   3   7   1   46.99    1.23
  -4  -7  -1  308.82    5.70
  -4  -7  -1  311.50    5.85
  -4  -7  -1  309.40    5.77
   4   7   1  265.63    6.08
   4   7   1  311.04    5.84
  -5  -7  -1    9.81    0.65
  -5  -7  -1   10.46    0.65
  -5  -7  -1   10.30    0.62
   5   7   1   10.93    0.64
   5   7   1   10.31    0.64
  -6  -7  -1   82.78    1.91
  -6  -7  -1   84.78    2.05
  -6  -7  -1   82.35    2.03
   6   7   1   79.84    2.01
   6   7   1   81.84    2.02
  -7  -7  -1   21.62    0.99
  -7  -7  -1   20.49    1.04
  -7  -7  -1   21.62    0.93
   7   7   1   21.26    1.08
   7   7   1   21.15    0.96
   7   7   1   21.24    1.10
  -8  -7  -1   27.47    1.23
  -8  -7  -1   28.25    1.24
   8   7   1   29.76    1.18
   8   7   1   28.87    1.18
   7  -8  -1   11.24    1.06
  -7   8   1   11.82    0.96
   6  -8  -1   21.01    0.66
   6  -8  -1   21.05    0.68
   6  -8  -1   23.15    1.11
  -6   8   1   21.57    1.03
   5  -8  -1   19.70    0.65
   5  -8  -1   19.95    0.95
   5  -8  -1   20.58    0.65
  -5   8   1   19.82    0.97
  -5   8   1   20.61    0.92
   4  -8  -1   43.97    1.11
   4  -8  -1   44.03    1.31
   4  -8  -1   42.78    1.04
  -4   8   1   43.73    1.29
  -4   8   1   43.31    1.20
   3  -8  -1   44.23    1.08
   3  -8  -1   44.64    1.25
  -3   8   1   44.20    1.14
  -3   8   1   45.10    1.25
   2  -8  -1   60.15    1.38
   2  -8  -1   61.07    1.48
  -2   8   1   59.94    1.42
  -2   8   1   60.13    1.42
  -2   8   1   60.85    1.48
  -2   8   1   60.78    1.51
   1  -8  -1  123.03    2.51
   1  -8  -1  121.62    2.54
  -1   8   1  124.06    2.54
  -1   8   1  120.06    2.48
  -1   8   1  121.73    2.46
  -1   8   1  126.09    2.57
   0  -8  -1   95.20    1.97
   0  -8  -1   81.91    2.29
   0   8   1   95.43    2.02
   0   8   1   94.47    1.91
   0   8   1   94.58    2.01
  -1  -8  -1  117.04    2.37
  -1  -8  -1  117.24    2.46
   1   8   1  113.95    2.33
   1   8   1  116.59    2.45
  -2  -8  -1    9.01    0.43
  -2  -8  -1    8.85    0.46
  -2  -8  -1    8.73    0.46
  -2  -8  -1    8.46    0.54
   2   8   1    8.32    0.52
   2   8   1    8.47    0.43
  -3  -8  -1   70.90    1.61
  -3  -8  -1   69.74    1.70
  -3  -8  -1   69.86    1.56
  -3  -8  -1   70.00    1.56
   3   8   1   67.06    1.68
   3   8   1   67.65    1.58
  -4  -8  -1   21.69    0.77
  -4  -8  -1   20.66    0.73
  -4  -8  -1   21.53    0.73
  -4  -8  -1   20.96    0.85
   4   8   1   21.52    0.79
   4   8   1   21.21    0.91
  -5  -8  -1   24.27    0.90
  -5  -8  -1   25.58    0.98
  -5  -8  -1   25.22    0.85
   5   8   1   25.01    0.96
   5   8   1   24.60    0.95
  -6  -8  -1   54.37    1.45
  -6  -8  -1   53.85    1.53
  -6  -8  -1   53.01    1.59
   6   8   1   54.35    1.55
   6   8   1   55.36    1.57
  -7  -8  -1   18.89    0.98
  -7  -8  -1   19.74    0.96
   7   8   1   20.80    1.00
   7   8   1   18.18    1.12
  -8  -8  -1   12.21    1.00
  -8  -8  -1   13.89    1.02
   8   8   1   13.00    1.01
   6  -9  -1   19.88    1.16
  -6   9   1   20.47    1.05
   5  -9  -1   14.23    0.64
   5  -9  -1   14.61    0.62
   5  -9  -1   14.49    0.91
  -5   9   1   14.55    0.84
   4  -9  -1   22.94    0.77
   4  -9  -1   23.27    0.98
  -4   9   1   24.10    0.99
  -4   9   1   23.74    0.87
   3  -9  -1   25.58    0.99
   3  -9  -1   25.79    0.81
  -3   9   1   25.95    0.84
  -3   9   1   25.89    0.96
   2  -9  -1   37.05    1.18
   2  -9  -1   39.40    1.15
  -2   9   1   39.06    1.03
  -2   9   1   40.16    1.07
  -2   9   1   40.71    1.16
  -2   9   1   39.57    1.10
   1  -9  -1   76.52    1.79
   1  -9  -1   80.61    1.79
  -1   9   1   79.80    1.80
  -1   9   1   78.38    1.70
  -1   9   1   77.52    1.70
  -1   9   1   79.55    1.84
   0  -9  -1   54.75    1.36
   0  -9  -1   52.88    1.31
   0   9   1   54.76    1.26
   0   9   1   53.82    1.36
   0   9   1   51.74    1.23
  -1  -9  -1   44.78    1.14
  -1  -9  -1   46.31    1.25
   1   9   1   45.02    1.23
   1   9   1   44.87    1.10
  -2  -9  -1  138.73    2.87
  -2  -9  -1  138.31    2.86
  -2  -9  -1  142.46    2.97
  -2  -9  -1  140.74    2.82
   2   9   1  140.52    2.81
   2   9   1  135.34    3.06
  -3  -9  -1  104.46    2.24
  -3  -9  -1  108.06    2.28
  -3  -9  -1  104.27    2.39
  -3  -9  -1  104.95    2.23
   3   9   1  102.87    2.27
   3   9   1  104.89    2.38
  -4  -9  -1   49.89    1.44
  -4  -9  -1   49.99    1.33
  -4  -9  -1   49.59    1.28
   4   9   1   49.79    1.43
   4   9   1   48.70    1.33
  -5  -9  -1   78.01    1.87
  -5  -9  -1   78.48    1.86
  -5  -9  -1   79.99    2.05
  -5  -9  -1   79.35    1.99
   5   9   1   82.89    2.04
   5   9   1   81.41    1.97
  -6  -9  -1   49.22    1.42
  -6  -9  -1   51.09    1.49
   6   9   1   50.67    1.56
   6   9   1   50.23    1.55
  -7  -9  -1   14.67    0.94
  -7  -9  -1   15.61    0.94
   7   9   1   15.91    1.01
   7   9   1   16.23    1.68
   5 -10  -1    9.40    0.59
   5 -10  -1    8.49    0.89
  -5  10   1    9.71    0.81
   4 -10  -1   16.78    0.75
   4 -10  -1   16.75    0.92
  -4  10   1   15.14    0.93
  -4  10   1   16.31    0.80
  -4  10   1   15.19    0.92
   3 -10  -1   11.77    0.67
   3 -10  -1   12.22    0.76
  -3  10   1   12.69    0.64
  -3  10   1   12.95    0.77
  -3  10   1   12.00    0.72
   2 -10  -1   42.94    1.23
  -2  10   1   44.60    1.31
  -2  10   1   45.10    1.18
  -2  10   1   45.33    1.26
  -2  10   1   44.42    1.14
   1 -10  -1   58.42    1.47
   1 -10  -1   56.86    1.46
  -1  10   1   54.50    1.32
  -1  10   1   56.51    1.48
  -1  10   1   56.34    1.50
  -1  10   1   55.36    1.32
   0 -10  -1   54.53    1.37
   0 -10  -1   53.32    1.42
   0  10   1   53.31    1.27
   0  10   1   53.03    1.26
   0  10   1   53.30    1.42
  -1 -10  -1   15.90    0.66
  -1 -10  -1   16.56    0.78
   1  10   1   15.76    0.74
   1  10   1   16.35    0.62
  -2 -10  -1   41.81    1.10
  -2 -10  -1   41.08    1.25
  -2 -10  -1   36.84    1.29
   2  10   1   39.49    1.22
   2  10   1   41.16    1.08
  -3 -10  -1   33.88    0.99
  -3 -10  -1   34.70    1.04
  -3 -10  -1   32.74    1.17
  -3 -10  -1   33.04    1.02
   3  10   1   34.61    1.16
   3  10   1   33.21    1.02
  -4 -10  -1   53.28    1.43
  -4 -10  -1   52.10    1.35
  -4 -10  -1   49.06    1.54
  -4 -10  -1   51.33    1.38
   4  10   1   54.56    1.56
   4  10   1   54.86    1.44
  -5 -10  -1   28.97    1.04
  -5 -10  -1   28.89    1.00
  -5 -10  -1   29.90    1.10
   5  10   1   28.60    1.14
   5  10   1   28.61    1.15
  -6 -10  -1   24.23    1.05
  -6 -10  -1   24.70    1.01
  -6 -10  -1   23.64    1.05
   6  10   1   23.17    1.22
   6  10   1   25.30    1.17
  -7 -10  -1   17.75    1.06
  -7 -10  -1   17.90    1.03
   7  10   1   18.32    1.20
   4 -11  -1   11.91    0.92
  -4  11   1   12.58    0.83
   3 -11  -1   12.71    0.84
   3 -11  -1   12.73    0.83
  -3  11   1   14.06    0.93
  -3  11   1   13.56    0.71
  -3  11   1   13.25    0.79
   2 -11  -1   13.56    0.84
   2 -11  -1   13.87    0.78
  -2  11   1   13.67    0.62
  -2  11   1   11.93    1.25
  -2  11   1   13.61    0.80
  -2  11   1   15.19    0.86
   1 -11  -1   66.53    1.75
   1 -11  -1   71.65    1.80
  -1  11   1   71.70    1.83
  -1  11   1   67.40    1.59
  -1  11   1   72.63    1.79
  -1  11   1   70.23    1.59
   0 -11  -1   44.66    1.36
   0 -11  -1   45.13    1.29
   0  11   1   45.13    1.14
   0  11   1   45.30    1.33
   0  11   1   44.73    1.13
  -1 -11  -1   19.07    0.77
  -1 -11  -1   19.43    0.96
   1  11   1   19.22    0.70
   1  11   1   19.13    0.72
   1  11   1   19.06    0.87
  -2 -11  -1   68.51    1.73
  -2 -11  -1   73.53    1.68
  -2 -11  -1   65.39    2.08
   2  11   1   69.90    1.78
   2  11   1   69.68    1.82
  -3 -11  -1   29.93    1.02
  -3 -11  -1   28.99    1.03
  -3 -11  -1   27.70    0.93
   3  11   1   29.73    1.13
   3  11   1   29.00    0.99
  -4 -11  -1   21.81    0.87
  -4 -11  -1   22.39    0.96
  -4 -11  -1   23.07    0.96
   4  11   1   22.00    1.01
   4  11   1   23.25    1.05
  -5 -11  -1   38.43    1.32
  -5 -11  -1   37.41    1.25
   5  11   1   37.59    1.41
   5  11   1   38.59    1.35
  -6 -11  -1   40.47    1.34
  -6 -11  -1   40.08    1.89
  -6 -11  -1   42.18    1.43
   6  11   1   41.05    1.55
   6  11   1   42.18    1.63
   3 -12  -1   22.39    1.11
   2 -12  -1   17.65    0.95
   2 -12  -1   17.42    0.93
  -2  12   1   16.51    0.73
  -2  12   1   15.25    1.05
  -2  12   1   17.01    0.95
   1 -12  -1   41.03    1.31
   1 -12  -1   42.12    1.41
  -1  12   1   40.98    1.46
  -1  12   1   41.03    1.35
  -1  12   1   41.03    1.10
   0 -12  -1   11.92    0.99
   0 -12  -1   12.31    0.76
   0  12   1   12.92    0.62
   0  12   1   13.17    0.81
   0  12   1   12.94    0.65
  -1 -12  -1    8.63    1.11
  -1 -12  -1   12.31    1.20
   1  12   1   11.31    0.79
   1  12   1   11.19    0.65
   1  12   1   11.25    0.74
  -2 -12  -1   20.51    0.87
  -2 -12  -1   18.71    0.97
   2  12   1   18.52    0.96
   2  12   1   19.07    0.96
  -3 -12  -1   57.12    1.53
  -3 -12  -1   55.10    1.57
   3  12   1   56.95    1.71
   3  12   1   56.59    1.51
  -4 -12  -1   21.98    1.02
   4  12   1   22.06    1.10
   4  12   1   20.81    1.16
  -5 -12  -1    7.71    0.86
  -5 -12  -1    7.88    0.77
   5  12   1    7.68    0.96
   0 -13  -1    5.32    0.76
   0  13   1    4.38    0.53
  -1 -13  -1   43.20    1.35
   1  13   1   43.22    1.48
  -2 -13  -1   21.54    0.96
   2  13   1   21.05    1.14
   4  12  -2   24.91    1.34
  -4 -12   2   24.22    1.14
   3  12  -2   16.50    1.08
  -3 -12   2   15.52    1.15
  -3 -12   2   17.28    0.94
   2  12  -2   20.84    1.09
  -2 -12   2   22.23    1.25
  -2 -12   2   23.37    1.05
   1  12  -2   23.83    1.14
  -1 -12   2   23.45    1.06
   0  12  -2   25.19    1.14
   0 -12   2   24.77    1.08
  -1  12  -2    7.58    0.80
   1 -12   2    6.46    0.79
   2 -12   2   30.18    1.28
   5  11  -2    1.16    0.41
  -5 -11   2    1.73    0.43
  -5 -11   2    1.23    0.51
  -5 -11   2    1.57    0.35
   4  11  -2   25.84    0.88
   4  11  -2   26.70    1.17
  -4 -11   2   26.06    0.88
  -4 -11   2   25.30    1.08
  -4 -11   2   26.02    1.26
   3  11  -2   -0.10    0.21
   3  11  -2    0.26    0.32
  -3 -11   2    0.66    0.41
  -3 -11   2    0.35    0.28
   2  11  -2   40.91    1.34
  -2 -11   2   39.42    1.27
  -2 -11   2   38.71    1.40
   1  11  -2   13.43    0.83
  -1 -11   2   12.10    0.94
  -1 -11   2   13.75    0.78
   0  11  -2   40.62    1.46
   0 -11   2   41.09    1.31
   0 -11   2   40.94    1.39
  -1  11  -2   24.76    1.03
   1 -11   2   24.68    1.13
   1 -11   2   23.08    1.01
  -2  11  -2   33.39    1.62
   2 -11   2   32.20    1.22
   2 -11   2   32.76    1.27
   3 -11   2   13.24    0.91
   3 -11   2   14.43    0.98
   4 -11   2   22.22    1.18
   4 -11   2   22.35    1.12
   6  10  -2   52.06    1.54
   6  10  -2   52.09    1.68
  -6 -10   2   50.21    1.63
  -6 -10   2   49.92    1.59
  -6 -10   2   49.52    1.76
   5  10  -2    0.46    0.35
   5  10  -2    0.69    0.35
  -5 -10   2    0.32    0.45
  -5 -10   2    0.73    0.30
  -5 -10   2    0.46    0.32
   4  10  -2   56.58    1.61
   4  10  -2   52.17    1.35
  -4 -10   2   52.38    1.60
  -4 -10   2   54.39    1.36
  -4 -10   2   54.46    1.55
   3  10  -2    6.80    0.67
   3  10  -2    6.38    0.44
  -3 -10   2    7.05    0.75
  -3 -10   2    7.89    0.65
  -3 -10   2    7.15    0.46
  -3 -10   2    6.89    0.73
   2  10  -2  149.57    3.19
   2  10  -2  142.62    2.75
  -2 -10   2  141.91    3.22
  -2 -10   2  143.86    3.20
  -2 -10   2  145.72    3.18
   1  10  -2   17.78    0.83
  -1 -10   2   19.07    0.89
  -1 -10   2   16.12    0.91
   0  10  -2   92.24    2.18
   0 -10   2   92.11    2.16
   0 -10   2   88.20    2.15
  -1  10  -2    5.00    0.62
  -1  10  -2    5.20    0.60
   1 -10   2    5.76    0.64
   1 -10   2    4.47    0.58
  -2  10  -2   63.30    1.74
   2 -10   2   62.71    1.66
   2 -10   2   63.41    1.72
  -3  10  -2   18.25    0.99
   3 -10   2   19.41    0.94
   3 -10   2   20.50    0.96
  -4  10  -2   14.29    0.66
  -4  10  -2   15.39    0.62
   4 -10   2   13.57    0.93
   4 -10   2   15.68    0.91
  -5  10  -2   27.50    0.98
   5 -10   2   27.48    1.10
   5 -10   2   26.42    1.10
   5 -10   2   27.71    1.31
   7   9  -2    0.75    0.41
   7   9  -2    0.72    0.51
  -7  -9   2    0.85    0.44
   6   9  -2   40.75    1.42
   6   9  -2   39.87    1.36
  -6  -9   2   38.02    1.45
  -6  -9   2   39.81    1.29
   5   9  -2   13.17    0.76
   5   9  -2   11.78    0.81
  -5  -9   2   12.90    0.68
  -5  -9   2   11.70    0.83
  -5  -9   2   11.57    0.78
   4   9  -2  103.71    2.40
   4   9  -2   98.48    2.15
  -4  -9   2  100.35    2.41
  -4  -9   2  101.19    2.39
  -4  -9   2  102.49    2.18
   3   9  -2    0.44    0.18
   3   9  -2    0.03    0.22
  -3  -9   2    0.68    0.29
  -3  -9   2    0.86    0.20
  -3  -9   2    0.42    0.24
  -3  -9   2    0.79    0.30
   2   9  -2  165.90    3.19
   2   9  -2  172.17    3.54
  -2  -9   2  171.30    3.50
  -2  -9   2  160.54    3.54
  -2  -9   2  171.41    3.54
   1   9  -2   56.14    1.49
  -1  -9   2   53.76    1.44
  -1  -9   2   54.78    1.47
   0   9  -2  110.09    2.81
   0  -9   2  121.71    2.61
   0  -9   2  123.42    2.61
  -1   9  -2    3.84    0.51
  -1   9  -2    2.66    0.34
   1  -9   2    3.13    0.50
   1  -9   2    1.97    0.38
  -2   9  -2   60.50    1.62
  -2   9  -2   59.95    1.59
   2  -9   2   62.31    1.63
   2  -9   2   60.84    1.55
  -3   9  -2   12.83    0.50
  -3   9  -2   12.79    0.80
  -3   9  -2   12.74    0.48
   3  -9   2   13.07    0.72
   3  -9   2   13.00    0.77
  -4   9  -2   69.15    1.56
  -4   9  -2   65.49    1.86
   4  -9   2   63.42    1.67
   4  -9   2   69.23    1.86
  -5   9  -2    9.66    0.63
   5  -9   2    9.34    0.80
   5  -9   2    8.49    0.84
   6  -9   2   18.69    0.92
   6  -9   2   17.96    1.15
   8   8  -2   44.98    1.62
  -8  -8   2   46.26    1.62
   7   8  -2    0.17    0.34
   7   8  -2    0.18    0.47
  -7  -8   2   -0.19    0.45
  -7  -8   2    0.10    0.33
   6   8  -2   29.13    1.14
   6   8  -2   29.28    1.14
  -6  -8   2   30.57    1.32
  -6  -8   2   28.79    1.15
  -6  -8   2   28.38    1.28
   5   8  -2   27.69    1.03
   5   8  -2   26.07    0.93
  -5  -8   2   26.94    1.06
  -5  -8   2   28.01    0.94
  -5  -8   2   25.89    1.05
   4   8  -2   74.74    1.69
   4   8  -2   76.78    1.88
  -4  -8   2   75.60    1.88
  -4  -8   2   73.24    1.85
  -4  -8   2   76.51    1.87
  -4  -8   2   74.67    1.70
   3   8  -2   13.39    0.72
   3   8  -2   14.17    0.52
  -3  -8   2   13.23    0.69
  -3  -8   2   14.76    0.54
  -3  -8   2   14.40    0.73
  -3  -8   2   13.66    0.67
   2   8  -2  129.58    2.55
   2   8  -2  135.99    2.84
  -2  -8   2  136.04    2.85
  -2  -8   2  135.04    2.82
  -2  -8   2  131.96    2.86
  -2  -8   2  130.73    2.58
   1   8  -2    6.33    0.51
  -1  -8   2    5.88    0.50
  -1  -8   2    5.90    0.47
   0   8  -2  179.83    3.70
   0  -8   2  185.49    3.72
   0  -8   2  186.53    3.70
  -1   8  -2    0.53    0.20
  -1   8  -2    0.34    0.20
   1  -8   2   -0.15    0.18
   1  -8   2   -0.23    0.18
  -2   8  -2  116.19    2.55
  -2   8  -2  112.62    2.21
  -2   8  -2  117.42    2.51
  -2   8  -2  113.78    2.20
   2  -8   2  115.12    2.54
   2  -8   2  116.37    2.46
  -3   8  -2    0.18    0.16
  -3   8  -2    0.28    0.23
   3  -8   2    0.08    0.21
   3  -8   2    0.24    0.27
  -4   8  -2  248.05    4.68
  -4   8  -2  245.51    4.98
   4  -8   2  247.10    4.99
   4  -8   2  239.54    4.78
  -5   8  -2   -0.01    0.44
  -5   8  -2   -0.24    0.23
   5  -8   2   -0.25    0.27
   5  -8   2    0.03    0.24
   5  -8   2   -0.24    0.27
  -6   8  -2   26.74    1.22
   6  -8   2   26.70    1.04
   6  -8   2   27.42    1.22
   6  -8   2   25.86    0.97
   6  -8   2   27.25    1.06
  -7   8  -2    3.57    0.49
   7  -8   2    2.94    0.58
   7  -8   2    2.99    0.66
   8   7  -2   45.51    1.51
  -8  -7   2   42.53    1.55
   7   7  -2   -0.31    0.28
   7   7  -2   -0.46    0.39
  -7  -7   2    0.04    0.31
  -7  -7   2   -0.28    0.38
  -7  -7   2   -0.21    0.42
   6   7  -2   39.41    1.28
   6   7  -2   41.02    1.30
  -6  -7   2   38.26    1.47
  -6  -7   2   42.47    1.33
  -6  -7   2   42.31    1.33
   5   7  -2    0.89    0.27
   5   7  -2    1.54    0.32
  -5  -7   2    1.36    0.30
  -5  -7   2    1.32    0.26
  -5  -7   2    1.43    0.31
   4   7  -2   86.14    2.42
   4   7  -2   93.50    2.01
  -4  -7   2   99.68    2.17
  -4  -7   2   94.53    2.16
  -4  -7   2   94.63    2.03
   3   7  -2   13.89    0.49
   3   7  -2   13.53    0.65
  -3  -7   2   13.03    0.50
  -3  -7   2   13.96    0.63
  -3  -7   2   13.62    0.65
  -3  -7   2   13.18    0.64
   2   7  -2  167.29    3.17
   2   7  -2  170.54    3.41
  -2  -7   2  160.38    3.51
  -2  -7   2  168.61    3.19
  -2  -7   2  171.49    3.41
  -2  -7   2  169.85    3.40
   1   7  -2   15.17    0.62
   1   7  -2   15.04    0.38
  -1  -7   2   14.27    0.61
  -1  -7   2   15.54    0.63
   0   7  -2  221.41    4.53
   0   7  -2  218.82    4.29
   0  -7   2  217.48    4.32
   0  -7   2  221.03    4.30
  -1   7  -2    5.66    0.45
  -1   7  -2    7.14    0.45
   1  -7   2    5.27    0.44
  -2   7  -2  177.91    3.54
  -2   7  -2  181.68    3.52
  -2   7  -2  178.25    3.25
  -2   7  -2  175.06    3.27
   2  -7   2  179.69    3.55
   2  -7   2  150.30    3.81
  -3   7  -2   31.31    1.00
  -3   7  -2   30.45    0.78
   3  -7   2   30.84    1.01
  -4   7  -2  312.30    5.72
  -4   7  -2  307.06    5.95
   4  -7   2  297.82    5.77
   4  -7   2  304.13    5.97
   4  -7   2  301.33    5.73
   4  -7   2  295.26    5.83
  -5   7  -2   20.97    0.78
  -5   7  -2   20.68    0.93
   5  -7   2   22.25    0.97
   5  -7   2   20.39    0.80
   5  -7   2   20.76    0.80
   5  -7   2   21.26    0.79
  -6   7  -2   52.31    1.43
   6  -7   2   52.47    1.62
   6  -7   2   51.04    1.38
   6  -7   2   51.25    1.35
   6  -7   2   51.21    1.43
  -7   7  -2    3.58    0.46
   7  -7   2    4.93    0.76
   7  -7   2    3.49    0.59
   7  -7   2    2.82    0.49
   7  -7   2    3.96    0.44
   9   6  -2    1.02    0.50
   9   6  -2    0.48    0.42
  -9  -6   2    1.12    0.53
   8   6  -2   31.80    1.32
   8   6  -2   32.25    1.23
  -8  -6   2   30.26    1.31
   7   6  -2   22.69    0.98
   7   6  -2   24.50    1.06
   7   6  -2   23.38    1.06
  -7  -6   2   23.58    1.03
  -7  -6   2   23.52    1.02
  -7  -6   2   23.75    1.08
   6   6  -2  144.63    3.26
   6   6  -2  144.92    3.18
   6   6  -2  146.69    3.17
  -6  -6   2  144.30    3.14
  -6  -6   2  148.31    3.17
  -6  -6   2  147.24    3.14
   5   6  -2    4.79    0.48
   5   6  -2    4.25    0.50
  -5  -6   2    4.78    0.48
  -5  -6   2    5.09    0.54
  -5  -6   2    3.56    0.51
   4   6  -2  280.26    5.34
   4   6  -2  271.78    5.23
  -4  -6   2  278.56    5.35
  -4  -6   2  273.71    5.25
  -4  -6   2  272.19    5.34
   3   6  -2   10.08    0.41
   3   6  -2    9.63    0.52
  -3  -6   2   10.08    0.43
  -3  -6   2    9.55    0.51
  -3  -6   2    9.54    0.53
   2   6  -2  258.79    4.81
   2   6  -2  266.69    5.01
  -2  -6   2  261.69    5.04
  -2  -6   2  262.30    4.82
  -2  -6   2  253.86    5.00
   1   6  -2   42.13    0.85
   1   6  -2   41.67    1.07
  -1  -6   2   41.99    1.06
  -1  -6   2   41.71    0.87
  -1  -6   2   42.65    1.08
   0   6  -2  263.50    5.10
   0   6  -2  252.53    4.86
   0  -6   2  246.73    4.84
   0  -6   2  256.44    4.88
  -1   6  -2    6.71    0.40
  -1   6  -2    6.45    0.40
   1  -6   2    6.22    0.41
   1  -6   2    6.53    0.38
  -2   6  -2   98.22    1.84
  -2   6  -2   87.85    2.19
   2  -6   2   97.53    2.00
   2  -6   2   95.29    2.07
  -3   6  -2   14.00    0.62
  -3   6  -2   13.64    0.47
   3  -6   2   12.64    0.46
   3  -6   2   14.42    0.55
   3  -6   2   14.48    0.63
  -4   6  -2    6.91    0.55
  -4   6  -2    7.32    0.58
   4  -6   2    6.16    0.55
   4  -6   2    6.51    0.41
   4  -6   2    7.03    0.47
   4  -6   2    6.64    0.45
  -5   6  -2    6.94    0.59
  -5   6  -2    5.35    0.48
   5  -6   2    5.05    0.55
   5  -6   2    5.13    0.59
   5  -6   2    4.69    0.47
  -6   6  -2   48.26    1.35
  -6   6  -2   45.10    1.46
   6  -6   2   48.87    1.35
   6  -6   2   46.18    1.26
   6  -6   2   48.52    1.48
   6  -6   2   49.59    1.26
  -7   6  -2    1.28    0.36
   7  -6   2    1.77    0.37
   7  -6   2    1.80    0.35
   7  -6   2    1.42    0.29
   7  -6   2    1.98    0.42
  -8   6  -2   26.47    1.21
   8  -6   2   24.25    1.31
   8  -6   2   25.76    0.99
   9   5  -2    0.17    0.42
   9   5  -2    0.06    0.38
  -9  -5   2    0.57    0.50
   8   5  -2   37.43    1.27
   8   5  -2   39.46    1.38
  -8  -5   2   39.59    1.86
  -8  -5   2   36.28    1.29
  -8  -5   2   37.96    1.41
   7   5  -2    6.58    0.69
   7   5  -2    5.73    0.61
   7   5  -2    6.60    0.72
  -7  -5   2    6.68    0.71
  -7  -5   2    6.31    0.65
  -7  -5   2    6.03    0.68
   6   5  -2  171.72    3.65
   6   5  -2  173.96    3.75
   6   5  -2  178.72    3.64
  -6  -5   2  177.43    3.62
  -6  -5   2  174.56    3.65
  -6  -5   2  176.87    3.66
   5   5  -2   10.37    0.57
   5   5  -2   10.62    0.61
   5   5  -2   10.12    0.56
  -5  -5   2   10.59    0.58
  -5  -5   2   11.27    0.59
  -5  -5   2   10.31    0.60
   4   5  -2  183.66    3.65
   4   5  -2  183.06    3.59
  -4  -5   2  182.82    3.62
  -4  -5   2  185.81    3.87
  -4  -5   2  183.41    3.66
   3   5  -2   15.77    0.58
   3   5  -2   15.63    0.50
  -3  -5   2   15.30    0.58
  -3  -5   2   15.34    0.59
  -3  -5   2   15.69    0.52
   2   5  -2  359.24    6.64
   2   5  -2  344.19    6.49
  -2  -5   2  360.89    6.50
  -2  -5   2  358.24    6.64
  -2  -5   2  352.83    6.67
   1   5  -2   13.34    0.49
   1   5  -2   12.93    0.33
  -1  -5   2   13.18    0.50
  -1  -5   2   14.12    0.50
  -1  -5   2   13.66    0.34
   0   5  -2  125.75    2.50
   0   5  -2  126.64    2.53
   0  -5   2  123.96    2.49
   0  -5   2  123.63    2.51
  -1   5  -2    9.32    0.41
  -1   5  -2    8.57    0.40
   1  -5   2    8.42    0.41
   1  -5   2    8.88    0.38
  -2   5  -2  235.77    4.51
  -2   5  -2  232.92    4.32
   2  -5   2  235.37    4.52
   2  -5   2  236.40    4.45
   2  -5   2  231.54    4.33
  -3   5  -2    1.09    0.20
  -3   5  -2    1.48    0.24
   3  -5   2    1.06    0.16
   3  -5   2    1.59    0.23
   3  -5   2    0.98    0.19
  -4   5  -2  213.67    4.05
  -4   5  -2  209.76    4.17
   4  -5   2  210.23    4.05
   4  -5   2  210.98    4.08
   4  -5   2  205.41    4.03
   4  -5   2  207.24    4.19
  -5   5  -2    0.39    0.20
  -5   5  -2    0.35    0.23
   5  -5   2    0.20    0.26
   5  -5   2    0.39    0.17
   5  -5   2    0.63    0.19
  -6   5  -2   36.05    1.19
  -6   5  -2   35.85    1.11
   6  -5   2   35.49    0.99
   6  -5   2   35.21    1.10
   6  -5   2   32.99    1.16
   6  -5   2   35.69    1.20
  -7   5  -2    1.85    0.36
   7  -5   2    1.84    0.36
   7  -5   2    1.12    0.36
   7  -5   2    1.40    0.26
   7  -5   2    1.68    0.32
  -8   5  -2   43.23    1.50
   8  -5   2   46.03    1.61
   8  -5   2   44.12    1.37
   8  -5   2   45.44    1.27
   9   4  -2   -0.33    0.34
   9   4  -2    1.03    0.40
  -9  -4   2    0.21    0.44
  -9  -4   2    0.27    0.40
   8   4  -2   17.82    1.34
   8   4  -2   19.42    0.99
   8   4  -2   18.73    0.88
  -8  -4   2   17.77    1.07
  -8  -4   2   18.58    1.04
  -8  -4   2   18.25    0.89
   7   4  -2    1.95    0.38
   7   4  -2    1.26    0.45
   7   4  -2    2.23    0.35
  -7  -4   2    3.37    0.54
  -7  -4   2    2.45    0.36
  -7  -4   2    1.99    0.38
   6   4  -2   86.65    1.96
   6   4  -2   83.71    2.03
   6   4  -2   85.65    2.04
  -6  -4   2   90.32    1.99
  -6  -4   2   86.92    2.05
  -6  -4   2   87.02    2.07
   5   4  -2   10.33    0.55
   5   4  -2    8.58    0.49
   5   4  -2    8.51    0.53
  -5  -4   2    8.73    0.49
  -5  -4   2    8.55    0.54
  -5  -4   2    8.29    0.53
   4   4  -2  299.23    5.73
   4   4  -2  288.68    5.65
   4   4  -2  303.17    5.68
  -4  -4   2  309.47    5.73
  -4  -4   2  293.79    5.67
  -4  -4   2  305.43    5.68
   3   4  -2    2.66    0.25
   3   4  -2    3.14    0.30
  -3  -4   2    2.85    0.30
  -3  -4   2    3.26    0.31
  -3  -4   2    2.71    0.27
   2   4  -2  152.14    2.96
   2   4  -2  152.28    2.86
  -2  -4   2  149.71    2.95
  -2  -4   2  151.38    2.86
  -2  -4   2  150.94    2.99
   1   4  -2   42.99    0.99
   1   4  -2   42.02    0.84
  -1  -4   2   41.31    1.00
  -1  -4   2   42.97    0.85
  -1  -4   2   43.26    0.99
   0   4  -2  680.25   12.43
   0   4  -2  688.91   12.46
   0  -4   2  695.88   12.46
   0  -4   2  674.31   12.42
  -1   4  -2    0.11    0.11
  -1   4  -2    0.11    0.07
   1  -4   2    0.16    0.10
   1  -4   2   -0.16    0.11
  -2   4  -2  373.53    6.66
  -2   4  -2  371.74    6.81
   2  -4   2  363.84    6.81
   2  -4   2  359.42    6.75
   2  -4   2  360.34    6.65
  -3   4  -2   46.64    1.04
  -3   4  -2   45.06    1.13
   3  -4   2   45.39    1.15
   3  -4   2   48.92    1.09
   3  -4   2   44.62    1.03
   3  -4   2   45.02    1.10
  -4   4  -2  151.89    3.10
  -4   4  -2  151.04    3.01
   4  -4   2  151.77    3.00
   4  -4   2  150.92    3.12
   4  -4   2  151.68    3.01
   4  -4   2  153.65    3.01
  -5   4  -2    6.34    0.52
  -5   4  -2    6.66    0.48
   5  -4   2    6.97    0.43
   5  -4   2    5.81    0.56
   5  -4   2    6.72    0.54
   5  -4   2    7.41    0.45
  -6   4  -2   79.25    1.93
  -6   4  -2   77.70    1.86
   6  -4   2   74.80    1.80
   6  -4   2   79.98    1.87
   6  -4   2   79.02    1.74
   6  -4   2   78.09    1.94
  -7   4  -2    3.76    0.62
  -7   4  -2    2.98    0.42
   7  -4   2    3.34    0.46
   7  -4   2    4.27    0.65
   7  -4   2    3.48    0.43
  -8   4  -2   48.49    1.56
   8  -4   2   45.82    1.57
   8  -4   2   48.30    1.59
   8  -4   2   48.71    1.32
   8  -4   2   49.24    1.45
  -9   4  -2    4.16    0.57
   9  -4   2    4.97    0.73
   9  -4   2    4.54    0.99
   9   3  -2    0.17    0.30
   9   3  -2    0.21    0.38
  -9  -3   2    0.16    0.42
  -9  -3   2    0.30    0.36
   8   3  -2   33.98    1.25
   8   3  -2   33.76    1.10
   8   3  -2   32.55    1.33
  -8  -3   2   33.83    1.30
  -8  -3   2   33.18    1.11
  -8  -3   2   30.62    1.29
   7   3  -2    4.76    0.63
   7   3  -2    3.60    0.47
   7   3  -2    4.27    0.57
  -7  -3   2    4.78    0.60
  -7  -3   2    3.95    0.48
  -7  -3   2    4.33    0.63
   6   3  -2   91.24    2.10
   6   3  -2   88.70    1.97
   6   3  -2   89.50    2.09
  -6  -3   2   88.32    2.08
  -6  -3   2   89.61    2.12
  -6  -3   2   91.41    1.99
   5   3  -2    0.18    0.16
   5   3  -2    0.27    0.16
   5   3  -2    0.25    0.21
  -5  -3   2    0.54    0.16
  -5  -3   2    0.41    0.21
  -5  -3   2    0.46    0.18
   4   3  -2  177.59    3.47
   4   3  -2  180.16    3.53
   4   3  -2  178.97    3.50
  -4  -3   2  180.38    3.49
  -4  -3   2  175.97    3.53
  -4  -3   2  179.84    3.51
   3   3  -2   84.11    1.82
   3   3  -2   84.70    1.74
   3   3  -2   83.74    1.72
  -3  -3   2   84.67    1.75
  -3  -3   2   82.68    1.78
  -3  -3   2   84.36    1.74
   2   3  -2  305.81    5.51
   2   3  -2  291.24    5.44
  -2  -3   2  297.23    5.54
  -2  -3   2  293.59    5.50
  -2  -3   2  296.42    5.45
   1   3  -2   57.61    1.11
   1   3  -2   58.36    1.22
  -1  -3   2   58.10    1.11
  -1  -3   2   56.07    1.29
  -1   3  -2  106.89    2.05
  -1   3  -2  109.49    2.12
  -1   3  -2  105.44    2.10
   1  -3   2  107.49    2.12
   1  -3   2  106.53    2.18
   1  -3   2  106.16    1.97
  -2   3  -2  549.60    9.72
  -2   3  -2  544.71    9.83
   2  -3   2  522.33    9.82
   2  -3   2  541.01    9.83
   2  -3   2  531.46    9.71
  -3   3  -2    9.09    0.36
  -3   3  -2    8.53    0.41
   3  -3   2    8.41    0.37
   3  -3   2    8.28    0.42
   3  -3   2    8.87    0.38
   3  -3   2    8.98    0.36
  -4   3  -2  475.34    8.98
  -4   3  -2  480.50    8.76
   4  -3   2  479.80    8.74
   4  -3   2  467.51    8.84
   4  -3   2  472.03    8.76
  -5   3  -2    0.35    0.20
  -5   3  -2    0.35    0.19
   5  -3   2    0.39    0.15
   5  -3   2    0.30    0.20
   5  -3   2    0.36    0.18
  -6   3  -2  143.91    3.03
  -6   3  -2  146.19    3.08
   6  -3   2  138.45    3.26
   6  -3   2  144.74    2.90
   6  -3   2  144.13    3.03
  -7   3  -2   -0.37    0.25
  -7   3  -2   -0.01    0.29
   7  -3   2   -0.07    0.29
   7  -3   2   -0.22    0.25
   7  -3   2    0.13    0.19
  -8   3  -2   93.27    2.49
   8  -3   2   94.73    2.40
   8  -3   2   94.64    2.13
   8  -3   2   93.45    2.38
  -9   3  -2    1.12    0.47
   9  -3   2    0.69    0.40
   9  -3   2    0.16    0.43
   9   2  -2    6.61    0.85
   9   2  -2    5.34    0.68
  -9  -2   2    4.15    0.57
  -9  -2   2    7.09    0.73
   8   2  -2   57.66    1.51
   8   2  -2   59.46    1.73
   8   2  -2   56.76    1.75
  -8  -2   2   59.95    1.54
  -8  -2   2   55.03    1.75
  -8  -2   2   61.16    1.77
   7   2  -2   12.17    0.73
   7   2  -2   12.01    0.60
   7   2  -2   12.76    0.78
  -7  -2   2   12.00    0.74
  -7  -2   2   11.95    0.78
  -7  -2   2   13.67    0.62
   6   2  -2  148.20    3.14
   6   2  -2  148.54    3.00
   6   2  -2  150.55    3.15
  -6  -2   2  150.98    3.18
  -6  -2   2  148.92    3.00
  -6  -2   2  147.51    3.14
   5   2  -2    0.87    0.15
   5   2  -2    0.93    0.19
   5   2  -2    1.02    0.27
  -5  -2   2    0.95    0.21
  -5  -2   2    0.82    0.18
  -5  -2   2    1.11    0.23
   4   2  -2  261.75    4.99
   4   2  -2  263.97    5.01
   4   2  -2  258.89    4.92
  -4  -2   2  269.02    5.02
  -4  -2   2  260.64    4.93
  -4  -2   2  262.00    5.00
   3   2  -2    4.38    0.27
   3   2  -2    4.86    0.27
   3   2  -2    4.15    0.29
  -3  -2   2    4.34    0.26
  -3  -2   2    4.60    0.29
   2   2  -2  340.58    6.26
   2   2  -2  346.97    6.28
   2   2  -2  345.55    6.32
  -2  -2   2  344.05    6.27
  -2  -2   2  338.46    6.55
  -2  -2   2  340.58    6.28
   1   2  -2  223.46    4.10
   1   2  -2  227.44    4.16
  -1  -2   2  221.84    4.20
  -1  -2   2  223.38    4.16
  -1  -2   2  226.12    4.10
  -1   2  -2   79.63    1.52
   1  -2   2   82.21    1.61
   1  -2   2   80.45    1.51
  -2   2  -2  235.67    4.29
  -2   2  -2  234.93    4.36
   2  -2   2  233.17    4.34
   2  -2   2  230.02    4.28
   2  -2   2  228.62    4.35
  -3   2  -2    0.03    0.10
  -3   2  -2    0.13    0.12
   3  -2   2    0.37    0.13
   3  -2   2    0.28    0.10
  -4   2  -2  763.08   13.91
  -4   2  -2  763.51   13.88
   4  -2   2  765.86   13.88
   4  -2   2  757.31   13.83
   4  -2   2  763.16   13.93
  -5   2  -2    4.95    0.42
  -5   2  -2    4.64    0.42
   5  -2   2    5.01    0.40
   5  -2   2    5.25    0.37
   5  -2   2    5.13    0.43
  -6   2  -2  155.81    3.26
  -6   2  -2  157.52    3.28
   6  -2   2  156.06    3.25
   6  -2   2  158.02    3.13
   6  -2   2  155.25    3.28
  -7   2  -2    0.08    0.27
  -7   2  -2    0.31    0.28
   7  -2   2    0.37    0.19
   7  -2   2    0.30    0.25
   7  -2   2   -0.07    0.27
  -8   2  -2  129.20    3.01
   8  -2   2  125.47    3.00
   8  -2   2  135.48    3.05
   8  -2   2  131.54    2.79
  -9   2  -2    2.30    0.47
   9  -2   2    1.97    0.39
   9  -2   2    2.55    0.51
   9   1  -2    0.77    0.38
   9   1  -2    0.67    0.37
  -9  -1   2    1.52    0.45
  -9  -1   2    0.82    0.34
   8   1  -2   96.20    2.14
   8   1  -2   96.71    2.45
   8   1  -2   98.47    2.42
  -8  -1   2   90.75    2.40
  -8  -1   2   94.55    2.15
  -8  -1   2   99.66    2.45
   7   1  -2    9.27    0.71
   7   1  -2    9.46    0.52
   7   1  -2    8.04    0.65
  -7  -1   2    9.02    0.69
  -7  -1   2    8.40    0.71
   6   1  -2   98.33    2.08
   6   1  -2  100.50    2.26
   6   1  -2   96.84    2.25
  -6  -1   2  100.08    2.26
  -6  -1   2   99.69    2.28
  -6  -1   2  100.43    2.09
   5   1  -2   26.68    0.72
   5   1  -2   25.46    0.87
   5   1  -2   27.01    0.84
  -5  -1   2   27.91    0.87
  -5  -1   2   27.11    0.88
  -5  -1   2   27.34    0.72
   4   1  -2  192.33    3.68
   4   1  -2  188.50    3.57
  -4  -1   2  187.42    3.57
  -4  -1   2  186.76    3.69
  -4  -1   2  190.68    3.69
   3   1  -2   77.40    1.54
   3   1  -2   77.59    1.61
   3   1  -2   77.63    1.63
  -3  -1   2   77.99    1.54
  -3  -1   2   78.23    1.63
  -3  -1   2   76.98    1.63
   2   1  -2  399.73    7.16
   2   1  -2  397.19    7.23
   2   1  -2  394.42    7.20
  -2  -1   2  392.99    7.21
  -2  -1   2  395.87    7.25
  -2  -1   2  390.32    7.16
   1   1  -2  264.61    4.78
   1   1  -2  259.75    4.73
   1   1  -2  260.76    4.73
  -1  -1   2  258.86    4.73
  -1  -1   2  253.56    4.73
  -1  -1   2  259.64    4.78
   0  -1   2    1.20    0.12
   0  -1   2    1.18    0.12
   0  -1   2    1.50    0.10
  -1   1  -2    0.87    0.10
  -1   1  -2    0.67    0.11
   1  -1   2    0.70    0.10
   1  -1   2    0.78    0.12
  -2   1  -2  288.37    5.25
  -2   1  -2  285.55    5.28
   2  -1   2  287.63    5.27
   2  -1   2  284.17    5.28
   2  -1   2  286.66    5.25
  -3   1  -2  115.24    2.28
  -3   1  -2  114.92    2.27
  -3   1  -2  114.87    2.28
   3  -1   2  113.91    2.27
   3  -1   2  115.19    2.29
   3  -1   2  115.55    2.25
  -4   1  -2  464.08    8.47
  -4   1  -2  457.87    8.42
  -4   1  -2  463.92    8.47
   4  -1   2  457.45    8.41
   4  -1   2  448.28    8.48
   4  -1   2  460.34    8.47
  -5   1  -2    5.10    0.34
  -5   1  -2    4.40    0.41
  -5   1  -2    3.91    0.57
   5  -1   2    4.43    0.34
   5  -1   2    4.64    0.39
   5  -1   2    4.09    0.40
  -6   1  -2  114.46    2.40
  -6   1  -2  115.11    2.49
  -6   1  -2  112.86    2.50
   6  -1   2  115.08    2.51
   6  -1   2  116.63    2.51
   6  -1   2  111.86    2.37
  -7   1  -2   11.99    0.73
  -7   1  -2   12.78    0.62
  -7   1  -2   11.47    0.72
   7  -1   2   11.82    0.59
   7  -1   2   11.65    0.71
   7  -1   2   12.24    0.73
  -8   1  -2   58.36    1.71
  -8   1  -2   57.18    1.53
  -8   1  -2   55.94    1.68
   8  -1   2   59.62    1.69
   8  -1   2   59.87    1.52
   8  -1   2   56.23    1.72
  -9   1  -2    0.07    0.35
  -9   1  -2    0.28    0.39
   9  -1   2   -0.20    0.30
   9  -1   2    0.16    0.37
   9   0  -2    2.91    0.35
   9   0  -2    3.23    0.52
  -9   0   2    3.57    0.40
  -9   0   2    2.87    0.54
   8   0  -2   15.99    0.69
   8   0  -2   15.28    1.02
   8   0  -2   16.14    0.96
  -8   0   2   17.37    0.76
  -8   0   2   12.78    0.99
  -8   0   2   16.09    0.98
   7   0  -2   34.78    1.18
   7   0  -2   35.98    1.19
   7   0  -2   35.42    0.95
  -7   0   2   35.76    1.20
  -7   0   2   35.13    1.22
  -7   0   2   36.00    0.96
   6   0  -2  161.36    3.32
   6   0  -2  156.86    3.31
   6   0  -2  156.77    3.08
  -6   0   2  158.73    3.34
  -6   0   2  157.46    3.31
  -6   0   2  156.60    3.09
   5   0  -2   36.80    1.04
   5   0  -2   36.51    1.02
   5   0  -2   37.38    0.87
  -5   0   2   36.33    1.05
  -5   0   2   36.40    1.03
  -5   0   2   37.72    0.87
   4   0  -2  180.22    3.39
   4   0  -2  186.49    3.63
   4   0  -2  179.87    3.54
  -4   0   2  177.26    3.53
  -4   0   2  177.16    3.39
  -4   0   2  185.10    3.56
   3   0  -2  362.69    6.69
   3   0  -2  363.14    6.70
   3   0  -2  364.80    6.57
  -3   0   2  356.73    6.70
  -3   0   2  357.98    6.57
  -3   0   2  367.60    6.70
   1   0  -2  209.22    3.83
   1   0  -2  207.85    3.88
   1   0  -2  218.26    3.89
  -1   0   2  206.84    3.88
  -1   0   2  214.01    3.89
  -1   0   2  209.10    3.83
  -1   0  -2  104.00    1.96
  -1   0  -2  102.12    1.97
  -1   0  -2  103.05    1.95
   1   0   2  104.22    1.95
   1   0   2  104.32    1.97
   1   0   2  105.58    1.96
  -2   0  -2  325.33    5.92
  -2   0  -2  326.17    5.91
  -2   0  -2  323.54    5.93
   2   0   2  324.38    5.93
   2   0   2  319.71    5.92
   2   0   2  324.54    5.91
  -3   0  -2   46.60    1.06
  -3   0  -2   47.53    1.06
  -3   0  -2   47.68    1.07
   3   0   2   49.17    1.08
   3   0   2   47.61    1.06
   3   0   2   49.08    1.05
  -4   0  -2  313.82    5.86
  -4   0  -2  312.56    5.83
  -4   0  -2  313.95    5.89
   4   0   2  311.10    5.83
   4   0   2  315.88    5.90
   4   0   2  313.93    5.87
  -5   0  -2   13.23    0.54
  -5   0  -2   13.10    0.50
  -5   0  -2   13.12    0.57
   5   0   2   12.92    0.54
   5   0   2   12.86    0.59
   5   0   2   13.30    0.51
  -6   0  -2   84.86    2.09
  -6   0  -2   88.52    2.05
  -6   0  -2   91.09    2.02
   6   0   2   89.00    1.93
   6   0   2   89.82    2.05
   6   0   2   88.58    2.02
  -7   0  -2    1.36    0.25
  -7   0  -2    1.49    0.32
  -7   0  -2    1.96    0.30
   7   0   2    1.88    0.31
   7   0   2    1.05    0.27
   7   0   2    1.62    0.25
  -8   0  -2   32.50    1.09
  -8   0  -2   31.96    1.22
  -8   0  -2   33.55    1.25
   8   0   2   30.92    1.23
   8   0   2   33.36    1.20
   8   0   2   29.59    1.23
  -9   0  -2    5.51    0.73
  -9   0  -2    4.90    0.82
   9   0   2    4.75    0.78
   9   0   2    5.01    0.65
   9  -1  -2    9.96    0.64
   9  -1  -2   10.19    0.97
  -9   1   2   10.39    0.81
  -9   1   2   10.13    1.02
   8  -1  -2   19.83    0.72
   8  -1  -2   22.21    1.67
   8  -1  -2   19.59    1.01
  -8   1   2   19.65    0.73
  -8   1   2   20.34    1.06
   7  -1  -2   28.70    1.06
   7  -1  -2   27.71    0.78
   7  -1  -2   27.96    1.07
  -7   1   2   26.54    0.78
  -7   1   2   27.54    1.07
  -7   1   2   27.89    1.07
   6  -1  -2  141.07    2.97
   6  -1  -2  138.30    2.97
   6  -1  -2  136.89    2.69
  -6   1   2  139.10    2.71
  -6   1   2  137.86    2.97
  -6   1   2  138.28    2.99
   5  -1  -2   37.72    1.04
   5  -1  -2   36.80    1.03
   5  -1  -2   36.02    0.83
  -5   1   2   36.85    1.05
  -5   1   2   35.20    0.85
  -5   1   2   36.96    1.03
   4  -1  -2  229.41    4.31
   4  -1  -2  220.23    4.10
   4  -1  -2  223.85    4.30
  -4   1   2  225.53    4.32
  -4   1   2  222.39    4.30
  -4   1   2  218.33    4.11
   3  -1  -2   74.07    1.39
   3  -1  -2   72.70    1.55
   3  -1  -2   72.05    1.54
  -3   1   2   71.46    1.55
  -3   1   2   74.21    1.55
  -3   1   2   73.90    1.39
   2  -1  -2  523.56    9.46
  -2   1   2  520.22    9.46
  -2   1   2  520.67    9.48
  -1  -1  -2   32.09    0.61
  -1  -1  -2   31.27    0.67
  -1  -1  -2   31.88    0.66
   1   1   2   31.27    0.68
   1   1   2   31.99    0.67
   1   1   2   29.20    0.61
  -2  -1  -2  294.23    5.33
  -2  -1  -2  290.64    5.37
  -2  -1  -2  294.00    5.38
   2   1   2  290.85    5.33
   2   1   2  289.91    5.39
   2   1   2  295.03    5.37
  -3  -1  -2   61.98    1.30
  -3  -1  -2   61.02    1.28
   3   1   2   61.77    1.30
   3   1   2   60.13    1.27
   3   1   2   60.14    1.32
  -4  -1  -2  328.80    6.14
  -4  -1  -2  330.84    6.20
  -4  -1  -2  329.18    6.14
   4   1   2  329.66    6.15
   4   1   2  328.13    6.14
   4   1   2  336.79    6.21
  -5  -1  -2    1.95    0.30
  -5  -1  -2    1.89    0.27
  -5  -1  -2    1.51    0.22
   5   1   2    1.76    0.29
   5   1   2    2.00    0.29
  -6  -1  -2   78.94    1.81
  -6  -1  -2   81.82    1.83
  -6  -1  -2   78.22    1.88
   6   1   2   78.43    1.82
   6   1   2   79.45    1.78
   6   1   2   77.80    1.87
  -7  -1  -2   34.26    1.14
  -7  -1  -2   34.10    1.02
  -7  -1  -2   34.90    1.10
   7   1   2   33.72    1.01
   7   1   2   32.71    1.12
   7   1   2   32.33    1.26
  -8  -1  -2   53.57    1.59
  -8  -1  -2   50.91    1.45
  -8  -1  -2   52.67    1.56
   8   1   2   51.51    1.62
   8   1   2   52.13    1.53
   8   1   2   52.43    1.49
  -9  -1  -2    2.39    0.40
  -9  -1  -2    2.57    0.47
   9   1   2    2.09    0.41
   9   1   2    2.22    0.35
   9  -2  -2    6.32    0.56
   9  -2  -2    6.13    0.94
  -9   2   2    4.38    0.61
   8  -2  -2   16.30    0.72
   8  -2  -2   14.41    0.97
  -8   2   2   18.40    1.03
   7  -2  -2   20.96    0.94
   7  -2  -2   20.10    0.93
   7  -2  -2   19.66    0.62
  -7   2   2   19.66    0.93
  -7   2   2   20.93    0.95
   6  -2  -2   53.26    1.16
   6  -2  -2   56.51    1.48
   6  -2  -2   52.22    1.52
  -6   2   2   52.70    1.47
  -6   2   2   52.68    1.26
  -6   2   2   56.12    1.51
   5  -2  -2    2.79    0.41
   5  -2  -2    3.23    0.40
   5  -2  -2    3.06    0.23
  -5   2   2    3.20    0.23
  -5   2   2    2.90    0.42
  -5   2   2    3.53    0.42
   4  -2  -2   90.10    1.90
   4  -2  -2   86.27    1.66
   4  -2  -2   88.33    1.90
  -4   2   2   88.36    1.90
  -4   2   2   86.99    1.68
   3  -2  -2   40.24    0.98
   3  -2  -2   39.20    0.98
  -3   2   2   47.17    1.03
  -3   2   2   40.13    0.99
   2  -2  -2  113.75    2.41
   2  -2  -2  120.77    2.31
  -2   2   2  122.07    2.34
  -2   2   2  120.15    2.32
   0   2   2  427.18    7.77
  -1  -2  -2    0.10    0.06
   1   2   2    0.16    0.06
   1   2   2    0.16    0.07
  -2  -2  -2  355.69    6.50
  -2  -2  -2  348.05    6.40
  -2  -2  -2  370.91    6.58
   2   2   2  353.17    6.41
   2   2   2  349.68    6.50
   2   2   2  347.89    6.48
  -3  -2  -2  352.09    6.50
  -3  -2  -2  360.26    6.47
  -3  -2  -2  350.31    6.41
   3   2   2  343.58    6.46
   3   2   2  347.57    6.41
   3   2   2  349.09    6.49
  -4  -2  -2  552.75   10.29
  -4  -2  -2  566.22   10.25
  -4  -2  -2  555.89   10.21
   4   2   2  556.42   10.22
   4   2   2  563.05   10.26
   4   2   2  565.46   10.31
  -5  -2  -2    0.86    0.19
  -5  -2  -2    1.77    0.28
  -5  -2  -2    0.96    0.16
   5   2   2    1.16    0.18
   5   2   2    0.89    0.22
   5   2   2    1.17    0.18
  -6  -2  -2  208.80    4.18
  -6  -2  -2  205.96    4.08
  -6  -2  -2  202.49    4.08
   6   2   2  211.08    4.09
   6   2   2  206.63    4.10
   6   2   2  207.75    4.18
  -7  -2  -2   -0.06    0.21
  -7  -2  -2   -0.38    0.22
   7   2   2    0.16    0.26
   7   2   2    0.06    0.20
   7   2   2    0.14    0.22
  -8  -2  -2  112.03    2.68
  -8  -2  -2  111.66    2.51
  -8  -2  -2  111.90    2.58
   8   2   2  111.42    2.58
   8   2   2  105.90    2.66
   8   2   2  111.48    2.50
  -9  -2  -2    0.25    0.37
  -9  -2  -2    0.74    0.36
   9   2   2    0.50    0.30
   9   2   2    0.09    0.34
   9  -3  -2    3.30    0.58
  -9   3   2    6.46    1.07
   8  -3  -2   18.90    0.63
   8  -3  -2   21.30    1.08
  -8   3   2   17.96    1.06
   7  -3  -2   21.99    0.62
   7  -3  -2   22.62    0.99
   7  -3  -2   23.19    1.00
  -7   3   2   21.46    0.98
  -7   3   2   22.52    1.08
   6  -3  -2   37.23    0.84
   6  -3  -2   36.49    1.23
   6  -3  -2   38.67    1.18
  -6   3   2   33.95    1.65
  -6   3   2   39.63    1.21
   5  -3  -2   16.47    0.68
   5  -3  -2   16.26    0.70
   5  -3  -2   16.36    0.43
  -5   3   2   16.14    0.70
  -5   3   2   16.09    0.71
   4  -3  -2  138.76    2.82
   4  -3  -2  137.51    2.80
   4  -3  -2  137.29    2.54
   4  -3  -2  135.96    2.55
  -4   3   2  137.25    2.81
  -4   3   2  141.19    2.83
   3  -3  -2   68.79    1.50
   3  -3  -2   69.66    1.51
  -3   3   2   66.82    1.50
  -3   3   2   70.18    1.50
   2  -3  -2  206.19    3.91
   2  -3  -2  207.63    3.88
  -2   3   2  210.85    3.90
  -2   3   2  201.06    3.91
   1  -3  -2   97.85    1.82
   1  -3  -2   98.83    1.88
  -1   3   2   97.55    1.94
  -1   3   2   96.96    1.88
  -1   3   2   97.68    1.82
   0  -3  -2  406.15    7.29
   0   3   2  405.83    7.29
   0   3   2  397.42    7.37
  -1  -3  -2   65.17    1.28
  -1  -3  -2   57.03    1.20
  -1  -3  -2   63.96    1.18
  -1  -3  -2   64.64    1.30
   1   3   2   61.76    1.29
   1   3   2   64.77    1.28
  -2  -3  -2  707.41   12.71
  -2  -3  -2  689.02   12.69
   2   3   2  708.72   12.70
  -3  -3  -2   12.59    0.44
  -3  -3  -2   11.87    0.36
   3   3   2   11.92    0.38
   3   3   2   11.90    0.44
   3   3   2   11.40    0.45
  -4  -3  -2  508.51    9.35
  -4  -3  -2  511.59    9.31
  -4  -3  -2  500.65    9.23
   4   3   2  508.08    9.25
   4   3   2  504.64    9.31
   4   3   2  500.34    9.34
  -5  -3  -2    1.63    0.28
  -5  -3  -2    1.17    0.21
   5   3   2    2.40    0.33
   5   3   2    2.07    0.29
   5   3   2    1.48    0.23
  -6  -3  -2   75.00    1.75
  -6  -3  -2   74.73    1.73
  -6  -3  -2   75.05    1.83
   6   3   2   74.83    1.83
   6   3   2   73.91    1.75
   6   3   2   76.81    1.75
  -7  -3  -2    3.97    0.51
  -7  -3  -2    2.59    0.35
  -7  -3  -2    3.65    0.53
   7   3   2    2.76    0.33
   7   3   2    2.58    0.37
   7   3   2    2.30    0.47
  -8  -3  -2   84.50    2.20
  -8  -3  -2   86.61    2.08
  -8  -3  -2   85.50    2.11
   8   3   2   84.20    2.10
   8   3   2   86.28    2.07
   8   3   2   80.90    2.22
  -9  -3  -2   -0.16    0.36
  -9  -3  -2    0.11    0.37
   9   3   2    0.53    0.36
   9   3   2   -0.12    0.31
  -9   4   2    4.19    0.65
   8  -4  -2    6.46    0.85
  -8   4   2    5.53    0.84
   7  -4  -2   30.11    0.74
   7  -4  -2   33.61    1.21
   7  -4  -2   30.22    0.73
   7  -4  -2   31.11    1.17
  -7   4   2   32.13    1.20
  -7   4   2   30.57    1.21
   6  -4  -2  108.94    2.14
   6  -4  -2  110.54    2.15
   6  -4  -2  113.13    2.57
   6  -4  -2  114.92    2.58
  -6   4   2  115.55    2.65
  -6   4   2  112.43    2.57
   5  -4  -2   36.76    1.08
   5  -4  -2   34.92    1.09
   5  -4  -2   35.10    0.75
  -5   4   2   35.96    1.09
  -5   4   2   35.94    1.09
   4  -4  -2   96.74    2.10
   4  -4  -2   97.24    1.80
   4  -4  -2   94.73    1.80
   4  -4  -2   95.32    2.12
  -4   4   2   94.66    2.32
  -4   4   2   98.85    2.10
   3  -4  -2   48.76    1.24
   3  -4  -2   50.49    1.19
   3  -4  -2   49.85    0.97
   3  -4  -2   49.68    0.96
  -3   4   2   48.19    1.18
  -3   4   2   50.98    1.18
   2  -4  -2  107.35    2.00
   2  -4  -2  107.39    2.14
  -2   4   2  103.86    2.01
  -2   4   2  108.36    2.17
  -2   4   2  107.74    2.14
   1  -4  -2  279.77    5.00
   1  -4  -2  272.68    5.01
  -1   4   2  265.42    4.95
  -1   4   2  268.49    5.00
  -1   4   2  270.16    5.06
   0  -4  -2  397.05    7.03
   0  -4  -2  386.56    7.06
   0   4   2  382.46    7.06
   0   4   2  382.82    7.13
   0   4   2  391.91    7.04
  -1  -4  -2   92.60    1.76
  -1  -4  -2   92.53    1.88
  -1  -4  -2   95.20    1.88
   1   4   2   93.36    1.86
   1   4   2   93.34    1.96
  -2  -4  -2  311.63    5.84
  -2  -4  -2  321.99    5.96
  -2  -4  -2  332.67    5.97
   2   4   2  323.94    5.96
   2   4   2  317.31    5.96
  -3  -4  -2  297.66    5.52
  -3  -4  -2  309.55    5.65
  -3  -4  -2  298.15    5.63
   3   4   2  295.24    5.54
   3   4   2  297.46    5.64
   3   4   2  305.98    5.65
  -4  -4  -2   85.83    1.89
  -4  -4  -2   87.98    1.91
  -4  -4  -2   88.20    1.80
   4   4   2   87.72    1.90
   4   4   2   89.75    1.82
   4   4   2   89.90    1.93
  -5  -4  -2   64.97    1.52
  -5  -4  -2   65.09    1.45
  -5  -4  -2   64.37    1.57
   5   4   2   66.80    1.48
   5   4   2   63.57    1.57
   5   4   2   65.55    1.54
  -6  -4  -2  164.89    3.41
  -6  -4  -2  170.75    3.50
  -6  -4  -2  165.84    3.44
   6   4   2  166.66    3.43
   6   4   2  166.20    3.37
   6   4   2  167.04    3.49
  -7  -4  -2   40.83    1.21
  -7  -4  -2   42.05    1.31
  -7  -4  -2   39.39    1.22
   7   4   2   40.47    1.23
   7   4   2   43.16    1.32
   7   4   2   41.13    1.21
  -8  -4  -2   80.14    2.00
  -8  -4  -2   75.37    2.11
  -8  -4  -2   79.58    2.12
   8   4   2   81.56    2.33
   8   4   2   80.26    2.01
   8   4   2   78.99    1.99
  -9  -4  -2    0.78    0.42
   9   4   2    1.54    0.37
   9   4   2    1.19    0.38
   8  -5  -2    9.07    0.97
  -8   5   2    9.99    0.96
   7  -5  -2   17.65    0.99
   7  -5  -2   17.09    0.98
  -7   5   2   18.47    0.99
   6  -5  -2  154.55    3.35
   6  -5  -2  153.55    3.31
  -6   5   2  153.10    3.33
  -6   5   2  153.84    3.33
   5  -5  -2  130.80    2.80
   5  -5  -2  129.98    2.83
  -5   5   2  130.95    2.82
  -5   5   2  129.71    2.80
   4  -5  -2   78.33    1.51
   4  -5  -2   79.68    1.82
   4  -5  -2   77.85    1.51
   4  -5  -2   75.73    1.91
  -4   5   2   80.57    1.81
  -4   5   2   79.20    1.80
   3  -5  -2   45.14    0.92
   3  -5  -2   43.63    1.13
  -3   5   2   45.45    1.12
  -3   5   2   45.94    1.13
   2  -5  -2  351.43    6.38
   2  -5  -2  339.28    6.23
  -2   5   2  335.32    6.26
  -2   5   2  347.81    6.37
  -2   5   2  339.13    6.39
   1  -5  -2  195.72    3.59
   1  -5  -2  193.41    3.55
  -1   5   2  190.18    3.64
  -1   5   2  188.67    3.55
  -1   5   2  184.95    3.61
  -1   5   2  186.10    3.66
   0  -5  -2  414.73    7.59
   0  -5  -2  421.35    7.54
   0   5   2  415.69    7.63
   0   5   2  414.80    7.58
   0   5   2  406.44    7.55
  -1  -5  -2   61.90    1.34
  -1  -5  -2   61.21    1.31
  -1  -5  -2   60.28    1.21
   1   5   2   59.35    1.31
   1   5   2   61.36    1.31
  -2  -5  -2  599.76   11.04
  -2  -5  -2  610.90   11.16
  -2  -5  -2  631.75   11.18
   2   5   2  614.49   11.16
   2   5   2  601.89   11.17
  -3  -5  -2  284.67    5.34
  -3  -5  -2  293.94    5.49
  -3  -5  -2  289.09    5.47
   3   5   2  290.77    5.49
   3   5   2  291.79    5.48
  -4  -5  -2  179.68    3.53
  -4  -5  -2  175.35    3.39
  -4  -5  -2  173.39    3.52
   4   5   2  178.07    3.53
   4   5   2  178.48    3.43
   4   5   2  177.79    3.53
  -5  -5  -2   32.28    0.97
  -5  -5  -2   31.14    0.98
  -5  -5  -2   32.39    0.86
   5   5   2   32.80    1.00
   5   5   2   32.20    0.89
   5   5   2   30.38    0.96
  -6  -5  -2  163.69    3.41
  -6  -5  -2  170.17    3.48
  -6  -5  -2  162.44    3.74
   6   5   2  169.53    3.52
   6   5   2  170.22    3.40
  -7  -5  -2  101.06    2.36
  -7  -5  -2   98.53    2.28
  -7  -5  -2  102.14    2.42
   7   5   2  103.29    2.31
   7   5   2  101.71    2.44
   7   5   2  102.83    2.37
  -8  -5  -2   56.39    1.69
  -8  -5  -2   52.44    1.61
  -8  -5  -2   52.87    1.57
   8   5   2   55.72    1.57
   8   5   2   54.02    1.58
  -9  -5  -2    8.88    0.96
   9   5   2    9.96    0.86
   9   5   2    9.91    0.85
   8  -6  -2    3.92    0.56
  -8   6   2    3.20    0.54
   7  -6  -2   19.89    1.05
   7  -6  -2   19.47    1.06
  -7   6   2   23.02    1.10
   6  -6  -2   24.41    1.05
   6  -6  -2   25.21    1.00
  -6   6   2   26.19    1.04
  -6   6   2   25.11    1.07
   5  -6  -2   25.96    0.94
   5  -6  -2   25.32    0.97
   5  -6  -2   26.01    0.60
  -5   6   2   26.96    0.95
  -5   6   2   24.49    1.19
   4  -6  -2   45.79    0.98
   4  -6  -2   45.47    0.97
   4  -6  -2   47.74    1.28
  -4   6   2   46.56    1.24
  -4   6   2   47.28    1.27
   3  -6  -2   88.04    1.73
   3  -6  -2   88.67    1.95
  -3   6   2   88.52    1.93
   2  -6  -2  280.62    5.24
   2  -6  -2  283.95    5.28
  -2   6   2  282.72    5.28
  -2   6   2  271.07    5.17
  -2   6   2  276.05    5.28
   1  -6  -2  148.15    2.84
   1  -6  -2  147.63    2.80
  -1   6   2  145.06    2.81
  -1   6   2  144.45    2.88
  -1   6   2  143.49    2.90
  -1   6   2  144.36    2.84
   0  -6  -2  134.32    2.63
   0  -6  -2  132.78    2.59
   0   6   2  135.09    2.67
   0   6   2  131.40    2.63
   0   6   2  138.99    2.88
  -1  -6  -2   67.54    1.48
  -1  -6  -2   66.47    1.36
  -1  -6  -2   67.61    1.46
   1   6   2   66.02    1.44
   1   6   2   65.79    1.46
  -2  -6  -2  168.06    3.28
  -2  -6  -2  167.90    3.27
  -2  -6  -2  164.50    3.14
  -2  -6  -2  164.02    3.14
   2   6   2  166.24    3.28
   2   6   2  166.68    3.24
  -3  -6  -2   55.96    1.31
  -3  -6  -2   53.90    1.48
  -3  -6  -2   54.51    1.27
   3   6   2   54.78    1.33
   3   6   2   56.04    1.31
  -4  -6  -2   73.23    1.71
  -4  -6  -2   73.95    1.56
  -4  -6  -2   74.67    1.70
   4   6   2   70.81    1.70
  -5  -6  -2   11.63    0.51
  -5  -6  -2   11.14    0.63
  -5  -6  -2   11.67    0.62
   5   6   2   11.67    0.55
   5   6   2   10.44    0.61
   5   6   2   12.48    0.66
  -6  -6  -2  150.17    3.11
  -6  -6  -2  154.82    3.25
  -6  -6  -2  152.63    3.34
   6   6   2  154.17    3.15
   6   6   2  151.61    3.24
   6   6   2  152.59    3.28
  -7  -6  -2   45.50    1.41
  -7  -6  -2   44.28    1.38
  -7  -6  -2   43.49    1.27
   7   6   2   44.84    1.30
   7   6   2   44.87    1.36
   7   6   2   44.93    1.45
  -8  -6  -2   35.46    1.27
  -8  -6  -2   35.37    1.35
   8   6   2   34.85    1.27
   8   6   2   36.84    1.24
  -9  -6  -2   13.18    1.10
   9   6   2   13.86    0.97
   9   6   2   12.15    0.96
   7  -7  -2   38.56    1.48
  -7   7   2   37.23    1.42
   6  -7  -2    5.46    0.71
   6  -7  -2    6.05    0.72
  -6   7   2    6.18    0.80
  -6   7   2    5.50    0.70
   5  -7  -2   71.32    1.42
   5  -7  -2   74.60    1.87
   5  -7  -2   71.54    1.42
  -5   7   2   64.60    2.30
  -5   7   2   73.12    1.84
   4  -7  -2   19.58    0.55
   4  -7  -2   19.45    0.81
   4  -7  -2   18.05    0.71
  -4   7   2   19.17    0.76
  -4   7   2   19.50    0.80
   3  -7  -2   75.65    1.75
   3  -7  -2   73.86    1.54
  -3   7   2   75.33    1.74
  -3   7   2   75.32    1.72
   2  -7  -2  135.35    2.73
   2  -7  -2  135.09    2.60
  -2   7   2  130.67    2.75
  -2   7   2  132.47    2.63
  -2   7   2  134.32    2.72
  -2   7   2  131.90    2.71
   1  -7  -2  164.99    3.18
   1  -7  -2  165.12    3.21
  -1   7   2  162.15    3.25
  -1   7   2  162.82    3.25
  -1   7   2  165.94    3.23
  -1   7   2  162.82    3.23
   0  -7  -2   71.72    1.54
   0  -7  -2   74.33    1.59
   0   7   2   72.22    1.59
   0   7   2   74.52    1.60
   0   7   2   73.12    1.57
  -1  -7  -2   67.96    1.55
  -1  -7  -2   68.11    1.53
  -1  -7  -2   67.41    1.42
   1   7   2   68.38    1.54
   1   7   2   69.07    1.49
  -2  -7  -2   81.97    1.69
  -2  -7  -2   82.82    1.68
  -2  -7  -2   79.58    1.94
  -2  -7  -2   84.11    1.80
   2   7   2   80.82    1.82
   2   7   2   82.29    1.77
  -3  -7  -2   95.71    1.99
  -3  -7  -2   99.09    1.99
  -3  -7  -2   97.58    2.11
  -3  -7  -2   99.95    2.15
   3   7   2   98.29    2.15
   3   7   2   98.55    2.11
  -4  -7  -2  121.74    2.45
  -4  -7  -2  124.12    2.64
  -4  -7  -2  123.55    2.60
   4   7   2  121.52    2.63
   4   7   2  121.23    2.59
  -5  -7  -2   44.04    1.26
  -5  -7  -2   44.22    1.12
  -5  -7  -2   44.74    1.28
   5   7   2   43.53    1.27
   5   7   2   45.37    1.57
  -6  -7  -2   25.22    0.99
  -6  -7  -2   26.34    1.00
  -6  -7  -2   24.39    0.84
   6   7   2   26.26    1.03
  -7  -7  -2   22.78    1.24
  -7  -7  -2   20.38    0.97
  -7  -7  -2   22.39    0.91
   7   7   2   20.34    0.96
   7   7   2   21.61    0.91
   7   7   2   20.46    1.05
  -8  -7  -2   31.29    1.29
  -8  -7  -2   29.55    1.21
   8   7   2   29.31    1.18
   8   7   2   29.93    1.23
  -9  -7  -2    2.33    0.56
   7  -8  -2    6.39    1.02
  -7   8   2    5.73    0.94
   6  -8  -2   19.74    1.03
  -6   8   2   16.70    0.95
   5  -8  -2   25.81    0.67
   5  -8  -2   27.41    1.09
  -5   8   2   27.14    1.06
  -5   8   2   25.80    1.01
   4  -8  -2   13.54    0.76
   4  -8  -2   12.77    0.48
   4  -8  -2   13.50    0.48
  -4   8   2   12.67    0.69
  -4   8   2   12.58    0.72
   3  -8  -2   49.40    1.14
   3  -8  -2   50.62    1.34
  -3   8   2   49.76    1.29
  -3   8   2   51.60    1.34
   2  -8  -2   41.05    1.10
   2  -8  -2   41.38    1.00
  -2   8   2   39.52    1.03
  -2   8   2   38.98    1.09
  -2   8   2   39.03    1.10
  -2   8   2   40.33    1.07
   1  -8  -2  115.19    2.37
   1  -8  -2  113.29    2.33
  -1   8   2  115.03    2.38
  -1   8   2  110.89    2.38
  -1   8   2  114.36    2.36
  -1   8   2  116.93    2.39
   0  -8  -2   63.00    1.44
   0  -8  -2   61.34    1.38
   0   8   2   60.99    1.42
   0   8   2   63.02    1.42
   0   8   2   61.12    1.44
  -1  -8  -2   63.22    1.49
  -1  -8  -2   62.66    1.37
   1   8   2   62.74    1.43
   1   8   2   63.21    1.49
  -2  -8  -2    6.18    0.53
  -2  -8  -2    6.47    0.38
  -2  -8  -2    6.00    0.45
  -2  -8  -2    6.07    0.35
   2   8   2    5.89    0.48
   2   8   2    6.33    0.42
  -3  -8  -2  216.43    4.25
  -3  -8  -2  209.78    4.06
  -3  -8  -2  210.52    4.06
  -3  -8  -2  215.08    4.20
   3   8   2  211.33    4.24
  -4  -8  -2  182.23    3.65
  -4  -8  -2  183.66    3.72
  -4  -8  -2  174.70    3.51
  -4  -8  -2  179.76    3.50
   4   8   2  182.02    3.72
   4   8   2  174.76    3.63
  -5  -8  -2   21.40    0.90
  -5  -8  -2   20.19    0.85
  -5  -8  -2   20.29    0.71
   5   8   2   18.99    0.91
   5   8   2   19.93    0.86
  -6  -8  -2   36.06    1.08
  -6  -8  -2   37.59    1.22
  -6  -8  -2   37.04    1.26
   6   8   2   34.81    1.26
   6   8   2   37.02    1.23
  -7  -8  -2   32.52    1.14
  -7  -8  -2   34.23    1.23
   7   8   2   29.53    1.34
   7   8   2   31.99    1.21
  -8  -8  -2   24.67    1.19
  -8  -8  -2   23.64    1.09
   8   8   2   23.64    1.18
   6  -9  -2    1.79    0.45
  -6   9   2    2.48    0.48
   5  -9  -2   24.88    1.10
   5  -9  -2   22.36    0.66
   5  -9  -2   22.27    0.68
  -5   9   2   21.92    0.99
  -5   9   2   25.46    1.32
   4  -9  -2   11.09    0.53
   4  -9  -2   11.31    0.74
   4  -9  -2   10.48    0.52
  -4   9   2   10.68    0.90
  -4   9   2   11.89    0.76
   3  -9  -2   48.67    1.15
   3  -9  -2   46.30    1.54
  -3   9   2   46.96    1.34
  -3   9   2   43.95    1.31
  -3   9   2   47.72    1.26
   2  -9  -2   21.23    0.72
   2  -9  -2   20.71    0.79
  -2   9   2   21.45    0.81
  -2   9   2   20.57    0.74
  -2   9   2   22.18    0.76
   1  -9  -2  101.41    2.39
   1  -9  -2  109.73    2.27
  -1   9   2  105.10    2.26
  -1   9   2  107.57    2.25
  -1   9   2  103.41    2.45
  -1   9   2  107.25    2.27
   0  -9  -2   38.73    0.99
   0  -9  -2   35.67    1.03
   0   9   2   36.07    1.01
   0   9   2   36.01    1.03
   0   9   2   35.91    0.99
   0   9   2   38.01    1.04
  -1  -9  -2  106.98    2.20
  -1  -9  -2  108.68    2.33
   1   9   2  105.93    2.24
   1   9   2  105.16    2.33
  -2  -9  -2  134.05    2.84
  -2  -9  -2  135.97    2.88
  -2  -9  -2  134.27    2.73
  -2  -9  -2  135.59    2.70
   2   9   2  135.12    2.88
   2   9   2  136.71    2.78
  -3  -9  -2  146.35    2.90
  -3  -9  -2  146.29    2.90
  -3  -9  -2  145.72    3.11
  -3  -9  -2  147.28    3.04
   3   9   2  141.65    2.99
   3   9   2  144.63    3.10
  -4  -9  -2   60.59    1.44
  -4  -9  -2   61.93    1.44
  -4  -9  -2   62.89    1.59
  -4  -9  -2   63.74    1.68
   4   9   2   62.90    1.59
   4   9   2   62.03    1.66
  -5  -9  -2   21.99    1.20
  -5  -9  -2   26.58    1.09
  -5  -9  -2   27.59    0.87
  -5  -9  -2   27.25    1.04
   5   9   2   28.58    1.07
   5   9   2   26.38    1.04
  -6  -9  -2   54.69    1.46
  -6  -9  -2   57.43    1.61
   6   9   2   54.80    1.69
   6   9   2   57.09    1.65
  -7  -9  -2   22.33    1.00
  -7  -9  -2   22.74    1.06
   7   9   2   20.60    1.09
  -8  -9  -2   19.72    1.18
   5 -10  -2   13.37    0.98
  -5  10   2   12.68    0.89
   4 -10  -2   10.77    0.78
   4 -10  -2   10.63    0.60
  -4  10   2   11.48    0.87
  -4  10   2   10.79    0.91
  -4  10   2   11.46    0.92
   3 -10  -2   38.69    1.23
  -3  10   2   37.53    1.12
  -3  10   2   36.74    1.23
  -3  10   2   37.97    1.23
   2 -10  -2   79.59    1.89
   2 -10  -2   77.05    1.77
  -2  10   2   77.57    1.82
  -2  10   2   76.37    1.83
  -2  10   2   79.34    1.90
  -2  10   2   77.66    1.79
   1 -10  -2   73.23    1.72
   1 -10  -2   74.06    1.72
  -1  10   2   69.21    1.85
  -1  10   2   72.14    1.67
  -1  10   2   72.59    1.75
  -1  10   2   72.94    1.73
   0 -10  -2   47.71    1.32
   0 -10  -2   49.27    1.24
   0  10   2   48.80    1.23
   0  10   2   48.33    1.31
   0  10   2   48.52    1.24
  -1 -10  -2   18.63    0.82
  -1 -10  -2   19.01    0.67
   1  10   2   16.91    1.14
   1  10   2   18.58    0.73
  -2 -10  -2   52.07    1.33
  -2 -10  -2   56.01    1.32
  -2 -10  -2   54.59    1.49
   2  10   2   56.07    1.42
   2  10   2   55.39    1.49
  -3 -10  -2   82.24    1.93
  -3 -10  -2   79.65    1.76
  -3 -10  -2   77.16    1.77
  -3 -10  -2   81.74    2.02
   3  10   2   78.83    1.87
   3  10   2   81.47    2.00
  -4 -10  -2   49.71    1.32
  -4 -10  -2   50.72    1.27
  -4 -10  -2   51.21    1.42
  -4 -10  -2   49.52    1.53
   4  10   2   51.84    1.51
   4  10   2   49.05    1.40
  -5 -10  -2   40.71    1.14
  -5 -10  -2   42.62    1.32
  -5 -10  -2   40.32    1.17
   5  10   2   42.50    1.39
   5  10   2   41.56    1.36
  -6 -10  -2   23.11    0.96
  -6 -10  -2   23.33    0.91
  -6 -10  -2   22.77    1.03
   6  10   2   23.00    1.23
   6  10   2   22.76    1.11
  -7 -10  -2   18.67    1.09
   7  10   2   19.36    1.22
   4 -11  -2    5.74    0.81
  -4  11   2    5.41    0.81
  -4  11   2    4.92    0.68
   3 -11  -2   17.74    0.83
   3 -11  -2   16.32    0.90
  -3  11   2   17.63    0.94
  -3  11   2   16.05    0.82
  -3  11   2   17.11    0.95
   2 -11  -2    5.69    0.69
   2 -11  -2    5.86    0.65
  -2  11   2    6.26    0.67
  -2  11   2    6.87    0.65
  -2  11   2    6.88    0.58
  -2  11   2    5.62    0.68
   1 -11  -2   34.41    1.14
   1 -11  -2   34.78    1.10
  -1  11   2   34.47    1.15
  -1  11   2   34.68    1.05
  -1  11   2   33.96    1.01
  -1  11   2   30.53    1.59
   0 -11  -2    9.68    0.75
   0 -11  -2   11.33    0.62
   0  11   2   10.34    0.57
   0  11   2    9.36    0.68
   0  11   2    9.88    0.74
  -1 -11  -2   19.29    0.74
  -1 -11  -2   19.92    0.92
   1  11   2   20.39    0.80
   1  11   2   19.31    0.86
  -2 -11  -2   60.54    1.43
  -2 -11  -2   56.50    1.66
  -2 -11  -2   58.62    1.67
   2  11   2   60.30    1.62
   2  11   2   57.57    1.48
  -3 -11  -2   45.96    1.20
  -3 -11  -2   44.60    1.36
  -3 -11  -2   43.63    1.39
  -3 -11  -2   47.50    1.64
   3  11   2   47.08    1.44
   3  11   2   47.71    1.35
  -4 -11  -2   20.71    0.83
  -4 -11  -2   18.91    1.09
  -4 -11  -2   20.68    0.77
   4  11   2   19.85    1.00
   4  11   2   20.70    1.01
  -5 -11  -2   32.79    1.22
  -5 -11  -2   32.58    1.10
  -5 -11  -2   34.29    1.05
   5  11   2   33.95    1.32
   5  11   2   31.94    1.31
  -6 -11  -2   16.88    1.03
  -6 -11  -2   16.22    1.01
   6  11   2   20.68    1.56
   6  11   2   17.57    1.17
   3 -12  -2   40.68    1.42
   2 -12  -2    0.48    0.34
   2 -12  -2    0.56    0.37
  -2  12   2    1.24    0.41
  -2  12   2    1.03    0.32
  -2  12   2    0.80    0.51
   1 -12  -2   61.52    1.66
   1 -12  -2   61.66    1.68
  -1  12   2   59.69    1.52
  -1  12   2   61.23    1.67
  -1  12   2   60.61    1.54
   0 -12  -2   10.07    0.82
   0 -12  -2    9.75    0.93
   0  12   2   10.80    0.71
   0  12   2   10.48    0.62
   0  12   2    9.95    0.75
  -1 -12  -2   44.59    1.54
  -1 -12  -2   48.20    1.32
   1  12   2   49.49    1.47
   1  12   2   47.24    1.29
   1  12   2   49.03    1.34
  -2 -12  -2    2.61    0.39
   2  12   2    2.68    0.41
   2  12   2    2.27    0.38
  -3 -12  -2   35.03    1.12
  -3 -12  -2   35.47    1.07
   3  12   2   35.10    1.31
   3  12   2   36.23    1.22
  -4 -12  -2    2.63    0.34
  -4 -12  -2    3.20    0.47
   4  12   2    2.46    0.47
   4  12   2    4.73    0.80
  -5 -12  -2   21.33    0.92
  -5 -12  -2   19.64    1.09
   5  12   2   20.57    1.47
   5  12   2   18.38    1.32
   0 -13  -2   20.98    1.00
   0  13   2   23.64    1.10
  -1 -13  -2   82.22    2.09
   1  13   2   81.22    1.98
   1  13   2   79.16    2.13
  -2 -13  -2    4.51    0.70
   2  13   2    3.66    0.51
   3  12  -3   11.46    1.04
  -3 -12   3   10.03    0.89
   2  12  -3   23.64    1.19
  -2 -12   3   23.06    1.08
   1  12  -3    2.20    0.43
  -1 -12   3    2.81    0.43
   0  12  -3   23.56    1.16
   0 -12   3   24.77    1.14
  -1  12  -3    2.86    0.48
   1 -12   3    2.77    0.45
   2 -12   3   31.48    1.36
   5  11  -3   -0.04    0.42
  -5 -11   3    0.71    0.41
  -5 -11   3    1.04    0.34
   4  11  -3   35.70    1.35
  -4 -11   3   32.96    1.06
  -4 -11   3   28.99    1.48
  -4 -11   3   34.30    1.28
   3  11  -3    2.89    0.44
  -3 -11   3    2.98    0.54
  -3 -11   3    4.24    0.68
   2  11  -3   54.79    1.62
  -2 -11   3   53.96    1.57
  -2 -11   3   51.43    1.73
   1  11  -3   13.68    0.88
  -1 -11   3   13.78    0.85
   0  11  -3   50.11    1.53
   0 -11   3   50.62    1.97
   0 -11   3   47.70    1.60
  -1  11  -3    5.08    0.72
   1 -11   3    4.00    0.67
   1 -11   3    3.62    0.49
   2 -11   3   39.12    1.37
   2 -11   3   38.20    1.44
   3 -11   3   22.44    1.20
   3 -11   3   23.15    1.15
   4 -11   3   25.66    1.30
   4 -11   3   23.27    1.66
   6  10  -3   34.52    1.28
   6  10  -3   38.82    1.47
  -6 -10   3   35.04    1.39
  -6 -10   3   36.10    1.26
   5  10  -3    1.29    0.36
   5  10  -3    2.13    0.39
  -5 -10   3    1.14    0.51
  -5 -10   3    1.10    0.37
  -5 -10   3    1.37    0.32
   4  10  -3   60.55    1.47
   4  10  -3   64.88    1.79
  -4 -10   3   62.97    1.76
  -4 -10   3   62.89    1.87
  -4 -10   3   65.00    1.50
   3  10  -3    6.11    0.70
   3  10  -3    6.35    0.40
  -3 -10   3    4.57    0.65
  -3 -10   3    6.00    0.41
  -3 -10   3    5.88    0.76
   2  10  -3   72.88    1.85
  -2 -10   3   68.16    1.86
  -2 -10   3   66.67    1.88
  -2 -10   3   68.68    1.81
   1  10  -3    0.44    0.28
  -1 -10   3    0.92    0.29
  -1 -10   3    1.11    0.34
   0  10  -3  112.42    2.57
   0 -10   3  110.89    2.56
   0 -10   3  109.79    2.56
  -1  10  -3    0.66    0.28
   1 -10   3    0.01    0.28
   1 -10   3    0.80    0.33
  -2  10  -3   43.15    1.44
   2 -10   3   43.25    1.37
   2 -10   3   43.66    1.39
   3 -10   3   19.53    1.00
   3 -10   3   19.19    1.01
   4 -10   3   22.91    1.14
   4 -10   3   24.06    1.13
   5 -10   3    1.79    0.45
   5 -10   3    2.09    0.41
   5 -10   3    1.87    0.52
   7   9  -3   -0.01    0.49
   7   9  -3   -0.02    0.41
  -7  -9   3    0.55    0.44
   6   9  -3   38.33    1.37
   6   9  -3   41.48    1.43
  -6  -9   3   41.66    1.37
  -6  -9   3   37.25    1.55
   5   9  -3    0.64    0.32
   5   9  -3    0.21    0.31
  -5  -9   3    0.42    0.31
  -5  -9   3    1.21    0.30
  -5  -9   3    0.35    0.40
   4   9  -3  101.86    2.38
   4   9  -3   98.11    2.10
  -4  -9   3   97.53    2.40
  -4  -9   3  101.00    2.13
  -4  -9   3   98.97    2.41
  -4  -9   3   98.01    2.36
   3   9  -3   13.16    0.74
   3   9  -3   12.82    0.48
  -3  -9   3   12.70    0.50
  -3  -9   3   13.51    0.81
  -3  -9   3   11.88    0.80
  -3  -9   3   12.76    0.80
   2   9  -3  168.64    3.42
  -2  -9   3  164.81    3.41
  -2  -9   3  163.99    3.47
  -2  -9   3  139.94    3.93
   1   9  -3   20.46    0.88
  -1  -9   3   20.29    0.99
  -1  -9   3   21.24    0.88
   0   9  -3  180.85    3.75
   0  -9   3  180.94    3.73
  -1   9  -3    0.61    0.25
  -1   9  -3    0.31    0.25
   1  -9   3   -0.01    0.24
   1  -9   3    0.31    0.26
  -2   9  -3  168.25    3.57
   2  -9   3  166.45    3.54
   2  -9   3  161.69    3.44
  -3   9  -3   21.46    0.99
   3  -9   3   21.11    0.92
   3  -9   3   21.76    0.97
  -4   9  -3  111.82    2.23
   4  -9   3  106.89    2.50
   4  -9   3  113.26    2.68
  -5   9  -3    0.02    0.43
   5  -9   3   -0.47    0.32
   5  -9   3   -0.07    0.35
   5  -9   3    0.27    0.30
  -6   9  -3   17.75    0.88
   6  -9   3   16.66    1.12
   6  -9   3   18.77    1.20
   6  -9   3   15.11    0.91
   8   8  -3   30.97    1.37
  -8  -8   3   27.19    1.34
   7   8  -3    0.75    0.38
   7   8  -3    1.92    0.52
  -7  -8   3    1.43    0.38
   6   8  -3   31.65    1.21
   6   8  -3   34.86    1.25
  -6  -8   3   34.93    1.34
   5   8  -3   13.07    0.69
   5   8  -3   13.23    0.79
  -5  -8   3   13.65    0.88
  -5  -8   3   13.75    0.83
  -5  -8   3   14.67    0.72
   4   8  -3  116.21    2.38
   4   8  -3  118.56    2.61
  -4  -8   3  120.57    2.64
  -4  -8   3  118.04    2.65
  -4  -8   3  117.56    2.41
  -4  -8   3   99.32    3.18
   3   8  -3    0.10    0.21
   3   8  -3    0.18    0.14
  -3  -8   3    0.19    0.15
  -3  -8   3    0.27    0.22
  -3  -8   3   -0.33    0.23
  -3  -8   3    0.76    0.26
   2   8  -3  142.16    3.76
   2   8  -3  152.67    2.87
  -2  -8   3  153.81    2.90
  -2  -8   3  158.57    3.24
  -2  -8   3  157.61    3.24
  -2  -8   3  154.99    3.28
   1   8  -3    5.55    0.51
  -1  -8   3    5.54    0.50
  -1  -8   3    5.04    0.52
   0   8  -3   96.39    2.18
   0  -8   3   97.29    2.19
   0  -8   3   95.47    2.16
  -1   8  -3    1.20    0.25
  -1   8  -3    0.83    0.24
   1  -8   3    0.93    0.26
   1  -8   3    0.97    0.25
  -2   8  -3  161.39    3.43
   2  -8   3  163.60    3.35
  -3   8  -3    7.58    0.35
  -3   8  -3    7.45    0.65
   3  -8   3    7.49    0.61
   3  -8   3    7.63    0.66
  -4   8  -3   54.87    1.58
  -4   8  -3   54.00    1.25
   4  -8   3   55.15    1.59
   4  -8   3   54.35    1.46
  -5   8  -3   -0.05    0.23
   5  -8   3   -0.20    0.28
   5  -8   3    0.60    0.51
   5  -8   3   -0.33    0.31
  -6   8  -3   56.76    1.50
   6  -8   3   54.05    1.50
   6  -8   3   56.57    1.78
   6  -8   3   54.84    1.57
   6  -8   3   56.20    1.57
   8   7  -3   41.91    1.50
  -8  -7   3   43.01    1.56
   7   7  -3   -0.25    0.32
   7   7  -3    0.09    0.41
  -7  -7   3    0.12    0.32
  -7  -7   3    0.30    0.45
   6   7  -3   38.05    1.24
   6   7  -3   36.62    1.23
  -6  -7   3   36.99    1.46
  -6  -7   3   39.40    1.28
  -6  -7   3   37.73    1.32
   5   7  -3    0.37    0.24
   5   7  -3    0.14    0.25
  -5  -7   3    0.20    0.28
  -5  -7   3    0.55    0.31
  -5  -7   3    0.72    0.24
   4   7  -3   30.66    0.89
   4   7  -3   31.66    1.08
  -4  -7   3   34.02    1.09
  -4  -7   3   31.47    1.06
  -4  -7   3   31.89    0.92
   3   7  -3   12.63    0.45
   3   7  -3   11.19    0.63
  -3  -7   3   12.86    0.67
  -3  -7   3   12.99    0.49
  -3  -7   3   11.84    0.64
  -3  -7   3   12.15    0.66
   2   7  -3  146.74    3.01
   2   7  -3  143.14    2.72
  -2  -7   3  143.84    2.74
  -2  -7   3  145.82    3.01
  -2  -7   3  144.38    3.06
  -2  -7   3  143.18    3.02
   1   7  -3    0.84    0.19
  -1  -7   3    0.70    0.20
  -1  -7   3    0.64    0.19
   0   7  -3  129.97    2.69
   0  -7   3  127.04    2.69
   0  -7   3  125.51    2.66
  -1   7  -3    1.57    0.24
  -1   7  -3    1.55    0.23
   1  -7   3    1.39    0.22
   1  -7   3    1.70    0.25
  -2   7  -3   84.71    2.00
   2  -7   3   86.88    2.01
   2  -7   3   89.26    1.95
  -3   7  -3    8.51    0.36
  -3   7  -3    6.84    0.60
   3  -7   3    8.42    0.54
  -4   7  -3  260.83    5.15
  -4   7  -3  258.32    4.85
   4  -7   3  253.78    5.06
   4  -7   3  260.55    5.17
   4  -7   3  246.72    4.86
   4  -7   3  258.79    5.01
  -5   7  -3    1.42    0.33
  -5   7  -3    1.24    0.26
   5  -7   3    0.94    0.28
   5  -7   3    0.82    0.30
   5  -7   3    1.34    0.31
   5  -7   3    0.78    0.30
  -6   7  -3   50.18    1.38
   6  -7   3   48.61    1.54
   6  -7   3   49.44    1.43
   6  -7   3   49.89    1.40
   6  -7   3   51.08    1.60
  -7   7  -3    2.60    0.44
   7  -7   3    1.47    0.44
   7  -7   3    2.26    0.42
   7  -7   3    2.79    0.45
   7  -7   3    1.91    0.35
   8   6  -3   46.00    1.50
   8   6  -3   49.53    1.64
  -8  -6   3   44.44    1.58
   7   6  -3    0.16    0.36
   7   6  -3   -0.36    0.27
   7   6  -3   -0.05    0.30
  -7  -6   3   -0.14    0.31
  -7  -6   3   -0.25    0.35
  -7  -6   3   -0.39    0.31
   6   6  -3   74.25    1.84
   6   6  -3   70.31    1.82
  -6  -6   3   71.36    1.84
  -6  -6   3   73.59    1.86
  -6  -6   3   75.64    1.92
   5   6  -3    0.95    0.24
  -5  -6   3    0.71    0.26
  -5  -6   3    0.76    0.28
  -5  -6   3    1.00    0.24
   4   6  -3  195.01    3.87
   4   6  -3  200.18    4.00
  -4  -6   3  199.35    4.01
  -4  -6   3  201.31    4.04
  -4  -6   3  200.74    3.90
   3   6  -3   11.50    0.43
   3   6  -3   11.09    0.56
  -3  -6   3   11.25    0.59
  -3  -6   3   10.48    0.58
  -3  -6   3   11.17    0.45
   2   6  -3  135.60    2.55
   2   6  -3  135.89    2.78
  -2  -6   3  137.91    2.79
  -2  -6   3  132.51    2.80
  -2  -6   3  132.31    2.84
  -2  -6   3  134.11    2.56
   1   6  -3    7.83    0.45
  -1  -6   3    8.87    0.48
   0   6  -3  159.88    3.20
   0  -6   3  159.58    3.19
   0  -6   3  158.51    3.22
  -1   6  -3    0.27    0.15
   1  -6   3   -0.14    0.14
   1  -6   3   -0.04    0.14
  -2   6  -3  108.76    2.35
  -2   6  -3  108.82    2.06
   2  -6   3  111.47    2.38
   2  -6   3  111.03    2.31
  -3   6  -3    2.44    0.26
   3  -6   3    1.69    0.26
  -4   6  -3   94.82    2.20
  -4   6  -3   97.53    1.99
   4  -6   3   93.89    2.09
   4  -6   3   94.90    2.13
   4  -6   3   96.73    2.00
  -5   6  -3   11.14    0.57
  -5   6  -3   11.22    0.71
   5  -6   3   10.11    0.69
   5  -6   3   10.45    0.62
   5  -6   3    9.89    0.63
   5  -6   3   10.92    0.67
  -6   6  -3   57.36    1.71
  -6   6  -3   59.98    1.54
   6  -6   3   59.16    1.54
   6  -6   3   60.06    1.53
   6  -6   3   58.33    1.54
   6  -6   3   60.76    1.72
  -7   6  -3    0.06    0.33
   7  -6   3   -0.11    0.34
   7  -6   3   -0.10    0.33
   7  -6   3    0.26    0.36
  -8   6  -3   29.53    1.27
   8  -6   3   27.86    1.07
   8  -6   3   30.51    1.70
   9   5  -3    0.22    0.39
   9   5  -3    0.72    0.48
  -9  -5   3    0.76    0.48
   8   5  -3   34.77    1.34
   8   5  -3   33.38    1.21
  -8  -5   3   33.08    1.35
  -8  -5   3   33.85    1.25
   7   5  -3    2.28    0.39
   7   5  -3    2.35    0.41
   7   5  -3    1.65    0.31
  -7  -5   3    1.50    0.37
  -7  -5   3    2.71    0.42
  -7  -5   3    1.74    0.32
   6   5  -3  106.43    2.44
   6   5  -3   97.45    2.33
  -6  -5   3  103.12    2.37
  -6  -5   3  103.02    2.34
  -6  -5   3  105.93    2.43
   5   5  -3    0.27    0.21
   5   5  -3    0.49    0.23
   5   5  -3    0.40    0.20
  -5  -5   3    0.62    0.22
  -5  -5   3    0.40    0.22
  -5  -5   3    0.34    0.22
   4   5  -3  162.04    3.25
   4   5  -3  165.70    3.33
  -4  -5   3  168.57    3.39
  -4  -5   3  164.63    3.33
  -4  -5   3  161.68    3.27
   3   5  -3   88.04    1.76
   3   5  -3   88.20    1.88
  -3  -5   3   88.68    1.78
  -3  -5   3   72.72    2.17
  -3  -5   3   88.34    1.93
   2   5  -3  323.71    6.03
   2   5  -3  314.36    5.85
  -2  -5   3  321.68    5.86
  -2  -5   3  312.39    6.08
  -2  -5   3  326.65    6.03
   1   5  -3    4.43    0.34
  -1  -5   3    5.27    0.38
  -1  -5   3    4.80    0.37
   0   5  -3  132.85    2.68
   0   5  -3  133.12    2.72
   0  -5   3  133.07    2.67
   0  -5   3  133.30    2.71
  -1   5  -3    2.86    0.30
  -1   5  -3    2.24    0.29
   1  -5   3    2.46    0.32
   1  -5   3    2.71    0.29
  -2   5  -3  243.02    4.45
  -2   5  -3  248.17    4.72
   2  -5   3  236.15    4.46
   2  -5   3  247.24    4.72
   2  -5   3  243.11    4.65
  -3   5  -3    8.98    0.36
  -3   5  -3    8.74    0.49
   3  -5   3    8.87    0.50
   3  -5   3    9.39    0.45
  -4   5  -3   70.81    1.71
  -4   5  -3   71.52    1.56
   4  -5   3   70.86    1.63
   4  -5   3   71.37    1.66
   4  -5   3   71.86    1.56
  -5   5  -3    0.04    0.20
  -5   5  -3    0.27    0.19
   5  -5   3    0.20    0.22
   5  -5   3    0.28    0.20
   5  -5   3   -0.04    0.17
  -6   5  -3   59.59    1.63
  -6   5  -3   58.13    1.50
   6  -5   3   58.48    1.51
   6  -5   3   56.33    1.49
   6  -5   3   56.69    1.63
   6  -5   3   58.08    1.46
  -7   5  -3    2.57    0.38
   7  -5   3    2.38    0.33
   7  -5   3    2.95    0.41
   7  -5   3    3.03    0.40
   7  -5   3    2.24    0.39
  -8   5  -3   42.75    1.48
   8  -5   3   44.54    1.42
   8  -5   3   43.93    1.59
   8  -5   3   42.22    1.36
   8  -5   3   42.80    1.65
   9   4  -3    0.66    0.42
   9   4  -3    0.11    0.35
  -9  -4   3   -0.25    0.41
  -9  -4   3   -0.19    0.48
   8   4  -3   18.35    1.01
   8   4  -3   19.97    0.91
  -8  -4   3   17.72    0.90
  -8  -4   3   19.76    1.08
   7   4  -3   22.53    0.98
   7   4  -3   20.58    0.95
  -7  -4   3   20.56    0.96
  -7  -4   3   21.17    0.88
  -7  -4   3   20.59    0.97
   6   4  -3  126.04    2.74
   6   4  -3  115.83    3.26
   6   4  -3  127.49    2.67
  -6  -4   3  127.88    2.69
  -6  -4   3  126.67    2.79
  -6  -4   3  128.35    2.77
   5   4  -3    0.45    0.21
   5   4  -3    0.72    0.23
   5   4  -3    0.51    0.18
  -5  -4   3    0.47    0.22
  -5  -4   3    0.68    0.24
  -5  -4   3    0.66    0.20
   4   4  -3  282.86    5.36
   4   4  -3  282.58    5.46
   4   4  -3  280.08    5.38
  -4  -4   3  285.46    5.38
  -4  -4   3  284.12    5.39
   3   4  -3   40.54    0.95
   3   4  -3   40.84    1.02
  -3  -4   3   40.04    1.07
  -3  -4   3   41.19    1.03
  -3  -4   3   40.26    0.97
   2   4  -3  703.00   12.88
   2   4  -3  689.50   12.76
  -2  -4   3  715.89   12.95
  -2  -4   3  715.05   12.77
  -2  -4   3  715.37   12.89
   1   4  -3   48.78    0.93
   1   4  -3   48.39    1.11
  -1  -4   3   45.16    1.13
  -1  -4   3   48.43    0.94
  -1  -4   3   47.84    1.11
  -1   4  -3  118.68    2.38
  -1   4  -3  116.52    2.43
   1  -4   3  116.56    2.36
   1  -4   3  119.10    2.40
  -2   4  -3  483.86    8.80
  -2   4  -3  479.83    8.60
   2  -4   3  468.89    8.60
   2  -4   3  470.44    8.80
   2  -4   3  476.50    8.77
  -3   4  -3    5.59    0.30
  -3   4  -3    5.51    0.38
   3  -4   3    5.77    0.39
   3  -4   3    5.53    0.40
   3  -4   3    5.84    0.47
  -4   4  -3  305.39    5.83
  -4   4  -3  303.20    5.69
   4  -4   3  307.33    5.77
   4  -4   3  301.01    5.84
   4  -4   3  303.84    5.70
   4  -4   3  300.23    5.76
  -5   4  -3    0.74    0.23
  -5   4  -3    1.00    0.22
   5  -4   3    0.80    0.24
   5  -4   3    1.09    0.20
   5  -4   3    0.42    0.22
   5  -4   3    0.70    0.21
  -6   4  -3   87.33    2.02
  -6   4  -3   86.36    2.09
   6  -4   3   85.66    2.02
   6  -4   3   85.85    2.11
   6  -4   3   89.90    2.03
   6  -4   3   86.71    1.95
  -7   4  -3    0.73    0.34
  -7   4  -3    1.21    0.33
   7  -4   3    2.33    0.36
   7  -4   3    1.70    0.36
   7  -4   3    1.53    0.27
  -8   4  -3   49.41    1.58
   8  -4   3   52.72    1.67
   8  -4   3   48.98    1.54
   8  -4   3   50.71    1.39
   8  -4   3   48.67    1.59
   9   3  -3    0.54    0.44
   9   3  -3    0.77    0.34
  -9  -3   3    0.19    0.38
  -9  -3   3   -0.48    0.43
   8   3  -3   32.31    1.28
   8   3  -3   34.33    1.15
   8   3  -3   37.22    2.05
  -8  -3   3   32.86    1.13
  -8  -3   3   35.29    1.34
   7   3  -3   16.89    0.86
   7   3  -3   16.14    0.87
   7   3  -3   17.16    0.74
  -7  -3   3   16.43    0.90
  -7  -3   3   17.58    0.74
  -7  -3   3   16.60    0.86
   6   3  -3   71.82    1.65
   6   3  -3   67.33    1.83
   6   3  -3   71.34    1.77
  -6  -3   3   72.01    1.80
  -6  -3   3   73.47    1.67
  -6  -3   3   71.00    1.79
   5   3  -3   27.66    0.91
   5   3  -3   28.67    0.83
   5   3  -3   27.48    0.88
  -5  -3   3   28.21    0.92
  -5  -3   3   29.41    0.93
  -5  -3   3   28.57    0.83
   4   3  -3   89.89    1.91
   4   3  -3   89.93    1.89
   4   3  -3   88.26    1.97
  -4  -3   3   90.07    1.93
  -4  -3   3   90.63    1.90
  -4  -3   3   89.28    1.97
   3   3  -3    0.03    0.12
   3   3  -3    0.36    0.12
   3   3  -3    0.13    0.11
  -3  -3   3    0.06    0.13
  -3  -3   3    0.22    0.12
  -3  -3   3    0.02    0.12
   2   3  -3  379.53    6.90
   2   3  -3  372.68    6.83
  -2  -3   3  372.75    6.96
  -2  -3   3  374.49    6.84
  -2  -3   3  372.73    6.90
   1   3  -3   52.76    1.04
  -1  -3   3   53.89    1.05
  -1  -3   3   53.13    1.16
   0   3  -3  710.09   13.18
   0   3  -3  753.89   13.22
   0  -3   3  707.58   13.18
   0  -3   3  739.75   13.22
  -1   3  -3   17.75    0.53
   1  -3   3   17.84    0.38
   1  -3   3   17.67    0.54
  -2   3  -3  843.11   15.37
   2  -3   3  865.99   15.39
   2  -3   3  834.44   15.36
  -3   3  -3   89.14    1.77
  -3   3  -3   89.04    1.88
   3  -3   3   86.23    1.84
   3  -3   3   85.61    1.79
   3  -3   3   86.25    1.87
  -4   3  -3  442.03    8.97
  -4   3  -3  481.84    8.74
   4  -3   3  484.38    8.77
   4  -3   3  482.97    8.74
   4  -3   3  478.39    8.84
  -5   3  -3    0.89    0.21
  -5   3  -3    0.79    0.20
   5  -3   3    0.97    0.20
   5  -3   3    0.80    0.22
   5  -3   3    0.96    0.18
  -6   3  -3  152.29    3.26
  -6   3  -3  153.87    3.20
   6  -3   3  155.78    3.22
   6  -3   3  153.35    3.12
   6  -3   3  152.33    3.29
  -7   3  -3    5.90    0.73
  -7   3  -3    5.10    0.66
   7  -3   3    5.70    0.67
   7  -3   3    6.15    0.52
   7  -3   3    6.27    0.64
  -8   3  -3   46.69    1.50
   8  -3   3   49.09    1.40
   8  -3   3   44.00    1.52
   8  -3   3   48.32    1.55
  -9   3  -3    0.18    0.44
   9  -3   3    0.14    0.44
   9  -3   3   -0.03    0.33
   9   2  -3    8.75    0.99
   9   2  -3    8.44    0.95
  -9  -2   3    7.88    1.01
  -9  -2   3    9.30    0.78
   8   2  -3   16.83    1.00
   8   2  -3   19.92    1.49
   8   2  -3   15.49    0.79
  -8  -2   3   13.52    1.52
  -8  -2   3   18.01    1.04
  -8  -2   3   16.55    0.80
   7   2  -3   30.82    0.93
   7   2  -3   30.16    1.11
   7   2  -3   30.30    1.10
  -7  -2   3   29.64    1.14
  -7  -2   3   29.54    0.92
  -7  -2   3   30.92    1.12
   6   2  -3  155.85    3.12
   6   2  -3  158.11    3.29
   6   2  -3  154.64    3.29
  -6  -2   3  157.50    3.13
  -6  -2   3  152.99    3.29
  -6  -2   3  157.29    3.31
   5   2  -3   44.90    1.18
   5   2  -3   43.66    1.19
   5   2  -3   44.86    1.18
  -5  -2   3   43.69    1.07
  -5  -2   3   43.84    1.19
  -5  -2   3   43.52    1.20
   4   2  -3  114.51    2.31
   4   2  -3  120.21    2.39
   4   2  -3  113.75    2.41
  -4  -2   3  115.99    2.42
  -4  -2   3  117.47    2.41
  -4  -2   3  113.70    2.31
   3   2  -3   72.04    1.59
   3   2  -3   74.66    1.52
   3   2  -3   73.69    1.55
  -3  -2   3   72.92    1.56
  -3  -2   3   72.53    1.52
   2   2  -3  331.31    6.10
   2   2  -3  334.20    6.12
  -2  -2   3  336.00    6.35
  -2  -2   3  330.32    6.11
  -2  -2   3  332.12    6.19
   1   2  -3  475.48    8.59
  -1  -2   3  468.97    8.59
   0  -2   3   62.05    1.19
   0  -2   3   64.03    1.33
  -1   2  -3   54.74    1.06
  -1   2  -3   55.37    1.37
   1  -2   3   54.56    1.18
   1  -2   3   54.37    1.06
   1  -2   3   53.61    1.26
  -2   2  -3  335.80    5.97
   2  -2   3  323.50    6.06
   2  -2   3  322.21    6.06
   2  -2   3  326.42    5.97
  -3   2  -3    0.30    0.12
  -3   2  -3    0.28    0.12
   3  -2   3    0.21    0.11
   3  -2   3    0.37    0.14
   3  -2   3    0.21    0.11
  -4   2  -3  200.02    3.85
  -4   2  -3  193.89    3.79
   4  -2   3  196.48    3.85
   4  -2   3  197.23    3.80
   4  -2   3  194.63    3.79
  -5   2  -3    9.77    0.52
  -5   2  -3    9.52    0.52
   5  -2   3    9.49    0.51
   5  -2   3    9.36    0.53
   5  -2   3    9.97    0.48
  -6   2  -3  201.47    4.07
  -6   2  -3  198.99    4.05
   6  -2   3  201.80    4.10
   6  -2   3  200.30    3.96
   6  -2   3  203.23    4.07
  -7   2  -3   17.17    0.84
  -7   2  -3   17.59    0.84
   7  -2   3   17.22    0.83
   7  -2   3   16.68    0.83
   7  -2   3   17.40    0.72
  -8   2  -3   93.79    2.35
   8  -2   3   98.33    2.38
   8  -2   3   88.58    2.34
   8  -2   3   92.90    2.32
  -9   2  -3   -0.23    0.41
   9  -2   3    0.09    0.30
   9  -2   3    0.33    0.39
   9   1  -3    7.95    0.94
   9   1  -3    9.71    0.73
  -9  -1   3    7.86    1.03
  -9  -1   3    9.02    0.76
   8   1  -3   57.23    1.71
   8   1  -3   56.45    1.43
  -8  -1   3   55.65    1.43
  -8  -1   3   59.14    1.78
   7   1  -3   10.66    0.71
   7   1  -3   10.29    0.75
   7   1  -3   10.37    0.53
  -7  -1   3   10.61    0.54
  -7  -1   3   10.12    0.75
  -7  -1   3   10.86    0.77
   6   1  -3   89.34    2.09
   6   1  -3   90.84    2.08
   6   1  -3   87.46    1.87
  -6  -1   3   86.77    1.87
  -6  -1   3   87.07    2.08
  -6  -1   3   89.67    2.11
   5   1  -3   16.58    0.66
   5   1  -3   17.37    0.55
   5   1  -3   16.54    0.67
  -5  -1   3   16.85    0.55
  -5  -1   3   19.39    0.73
  -5  -1   3   17.59    0.69
   4   1  -3  207.71    3.88
   4   1  -3  207.63    4.00
   4   1  -3  202.92    4.01
  -4  -1   3  204.95    4.02
  -4  -1   3  204.08    3.88
  -4  -1   3  211.65    4.04
   3   1  -3   97.77    2.03
   3   1  -3  101.68    1.96
   3   1  -3   98.52    2.06
  -3  -1   3  101.73    1.96
  -3  -1   3  100.03    2.05
  -3  -1   3  103.36    2.08
   2   1  -3  181.23    3.38
   2   1  -3  180.40    3.46
   2   1  -3  185.27    3.43
  -2  -1   3  179.41    3.38
  -2  -1   3  176.37    3.42
  -2  -1   3  188.67    3.48
   1   1  -3  109.58    2.07
   1   1  -3  107.74    2.06
  -1  -1   3  108.41    2.12
  -1  -1   3  106.19    2.07
  -1  -1   3  110.65    2.07
   0  -1   3   14.51    0.41
   0  -1   3   14.68    0.42
   0  -1   3   13.97    0.37
  -1   1  -3  315.24    5.91
  -1   1  -3  328.02    5.86
   1  -1   3  321.00    5.92
   1  -1   3  326.79    5.86
  -2   1  -3  391.13    7.27
  -2   1  -3  402.41    7.15
   2  -1   3  391.27    7.15
   2  -1   3  379.41    7.19
   2  -1   3  396.80    7.18
  -3   1  -3  570.42   10.25
  -3   1  -3  560.11   10.23
  -3   1  -3  558.58   10.24
   3  -1   3  561.77   10.26
   3  -1   3  566.11   10.25
   3  -1   3  551.96   10.23
  -4   1  -3  254.44    4.96
  -4   1  -3  259.09    4.91
  -4   1  -3  263.36    4.92
   4  -1   3  261.48    4.93
   4  -1   3  261.08    4.93
   4  -1   3  253.13    4.89
  -5   1  -3   19.32    0.64
  -5   1  -3   18.08    0.78
  -5   1  -3   19.40    0.69
   5  -1   3   18.96    0.64
   5  -1   3   18.64    0.71
   5  -1   3   18.15    0.68
  -6   1  -3  111.86    2.43
  -6   1  -3  110.15    2.44
  -6   1  -3  108.89    2.36
   6  -1   3  109.71    2.34
   6  -1   3  112.71    2.45
   6  -1   3  110.64    2.44
  -7   1  -3   42.62    1.19
  -7   1  -3   41.62    1.26
  -7   1  -3   40.83    1.50
   7  -1   3   42.25    1.30
   7  -1   3   42.53    1.28
   7  -1   3   42.29    1.17
  -8   1  -3  147.91    3.34
  -8   1  -3  152.55    3.38
  -8   1  -3  152.16    3.23
   8  -1   3  145.51    3.35
   8  -1   3  150.95    3.22
   8  -1   3  155.53    3.37
  -9   1  -3    1.85    0.44
   9  -1   3    1.93    0.34
   9  -1   3    1.35    0.40
   9   0  -3    5.48    0.61
   9   0  -3    5.67    0.92
  -9   0   3    5.83    0.99
  -9   0   3    4.10    0.49
   8   0  -3   24.71    0.83
   8   0  -3   25.63    1.13
  -8   0   3   24.68    0.97
  -8   0   3   26.81    1.19
   7   0  -3   14.06    0.56
   7   0  -3   13.68    0.77
   7   0  -3   11.88    0.83
  -7   0   3   13.93    0.82
  -7   0   3   14.15    0.57
  -7   0   3   14.68    0.85
   6   0  -3   81.74    1.74
   6   0  -3   84.50    2.00
   6   0  -3   83.25    2.00
  -6   0   3   83.91    1.76
  -6   0   3   82.58    2.00
  -6   0   3   85.55    2.03
   5   0  -3   44.30    1.00
   5   0  -3   45.50    1.21
   5   0  -3   45.73    1.20
  -5   0   3   45.27    1.23
  -5   0   3   45.52    1.01
  -5   0   3   45.04    1.20
   4   0  -3  101.26    1.97
   4   0  -3  101.65    2.15
   4   0  -3  103.07    2.15
  -4   0   3  103.46    2.16
  -4   0   3   98.28    1.97
  -4   0   3  102.61    2.16
   3   0  -3   64.81    1.26
   3   0  -3   62.78    1.39
   3   0  -3   64.29    1.39
  -3   0   3   64.09    1.40
  -3   0   3   63.14    1.40
  -3   0   3   63.36    1.26
   2   0  -3  518.02    9.70
   2   0  -3  551.23    9.94
  -2   0   3  532.53    9.72
   0   0   3  363.59    6.62
  -1   0  -3   77.85    1.55
  -1   0  -3   75.81    1.51
  -1   0  -3   79.50    1.53
   1   0   3   78.21    1.54
   1   0   3   78.95    1.52
  -2   0  -3  405.05    7.34
  -2   0  -3  412.97    7.37
  -2   0  -3  378.29    7.39
   2   0   3  411.76    7.38
   2   0   3  408.65    7.37
   2   0   3  405.05    7.34
  -3   0  -3   92.08    1.86
  -3   0  -3   89.76    1.83
  -3   0  -3   89.89    1.85
   3   0   3   92.24    1.86
   3   0   3   92.09    1.84
   3   0   3   87.96    1.86
  -4   0  -3  237.55    4.42
  -4   0  -3  225.14    4.43
  -4   0  -3  233.31    4.41
   4   0   3  228.52    4.41
   4   0   3  235.97    4.45
   4   0   3  231.69    4.42
  -5   0  -3   27.87    0.86
  -5   0  -3   28.93    0.82
  -5   0  -3   27.72    0.80
   5   0   3   27.87    0.83
   5   0   3   27.79    0.80
  -6   0  -3   96.40    2.18
  -6   0  -3   92.19    2.08
  -6   0  -3   99.36    2.17
   6   0   3   95.93    2.08
   6   0   3   95.07    2.14
   6   0   3   95.78    2.18
  -7   0  -3    0.61    0.27
  -7   0  -3    0.75    0.24
  -7   0  -3    0.62    0.26
   7   0   3    0.39    0.21
   7   0   3    0.51    0.25
   7   0   3    0.28    0.27
  -8   0  -3   70.43    1.90
  -8   0  -3   71.35    1.82
  -8   0  -3   71.64    1.96
   8   0   3   72.79    1.80
   8   0   3   74.83    1.92
   8   0   3   69.60    1.95
  -9   0  -3    0.12    0.36
  -9   0  -3    0.12    0.35
   9   0   3    0.25    0.29
   9   0   3    0.27    0.36
   9  -1  -3   13.62    0.67
   9  -1  -3   13.12    1.05
  -9   1   3   12.59    1.15
   8  -1  -3   16.73    0.99
   8  -1  -3   16.75    0.71
  -8   1   3   16.71    1.00
  -8   1   3   17.49    0.68
   7  -1  -3   20.40    0.92
   7  -1  -3   19.67    0.62
   7  -1  -3   20.16    0.94
  -7   1   3   20.41    0.97
  -7   1   3   19.71    0.63
  -7   1   3   20.69    0.96
   6  -1  -3   92.64    2.14
   6  -1  -3   91.58    2.21
   6  -1  -3   89.59    1.82
  -6   1   3   92.12    1.85
  -6   1   3   88.24    2.28
  -6   1   3   92.14    2.15
   5  -1  -3   24.01    0.82
   5  -1  -3   23.23    0.58
   5  -1  -3   23.60    0.81
  -5   1   3   24.83    0.83
  -5   1   3   24.19    0.85
  -5   1   3   23.69    0.59
   4  -1  -3   81.29    1.58
   4  -1  -3   83.37    1.81
   4  -1  -3   82.86    1.80
  -4   1   3   81.83    1.80
  -4   1   3   81.22    1.58
   3  -1  -3  233.95    4.27
   3  -1  -3  235.57    4.47
   3  -1  -3  241.50    4.46
  -3   1   3  232.32    4.48
  -3   1   3  237.46    4.46
  -3   1   3  231.99    4.27
   1  -1  -3  121.95    2.25
  -1   1   3  123.88    2.32
  -1   1   3  109.85    2.21
  -1   1   3  122.57    2.26
  -1   1   3  117.83    2.19
  -1  -1  -3   31.74    0.62
  -1  -1  -3   31.08    0.71
  -1  -1  -3   31.18    0.69
   1   1   3   30.67    0.69
   1   1   3   31.52    0.63
   1   1   3   30.48    0.71
  -2  -1  -3  503.71    9.02
  -2  -1  -3  509.52    9.10
  -2  -1  -3  476.74    9.18
   2   1   3  511.25    9.09
   2   1   3  497.39    9.11
  -3  -1  -3   27.20    0.66
  -3  -1  -3   27.20    0.72
   3   1   3   26.81    0.70
   3   1   3   28.00    0.73
   3   1   3   28.07    0.67
  -4  -1  -3  234.54    4.50
  -4  -1  -3  239.36    4.47
  -4  -1  -3  235.19    4.44
   4   1   3  229.25    4.46
   4   1   3  240.12    4.52
   4   1   3  231.78    4.44
  -5  -1  -3   14.02    0.60
  -5  -1  -3   14.43    0.55
  -5  -1  -3   14.26    0.54
   5   1   3   14.21    0.55
   5   1   3   13.89    0.76
   5   1   3   14.06    0.55
  -6  -1  -3   61.44    1.57
  -6  -1  -3   62.06    1.50
  -6  -1  -3   63.19    1.49
   6   1   3   61.49    1.58
   6   1   3   60.33    1.50
   6   1   3   62.07    1.49
  -7  -1  -3   32.95    1.03
  -7  -1  -3   33.41    1.12
  -7  -1  -3   30.27    1.04
   7   1   3   30.99    1.09
   7   1   3   32.10    1.10
   7   1   3   32.35    1.02
  -8  -1  -3   15.59    0.82
  -8  -1  -3   15.58    0.92
  -8  -1  -3   14.01    0.88
   8   1   3   15.70    0.97
   8   1   3   16.45    0.85
   8   1   3   15.20    0.80
  -9  -1  -3   10.04    0.90
  -9  -1  -3   10.13    0.83
   9   1   3   10.18    0.86
   9   1   3    9.00    0.75
   9  -2  -3   12.81    1.11
  -9   2   3   13.87    1.22
   8  -2  -3    3.30    0.45
   8  -2  -3    3.52    0.38
  -8   2   3    3.22    0.50
   7  -2  -3   27.66    1.07
   7  -2  -3   24.72    0.67
   7  -2  -3   27.96    1.09
  -7   2   3   27.44    1.10
  -7   2   3   25.83    1.19
   6  -2  -3   36.33    1.14
   6  -2  -3   32.29    1.58
   6  -2  -3   36.24    0.80
  -6   2   3   33.21    1.68
  -6   2   3   35.24    0.82
  -6   2   3   38.16    1.18
   5  -2  -3    1.92    0.26
   5  -2  -3    1.63    0.25
   5  -2  -3    1.97    0.18
  -5   2   3    2.64    0.44
  -5   2   3    1.43    0.25
  -5   2   3    2.34    0.20
   4  -2  -3   75.37    1.70
   4  -2  -3   75.02    1.69
  -4   2   3   75.63    1.72
  -4   2   3   77.21    1.70
   3  -2  -3  201.30    3.94
   3  -2  -3  202.60    3.91
  -3   2   3  207.50    3.92
  -3   2   3  207.14    3.96
   2  -2  -3  476.87    8.65
   2  -2  -3  472.01    8.69
   1  -2  -3    6.69    0.23
   1  -2  -3    6.47    0.17
  -1   2   3    6.41    0.24
  -1   2   3    5.60    0.23
  -1   2   3    6.76    0.30
   0  -2  -3  313.91    5.63
   0   2   3  307.96    5.59
   0   2   3  315.18    5.63
   0   2   3  306.20    5.74
  -1  -2  -3    2.27    0.16
   1   2   3    2.40    0.17
   1   2   3    2.22    0.19
  -2  -2  -3  592.62   10.66
  -2  -2  -3  578.17   10.64
   2   2   3  588.91   10.64
  -3  -2  -3  129.63    2.45
  -3  -2  -3  128.77    2.53
   3   2   3  129.06    2.46
   3   2   3  127.62    2.54
   3   2   3  128.97    2.56
  -4  -2  -3  262.76    4.95
  -4  -2  -3  260.32    4.99
  -4  -2  -3  260.68    4.88
   4   2   3  264.80    4.96
   4   2   3  254.11    4.89
   4   2   3  265.25    5.00
  -5  -2  -3    3.89    0.32
  -5  -2  -3    4.43    0.41
   5   2   3    3.65    0.39
   5   2   3    3.61    0.33
   5   2   3    2.95    0.35
  -6  -2  -3  219.51    4.41
  -6  -2  -3  229.30    4.53
  -6  -2  -3  226.62    4.45
   6   2   3  227.34    4.53
   6   2   3  228.81    4.45
   6   2   3  225.43    4.43
  -7  -2  -3   12.16    0.70
  -7  -2  -3   13.34    0.75
  -7  -2  -3   12.99    0.69
   7   2   3   12.07    0.70
   7   2   3   12.37    0.69
   7   2   3   12.25    0.74
  -8  -2  -3   86.13    2.21
  -8  -2  -3   88.09    2.09
  -8  -2  -3   87.01    2.13
   8   2   3   84.57    2.11
   8   2   3   81.39    2.21
   8   2   3   86.56    2.08
  -9  -2  -3    7.67    0.87
  -9  -2  -3    8.28    0.83
   9   2   3    7.26    0.75
   9   2   3    7.57    0.78
   9  -3  -3   20.22    1.37
  -9   3   3   17.58    1.29
   8  -3  -3   13.56    0.94
  -8   3   3   12.19    0.95
   7  -3  -3   24.43    1.05
   7  -3  -3   24.63    1.06
  -7   3   3   26.50    1.13
  -7   3   3   22.61    1.05
   6  -3  -3   67.53    1.73
   6  -3  -3   66.93    1.75
  -6   3   3   67.34    1.76
  -6   3   3   65.99    1.74
   5  -3  -3  135.86    2.84
   5  -3  -3  134.27    2.84
  -5   3   3  132.50    2.86
  -5   3   3  132.71    2.84
   4  -3  -3   19.40    0.69
  -4   3   3   19.01    0.68
  -4   3   3   19.56    0.71
   3  -3  -3  164.38    3.20
   3  -3  -3  160.53    3.23
  -3   3   3  163.63    3.25
  -3   3   3  166.56    3.21
   2  -3  -3  151.56    2.89
  -2   3   3  150.63    2.89
  -2   3   3  149.76    2.96
   1  -3  -3  219.91    4.00
   1  -3  -3  221.56    4.06
  -1   3   3  218.84    4.18
  -1   3   3  220.89    4.07
  -1   3   3  221.54    4.00
   0  -3  -3  253.16    4.59
   0  -3  -3  247.90    4.54
   0   3   3  247.87    4.83
   0   3   3  253.94    4.60
   0   3   3  253.36    4.54
  -1  -3  -3   25.38    0.60
  -1  -3  -3   25.40    0.65
   1   3   3   24.05    0.83
   1   3   3   24.46    0.60
  -2  -3  -3  703.65   12.83
  -2  -3  -3  716.36   12.87
   2   3   3  706.24   12.86
   2   3   3  708.41   12.84
  -3  -3  -3  485.80    8.72
  -3  -3  -3  471.18    8.59
  -3  -3  -3  469.87    8.74
   3   3   3  473.44    8.74
   3   3   3  473.94    8.72
   3   3   3  471.64    8.60
  -4  -3  -3  464.22    8.49
  -4  -3  -3  452.78    8.34
  -4  -3  -3  452.95    8.44
   4   3   3  455.75    8.36
   4   3   3  457.66    8.49
   4   3   3  455.82    8.45
  -5  -3  -3   14.18    0.61
  -5  -3  -3   14.50    0.58
  -5  -3  -3   14.25    0.52
   5   3   3   14.95    0.63
   5   3   3   13.86    0.53
   5   3   3   13.87    0.58
  -6  -3  -3  121.67    3.10
  -6  -3  -3  140.66    2.92
  -6  -3  -3  137.80    2.84
   6   3   3  135.90    2.92
   6   3   3  135.18    2.84
   6   3   3  135.91    2.80
  -7  -3  -3   12.65    0.69
  -7  -3  -3   13.06    0.75
  -7  -3  -3   12.79    0.82
   7   3   3   13.29    0.72
   7   3   3   14.63    0.79
   7   3   3   12.87    0.68
  -8  -3  -3   76.19    1.92
  -8  -3  -3   74.28    2.03
  -8  -3  -3   75.88    1.92
   8   3   3   76.05    1.92
   8   3   3   72.12    2.08
   8   3   3   75.79    1.91
  -9  -3  -3    7.40    0.87
  -9  -3  -3    5.32    0.74
   9   3   3    7.22    0.77
   9   3   3    6.01    0.75
   8  -4  -3   17.23    1.07
  -8   4   3   14.40    1.05
   7  -4  -3   18.00    0.96
   7  -4  -3   17.69    0.97
  -7   4   3   16.87    0.99
  -7   4   3   17.58    0.98
   6  -4  -3  115.79    2.64
   6  -4  -3  117.14    2.63
  -6   4   3  112.51    2.62
  -6   4   3  114.82    2.65
   5  -4  -3   94.34    2.17
   5  -4  -3   93.12    2.15
  -5   4   3   95.72    2.18
  -5   4   3   95.80    2.17
   4  -4  -3   41.41    1.12
   4  -4  -3   41.65    1.11
  -4   4   3   40.61    1.26
  -4   4   3   41.84    1.14
   3  -4  -3  144.03    2.87
   3  -4  -3  145.19    2.91
  -3   4   3  143.10    2.87
  -3   4   3  143.14    2.91
   2  -4  -3  430.28    7.95
  -2   4   3  436.89    7.96
  -2   4   3  434.28    8.04
   1  -4  -3  555.99   10.12
   1  -4  -3  565.56   10.17
  -1   4   3  558.53   10.30
  -1   4   3  567.44   10.18
  -1   4   3  563.88   10.12
   0  -4  -3  157.05    2.93
   0  -4  -3  158.19    2.87
   0   4   3  155.29    3.04
   0   4   3  154.12    2.87
   0   4   3  154.27    2.93
  -1  -4  -3  239.78    4.46
  -1  -4  -3  241.24    4.53
   1   4   3  234.39    4.46
   1   4   3  242.84    4.52
  -2  -4  -3  329.67    6.12
  -2  -4  -3  317.57    5.91
  -2  -4  -3  327.09    6.08
   2   4   3  332.14    6.11
   2   4   3  333.52    6.09
  -3  -4  -3  377.07    6.95
  -3  -4  -3  376.64    6.93
  -3  -4  -3  364.30    6.76
   3   4   3  366.36    6.78
   3   4   3  381.17    6.96
   3   4   3  368.85    6.93
  -4  -4  -3  225.65    4.27
  -4  -4  -3  231.05    4.44
  -4  -4  -3  228.18    4.46
   4   4   3  228.71    4.42
   4   4   3  226.06    4.29
   4   4   3  231.21    4.45
  -5  -4  -3   14.36    0.52
  -5  -4  -3   13.82    0.60
  -5  -4  -3   14.38    0.64
   5   4   3   12.94    0.60
   5   4   3   14.90    0.65
   5   4   3   13.87    0.53
  -6  -4  -3  300.20    5.86
  -6  -4  -3  283.28    5.77
  -6  -4  -3  296.49    5.71
   6   4   3  295.51    5.63
   6   4   3  292.21    5.77
   6   4   3  297.08    5.72
  -7  -4  -3   91.88    2.18
  -7  -4  -3   95.80    2.27
  -7  -4  -3   92.10    2.12
   7   4   3   92.73    2.13
   7   4   3   94.04    2.21
   7   4   3   94.60    2.28
  -8  -4  -3   58.60    1.73
  -8  -4  -3   57.66    1.61
  -8  -4  -3   56.06    1.63
   8   4   3   60.56    1.61
   8   4   3   58.05    1.63
  -9  -4  -3    4.11    0.56
  -9  -4  -3    3.75    0.55
   9   4   3    3.80    0.47
   9   4   3    4.63    0.76
   8  -5  -3    5.96    0.96
  -8   5   3    5.73    0.95
   7  -5  -3   27.81    1.25
   7  -5  -3   30.68    1.24
  -7   5   3   30.82    1.25
   6  -5  -3   53.05    1.51
   6  -5  -3   49.99    1.52
  -6   5   3   53.08    1.53
  -6   5   3   51.06    1.52
   5  -5  -3   58.29    1.54
   5  -5  -3   58.87    1.56
  -5   5   3   59.41    1.56
  -5   5   3   58.42    1.53
   4  -5  -3   72.92    1.69
   4  -5  -3   72.11    1.71
  -4   5   3   70.73    1.68
  -4   5   3   72.17    1.71
   3  -5  -3   10.05    0.49
  -3   5   3   10.20    0.51
  -3   5   3   10.22    0.48
   2  -5  -3  233.56    4.34
   2  -5  -3  225.62    4.18
  -2   5   3  230.84    4.33
  -2   5   3  230.62    4.41
  -2   5   3  222.19    4.19
   1  -5  -3  207.25    3.82
   1  -5  -3  202.13    3.77
  -1   5   3  202.82    3.91
  -1   5   3  201.89    3.95
  -1   5   3  202.15    3.93
  -1   5   3  203.47    3.78
   0  -5  -3   91.09    1.73
   0  -5  -3   89.56    1.87
   0   5   3   89.34    1.73
   0   5   3   88.88    1.78
   0   5   3   88.95    1.88
  -1  -5  -3  278.05    5.16
  -1  -5  -3  274.56    5.23
  -1  -5  -3  277.37    5.02
   1   5   3  274.37    5.20
   1   5   3  279.42    5.17
  -2  -5  -3  107.94    2.20
  -2  -5  -3  103.91    1.99
  -2  -5  -3  105.19    2.16
  -2  -5  -3  105.25    1.99
   2   5   3  106.91    2.18
   2   5   3  107.56    2.17
  -3  -5  -3  185.73    3.59
  -3  -5  -3  179.13    3.54
  -3  -5  -3  175.26    3.35
   3   5   3  180.31    3.55
   3   5   3  182.49    3.55
  -4  -5  -3   58.95    1.40
  -4  -5  -3   58.30    1.41
  -4  -5  -3   58.45    1.25
   4   5   3   56.90    1.40
   4   5   3   60.10    1.28
  -5  -5  -3   64.22    1.57
  -5  -5  -3   61.93    1.39
  -5  -5  -3   62.02    1.55
   5   5   3   65.06    1.58
   5   5   3   63.56    1.43
   5   5   3   60.47    1.54
  -6  -5  -3   69.96    1.67
  -6  -5  -3   71.96    1.76
  -6  -5  -3   69.83    2.01
   6   5   3   73.99    1.84
   6   5   3   70.98    1.81
   6   5   3   72.97    1.66
  -7  -5  -3  103.22    2.30
  -7  -5  -3  104.90    2.42
  -7  -5  -3  103.92    2.47
   7   5   3  104.41    2.49
   7   5   3  104.97    2.33
   7   5   3  103.20    2.41
  -8  -5  -3   58.12    2.05
  -8  -5  -3   55.49    1.58
  -8  -5  -3   57.93    1.72
   8   5   3   55.87    1.63
   8   5   3   57.84    1.58
  -9  -5  -3    0.91    0.47
  -9  -5  -3    2.21    0.48
   9   5   3    0.61    0.36
   9   5   3    1.22    0.41
   8  -6  -3   -0.22    0.48
  -8   6   3   -0.47    0.45
   7  -6  -3   21.87    1.12
  -7   6   3   21.84    1.13
   6  -6  -3   16.85    0.89
   6  -6  -3   17.68    0.91
  -6   6   3   15.98    0.89
  -6   6   3   18.16    0.93
   5  -6  -3   12.20    0.76
   5  -6  -3   13.25    0.74
  -5   6   3   11.18    1.10
  -5   6   3   13.83    0.75
   4  -6  -3   24.12    0.85
  -4   6   3   24.74    0.87
  -4   6   3   25.34    0.87
   3  -6  -3   86.62    1.87
   3  -6  -3   83.98    1.61
  -3   6   3   81.09    1.89
  -3   6   3   85.04    1.90
   2  -6  -3   26.10    0.62
   2  -6  -3   25.94    0.75
  -2   6   3   25.44    0.79
  -2   6   3   26.09    0.74
  -2   6   3   25.07    0.63
   1  -6  -3  190.04    3.63
   1  -6  -3  195.11    3.65
  -1   6   3  191.77    3.62
  -1   6   3  192.68    3.78
  -1   6   3  188.93    3.64
  -1   6   3  192.39    3.76
   0  -6  -3   90.98    1.79
   0  -6  -3   91.46    1.85
   0   6   3   91.76    1.81
   0   6   3   91.73    1.94
   0   6   3   90.34    1.86
  -1  -6  -3  237.98    4.54
  -1  -6  -3  232.56    4.31
  -1  -6  -3  242.29    4.46
   1   6   3  229.13    4.46
   1   6   3  233.35    4.49
  -2  -6  -3   81.37    1.80
  -2  -6  -3   81.69    1.74
  -2  -6  -3   79.19    1.55
  -2  -6  -3   77.84    1.55
   2   6   3   79.91    1.74
   2   6   3   80.16    1.77
  -3  -6  -3  220.99    4.20
  -3  -6  -3  225.68    4.45
  -3  -6  -3  229.68    4.42
   3   6   3  233.93    4.43
   3   6   3  226.81    4.41
  -4  -6  -3  121.23    2.54
  -4  -6  -3  118.74    2.34
  -4  -6  -3  120.38    2.54
   4   6   3  119.51    2.54
   4   6   3  116.68    2.53
  -5  -6  -3  116.81    2.52
  -5  -6  -3  113.61    2.32
  -5  -6  -3  113.93    2.52
   5   6   3  116.81    2.37
   5   6   3  116.11    2.54
   5   6   3  110.83    2.57
  -6  -6  -3   42.47    1.29
  -6  -6  -3   41.56    1.13
  -6  -6  -3   42.70    1.28
   6   6   3   41.54    1.26
   6   6   3   43.51    1.15
   6   6   3   42.02    1.30
  -7  -6  -3   62.48    1.72
  -7  -6  -3   60.12    1.67
  -7  -6  -3   59.16    1.53
   7   6   3   59.20    1.73
   7   6   3   60.28    1.55
   7   6   3   60.91    1.67
  -8  -6  -3   32.34    1.29
  -8  -6  -3   32.57    1.20
   8   6   3   33.12    1.23
   8   6   3   33.32    1.16
  -9  -6  -3   14.99    1.10
  -9  -6  -3   16.85    1.18
   9   6   3   15.66    1.04
   9   6   3   16.28    1.04
   7  -7  -3   39.23    1.47
  -7   7   3   37.64    1.46
   6  -7  -3    1.31    0.35
  -6   7   3    0.84    0.35
  -6   7   3    0.42    0.40
   5  -7  -3   64.35    1.72
  -5   7   3   64.42    1.71
  -5   7   3   65.43    1.73
   4  -7  -3    7.49    0.58
  -4   7   3    7.31    0.57
  -4   7   3    8.01    0.58
   3  -7  -3  108.52    2.15
   3  -7  -3  113.14    2.40
  -3   7   3  111.88    2.43
  -3   7   3  115.28    2.41
   2  -7  -3  113.56    2.25
   2  -7  -3  115.82    2.38
  -2   7   3  114.79    2.44
  -2   7   3  114.37    2.48
  -2   7   3  117.69    2.39
  -2   7   3  114.05    2.28
   1  -7  -3  103.69    2.09
   1  -7  -3  104.62    2.12
  -1   7   3  103.98    2.23
  -1   7   3  103.27    2.10
  -1   7   3  104.25    2.12
  -1   7   3  103.05    2.21
   0  -7  -3   53.95    1.18
   0  -7  -3   55.58    1.25
   0   7   3   56.28    1.32
   0   7   3   53.73    1.25
   0   7   3   54.66    1.21
  -1  -7  -3   71.61    1.59
  -1  -7  -3   71.59    1.45
   1   7   3   70.51    1.59
   1   7   3   73.06    1.61
  -2  -7  -3  437.99    8.15
  -2  -7  -3  434.33    7.92
  -2  -7  -3  429.85    7.93
  -2  -7  -3  417.81    8.29
   2   7   3  449.13    8.14
   2   7   3  445.13    8.12
  -3  -7  -3   20.38    0.55
  -3  -7  -3   20.25    0.74
  -3  -7  -3   19.77    0.72
  -3  -7  -3   19.86    0.55
   3   7   3   20.03    0.73
  -4  -7  -3   69.05    1.45
  -4  -7  -3   69.85    1.68
  -4  -7  -3   69.21    1.66
   4   7   3   68.12    1.67
   4   7   3   67.81    1.66
  -5  -7  -3   37.02    0.94
  -5  -7  -3   37.28    1.14
  -5  -7  -3   36.60    1.15
   5   7   3   37.49    1.15
   5   7   3   37.48    1.16
  -6  -7  -3   23.98    0.94
  -6  -7  -3   26.75    1.00
  -6  -7  -3   25.73    1.00
   6   7   3   25.97    0.98
   6   7   3   26.89    1.04
  -7  -7  -3   32.87    1.19
  -7  -7  -3   32.66    1.06
   7   7   3   31.23    1.18
   7   7   3   29.97    1.27
   7   7   3   32.25    1.07
  -8  -7  -3   29.44    1.25
  -8  -7  -3   28.83    1.15
   8   7   3   28.39    1.21
   8   7   3   29.12    1.31
   7  -8  -3   25.95    1.34
  -7   8   3   26.31    1.33
   6  -8  -3   19.01    1.02
  -6   8   3   16.80    1.00
   5  -8  -3   33.60    1.19
  -5   8   3   34.28    1.20
  -5   8   3   34.57    1.22
   4  -8  -3    9.39    0.36
   4  -8  -3    9.73    0.70
   4  -8  -3    9.64    0.36
  -4   8   3    9.00    0.65
  -4   8   3    8.38    0.66
   3  -8  -3   75.08    1.75
   3  -8  -3   71.99    1.63
  -3   8   3   73.82    1.75
  -3   8   3   72.62    1.75
   2  -8  -3   69.18    1.48
   2  -8  -3   70.02    1.60
  -2   8   3   69.75    1.52
  -2   8   3   66.99    1.70
  -2   8   3   69.89    1.64
   1  -8  -3  108.25    2.21
   1  -8  -3  106.04    2.18
  -1   8   3  106.39    2.20
  -1   8   3  105.93    2.22
  -1   8   3  106.06    2.30
  -1   8   3  104.34    2.29
   0  -8  -3   41.30    1.04
   0  -8  -3   40.92    0.98
   0   8   3   39.94    1.00
   0   8   3   40.09    1.08
   0   8   3   40.70    1.06
  -1  -8  -3   41.16    0.95
  -1  -8  -3   40.17    1.12
   1   8   3   42.34    1.08
   1   8   3   40.88    1.09
  -2  -8  -3    6.03    0.31
  -2  -8  -3    5.59    0.48
  -2  -8  -3    4.95    0.48
   2   8   3    5.34    0.48
   2   8   3    5.98    0.48
  -3  -8  -3   48.87    1.30
  -3  -8  -3   50.53    1.34
  -3  -8  -3   48.86    1.09
  -3  -8  -3   48.90    1.09
   3   8   3   47.64    1.31
   3   8   3   49.94    1.29
  -4  -8  -3   40.73    1.18
  -4  -8  -3   41.25    0.98
  -4  -8  -3   41.49    1.23
  -4  -8  -3   40.92    0.99
   4   8   3   40.51    1.21
   4   8   3   41.01    1.20
  -5  -8  -3   50.54    1.64
  -5  -8  -3   53.19    1.25
  -5  -8  -3   55.52    1.51
   5   8   3   52.93    1.49
   5   8   3   54.38    1.50
  -6  -8  -3   30.74    1.16
  -6  -8  -3   30.94    1.11
  -6  -8  -3   27.70    1.32
   6   8   3   32.39    1.15
   6   8   3   32.25    1.20
  -7  -8  -3   43.58    1.42
  -7  -8  -3   41.29    1.25
   7   8   3   42.58    1.42
  -8  -8  -3   25.95    1.08
  -8  -8  -3   26.42    1.25
   8   8   3   26.04    1.24
   6  -9  -3    2.64    0.48
  -6   9   3    3.31    0.52
   5  -9  -3   24.07    1.06
  -5   9   3   21.60    1.06
  -5   9   3   23.98    1.04
   4  -9  -3    8.00    0.44
   4  -9  -3    8.85    0.70
   4  -9  -3    8.42    0.40
  -4   9   3    8.54    0.66
  -4   9   3    8.58    0.68
   3  -9  -3   47.45    1.11
   3  -9  -3   48.09    1.33
  -3   9   3   47.45    1.33
  -3   9   3   48.36    1.34
  -3   9   3   47.77    1.40
   2  -9  -3   21.51    0.78
   2  -9  -3   21.39    0.69
  -2   9   3   21.06    0.79
  -2   9   3   21.38    0.78
  -2   9   3   20.64    0.84
  -2   9   3   21.62    0.72
   1  -9  -3   89.68    1.93
   1  -9  -3   90.37    1.94
  -1   9   3   88.41    1.95
  -1   9   3   88.45    2.04
  -1   9   3   87.71    2.00
  -1   9   3   87.59    1.93
   0  -9  -3   37.91    0.97
   0  -9  -3   38.67    1.05
   0   9   3   31.41    1.43
   0   9   3   37.43    1.00
   0   9   3   39.39    1.05
  -1  -9  -3  117.06    2.35
  -1  -9  -3  119.15    2.52
   1   9   3  116.67    2.51
  -2  -9  -3   56.40    1.48
  -2  -9  -3   55.82    1.27
  -2  -9  -3   57.06    1.25
  -2  -9  -3   57.47    1.48
   2   9   3   57.03    1.47
   2   9   3   58.42    1.48
  -3  -9  -3  291.52    5.63
  -3  -9  -3  288.42    5.61
  -3  -9  -3  282.70    5.35
  -3  -9  -3  281.71    5.35
   3   9   3  288.23    5.57
   3   9   3  289.51    5.63
  -4  -9  -3   86.34    1.84
  -4  -9  -3   89.76    2.10
  -4  -9  -3   87.03    1.85
  -4  -9  -3   90.82    2.14
   4   9   3   86.24    2.08
   4   9   3   90.43    2.14
  -5  -9  -3   40.42    1.05
  -5  -9  -3   40.27    1.04
  -5  -9  -3   40.81    1.34
  -5  -9  -3   38.34    1.37
   5   9   3   40.68    1.30
   5   9   3   41.64    1.31
  -6  -9  -3   40.70    1.33
  -6  -9  -3   40.37    1.13
   6   9   3   38.91    1.34
   6   9   3   36.67    1.40
  -7  -9  -3   51.18    1.61
  -7  -9  -3   49.44    1.42
   7   9   3   49.29    1.63
   5 -10  -3   16.23    0.99
  -5  10   3   15.38    0.95
  -5  10   3   13.90    1.15
   4 -10  -3    3.81    0.45
   4 -10  -3    4.25    0.69
   4 -10  -3    4.70    0.42
  -4  10   3    3.51    0.46
  -4  10   3    4.18    0.67
  -4  10   3    6.01    0.86
   3 -10  -3   65.16    1.51
   3 -10  -3   69.35    1.74
  -3  10   3   68.16    1.75
  -3  10   3   65.24    1.80
  -3  10   3   66.43    1.90
   2 -10  -3   13.86    0.71
  -2  10   3   13.38    0.77
  -2  10   3   15.32    0.73
  -2  10   3   13.10    0.69
  -2  10   3   13.70    0.65
   1 -10  -3   81.05    1.84
   1 -10  -3   83.93    1.85
  -1  10   3   78.50    2.19
  -1  10   3   79.31    1.89
  -1  10   3   79.25    1.88
  -1  10   3   81.91    1.88
   0 -10  -3    7.20    0.61
   0 -10  -3    8.87    0.50
   0  10   3    8.57    0.58
   0  10   3    8.06    0.56
   0  10   3    8.29    0.56
  -1 -10  -3   26.73    0.97
  -1 -10  -3   27.66    0.79
   1  10   3   28.06    0.92
   1  10   3   24.31    1.08
  -2 -10  -3   37.87    0.98
  -2 -10  -3   38.84    1.20
  -2 -10  -3   38.15    0.96
   2  10   3   39.07    1.14
   2  10   3   38.08    1.25
  -3 -10  -3  122.30    2.71
  -3 -10  -3  121.07    2.45
  -3 -10  -3  121.99    2.43
  -3 -10  -3  121.75    2.74
   3  10   3  117.31    2.64
   3  10   3  122.59    2.74
  -4 -10  -3   32.86    0.97
  -4 -10  -3   32.38    1.21
  -4 -10  -3   32.54    0.90
  -4 -10  -3   32.20    1.21
   4  10   3   31.62    1.17
   4  10   3   32.92    1.15
  -5 -10  -3   41.69    1.11
  -5 -10  -3   41.55    1.34
  -5 -10  -3   42.08    1.10
   5  10   3   42.74    1.40
   5  10   3   39.34    1.37
  -6 -10  -3   25.16    0.88
  -6 -10  -3   25.00    1.10
  -6 -10  -3   26.36    0.92
   6  10   3   26.93    1.19
   6  10   3   24.43    1.45
  -7 -10  -3   21.70    0.96
  -7 -10  -3   23.81    1.19
   7  10   3   27.02    1.54
   4 -11  -3    1.90    0.44
  -4  11   3    1.81    0.52
  -4  11   3    1.30    0.40
   3 -11  -3   55.94    1.44
   3 -11  -3   53.17    1.53
  -3  11   3   52.82    1.82
  -3  11   3   53.48    1.58
  -3  11   3   53.24    1.59
   2 -11  -3    3.84    0.62
   2 -11  -3    4.96    0.73
  -2  11   3    4.67    0.58
  -2  11   3    3.89    0.48
  -2  11   3    4.18    0.58
  -2  11   3    4.08    0.65
   1 -11  -3   39.66    1.14
   1 -11  -3   36.87    1.19
  -1  11   3   38.64    1.23
  -1  11   3   40.76    1.19
  -1  11   3   40.32    1.22
  -1  11   3   37.95    1.15
   0 -11  -3   23.47    0.82
   0 -11  -3   23.69    0.98
   0  11   3   24.25    0.89
   0  11   3   23.01    0.92
   0  11   3   24.37    0.94
  -1 -11  -3  113.78    2.57
  -1 -11  -3  112.84    2.36
   1  11   3  113.80    2.55
   1  11   3  112.04    2.48
  -2 -11  -3    1.92    0.38
  -2 -11  -3    1.38    0.27
  -2 -11  -3    1.73    0.25
   2  11   3    1.67    0.32
   2  11   3    2.17    0.38
  -3 -11  -3   84.59    2.20
  -3 -11  -3   86.64    1.83
  -3 -11  -3   83.76    1.83
   3  11   3   85.94    2.14
   3  11   3   83.24    2.06
  -4 -11  -3   13.20    0.85
  -4 -11  -3   12.95    0.59
  -4 -11  -3   13.38    0.63
   4  11   3   12.47    0.86
   4  11   3   12.89    0.89
  -5 -11  -3   65.62    1.83
  -5 -11  -3   66.20    1.66
   5  11   3   68.32    1.94
   5  11   3   63.44    1.88
  -6 -11  -3    8.03    0.83
  -6 -11  -3    9.38    0.92
   6  11   3    9.68    1.03
   2 -12  -3    4.45    0.71
   2 -12  -3    4.87    0.72
  -2  12   3    6.11    0.72
  -2  12   3    4.92    0.60
  -2  12   3    3.94    0.49
   1 -12  -3   19.45    1.36
   1 -12  -3   23.31    1.03
  -1  12   3   22.50    0.95
  -1  12   3   21.67    0.98
  -1  12   3   23.07    1.00
   0 -12  -3   14.70    0.96
   0 -12  -3   12.90    0.71
   0  12   3   13.66    0.75
   0  12   3   13.02    0.86
   0  12   3   13.64    0.81
  -1 -12  -3   66.55    1.54
  -1 -12  -3   61.51    1.59
  -1 -12  -3   60.79    1.79
   1  12   3   62.25    1.65
   1  12   3   63.59    1.66
   1  12   3   63.92    1.72
  -2 -12  -3    0.48    0.25
   2  12   3    0.39    0.31
   2  12   3    0.14    0.39
  -3 -12  -3   37.79    1.13
   3  12   3   38.88    1.37
   3  12   3   39.86    1.32
  -4 -12  -3   23.09    1.11
  -4 -12  -3   22.68    0.80
   4  12   3   21.87    1.15
   4  12   3   22.52    1.11
  -5 -12  -3   24.81    1.21
   5  12   3   29.42    1.60
   0  13   3    2.25    0.44
  -1 -13  -3   59.30    1.55
   1  13   3   55.39    1.69
   1  13   3   53.40    1.72
   2  13   3    5.31    0.84
  -3 -12   4    8.63    0.94
   2  12  -4   36.11    1.47
  -2 -12   4   33.22    1.34
   1  12  -4    3.58    0.51
  -1 -12   4    3.25    0.49
   0  12  -4   26.63    1.28
   0 -12   4   27.94    1.26
  -1  12  -4    1.01    0.43
   1 -12   4    1.66    0.45
  -5 -11   4    0.29    0.43
   4  11  -4   24.28    1.23
  -4 -11   4   25.28    1.18
   3  11  -4    0.16    0.37
  -3 -11   4    0.27    0.33
   2  11  -4   36.96    1.35
  -2 -11   4   34.24    1.74
  -2 -11   4   38.07    1.33
   1  11  -4    6.59    0.78
  -1 -11   4    6.48    0.75
   0  11  -4   60.89    1.76
   0 -11   4   58.02    1.73
  -1  11  -4    0.24    0.32
   1 -11   4    0.07    0.34
   2 -11   4   28.10    1.23
   3 -11   4    1.89    0.46
   6  10  -4   25.18    1.27
  -6 -10   4   25.33    1.27
  -6 -10   4   23.44    1.28
   5  10  -4    0.13    0.31
  -5 -10   4    0.74    0.30
  -5 -10   4    0.61    0.38
   4  10  -4   85.72    1.87
   4  10  -4   92.38    2.30
  -4 -10   4   88.59    1.89
  -4 -10   4   84.36    2.36
  -4 -10   4   89.33    2.30
   3  10  -4    0.06    0.31
  -3 -10   4   -0.10    0.30
  -3 -10   4   -0.09    0.41
   2  10  -4   69.34    1.86
  -2 -10   4   68.48    1.85
  -2 -10   4   65.91    2.13
  -2 -10   4   70.31    1.97
   1  10  -4   -0.15    0.27
  -1 -10   4   -0.21    0.31
  -1 -10   4    0.11    0.27
   0  10  -4   58.77    1.65
   0 -10   4   60.60    1.67
   0 -10   4   56.16    1.66
  -1  10  -4   -0.08    0.26
   1 -10   4    0.46    0.38
   1 -10   4   -0.27    0.28
  -2  10  -4   74.69    2.74
   2 -10   4   74.09    1.99
   2 -10   4   70.88    1.95
   3 -10   4   17.48    0.98
   3 -10   4   16.68    1.07
   4 -10   4   40.01    1.44
   4 -10   4   40.94    1.50
   7   9  -4    1.37    0.52
   7   9  -4    1.96    0.47
  -7  -9   4    1.84    0.47
   6   9  -4   43.94    1.40
   6   9  -4   43.85    1.50
  -6  -9   4   40.90    1.86
   5   9  -4    1.11    0.32
   5   9  -4    1.35    0.34
  -5  -9   4    1.64    0.51
  -5  -9   4    1.89    0.32
  -5  -9   4    1.14    0.38
   4   9  -4   91.91    2.02
   4   9  -4   98.98    2.37
  -4  -9   4   98.51    2.46
  -4  -9   4   96.63    2.06
  -4  -9   4   95.52    2.37
  -4  -9   4   98.95    2.65
   3   9  -4    0.42    0.29
   3   9  -4    0.86    0.20
  -3  -9   4    0.66    0.34
  -3  -9   4    0.96    0.17
  -3  -9   4    0.65    0.30
  -3  -9   4    0.19    0.31
   2   9  -4   96.32    2.26
  -2  -9   4   94.55    2.27
  -2  -9   4   93.85    2.27
  -2  -9   4   92.35    2.32
   1   9  -4   -0.06    0.25
  -1  -9   4    0.48    0.25
  -1  -9   4   -0.09    0.25
   0   9  -4  126.15    2.82
   0  -9   4  127.31    2.81
   0  -9   4  127.08    2.85
  -1   9  -4    0.31    0.25
   1  -9   4    0.08    0.25
   1  -9   4   -0.17    0.24
  -2   9  -4   97.31    2.36
   2  -9   4   98.43    2.36
   2  -9   4   97.02    2.29
  -3   9  -4    1.10    0.36
   3  -9   4    0.61    0.30
   3  -9   4    0.98    0.33
   4  -9   4   48.31    1.49
   4  -9   4   48.91    1.56
  -5   9  -4    0.66    0.25
   5  -9   4    0.59    0.42
   5  -9   4    0.37    0.36
   5  -9   4    0.79    0.33
   7   8  -4   -0.02    0.45
   7   8  -4   -0.01    0.36
  -7  -8   4    0.26    0.39
   6   8  -4   28.56    1.15
   6   8  -4   31.81    1.19
  -6  -8   4   28.83    1.39
   5   8  -4    0.36    0.29
   5   8  -4    0.98    0.29
  -5  -8   4    1.08    0.39
  -5  -8   4    1.27    0.35
  -5  -8   4    1.35    0.30
   4   8  -4  107.62    2.31
   4   8  -4  111.18    2.56
  -4  -8   4  113.14    2.65
  -4  -8   4  115.11    2.44
  -4  -8   4  111.22    2.61
  -4  -8   4  114.86    2.61
   3   8  -4    2.81    0.36
   3   8  -4    3.81    0.32
  -3  -8   4    3.57    0.59
  -3  -8   4    3.78    0.32
  -3  -8   4    3.69    0.59
   2   8  -4  105.81    2.60
  -2  -8   4   99.89    2.38
  -2  -8   4   98.93    2.39
  -2  -8   4  102.91    2.34
   1   8  -4    0.72    0.27
  -1  -8   4    0.32    0.22
  -1  -8   4    0.45    0.24
   0  -8   4   95.12    2.18
   0  -8   4   94.82    2.21
  -1   8  -4   18.70    0.97
  -1   8  -4   19.16    0.85
   1  -8   4   21.08    0.84
  -2   8  -4  244.29    4.89
   2  -8   4  243.01    4.89
   2  -8   4  237.61    4.80
  -3   8  -4    1.38    0.32
   3  -8   4    0.85    0.28
   3  -8   4    0.75    0.28
  -4   8  -4   44.26    1.02
  -4   8  -4   42.37    1.40
   4  -8   4   43.69    1.32
   4  -8   4   45.36    1.42
  -5   8  -4    0.16    0.22
   5  -8   4    0.14    0.34
   5  -8   4   -0.05    0.26
   5  -8   4   -0.06    0.31
  -6   8  -4   46.52    1.30
   6  -8   4   47.55    1.66
   6  -8   4   46.65    1.51
   6  -8   4   46.05    1.44
   6  -8   4   48.09    1.54
   8   7  -4   14.11    1.03
  -8  -7   4   13.13    1.09
   7   7  -4    0.77    0.35
   7   7  -4    0.84    0.48
  -7  -7   4    0.86    0.36
   6   7  -4   23.81    0.99
   6   7  -4   21.79    1.00
  -6  -7   4   22.45    1.04
  -6  -7   4   22.71    1.16
  -6  -7   4   23.46    1.12
   5   7  -4    3.43    0.56
   5   7  -4    3.70    0.53
  -5  -7   4    3.29    0.44
  -5  -7   4    4.17    0.52
  -5  -7   4    3.19    0.41
   4   7  -4   29.97    0.87
   4   7  -4   31.52    1.04
  -4  -7   4   31.28    1.07
  -4  -7   4   30.56    0.92
  -4  -7   4   31.84    1.13
   3   7  -4   16.33    1.13
   3   7  -4   18.38    0.55
  -3  -7   4   19.40    0.85
  -3  -7   4   19.26    0.59
  -3  -7   4   18.05    0.81
  -3  -7   4   18.37    0.80
   2   7  -4  152.87    3.13
   2   7  -4  146.75    2.79
  -2  -7   4  151.97    3.13
  -2  -7   4  150.36    3.17
  -2  -7   4  148.92    2.80
  -2  -7   4  147.03    3.19
   1   7  -4    1.63    0.26
  -1  -7   4    1.32    0.24
   0   7  -4   83.12    1.92
   0  -7   4   84.28    1.92
   0  -7   4   83.21    1.95
  -1   7  -4    0.95    0.22
  -1   7  -4    0.91    0.22
   1  -7   4    1.37    0.24
   1  -7   4    1.27    0.25
  -2   7  -4  316.77    6.13
   2  -7   4  310.25    6.05
   2  -7   4  318.55    6.15
  -3   7  -4    9.42    0.34
  -3   7  -4    8.10    0.64
   3  -7   4    9.71    0.63
   3  -7   4    9.07    0.67
  -4   7  -4  118.08    2.35
  -4   7  -4  118.27    2.69
   4  -7   4  119.03    2.71
   4  -7   4  118.54    2.64
   4  -7   4  115.83    2.36
   4  -7   4  118.68    2.60
  -5   7  -4   -0.27    0.33
  -5   7  -4    0.71    0.23
   5  -7   4    0.54    0.30
   5  -7   4    0.77    0.22
   5  -7   4    0.55    0.29
   5  -7   4    0.59    0.31
  -6   7  -4   51.86    1.39
   6  -7   4   53.89    1.43
   6  -7   4   52.48    1.50
   6  -7   4   50.98    1.65
   6  -7   4   51.91    1.54
  -7   7  -4    2.46    0.42
   7  -7   4    1.86    0.39
   7  -7   4    1.67    0.47
   7  -7   4    2.01    0.45
   7  -7   4    3.09    0.48
   8   6  -4   28.40    1.35
   8   6  -4   28.69    1.19
  -8  -6   4   25.50    1.28
   7   6  -4    1.77    0.36
   7   6  -4    1.93    0.47
  -7  -6   4    2.37    0.41
  -7  -6   4    1.96    0.40
  -7  -6   4    2.42    0.60
   6   6  -4   79.97    1.97
   6   6  -4   78.41    1.96
  -6  -6   4   78.64    2.05
  -6  -6   4   82.52    2.11
  -6  -6   4   83.25    2.02
   5   6  -4    6.19    0.58
   5   6  -4    6.56    0.62
  -5  -6   4    6.31    0.67
  -5  -6   4    6.64    0.62
  -5  -6   4    6.49    0.54
   4   6  -4  159.18    3.29
   4   6  -4  155.51    3.15
  -4  -6   4  162.43    3.19
  -4  -6   4  161.82    3.39
  -4  -6   4  156.87    3.31
   3   6  -4   16.55    0.51
   3   6  -4   15.34    0.67
  -3  -6   4   16.90    0.55
  -3  -6   4   15.97    0.70
  -3  -6   4   16.49    0.74
   2   6  -4  128.49    2.67
   2   6  -4  124.72    2.41
  -2  -6   4  127.34    2.42
  -2  -6   4  127.99    2.67
  -2  -6   4  125.20    2.71
  -2  -6   4  130.15    2.75
   1   6  -4    2.59    0.36
  -1  -6   4    2.61    0.36
   0   6  -4  218.95    4.33
   0  -6   4  224.85    4.34
   0  -6   4  220.10    4.37
  -1   6  -4   11.17    0.55
  -1   6  -4   11.44    0.56
   1  -6   4   11.05    0.53
   1  -6   4   10.88    0.58
  -2   6  -4   32.72    0.99
   2  -6   4   32.40    0.95
   2  -6   4   32.63    1.01
  -3   6  -4   -0.08    0.19
  -3   6  -4    0.25    0.12
   3  -6   4   -0.16    0.20
   3  -6   4    0.14    0.19
  -4   6  -4   62.33    1.60
  -4   6  -4   61.22    1.35
   4  -6   4   60.48    1.61
   4  -6   4   62.11    1.54
   4  -6   4   58.96    1.53
   4  -6   4   58.95    1.37
  -5   6  -4    0.31    0.21
  -5   6  -4    0.35    0.27
   5  -6   4    0.47    0.25
   5  -6   4    0.35    0.21
   5  -6   4    0.55    0.28
   5  -6   4    0.49    0.27
  -6   6  -4   65.75    1.63
   6  -6   4   64.02    1.72
   6  -6   4   65.41    1.89
   6  -6   4   67.10    1.86
   6  -6   4   64.97    1.64
  -7   6  -4   -0.06    0.33
   7  -6   4   -0.26    0.37
   7  -6   4    0.34    0.28
   7  -6   4   -0.03    0.36
   7  -6   4   -0.07    0.37
  -8   6  -4   42.60    1.47
   8  -6   4   40.92    1.89
   8  -6   4   42.18    1.37
   8   5  -4   78.06    1.98
   8   5  -4   80.83    2.19
  -8  -5   4   73.79    2.12
  -8  -5   4   71.03    1.98
   7   5  -4   -0.07    0.35
   7   5  -4   -0.33    0.26
   7   5  -4   -0.57    0.30
  -7  -5   4   -0.05    0.29
  -7  -5   4    0.26    0.33
  -7  -5   4   -0.06    0.35
   6   5  -4   60.55    1.81
   6   5  -4   63.83    1.71
   6   5  -4   67.20    1.79
  -6  -5   4   65.09    1.67
  -6  -5   4   67.69    1.79
  -6  -5   4   65.13    1.72
   5   5  -4    2.53    0.31
   5   5  -4    2.71    0.30
  -5  -5   4    2.18    0.33
  -5  -5   4    2.55    0.32
  -5  -5   4    2.61    0.32
   4   5  -4  147.80    3.02
   4   5  -4  146.24    2.93
  -4  -5   4  144.51    2.95
  -4  -5   4  147.91    3.11
  -4  -5   4  145.49    3.03
   3   5  -4    6.08    0.32
   3   5  -4    5.13    0.43
  -3  -5   4    5.91    0.36
  -3  -5   4    5.12    0.43
  -3  -5   4    5.36    0.48
   2   5  -4  179.97    3.42
   2   5  -4  188.38    3.63
  -2  -5   4  185.07    3.43
  -2  -5   4  175.24    3.75
  -2  -5   4  186.22    3.69
  -2  -5   4  184.94    3.70
   1   5  -4   42.10    1.07
  -1  -5   4   42.26    1.07
  -1  -5   4   41.00    1.11
   0   5  -4  385.42    7.19
   0  -5   4  392.13    7.24
   0  -5   4  375.57    7.18
  -1   5  -4   59.50    1.40
  -1   5  -4   58.21    1.41
   1  -5   4   59.52    1.39
   1  -5   4   59.53    1.43
  -2   5  -4  231.64    4.51
  -2   5  -4  231.42    4.21
   2  -5   4  234.17    4.48
   2  -5   4  226.71    4.21
   2  -5   4  231.17    4.53
  -3   5  -4   58.84    1.46
  -3   5  -4   58.20    1.22
   3  -5   4   58.67    1.23
   3  -5   4   56.57    1.46
  -4   5  -4  176.13    3.37
  -4   5  -4  171.99    3.57
   4  -5   4  176.91    3.38
   4  -5   4  173.00    3.51
   4  -5   4  170.67    3.53
   4  -5   4  172.02    3.60
  -5   5  -4    5.30    0.54
  -5   5  -4    4.57    0.44
   5  -5   4    5.32    0.44
   5  -5   4    5.09    0.54
   5  -5   4    4.45    0.54
   5  -5   4    5.20    0.50
  -6   5  -4   99.86    2.40
  -6   5  -4  102.85    2.25
   6  -5   4   98.34    2.41
   6  -5   4   98.78    2.24
   6  -5   4   99.53    2.27
   6  -5   4   98.36    2.29
  -7   5  -4    0.49    0.31
   7  -5   4    0.52    0.28
   7  -5   4    0.75    0.35
   7  -5   4    0.34    0.36
  -8   5  -4   51.62    1.63
   8  -5   4   52.88    1.81
   8  -5   4   54.44    1.78
   8  -5   4   52.18    1.52
   8  -5   4   53.81    1.64
   9   4  -4    2.59    0.43
   9   4  -4    2.61    0.58
  -9  -4   4    2.72    0.58
  -9  -4   4    2.45    0.47
   8   4  -4   30.25    1.26
   8   4  -4   27.79    1.08
  -8  -4   4   29.53    1.12
  -8  -4   4   27.67    1.28
   7   4  -4    8.35    0.77
   7   4  -4    7.95    0.76
   7   4  -4    7.10    0.76
  -7  -4   4    7.07    0.81
  -7  -4   4    7.69    0.75
  -7  -4   4    6.68    0.67
   6   4  -4   96.40    2.26
   6   4  -4   98.10    2.20
   6   4  -4   99.94    2.35
  -6  -4   4   99.19    2.34
  -6  -4   4   98.06    2.21
  -6  -4   4   98.76    2.31
   5   4  -4   12.82    0.71
   5   4  -4   12.72    0.60
   5   4  -4   11.87    0.62
  -5  -4   4   12.84    0.70
  -5  -4   4   12.99    0.61
  -5  -4   4   12.06    0.66
   4   4  -4   86.06    1.87
   4   4  -4   85.76    1.91
   4   4  -4   86.60    2.00
  -4  -4   4   91.58    2.03
  -4  -4   4   86.48    2.04
   3   4  -4   25.84    0.70
   3   4  -4   25.59    0.77
  -3  -4   4   26.56    0.84
  -3  -4   4   25.87    0.72
  -3  -4   4   25.61    0.77
   2   4  -4  525.54    9.74
   2   4  -4  522.49    9.60
  -2  -4   4  531.34    9.75
  -2  -4   4  534.78    9.83
  -2  -4   4  534.29    9.61
   1   4  -4   44.12    1.05
  -1  -4   4   42.66    0.86
  -1  -4   4   41.14    1.09
  -1  -4   4   43.50    1.06
   0   4  -4  277.69    5.31
   0  -4   4  283.22    5.31
   0  -4   4  283.03    5.35
  -1   4  -4    0.18    0.13
   1  -4   4   -0.13    0.11
   1  -4   4    0.14    0.12
  -2   4  -4  319.28    6.04
  -2   4  -4  326.89    5.82
   2  -4   4  314.93    6.05
   2  -4   4  320.05    5.82
   2  -4   4  317.29    6.02
  -3   4  -4   13.27    0.58
  -3   4  -4   14.05    0.45
   3  -4   4   14.45    0.58
   3  -4   4   14.18    0.59
   3  -4   4   13.69    0.59
  -4   4  -4  236.77    4.37
  -4   4  -4  236.46    4.53
   4  -4   4  232.94    4.55
   4  -4   4  236.34    4.38
   4  -4   4  201.52    4.91
   4  -4   4  230.93    4.49
  -5   4  -4   14.65    0.70
  -5   4  -4   14.07    0.60
   5  -4   4   13.91    0.64
   5  -4   4   14.05    0.67
   5  -4   4   14.88    0.61
  -6   4  -4  135.62    2.85
  -6   4  -4  132.72    2.95
   6  -4   4  133.31    2.99
   6  -4   4  135.47    2.85
   6  -4   4  130.19    2.87
   6  -4   4  134.36    2.85
  -7   4  -4   -0.24    0.42
  -7   4  -4    0.10    0.29
   7  -4   4   -0.42    0.29
   7  -4   4   -0.17    0.27
   7  -4   4   -0.13    0.27
  -8   4  -4   26.42    1.17
   8  -4   4   26.20    1.03
   8  -4   4   28.86    1.23
   8  -4   4   31.63    1.31
   8  -4   4   26.47    1.22
   9   3  -4    5.93    0.77
   9   3  -4    8.73    1.06
  -9  -3   4    4.82    0.67
  -9  -3   4    6.67    0.87
   8   3  -4   19.19    1.04
   8   3  -4   18.64    0.89
  -8  -3   4   19.67    1.09
  -8  -3   4   19.00    0.86
   7   3  -4   20.39    0.97
   7   3  -4   20.31    0.98
   7   3  -4   20.32    0.81
  -7  -3   4   19.37    0.97
  -7  -3   4   20.01    0.99
  -7  -3   4   21.44    0.82
   6   3  -4   51.69    1.31
   6   3  -4   50.86    1.43
   6   3  -4   51.62    1.45
  -6  -3   4   51.61    1.47
  -6  -3   4   53.19    1.32
  -6  -3   4   50.52    1.46
   5   3  -4   43.80    1.12
   5   3  -4   43.58    1.18
   5   3  -4   42.68    1.23
  -5  -3   4   43.76    1.20
  -5  -3   4   43.20    1.13
  -5  -3   4   43.65    1.25
   4   3  -4   55.90    1.41
   4   3  -4   57.55    1.34
   4   3  -4   57.47    1.32
  -4  -3   4   56.81    1.36
  -4  -3   4   57.70    1.44
  -4  -3   4   56.95    1.33
   3   3  -4  138.19    2.80
   3   3  -4  135.66    2.70
   3   3  -4  136.49    2.68
  -3  -3   4  136.89    2.70
  -3  -3   4  135.74    2.80
  -3  -3   4  135.32    2.92
   2   3  -4  806.08   14.76
  -2  -3   4  820.03   14.78
  -2  -3   4  817.63   14.85
   1   3  -4  127.69    2.50
  -1  -3   4  125.89    2.36
  -1  -3   4  126.85    2.55
  -1  -3   4  123.39    2.49
   0   3  -4  153.99    2.95
   0  -3   4  151.73    2.98
   0  -3   4  141.05    2.79
   0  -3   4  152.29    2.76
   0  -3   4  156.72    2.96
  -1   3  -4   67.04    1.27
  -1   3  -4   65.22    1.45
   1  -3   4   65.69    1.46
   1  -3   4   67.27    1.51
   1  -3   4   65.58    1.26
  -2   3  -4  493.72    9.11
  -2   3  -4  507.16    8.95
   2  -3   4  491.93    9.12
   2  -3   4  492.08    9.11
   2  -3   4  487.11    8.95
  -3   3  -4   99.44    2.09
  -3   3  -4  102.14    1.98
   3  -3   4   98.23    2.11
   3  -3   4   98.90    2.09
   3  -3   4   99.85    2.01
   3  -3   4   94.88    2.08
  -4   3  -4  258.88    5.02
  -4   3  -4  259.75    4.92
   4  -3   4  260.92    4.93
   4  -3   4  256.30    5.04
   4  -3   4  262.76    5.01
  -5   3  -4   10.67    0.59
  -5   3  -4   11.07    0.54
   5  -3   4   10.17    0.54
   5  -3   4   10.33    0.61
   5  -3   4   11.53    0.55
  -6   3  -4  144.63    3.04
  -6   3  -4  145.49    3.11
   6  -3   4  144.59    3.04
   6  -3   4  143.78    3.13
   6  -3   4  142.60    3.01
  -7   3  -4   18.89    0.92
  -7   3  -4   18.42    0.86
   7  -3   4   17.56    0.93
   7  -3   4   17.21    0.91
   7  -3   4   19.26    0.89
  -8   3  -4   25.68    1.12
   8  -3   4   25.80    1.15
   8  -3   4   26.36    0.99
   8  -3   4   22.97    1.14
  -9   3  -4    1.65    0.47
   9  -3   4    0.97    0.38
   9  -3   4    1.31    0.47
   9   2  -4   11.47    0.82
   9   2  -4   10.87    1.05
  -9  -2   4   10.61    0.84
  -9  -2   4    9.49    1.13
   8   2  -4    8.42    0.64
   8   2  -4    7.98    0.82
  -8  -2   4    8.11    0.88
  -8  -2   4    7.11    0.65
   7   2  -4   25.01    1.03
   7   2  -4   24.94    1.08
   7   2  -4   25.11    0.84
  -7  -2   4   25.58    1.08
  -7  -2   4   26.58    1.07
  -7  -2   4   24.35    0.83
   6   2  -4   76.36    2.15
   6   2  -4   80.90    1.78
   6   2  -4   82.12    1.96
  -6  -2   4   82.28    1.80
  -6  -2   4   80.32    2.03
  -6  -2   4   83.45    2.00
   5   2  -4   90.56    2.11
   5   2  -4   93.40    2.08
   5   2  -4   95.11    1.97
  -5  -2   4   94.84    2.11
  -5  -2   4   95.35    2.00
  -5  -2   4   92.06    2.12
   4   2  -4  116.08    2.47
   4   2  -4  117.24    2.34
   4   2  -4  120.09    2.43
  -4  -2   4  121.81    2.36
  -4  -2   4  108.78    2.93
  -4  -2   4  119.08    2.45
   3   2  -4   74.39    1.54
   3   2  -4   74.02    1.64
   3   2  -4   74.11    1.57
  -3  -2   4   74.74    1.55
  -3  -2   4   72.49    1.58
  -3  -2   4   73.67    1.65
   2   2  -4  320.99    6.08
   2   2  -4  330.55    6.07
  -2  -2   4  329.14    6.16
  -2  -2   4  330.62    6.06
  -2  -2   4  334.26    6.08
   1   2  -4  267.86    4.93
  -1  -2   4  270.39    5.00
  -1  -2   4  259.07    4.93
  -1  -2   4  263.71    4.86
   0   2  -4  240.07    4.48
   0  -2   4  236.34    4.37
   0  -2   4  237.18    4.50
   0  -2   4  241.47    4.48
  -1   2  -4  276.79    5.02
  -1   2  -4  279.55    5.14
   1  -2   4  274.86    5.15
   1  -2   4  270.00    5.15
   1  -2   4  274.88    5.01
  -3   2  -4    0.13    0.11
  -3   2  -4    0.26    0.13
   3  -2   4    0.28    0.12
   3  -2   4    0.43    0.13
   3  -2   4    0.03    0.12
  -4   2  -4  205.31    3.93
  -4   2  -4  209.09    4.00
   4  -2   4  205.38    3.98
   4  -2   4  194.59    3.92
   4  -2   4  205.33    4.01
  -5   2  -4   20.89    0.72
  -5   2  -4   20.32    0.73
   5  -2   4   19.95    0.75
   5  -2   4   19.35    0.70
   5  -2   4   19.34    0.74
  -6   2  -4  222.89    4.43
  -6   2  -4  224.65    4.46
   6  -2   4  209.51    4.65
   6  -2   4  225.12    4.44
   6  -2   4  227.34    4.39
  -7   2  -4    1.36    0.33
   7  -2   4    0.76    0.24
   7  -2   4    0.80    0.29
   7  -2   4    1.20    0.33
  -8   2  -4   66.47    2.15
   8  -2   4   72.40    1.93
   8  -2   4   64.09    1.89
   8  -2   4   70.86    1.77
  -9   2  -4    0.78    0.43
   9  -2   4    0.71    0.43
   9  -2   4    0.73    0.35
   9   1  -4    8.91    1.01
   9   1  -4    7.41    0.70
  -9  -1   4    8.00    1.09
   8   1  -4   20.96    0.79
   8   1  -4   21.42    1.06
  -8  -1   4   19.81    0.79
  -8  -1   4   21.43    1.12
   7   1  -4   16.76    0.64
   7   1  -4   16.63    0.84
   7   1  -4   15.19    0.87
  -7  -1   4   15.53    0.89
  -7  -1   4   17.03    0.64
  -7  -1   4   15.08    0.88
   6   1  -4   66.46    1.52
   6   1  -4   68.67    1.71
   6   1  -4   62.96    2.11
  -6  -1   4   66.54    1.71
  -6  -1   4   62.65    1.92
  -6  -1   4   68.22    1.48
   5   1  -4   34.35    1.02
   5   1  -4   34.90    1.04
   5   1  -4   35.86    0.88
  -5  -1   4   35.16    1.05
  -5  -1   4   34.56    1.06
  -5  -1   4   35.43    0.88
   4   1  -4   62.44    1.48
   4   1  -4   63.47    1.45
   4   1  -4   61.98    1.32
  -4  -1   4   62.01    1.49
  -4  -1   4   61.26    1.33
  -4  -1   4   64.46    1.48
   3   1  -4  119.99    2.31
   3   1  -4  117.71    2.42
   3   1  -4  118.82    2.39
  -3  -1   4  119.81    2.44
  -3  -1   4  118.01    2.41
  -3  -1   4  122.25    2.51
   2   1  -4  174.31    3.32
   2   1  -4  169.96    3.22
   2   1  -4  166.98    3.29
  -2  -1   4  171.59    3.32
  -2  -1   4  170.05    3.23
  -2  -1   4  177.96    3.29
   1   1  -4   59.13    1.21
  -1  -1   4   56.93    1.49
  -1  -1   4   59.61    1.21
  -1  -1   4   58.95    1.22
   0  -1   4   33.25    0.74
   0  -1   4   33.94    0.79
   0  -1   4   31.87    0.77
  -1   1  -4  343.59    6.26
  -1   1  -4  338.41    6.30
   1  -1   4  350.36    6.32
   1  -1   4  341.00    6.25
  -2   1  -4  440.80    8.12
  -2   1  -4  451.58    8.09
   2  -1   4  435.34    8.09
   2  -1   4  449.61    8.14
  -3   1  -4  104.41    2.12
  -3   1  -4  106.42    2.11
   3  -1   4  104.79    2.14
   3  -1   4  104.66    2.15
   3  -1   4  105.03    2.11
  -4   1  -4   69.70    1.56
  -4   1  -4   69.30    1.55
  -4   1  -4   71.96    1.56
   4  -1   4   69.76    1.57
   4  -1   4   69.18    1.55
   4  -1   4   69.52    1.56
  -5   1  -4   24.39    0.79
  -5   1  -4   25.60    0.80
   5  -1   4   25.22    0.81
   5  -1   4   25.37    0.79
   5  -1   4   21.42    1.03
  -6   1  -4   92.02    2.12
  -6   1  -4   93.09    2.11
  -6   1  -4   90.61    2.07
   6  -1   4   93.50    2.07
   6  -1   4   94.24    2.14
   6  -1   4   92.62    2.13
  -7   1  -4   12.32    0.74
  -7   1  -4   12.34    0.74
  -7   1  -4   12.95    0.70
   7  -1   4   12.86    0.73
   7  -1   4   12.41    0.66
   7  -1   4   11.72    0.75
  -8   1  -4   67.63    1.89
  -8   1  -4   70.57    1.81
  -8   1  -4   65.57    1.88
   8  -1   4   72.16    1.89
   8  -1   4   69.39    1.76
   8  -1   4   64.76    1.93
  -9   1  -4    0.89    0.42
   9  -1   4    0.21    0.40
   9  -1   4    0.16    0.32
   9   0  -4    5.26    0.60
   9   0  -4    4.21    0.56
  -9   0   4    3.45    0.60
   8   0  -4   15.61    0.66
   8   0  -4   15.71    0.95
  -8   0   4   15.69    1.00
  -8   0   4   16.23    0.68
   7   0  -4   20.55    0.95
   7   0  -4   17.94    0.63
   7   0  -4   18.91    0.91
  -7   0   4   18.86    0.63
  -7   0   4   17.94    0.93
  -7   0   4   17.86    0.92
   6   0  -4   32.62    1.51
   6   0  -4   35.59    0.89
   6   0  -4   38.66    1.18
  -6   0   4   36.45    0.90
  -6   0   4   36.32    1.18
   5   0  -4   30.54    0.96
   5   0  -4   31.60    0.98
   5   0  -4   30.95    0.75
  -5   0   4   31.12    1.00
  -5   0   4   30.54    0.97
  -5   0   4   32.02    0.77
   4   0  -4  243.88    4.73
   4   0  -4  243.71    4.53
   4   0  -4  248.88    4.74
  -4   0   4  247.36    4.75
  -4   0   4  244.21    4.54
  -4   0   4  245.91    4.76
   3   0  -4   39.06    0.84
   3   0  -4   38.88    0.98
   3   0  -4   38.94    0.97
  -3   0   4   39.46    1.09
  -3   0   4   39.86    0.84
  -3   0   4   40.25    0.99
   2   0  -4  440.87    8.14
   2   0  -4  437.26    8.03
   2   0  -4  441.77    8.14
  -2   0   4  454.21    8.16
  -2   0   4  452.78    8.16
  -2   0   4  438.71    8.04
   1   0  -4  434.19    7.80
  -1   0   4  424.87    7.80
  -1   0   4  430.58    7.81
  -1   0   4  419.55    7.75
   0   0   4   30.81    0.73
  -1   0  -4   57.57    1.19
  -1   0  -4   57.83    1.17
   1   0   4   58.48    1.18
   1   0   4   57.27    1.19
   1   0   4   56.21    1.21
  -2   0  -4  486.39    8.94
  -2   0  -4  486.25    8.99
  -2   0  -4  500.40    8.97
   2   0   4  491.56    9.00
   2   0   4  491.70    8.95
   2   0   4  498.18    9.08
  -3   0  -4  164.20    3.16
  -3   0  -4  162.78    3.13
  -3   0  -4  163.66    3.18
   3   0   4  161.14    3.17
   3   0   4  163.79    3.19
   3   0   4  166.38    3.15
  -4   0  -4  139.25    2.77
  -4   0  -4  139.94    2.74
  -4   0  -4  135.82    2.77
   4   0   4  135.21    2.74
   4   0   4  139.61    2.78
   4   0   4  137.29    2.77
  -5   0  -4   35.27    0.96
  -5   0  -4   35.77    1.01
   5   0   4   36.22    0.98
   5   0   4   35.20    1.15
   5   0   4   35.86    0.98
  -6   0  -4   75.38    1.74
  -6   0  -4   72.84    1.78
  -6   0  -4   73.33    1.73
   6   0   4   71.98    1.79
   6   0   4   72.85    1.74
   6   0   4   74.78    1.72
  -7   0  -4   52.05    1.42
  -7   0  -4   52.52    1.44
  -7   0  -4   53.57    1.49
   7   0   4   50.81    1.49
   7   0   4   53.45    1.46
   7   0   4   53.02    1.49
  -8   0  -4  107.91    2.58
  -8   0  -4  110.40    2.53
  -8   0  -4  108.09    2.62
   8   0   4  111.72    2.50
   8   0   4  112.45    2.60
   8   0   4  107.28    2.65
  -9   0  -4   -0.06    0.37
  -9   0  -4    0.67    0.38
   9   0   4    0.56    0.35
   9   0   4    0.30    0.32
   9  -1  -4   23.13    1.32
  -9   1   4   23.92    1.40
   8  -1  -4   16.40    0.62
   8  -1  -4   16.49    0.98
  -8   1   4   16.07    0.61
  -8   1   4   15.59    1.02
   7  -1  -4   13.16    0.82
   7  -1  -4   11.37    0.46
   7  -1  -4   11.53    0.77
  -7   1   4   10.97    0.84
  -7   1   4   11.95    0.47
  -7   1   4   12.25    0.85
   6  -1  -4   48.99    1.08
   6  -1  -4   51.65    1.43
   6  -1  -4   48.52    1.61
  -6   1   4   51.24    1.53
  -6   1   4   50.59    1.32
  -6   1   4   51.21    1.44
   5  -1  -4   59.12    1.48
   5  -1  -4   59.79    1.49
   5  -1  -4   57.77    1.19
  -5   1   4   58.39    1.20
  -5   1   4   59.57    1.50
   4  -1  -4  157.73    3.14
   4  -1  -4  154.92    2.88
   4  -1  -4  152.61    3.18
  -4   1   4  158.83    3.15
  -4   1   4  156.33    3.17
  -4   1   4  154.29    2.88
   3  -1  -4    8.07    0.24
   3  -1  -4    7.75    0.40
   3  -1  -4    8.11    0.40
  -3   1   4    8.35    0.24
  -3   1   4    8.06    0.41
  -3   1   4    8.20    0.43
   2  -1  -4  254.28    4.70
   2  -1  -4  246.80    4.73
  -2   1   4  258.36    4.76
  -2   1   4  253.70    4.71
  -2   1   4  245.14    4.56
   1  -1  -4   19.06    0.50
  -1   1   4   19.53    0.51
  -1   1   4   21.97    0.46
  -1   1   4   19.19    0.56
  -1   1   4   18.70    0.46
   0   1   4  256.02    4.82
   0   1   4  264.34    4.74
   0   1   4  254.92    4.72
  -1  -1  -4   79.13    1.52
  -1  -1  -4   78.60    1.58
  -1  -1  -4   80.60    1.61
   1   1   4   79.99    1.62
   1   1   4   78.87    1.59
   1   1   4   79.86    1.52
  -2  -1  -4  457.06    8.32
  -2  -1  -4  462.31    8.41
  -2  -1  -4  458.66    8.40
   2   1   4  458.79    8.32
   2   1   4  463.99    8.42
   2   1   4  458.33    8.41
  -3  -1  -4   93.07    1.93
  -3  -1  -4   95.18    1.95
  -3  -1  -4   94.58    1.94
   3   1   4   93.47    1.95
   3   1   4   93.82    1.87
   3   1   4   93.85    1.93
  -4  -1  -4  153.38    2.97
  -4  -1  -4  156.51    3.04
  -4  -1  -4  151.10    3.05
   4   1   4  154.77    3.06
   4   1   4  151.06    3.03
   4   1   4  149.67    2.97
  -5  -1  -4   85.21    2.10
  -5  -1  -4   90.90    1.93
  -5  -1  -4   92.05    2.01
   5   1   4   92.02    2.02
   5   1   4   91.36    1.98
   5   1   4   90.76    1.94
  -6  -1  -4   49.13    1.26
  -6  -1  -4   48.29    1.28
  -6  -1  -4   48.83    1.34
   6   1   4   48.19    1.34
   6   1   4   47.46    1.27
   6   1   4   48.59    1.27
  -7  -1  -4   58.06    1.53
  -7  -1  -4   58.77    1.54
  -7  -1  -4   59.94    1.61
   7   1   4   60.23    1.62
   7   1   4   57.10    1.58
  -8  -1  -4   64.14    1.82
  -8  -1  -4   67.52    1.77
  -8  -1  -4   65.00    1.72
   8   1   4   66.13    1.72
   8   1   4   66.03    1.75
   8   1   4   60.77    1.84
  -9  -1  -4    7.81    0.99
  -9  -1  -4    6.67    0.87
   9   1   4    8.36    0.84
   9   1   4    7.17    0.76
   9  -2  -4   18.05    1.25
  -9   2   4   18.45    1.32
  -8   2   4    3.35    0.49
   7  -2  -4   12.53    0.82
   7  -2  -4   12.51    0.85
  -7   2   4   13.87    0.88
  -7   2   4   14.62    0.91
   6  -2  -4   88.21    2.13
   6  -2  -4   89.13    2.15
  -6   2   4   88.52    2.15
  -6   2   4   90.80    2.19
   5  -2  -4   72.79    1.77
   5  -2  -4   75.51    1.79
  -5   2   4   73.55    1.78
  -5   2   4   74.73    1.81
   4  -2  -4    1.02    0.23
   4  -2  -4    1.02    0.20
  -4   2   4    1.29    0.22
  -4   2   4    1.29    0.23
   3  -2  -4  377.33    6.90
   3  -2  -4  380.67    6.94
  -3   2   4  366.48    6.95
  -3   2   4  359.53    6.89
   2  -2  -4  269.40    5.01
  -2   2   4  268.78    5.10
  -2   2   4  269.76    5.01
   1  -2  -4  133.36    2.50
  -1   2   4  131.17    2.62
  -1   2   4  134.07    2.44
  -1   2   4  130.48    2.50
   0  -2  -4  207.71    3.73
   0  -2  -4  202.21    3.77
   0   2   4  206.24    3.77
   0   2   4  202.80    3.73
   0   2   4  203.57    3.92
  -1  -2  -4  217.55    3.89
  -1  -2  -4  208.70    3.94
   1   2   4  216.72    3.89
   1   2   4  186.58    3.78
   1   2   4  212.03    3.95
  -3  -2  -4  256.82    4.79
  -3  -2  -4  260.55    4.91
   3   2   4  255.52    4.79
   3   2   4  268.06    4.95
   3   2   4  261.18    4.91
  -4  -2  -4  208.47    4.02
  -4  -2  -4  205.86    3.89
  -4  -2  -4  206.92    3.99
   4   2   4  203.83    3.99
   4   2   4  202.98    3.90
   4   2   4  208.59    4.03
  -5  -2  -4   32.33    0.92
  -5  -2  -4   32.19    0.86
  -5  -2  -4   32.21    0.96
   5   2   4   31.19    0.96
   5   2   4   32.85    0.87
   5   2   4   32.51    0.93
  -6  -2  -4  386.44    7.21
  -6  -2  -4  366.07    7.18
  -6  -2  -4  380.45    7.27
   6   2   4  379.20    7.16
   6   2   4  381.80    7.29
   6   2   4  383.61    7.22
  -7  -2  -4   79.63    1.96
  -7  -2  -4   81.64    2.00
  -7  -2  -4   78.58    1.89
   7   2   4   78.90    1.90
   7   2   4   78.93    1.93
   7   2   4   80.87    2.02
  -8  -2  -4   55.62    1.56
  -8  -2  -4   55.61    1.66
  -8  -2  -4   57.79    1.57
   8   2   4   56.03    1.57
   8   2   4   52.62    1.73
   8   2   4   55.73    1.55
  -9  -2  -4   20.94    1.13
   9   2   4   20.96    1.02
   9   2   4   19.70    1.01
   8  -3  -4    9.61    0.92
  -8   3   4    9.61    0.99
   7  -3  -4   30.15    1.18
   7  -3  -4   29.44    1.18
  -7   3   4   31.20    1.23
  -7   3   4   29.05    1.21
   6  -3  -4   45.96    1.36
   6  -3  -4   44.53    1.38
  -6   3   4   45.47    1.40
  -6   3   4   44.04    1.37
   5  -3  -4  144.19    3.04
   5  -3  -4  143.40    3.05
  -5   3   4  143.97    3.05
  -5   3   4  144.45    3.09
   4  -3  -4   12.58    0.58
   4  -3  -4   13.09    0.57
  -4   3   4   11.35    0.80
  -4   3   4   11.05    0.58
   3  -3  -4  271.06    5.29
   3  -3  -4  276.54    5.24
  -3   3   4  281.33    5.33
  -3   3   4  281.36    5.25
   2  -3  -4  755.46   13.78
  -2   3   4  759.92   13.89
  -2   3   4  768.81   13.78
   1  -3  -4  335.89    6.07
   1  -3  -4  338.76    6.14
  -1   3   4  335.34    6.08
  -1   3   4  333.40    6.14
  -1   3   4  338.53    6.30
   0  -3  -4  249.31    4.56
   0  -3  -4  246.93    4.50
   0   3   4  244.50    4.49
   0   3   4  249.12    4.56
   0   3   4  252.07    4.71
  -1  -3  -4  151.42    2.97
  -1  -3  -4  158.13    3.09
   1   3   4  148.53    2.97
   1   3   4  149.33    2.89
  -2  -3  -4 1000.00   18.04
  -3  -3  -4   73.32    1.56
  -3  -3  -4   70.76    1.58
  -3  -3  -4   72.53    1.41
   3   3   4   71.73    1.42
   3   3   4   72.00    1.56
  -4  -3  -4  181.55    3.62
  -4  -3  -4  182.21    3.58
  -4  -3  -4  183.36    3.46
   4   3   4  183.54    3.60
   4   3   4  182.55    3.63
   4   3   4  182.27    3.46
  -5  -3  -4    0.58    0.19
  -5  -3  -4    0.58    0.17
  -5  -3  -4    0.67    0.15
   5   3   4    0.42    0.17
   5   3   4    0.70    0.23
   5   3   4    0.35    0.15
  -6  -3  -4  218.54    4.34
  -6  -3  -4  210.04    4.41
  -6  -3  -4  218.42    4.47
   6   3   4  218.36    4.41
   6   3   4  220.02    4.26
   6   3   4  218.41    4.34
  -7  -3  -4   33.07    1.14
  -7  -3  -4   32.14    1.08
  -7  -3  -4   31.42    1.02
   7   3   4   34.26    1.17
   7   3   4   30.69    1.01
   7   3   4   29.90    1.20
  -8  -3  -4   63.84    1.71
  -8  -3  -4   65.06    1.84
  -8  -3  -4   63.44    1.74
   8   3   4   64.84    1.75
   8   3   4   64.82    1.73
  -9  -3  -4    8.69    0.91
  -9  -3  -4    6.55    1.10
   9   3   4    9.72    0.84
   9   3   4    8.90    0.80
   8  -4  -4    8.84    0.97
  -8   4   4   10.95    1.07
   7  -4  -4   34.59    1.29
   7  -4  -4   32.63    1.34
  -7   4   4   32.66    1.36
  -7   4   4   33.72    1.31
   6  -4  -4   27.43    1.05
   6  -4  -4   24.76    1.04
  -6   4   4   25.26    1.05
  -6   4   4   27.18    1.07
   5  -4  -4   30.81    1.03
   5  -4  -4   30.81    1.04
  -5   4   4   32.33    1.10
  -5   4   4   32.00    1.05
   4  -4  -4   18.89    0.72
   4  -4  -4   19.21    0.71
  -4   4   4   18.47    0.75
  -4   4   4   19.14    0.72
   3  -4  -4  223.03    4.32
  -3   4   4  225.63    4.33
  -3   4   4  226.96    4.42
   2  -4  -4  162.22    3.13
  -2   4   4  161.13    3.13
  -2   4   4  164.09    3.25
   1  -4  -4  451.84    8.19
   1  -4  -4  453.89    8.14
  -1   4   4  449.93    8.14
  -1   4   4  448.82    8.37
  -1   4   4  452.60    8.38
  -1   4   4  449.99    8.20
   0  -4  -4   93.91    1.82
   0  -4  -4   92.96    1.74
   0   4   4   94.20    1.75
   0   4   4   93.51    1.82
   0   4   4   92.19    1.97
  -1  -4  -4  284.84    5.31
  -1  -4  -4  281.60    5.21
   1   4   4  282.34    5.21
   1   4   4  273.99    5.29
  -2  -4  -4   13.37    0.55
  -2  -4  -4   13.11    0.46
   2   4   4   12.81    0.49
   2   4   4   12.95    0.47
  -3  -4  -4  203.68    3.76
  -3  -4  -4  206.04    3.99
  -3  -4  -4  209.04    3.96
   3   4   4  203.45    4.00
   3   4   4  206.30    3.97
   3   4   4  202.69    3.78
  -4  -4  -4  113.10    2.43
  -4  -4  -4  116.33    2.33
  -4  -4  -4  114.68    2.53
   4   4   4  116.33    2.26
   4   4   4  115.81    2.42
  -5  -4  -4  123.64    2.62
  -5  -4  -4  126.33    2.66
  -5  -4  -4  122.99    2.47
   5   4   4  122.43    2.63
   5   4   4  123.99    2.67
   5   4   4  123.16    2.48
  -6  -4  -4   94.53    2.00
  -6  -4  -4   90.38    2.40
  -6  -4  -4   92.80    2.13
   6   4   4   97.04    2.04
   6   4   4   95.11    2.21
   6   4   4   86.35    2.67
  -7  -4  -4   23.55    0.97
  -7  -4  -4   23.76    0.87
  -7  -4  -4   23.93    0.93
   7   4   4   24.19    0.94
   7   4   4   23.28    0.85
   7   4   4   23.32    1.02
  -8  -4  -4   19.05    0.92
  -8  -4  -4   17.80    0.98
  -8  -4  -4   18.25    0.97
   8   4   4   19.14    0.88
   8   4   4   19.32    0.93
  -9  -4  -4    8.09    0.98
  -9  -4  -4    9.20    0.93
   9   4   4    8.36    0.79
   9   4   4   10.22    0.89
   8  -5  -4    6.46    1.00
  -8   5   4    4.11    0.64
   7  -5  -4   20.62    1.09
  -7   5   4   23.63    1.14
   6  -5  -4    9.91    0.74
   6  -5  -4   11.76    0.79
  -6   5   4   11.41    0.79
  -6   5   4   11.53    0.80
   5  -5  -4   44.27    1.34
   5  -5  -4   42.56    1.30
  -5   5   4   45.75    1.29
  -5   5   4   41.75    1.50
   4  -5  -4   15.04    0.66
  -4   5   4   15.72    0.66
  -4   5   4   15.90    0.71
   3  -5  -4  120.49    2.47
  -3   5   4  118.28    2.46
  -3   5   4  119.26    2.55
   2  -5  -4  163.86    3.01
   2  -5  -4  167.42    3.19
  -2   5   4  160.68    3.02
  -2   5   4  165.89    3.19
  -2   5   4  163.89    3.31
   1  -5  -4  150.10    2.84
   1  -5  -4  149.08    2.80
  -1   5   4  151.52    2.81
  -1   5   4  147.80    2.85
  -1   5   4  147.71    3.03
  -1   5   4  151.15    3.03
   0  -5  -4   40.65    0.94
   0  -5  -4   41.10    0.84
   0   5   4   41.15    1.05
   0   5   4   41.35    0.92
   0   5   4   41.64    0.85
  -1  -5  -4  462.98    8.45
  -1  -5  -4  451.98    8.33
   1   5   4  441.89    8.33
   1   5   4  461.10    8.43
  -2  -5  -4  138.59    2.75
  -2  -5  -4  139.21    2.81
   2   5   4  139.64    2.81
   2   5   4  137.76    2.76
  -3  -5  -4  424.47    7.81
  -3  -5  -4  432.03    8.04
  -3  -5  -4  429.66    8.08
   3   5   4  440.73    8.06
   3   5   4  436.65    8.09
  -4  -5  -4   98.82    2.11
  -4  -5  -4   95.76    2.12
  -4  -5  -4   95.95    1.90
   4   5   4   96.70    2.13
   4   5   4   96.19    1.92
   4   5   4   95.86    2.11
  -5  -5  -4  221.98    4.42
  -5  -5  -4  218.94    4.19
  -5  -5  -4  227.46    4.40
   5   5   4  218.89    4.40
   5   5   4  219.90    4.22
   5   5   4  221.00    4.43
  -6  -5  -4   20.16    0.83
  -6  -5  -4   19.37    0.68
  -6  -5  -4   20.12    0.86
   6   5   4   21.06    0.89
   6   5   4   18.78    0.81
   6   5   4   22.51    0.73
  -7  -5  -4   76.87    1.95
  -7  -5  -4   75.87    1.80
  -7  -5  -4   79.59    2.02
   7   5   4   78.26    1.83
   7   5   4   77.51    1.96
   7   5   4   76.70    2.03
  -8  -5  -4   26.62    1.07
  -8  -5  -4   27.43    1.17
   8   5   4   26.44    1.11
   8   5   4   28.86    1.04
  -9  -5  -4   10.39    1.03
  -9  -5  -4   10.27    0.99
   9   5   4   10.25    0.96
   9   5   4   11.79    1.03
   7  -6  -4   15.35    1.02
  -7   6   4   15.88    1.04
   6  -6  -4   14.42    0.86
   6  -6  -4   12.29    0.87
  -6   6   4   15.45    0.88
  -6   6   4   13.67    0.90
   5  -6  -4   28.98    1.04
  -5   6   4   29.60    1.08
  -5   6   4   28.78    1.05
   4  -6  -4   15.61    0.69
  -4   6   4   17.06    0.72
  -4   6   4   15.54    0.74
   3  -6  -4   47.51    1.20
  -3   6   4   47.24    1.28
  -3   6   4   47.72    1.21
   2  -6  -4   16.10    0.43
   2  -6  -4   17.38    0.57
  -2   6   4   16.46    0.45
  -2   6   4   16.32    0.56
  -2   6   4   15.48    0.64
   1  -6  -4   73.09    1.53
   1  -6  -4   77.98    1.72
  -1   6   4   73.94    1.54
  -1   6   4   74.45    1.52
  -1   6   4   74.41    1.72
  -1   6   4   73.79    1.71
   0  -6  -4   46.51    1.04
   0  -6  -4   45.07    0.96
   0   6   4   45.72    1.17
   0   6   4   46.75    0.98
   0   6   4   45.75    1.05
  -1  -6  -4   77.13    1.72
  -1  -6  -4   74.05    1.59
  -1  -6  -4   72.92    1.41
   1   6   4   74.08    1.60
   1   6   4   74.18    1.67
  -2  -6  -4   62.60    1.49
  -2  -6  -4   63.50    1.43
   2   6   4   61.79    1.47
   2   6   4   63.42    1.44
  -3  -6  -4  167.79    3.28
  -3  -6  -4  160.58    3.01
  -3  -6  -4  159.69    3.02
  -3  -6  -4  165.93    3.31
   3   6   4  161.01    3.27
  -4  -6  -4   81.58    1.65
  -4  -6  -4   83.45    1.91
  -4  -6  -4   84.02    1.89
   4   6   4   83.04    1.91
   4   6   4   82.62    1.92
  -5  -6  -4  135.62    2.90
  -5  -6  -4  134.46    2.91
  -5  -6  -4  138.78    2.67
   5   6   4  138.11    2.70
   5   6   4  129.70    3.46
   5   6   4  136.57    2.93
  -6  -6  -4   62.67    1.68
  -6  -6  -4   63.92    1.47
  -6  -6  -4   64.25    1.67
   6   6   4   64.60    1.50
   6   6   4   62.61    1.67
   6   6   4   64.94    1.72
  -7  -6  -4   99.79    2.22
  -7  -6  -4  101.20    2.43
  -7  -6  -4  103.89    2.46
   7   6   4   99.53    2.49
   7   6   4  100.57    2.24
   7   6   4  103.08    2.43
  -8  -6  -4   47.23    1.55
  -8  -6  -4   43.20    1.37
   8   6   4   44.43    1.53
   8   6   4   44.14    1.47
  -9  -6  -4   23.44    1.31
  -9  -6  -4   21.43    1.19
   9   6   4   22.87    1.23
   9   6   4   24.09    1.09
   7  -7  -4   39.26    1.49
  -7   7   4   37.19    1.50
   6  -7  -4   -0.03    0.32
  -6   7   4   -0.05    0.31
  -6   7   4   -0.27    0.38
   5  -7  -4   41.80    1.31
  -5   7   4   41.71    1.34
  -5   7   4   40.61    1.29
   4  -7  -4   20.07    0.81
  -4   7   4   18.44    1.20
  -4   7   4   18.93    0.80
   3  -7  -4   77.27    1.76
   3  -7  -4   74.89    1.47
  -3   7   4   78.56    1.85
  -3   7   4   75.55    1.75
   2  -7  -4   35.50    0.88
   2  -7  -4   37.26    0.98
  -2   7   4   36.08    1.11
  -2   7   4   37.04    0.86
  -2   7   4   37.58    0.98
  -2   7   4   39.56    1.10
   1  -7  -4   94.40    1.92
   1  -7  -4   93.20    1.90
  -1   7   4   94.29    1.91
  -1   7   4   95.25    1.93
  -1   7   4   94.79    2.10
  -1   7   4   92.57    2.14
   0  -7  -4   36.05    0.90
   0  -7  -4   36.24    0.82
   0   7   4   35.83    1.02
   0   7   4   35.67    0.91
   0   7   4   36.41    0.85
  -1  -7  -4  145.45    2.74
  -1  -7  -4  148.02    2.93
   1   7   4  144.97    2.94
   1   7   4  149.75    3.01
  -2  -7  -4  132.81    2.67
  -2  -7  -4  127.47    2.33
  -2  -7  -4  128.32    2.63
   2   7   4  106.32    2.99
   2   7   4  129.18    2.60
  -3  -7  -4  126.00    2.60
  -3  -7  -4  119.65    2.31
  -3  -7  -4  121.65    2.31
  -3  -7  -4  126.15    2.63
   3   7   4  120.19    2.60
   3   7   4  121.21    2.59
  -4  -7  -4   70.42    1.73
  -4  -7  -4   71.97    1.47
  -4  -7  -4   72.48    1.74
   4   7   4   70.96    1.75
   4   7   4   73.47    1.76
  -5  -7  -4   40.79    1.50
  -5  -7  -4   41.06    1.24
  -5  -7  -4   42.33    0.99
   5   7   4   41.73    1.27
   5   7   4   41.48    1.27
  -6  -7  -4   33.38    0.92
  -6  -7  -4   32.50    1.14
  -6  -7  -4   32.61    1.14
   6   7   4   35.31    1.22
   6   7   4   32.32    1.14
  -7  -7  -4   48.22    1.49
  -7  -7  -4   46.41    1.27
   7   7   4   45.44    1.45
   7   7   4   46.47    1.29
   7   7   4   46.53    1.84
  -8  -7  -4   38.29    1.29
  -8  -7  -4   41.01    1.46
   8   7   4   40.05    1.47
   8   7   4   39.30    1.42
   6  -8  -4   12.40    0.93
  -6   8   4   12.24    0.94
   5  -8  -4   39.59    1.30
  -5   8   4   37.96    1.28
  -5   8   4   37.27    1.31
   4  -8  -4    3.77    0.63
  -4   8   4    3.41    0.58
  -4   8   4    4.98    0.60
   3  -8  -4   79.07    1.58
   3  -8  -4   80.36    1.85
  -3   8   4   80.93    1.94
  -3   8   4   81.51    1.85
  -3   8   4   76.47    1.98
   2  -8  -4   48.38    1.08
   2  -8  -4   48.39    1.21
  -2   8   4   48.53    1.21
  -2   8   4   47.46    1.30
  -2   8   4   47.89    1.35
  -2   8   4   48.76    1.12
   1  -8  -4   86.36    1.81
   1  -8  -4   85.23    1.80
  -1   8   4   86.05    1.82
  -1   8   4   85.33    1.98
  -1   8   4   84.02    1.96
  -1   8   4   87.49    1.84
   0  -8  -4    3.18    0.36
   0  -8  -4    2.88    0.28
   0   8   4    3.02    0.36
   0   8   4    3.78    0.31
   0   8   4    2.57    0.42
  -1  -8  -4   89.96    1.77
  -1  -8  -4   91.53    2.01
   1   8   4   90.24    1.97
   1   8   4   88.36    2.04
  -2  -8  -4  156.88    3.15
  -2  -8  -4  149.29    2.88
  -2  -8  -4  154.95    3.22
  -2  -8  -4  152.06    2.87
   2   8   4  157.33    3.18
   2   8   4  151.58    3.14
  -3  -8  -4   26.17    0.91
  -3  -8  -4   26.54    0.63
  -3  -8  -4   27.23    0.93
  -3  -8  -4   26.70    0.63
   3   8   4   28.01    0.92
   3   8   4   26.83    0.92
  -4  -8  -4   52.41    1.16
  -4  -8  -4   53.78    1.46
  -4  -8  -4   54.63    1.47
   4   8   4   55.99    1.47
   4   8   4   54.64    1.47
  -5  -8  -4   71.19    1.52
  -5  -8  -4   71.28    1.83
  -5  -8  -4   71.28    1.82
   5   8   4   70.65    1.83
   5   8   4   73.02    1.84
  -6  -8  -4   23.02    1.24
  -6  -8  -4   23.50    0.99
  -6  -8  -4   22.44    0.75
   6   8   4   22.88    1.07
   6   8   4   23.29    0.99
  -7  -8  -4   31.59    1.23
  -7  -8  -4   30.15    1.00
   7   8   4   29.32    1.20
  -8  -8  -4   21.83    1.17
  -8  -8  -4   20.01    1.22
   8   8   4   20.93    1.16
   6  -9  -4    2.13    0.49
  -6   9   4    1.13    0.45
   5  -9  -4   33.49    1.23
  -5   9   4   32.62    1.24
  -5   9   4   28.32    1.22
   4  -9  -4    3.64    0.61
  -4   9   4    2.71    0.39
  -4   9   4    4.25    0.63
  -4   9   4    2.36    0.47
   3  -9  -4  104.40    2.10
   3  -9  -4  107.84    2.38
  -3   9   4  105.15    2.50
  -3   9   4  107.79    2.38
   2  -9  -4    2.11    0.34
   2  -9  -4    1.69    0.25
  -2   9   4    1.67    0.26
  -2   9   4    1.98    0.36
  -2   9   4    2.98    0.50
   1  -9  -4  103.27    2.19
   1  -9  -4  105.85    2.19
  -1   9   4  105.86    2.22
  -1   9   4  107.81    2.23
  -1   9   4  104.22    2.35
  -1   9   4  102.63    2.36
   0  -9  -4   13.09    0.51
   0  -9  -4   12.70    0.60
   0   9   4   13.74    0.53
   0   9   4   12.70    0.69
   0   9   4   13.95    0.60
  -1  -9  -4  230.31    4.51
  -1  -9  -4  229.87    4.31
   1   9   4  229.77    4.52
   1   9   4  230.55    4.56
  -2  -9  -4   36.39    0.84
  -2  -9  -4   34.92    1.14
  -2  -9  -4   38.82    1.12
  -2  -9  -4   35.22    0.83
   2   9   4   37.24    1.11
   2   9   4   36.48    1.10
  -3  -9  -4   93.16    1.84
  -3  -9  -4   96.04    2.18
  -3  -9  -4   94.05    1.84
  -3  -9  -4   93.10    2.19
   3   9   4   89.23    2.14
   3   9   4   93.44    2.39
  -4  -9  -4   11.76    0.73
  -4  -9  -4   11.72    0.43
  -4  -9  -4   11.70    0.75
  -4  -9  -4   12.07    0.46
   4   9   4   11.10    0.71
   4   9   4   12.04    0.74
  -5  -9  -4   50.47    1.16
  -5  -9  -4   50.69    1.48
  -5  -9  -4   48.84    1.51
  -5  -9  -4   49.67    1.16
   5   9   4   51.18    1.51
   5   9   4   49.72    1.50
  -6  -9  -4   15.38    0.66
  -6  -9  -4   15.52    0.89
  -6  -9  -4   15.73    0.65
   6   9   4   14.99    1.06
   6   9   4   16.64    0.92
  -7  -9  -4   49.83    1.42
  -7  -9  -4   50.35    1.63
   7   9   4   48.65    1.64
   5 -10  -4   18.97    1.06
  -5  10   4   19.30    1.09
   4 -10  -4    7.50    0.74
  -4  10   4    8.40    1.01
  -4  10   4    6.77    0.78
  -4  10   4    7.83    0.75
   3 -10  -4   96.67    2.29
   3 -10  -4   94.54    1.97
  -3  10   4   93.94    2.37
  -3  10   4   97.03    2.29
  -3  10   4   96.48    2.24
   2 -10  -4    6.62    0.52
   2 -10  -4    6.97    0.56
  -2  10   4    7.55    0.53
  -2  10   4    6.38    0.58
  -2  10   4    6.98    0.74
   1 -10  -4   63.73    1.48
   1 -10  -4   60.43    1.49
  -1  10   4   64.71    1.52
  -1  10   4   61.93    1.64
  -1  10   4   62.30    1.62
   0 -10  -4   50.42    1.32
   0 -10  -4   48.70    1.18
   0  10   4   49.30    1.38
   0  10   4   50.01    1.31
   0  10   4   48.17    1.37
  -1 -10  -4  155.80    3.01
  -1 -10  -4  154.79    3.23
   1  10   4  154.45    3.25
   1  10   4  155.44    3.30
  -2 -10  -4    0.66    0.16
  -2 -10  -4    1.05    0.32
   2  10   4    0.97    0.30
   2  10   4    0.83    0.27
  -3 -10  -4  167.19    3.52
  -3 -10  -4  162.46    3.14
  -3 -10  -4  168.57    3.25
   3  10   4  160.10    3.46
   3  10   4  167.39    3.52
  -4 -10  -4   20.02    0.61
  -4 -10  -4   17.65    1.02
  -4 -10  -4   20.46    0.93
  -4 -10  -4   20.36    0.60
   4  10   4   19.23    0.93
   4  10   4   20.90    0.97
  -5 -10  -4   58.12    1.32
  -5 -10  -4   59.71    1.69
  -5 -10  -4   59.29    1.36
   5  10   4   56.02    1.73
   5  10   4   60.69    1.73
  -6 -10  -4    4.55    0.77
  -6 -10  -4    4.37    0.48
  -6 -10  -4    3.68    0.50
   6  10   4    5.01    0.79
  -7 -10  -4   52.26    1.74
   4 -11  -4    0.24    0.39
  -4  11   4   -0.03    0.53
  -4  11   4   -0.29    0.38
  -4  11   4   -0.10    0.58
   3 -11  -4   15.73    0.88
  -3  11   4   15.45    1.02
  -3  11   4   14.83    0.90
  -3  11   4   16.28    0.89
   2 -11  -4    1.39    0.31
   2 -11  -4    1.39    0.31
  -2  11   4    1.59    0.35
  -2  11   4    1.26    0.43
  -2  11   4    1.34    0.29
  -2  11   4    2.01    0.36
   1 -11  -4   22.26    0.92
   1 -11  -4   23.19    0.83
  -1  11   4   24.69    0.91
  -1  11   4   22.99    1.03
  -1  11   4   24.49    0.89
   0 -11  -4   13.50    0.81
   0 -11  -4   13.68    0.62
   0  11   4   11.69    1.06
   0  11   4   13.50    0.90
   0  11   4   13.53    0.84
  -1 -11  -4  102.62    2.19
  -1 -11  -4  101.59    2.34
  -1 -11  -4   98.22    2.12
   1  11   4  102.02    2.33
   1  11   4  100.20    2.34
  -2 -11  -4    2.69    0.38
  -2 -11  -4    2.93    0.35
  -2 -11  -4    2.55    0.41
   2  11   4    1.71    0.33
   2  11   4    2.18    0.42
  -3 -11  -4   50.51    1.12
  -3 -11  -4   46.54    1.24
  -3 -11  -4   48.89    1.60
  -3 -11  -4   48.53    1.58
   3  11   4   52.82    1.54
   3  11   4   50.79    1.51
  -4 -11  -4   11.51    0.82
  -4 -11  -4   10.92    0.51
  -4 -11  -4   11.11    0.48
   4  11   4   10.97    0.85
   4  11   4   10.78    0.97
  -5 -11  -4  108.55    2.58
  -5 -11  -4  103.56    2.13
   5  11   4   99.47    2.58
   5  11   4  106.77    2.63
  -6 -11  -4    2.25    0.47
   6  11   4    1.79    0.55
   2 -12  -4    0.10    0.37
  -2  12   4    0.45    0.34
  -2  12   4    0.38    0.35
  -2  12   4    0.74    0.42
   1 -12  -4   33.68    1.08
   1 -12  -4   31.12    1.14
  -1  12   4   33.78    1.16
  -1  12   4   32.59    1.17
  -1  12   4   32.41    1.20
   0 -12  -4   -0.32    0.37
   0 -12  -4   -0.07    0.25
   0  12   4   -0.07    0.39
   0  12   4   -0.06    0.44
   0  12   4   -0.12    0.29
  -1 -12  -4   13.76    0.69
  -1 -12  -4   14.47    0.64
  -1 -12  -4   13.09    1.01
   1  12   4   14.58    0.93
   1  12   4   13.82    0.84
  -2 -12  -4    1.56    0.24
   2  12   4    2.12    0.45
   2  12   4    1.48    0.38
  -3 -12  -4   40.43    1.05
   3  12   4   40.59    1.41
   3  12   4   39.13    1.39
  -4 -12  -4   12.59    1.17
   4  12   4   10.96    0.98
   4  12   4   11.97    1.05
   1  12  -5    0.76    0.49
  -1 -12   5    1.76    0.47
   0  12  -5   29.83    1.40
   0 -12   5   30.43    1.37
   4  11  -5   26.47    1.39
  -4 -11   5   25.82    1.27
   3  11  -5   -0.64    0.35
  -3 -11   5    0.63    0.38
   2  11  -5   41.54    1.49
  -2 -11   5   38.57    1.42
   1  11  -5   -0.13    0.33
  -1 -11   5    0.16    0.34
   0  11  -5   63.11    1.83
   0 -11   5   58.02    1.80
   1 -11   5    2.95    0.50
   2 -11   5   45.50    1.61
   3 -11   5    1.01    0.49
   5  10  -5    0.15    0.42
  -5 -10   5    0.67    0.40
  -5 -10   5    0.86    0.31
   4  10  -5   50.34    1.29
   4  10  -5   52.93    1.66
  -4 -10   5   51.60    1.66
  -4 -10   5   50.67    1.20
   3  10  -5    0.83    0.34
  -3 -10   5    1.61    0.70
  -3 -10   5    1.17    0.37
   2  10  -5   55.61    1.65
  -2 -10   5   51.74    1.74
  -2 -10   5   52.83    1.63
   1  10  -5    1.70    0.39
  -1 -10   5    1.69    0.36
   0  10  -5   40.60    1.37
   0 -10   5   39.71    1.37
   0 -10   5   40.71    1.77
  -1  10  -5    0.24    0.29
   1 -10   5   -0.05    0.43
   1 -10   5   -0.46    0.29
   2 -10   5   35.62    1.76
   2 -10   5   35.51    1.32
   3 -10   5    0.83    0.39
   4 -10   5   20.45    1.20
   6   9  -5   30.53    1.16
   6   9  -5   34.28    1.34
  -6  -9   5   29.15    1.63
   5   9  -5   10.44    0.88
   5   9  -5    9.78    0.67
  -5  -9   5   10.96    0.92
  -5  -9   5    9.96    0.67
   4   9  -5   63.67    1.45
   4   9  -5   66.00    1.81
  -4  -9   5   61.39    1.95
  -4  -9   5   66.73    1.85
  -4  -9   5   64.11    1.47
   3   9  -5    2.26    0.39
  -3  -9   5    2.42    0.41
  -3  -9   5    2.02    0.38
  -3  -9   5    2.51    0.46
   2   9  -5  114.06    2.58
  -2  -9   5  106.86    2.58
  -2  -9   5  110.45    2.67
  -2  -9   5  107.40    2.57
   1   9  -5    0.87    0.29
  -1  -9   5    0.44    0.28
  -1  -9   5    0.24    0.30
   0   9  -5  106.09    2.48
   0  -9   5  105.63    2.51
   0  -9   5  103.99    2.47
  -1   9  -5    0.01    0.27
   1  -9   5   -0.19    0.31
   1  -9   5    0.20    0.27
  -2   9  -5   84.52    2.18
   2  -9   5   84.49    2.18
   2  -9   5   86.28    2.14
   3  -9   5    1.61    0.37
   3  -9   5    1.26    0.41
   4  -9   5   29.61    1.19
   4  -9   5   32.28    1.28
   4  -9   5   30.23    1.30
   5  -9   5    0.98    0.37
   5  -9   5    0.33    0.54
   5  -9   5    0.68    0.42
   7   8  -5   -0.30    0.40
   7   8  -5   -0.33    0.45
  -7  -8   5    0.12    0.42
   6   8  -5   36.18    1.29
   6   8  -5   32.90    1.22
  -6  -8   5   29.95    1.59
   5   8  -5    2.25    0.33
   5   8  -5    2.28    0.36
  -5  -8   5    2.55    0.51
  -5  -8   5    2.36    0.34
  -5  -8   5    2.51    0.53
   4   8  -5  136.01    2.76
   4   8  -5  141.95    3.07
  -4  -8   5  138.91    3.10
  -4  -8   5  135.04    3.16
  -4  -8   5  137.52    2.79
  -4  -8   5  138.19    3.13
   3   8  -5    0.37    0.25
   3   8  -5    0.04    0.23
  -3  -8   5   -0.06    0.26
  -3  -8   5    0.09    0.26
  -3  -8   5    0.05    0.29
   2   8  -5   47.60    1.36
  -2  -8   5   45.40    1.49
  -2  -8   5   46.47    1.42
  -2  -8   5   46.90    1.37
   1   8  -5    1.96    0.34
  -1  -8   5    2.25    0.32
  -1  -8   5    2.07    0.33
   0   8  -5   87.83    2.10
   0  -8   5   87.22    2.12
   0  -8   5   87.79    2.09
  -1   8  -5    0.08    0.22
  -1   8  -5   -0.45    0.25
   1  -8   5   -0.16    0.24
   1  -8   5   -0.11    0.22
  -2   8  -5   80.50    2.02
   2  -8   5   80.65    1.97
   2  -8   5   80.15    2.04
  -3   8  -5    0.53    0.29
   3  -8   5    0.91    0.30
   3  -8   5    0.12    0.26
   4  -8   5   36.98    1.26
   4  -8   5   38.75    1.34
   4  -8   5   37.15    1.26
  -5   8  -5    0.67    0.23
   5  -8   5    0.68    0.33
   5  -8   5    0.97    0.43
   5  -8   5    0.91    0.32
  -6   8  -5   51.84    1.35
   6  -8   5   49.13    1.66
   6  -8   5   50.36    1.58
   6  -8   5   50.77    1.77
   7   7  -5    0.85    0.35
   7   7  -5    0.48    0.47
  -7  -7   5    0.87    0.40
   6   7  -5    5.82    0.79
   6   7  -5    8.59    0.74
  -6  -7   5    7.10    0.86
  -6  -7   5    7.44    1.17
   5   7  -5    4.74    0.55
   5   7  -5    5.56    0.64
  -5  -7   5    5.86    0.80
  -5  -7   5    5.59    0.58
  -5  -7   5    6.50    0.70
   4   7  -5   40.64    1.25
   4   7  -5   39.24    1.04
  -4  -7   5   40.59    1.08
  -4  -7   5   42.89    1.30
  -4  -7   5   39.69    1.33
   3   7  -5   13.24    0.69
   3   7  -5   12.96    0.46
  -3  -7   5   12.57    0.78
  -3  -7   5   13.12    0.71
  -3  -7   5   12.91    0.49
  -3  -7   5   12.03    0.88
  -2  -7   5  102.74    2.31
  -2  -7   5  100.73    2.38
  -2  -7   5  102.69    2.36
   1   7  -5    3.98    0.48
  -1  -7   5    4.09    0.48
  -1  -7   5    3.48    0.51
   0   7  -5  115.12    2.51
   0  -7   5  112.74    2.54
   0  -7   5  112.88    2.50
  -1   7  -5   87.25    2.11
  -1   7  -5   88.61    2.07
   1  -7   5   88.34    2.06
   1  -7   5   89.83    2.13
  -2   7  -5  311.95    6.12
   2  -7   5  312.62    6.18
   2  -7   5  311.32    6.06
  -3   7  -5   13.66    0.76
   3  -7   5   13.50    0.76
   3  -7   5   12.53    0.74
  -4   7  -5  107.54    2.52
  -4   7  -5  105.17    2.10
   4  -7   5  106.45    2.53
   4  -7   5  104.23    2.42
   4  -7   5  105.57    2.12
   4  -7   5  106.21    2.48
  -5   7  -5    0.24    0.22
   5  -7   5    0.62    0.23
   5  -7   5    0.48    0.32
   5  -7   5    0.68    0.33
   5  -7   5    0.57    0.28
  -6   7  -5   63.45    1.57
   6  -7   5   64.19    1.61
   6  -7   5   63.36    1.77
   6  -7   5   65.26    1.94
   6  -7   5   64.58    1.84
  -7   7  -5    2.88    0.56
   7  -7   5    2.37    0.43
   7  -7   5    2.51    0.54
   7  -7   5    1.83    0.55
   8   6  -5   15.25    0.99
  -8  -6   5   13.87    1.10
   7   6  -5   10.31    0.98
   7   6  -5   10.10    0.82
  -7  -6   5    9.10    0.91
  -7  -6   5   10.16    0.86
   6   6  -5   52.57    1.48
   6   6  -5   50.96    1.48
  -6  -6   5   53.20    1.53
  -6  -6   5   50.72    1.63
   5   6  -5   35.20    1.07
   5   6  -5   36.88    1.16
  -5  -6   5   37.12    1.27
  -5  -6   5   35.58    1.18
  -5  -6   5   36.87    1.10
   4   6  -5   65.04    1.49
   4   6  -5   60.84    2.10
  -4  -6   5   65.79    1.67
  -4  -6   5   66.73    1.75
  -4  -6   5   68.21    1.53
   3   6  -5    3.34    0.29
   3   6  -5    2.73    0.46
  -3  -6   5    3.23    0.52
  -3  -6   5    2.83    0.34
  -3  -6   5    2.97    0.34
   2   6  -5  147.71    2.86
   2   6  -5  156.16    3.17
  -2  -6   5  152.66    3.22
  -2  -6   5  154.01    3.25
  -2  -6   5  152.57    2.88
  -2  -6   5  154.50    3.17
   1   6  -5   -0.08    0.16
  -1  -6   5    0.13    0.18
  -1  -6   5   -0.32    0.16
   0   6  -5  251.09    4.94
   0  -6   5  256.06    4.94
   0  -6   5  252.81    5.00
  -1   6  -5   55.11    1.41
   1  -6   5   53.80    1.37
   1  -6   5   52.21    1.41
  -2   6  -5  305.33    5.95
   2  -6   5  303.63    5.92
   2  -6   5  310.97    5.99
  -3   6  -5   60.58    1.58
  -3   6  -5   60.21    1.23
   3  -6   5   61.37    1.24
   3  -6   5   59.87    1.55
  -4   6  -5  146.30    3.16
  -4   6  -5  146.70    2.84
   4  -6   5  144.65    3.09
   4  -6   5  147.58    2.85
   4  -6   5  142.60    3.11
   4  -6   5  144.47    3.18
  -5   6  -5    3.64    0.42
  -5   6  -5    3.64    0.42
   5  -6   5    3.44    0.44
   5  -6   5    2.72    0.40
   5  -6   5    2.70    0.37
   5  -6   5    2.69    0.36
  -6   6  -5   80.73    1.90
   6  -6   5   85.65    2.20
   6  -6   5   79.13    2.05
   6  -6   5   82.42    1.93
   6  -6   5   82.44    2.05
  -7   6  -5    0.18    0.34
   7  -6   5    0.69    0.38
   7  -6   5    0.10    0.43
   7  -6   5    0.23    0.31
   7  -6   5   -0.73    0.35
   8   5  -5   36.39    1.30
   8   5  -5   38.37    1.54
  -8  -5   5   38.40    1.50
  -8  -5   5   35.09    1.38
   7   5  -5    1.37    0.43
   7   5  -5    3.01    0.47
   7   5  -5    2.33    0.37
  -7  -5   5    2.76    0.43
  -7  -5   5    2.50    0.39
   6   5  -5   60.70    1.60
   6   5  -5   58.20    1.59
  -6  -5   5   62.09    1.60
  -6  -5   5   51.46    2.04
  -6  -5   5   61.92    1.74
   5   5  -5   28.38    0.97
   5   5  -5   29.52    0.95
  -5  -5   5   27.76    1.09
  -5  -5   5   29.23    1.00
  -5  -5   5   29.85    0.98
   4   5  -5   71.54    1.60
   4   5  -5   70.59    1.69
  -4  -5   5   70.76    1.80
  -4  -5   5   70.86    1.63
  -4  -5   5   71.87    1.72
   3   5  -5    6.04    0.48
   3   5  -5    6.77    0.35
  -3  -5   5    6.68    0.55
  -3  -5   5    6.80    0.40
  -3  -5   5    6.16    0.48
   2   5  -5  167.20    3.19
   2   5  -5  171.98    3.42
  -2  -5   5  171.62    3.43
  -2  -5   5  170.51    3.49
  -2  -5   5  169.28    3.50
  -2  -5   5  169.33    3.21
   1   5  -5   20.25    0.70
  -1  -5   5   19.87    0.73
  -1  -5   5   20.32    0.75
   0   5  -5   56.72    1.38
   0  -5   5   55.38    1.59
   0  -5   5   57.70    1.43
  -1   5  -5    8.43    0.48
   1  -5   5    8.09    0.49
   1  -5   5    7.62    0.49
  -2   5  -5   91.51    2.07
   2  -5   5   93.58    2.11
   2  -5   5   94.64    2.07
  -3   5  -5   32.39    0.76
   3  -5   5   32.94    1.00
   3  -5   5   31.78    1.03
   3  -5   5   33.07    0.77
  -4   5  -5   80.98    1.71
  -4   5  -5   82.80    1.95
   4  -5   5   80.90    1.92
   4  -5   5   80.43    1.72
   4  -5   5   80.57    1.91
  -5   5  -5    2.54    0.40
  -5   5  -5    2.28    0.33
   5  -5   5    2.15    0.33
   5  -5   5    2.36    0.28
   5  -5   5    3.06    0.50
   5  -5   5    2.83    0.34
  -6   5  -5   97.21    2.43
  -6   5  -5  102.34    2.25
   6  -5   5  103.15    2.49
   6  -5   5   99.30    2.36
   6  -5   5  103.27    2.37
   6  -5   5  100.54    2.27
  -7   5  -5   20.02    0.92
   7  -5   5   18.87    0.91
   7  -5   5   19.72    0.94
   7  -5   5   20.33    1.09
   7  -5   5   20.25    1.08
  -8   5  -5   32.99    1.28
   8  -5   5   36.21    1.53
   8  -5   5   32.83    1.44
   8  -5   5   33.29    1.24
   8  -5   5   31.97    1.42
   8   4  -5   30.37    1.11
   8   4  -5   29.99    1.34
  -8  -4   5   27.75    1.15
  -8  -4   5   28.64    1.32
   7   4  -5    3.68    0.58
   7   4  -5    2.28    0.45
   7   4  -5    2.32    0.43
  -7  -4   5    2.25    0.37
  -7  -4   5    2.13    0.43
  -7  -4   5    2.54    0.40
   6   4  -5   60.05    1.53
   6   4  -5   57.64    1.60
   6   4  -5   61.10    1.71
  -6  -4   5   62.44    1.72
  -6  -4   5   60.29    1.55
   5   4  -5   50.58    1.35
   5   4  -5   53.56    1.35
  -5  -4   5   53.22    1.37
  -5  -4   5   52.61    1.49
  -5  -4   5   52.07    1.39
   4   4  -5  191.87    3.79
   4   4  -5  189.95    3.75
  -4  -4   5  193.20    3.79
  -4  -4   5  190.78    3.81
  -4  -4   5  193.60    3.94
   3   4  -5   25.21    0.78
   3   4  -5   25.13    0.73
  -3  -4   5   24.97    0.72
  -3  -4   5   24.11    0.85
  -3  -4   5   24.35    0.81
   2   4  -5  359.10    6.75
   2   4  -5  350.97    6.59
  -2  -4   5  363.65    6.76
  -2  -4   5  362.07    6.61
  -2  -4   5  363.24    6.85
   1   4  -5  321.83    6.04
  -1  -4   5  319.71    5.82
  -1  -4   5  319.68    6.04
  -1  -4   5  320.18    6.10
   0   4  -5   85.26    1.87
   0  -4   5   88.88    1.88
   0  -4   5   85.93    1.91
  -1   4  -5   47.11    1.17
   1  -4   5   45.52    1.15
   1  -4   5   45.58    1.17
  -2   4  -5  353.65    6.52
   2  -4   5  369.62    6.82
   2  -4   5  353.57    6.53
   2  -4   5  360.43    6.78
  -3   4  -5   94.96    1.87
  -3   4  -5   91.80    2.06
   3  -4   5   98.34    2.10
   3  -4   5   90.49    2.19
   3  -4   5   91.13    2.08
   3  -4   5   92.81    2.07
  -4   4  -5   91.89    1.93
  -4   4  -5   94.63    2.11
   4  -4   5   91.23    2.12
   4  -4   5   91.79    2.09
   4  -4   5   93.23    2.10
   4  -4   5   94.10    1.95
  -5   4  -5   41.40    1.09
  -5   4  -5   41.00    1.21
   5  -4   5   40.13    1.24
   5  -4   5   40.62    1.19
   5  -4   5   40.62    1.21
   5  -4   5   41.09    1.10
  -6   4  -5  116.18    2.55
  -6   4  -5  117.59    2.69
   6  -4   5  117.24    2.65
   6  -4   5  117.24    2.57
   6  -4   5  120.00    2.73
  -7   4  -5   10.97    0.74
   7  -4   5   10.65    0.85
   7  -4   5   10.87    0.77
   7  -4   5   11.08    0.87
   7  -4   5   10.62    0.72
  -8   4  -5   45.49    1.48
   8  -4   5   44.97    1.60
   8  -4   5   42.37    1.55
   8  -4   5   49.36    1.67
   8  -4   5   47.26    1.44
   9   3  -5   16.02    1.34
   9   3  -5   14.24    0.91
  -9  -3   5   13.05    1.26
   8   3  -5   17.38    0.84
   8   3  -5   19.78    1.08
  -8  -3   5   17.32    0.87
  -8  -3   5   16.82    1.10
   7   3  -5   11.77    0.84
   7   3  -5   11.42    0.68
   7   3  -5   11.73    0.86
  -7  -3   5   11.72    0.71
  -7  -3   5   11.49    0.89
  -7  -3   5   10.96    0.84
   6   3  -5   32.38    1.16
   6   3  -5   35.45    1.02
   6   3  -5   33.97    1.14
  -6  -3   5   35.43    1.20
  -6  -3   5   34.79    1.03
   5   3  -5   27.36    0.98
   5   3  -5   27.21    0.84
   5   3  -5   28.03    0.91
  -5  -3   5   26.91    0.99
  -5  -3   5   23.35    1.15
  -5  -3   5   27.79    0.95
   4   3  -5   67.66    1.53
   4   3  -5   66.37    1.51
   4   3  -5   65.70    1.63
  -4  -3   5   68.88    1.53
  -4  -3   5   65.07    1.64
  -4  -3   5   65.12    1.55
   3   3  -5   61.80    1.36
   3   3  -5   61.47    1.39
  -3  -3   5   62.37    1.39
  -3  -3   5   60.23    1.66
  -3  -3   5   62.52    1.41
   2   3  -5  438.56    8.38
   2   3  -5  467.00    8.55
  -2  -3   5  461.88    8.41
  -2  -3   5  451.21    8.32
  -2  -3   5  456.30    8.49
   1   3  -5   61.95    1.38
  -1  -3   5   61.71    1.39
  -1  -3   5   61.92    1.44
  -1  -3   5   62.63    1.26
   0   3  -5  382.28    7.13
   0  -3   5  379.57    6.94
   0  -3   5  386.73    7.14
   0  -3   5  378.74    7.16
   0  -3   5  389.71    6.94
  -1   3  -5   25.11    0.58
  -1   3  -5   25.68    0.74
   1  -3   5   25.49    0.74
   1  -3   5   25.54    0.76
   1  -3   5   25.20    0.57
  -2   3  -5  377.69    6.88
  -2   3  -5  380.67    7.06
   2  -3   5  374.90    7.08
   2  -3   5  381.71    7.09
   2  -3   5  374.44    6.89
  -3   3  -5   69.10    1.65
  -3   3  -5   72.25    1.49
   3  -3   5   72.02    1.65
   3  -3   5   72.29    1.65
   3  -3   5   71.17    1.49
   3  -3   5   71.08    1.64
  -4   3  -5  118.02    2.52
  -4   3  -5  120.12    2.42
   4  -3   5  118.62    2.55
   4  -3   5  118.45    2.41
   4  -3   5  118.28    2.53
  -5   3  -5   48.19    1.32
  -5   3  -5   49.97    1.24
   5  -3   5   49.58    1.30
   5  -3   5   47.30    1.33
   5  -3   5   47.41    1.41
  -6   3  -5   85.41    2.00
  -6   3  -5   87.77    2.09
   6  -3   5   88.39    2.04
   6  -3   5   87.06    2.12
   6  -3   5   87.15    2.04
  -7   3  -5    3.92    0.60
  -7   3  -5    3.13    0.41
   7  -3   5    5.27    0.64
   7  -3   5    4.32    0.67
   7  -3   5    3.70    0.57
  -8   3  -5   27.45    1.14
   8  -3   5   27.57    1.07
   8  -3   5   23.78    1.18
   8  -3   5   29.18    1.24
  -9   3  -5    4.56    0.61
   9  -3   5    4.64    0.62
   9  -3   5    3.84    0.46
   9   2  -5   14.45    1.25
   9   2  -5   13.17    0.87
  -9  -2   5   13.93    1.24
   8   2  -5   10.04    0.89
   8   2  -5    8.21    0.66
  -8  -2   5    7.76    0.95
  -8  -2   5   10.09    0.70
   7   2  -5   26.89    1.13
   7   2  -5   26.72    1.08
   7   2  -5   25.34    0.85
  -7  -2   5   27.36    1.14
  -7  -2   5   24.89    0.87
  -7  -2   5   25.64    1.12
   6   2  -5   41.66    1.27
   6   2  -5   41.55    1.29
   6   2  -5   42.31    1.09
  -6  -2   5   39.77    1.59
  -6  -2   5   42.12    1.14
  -6  -2   5   41.22    1.30
   5   2  -5   69.55    1.75
   5   2  -5   72.12    1.71
   5   2  -5   71.36    1.58
  -5  -2   5   71.86    1.60
  -5  -2   5   71.53    1.74
  -5  -2   5   72.56    1.79
   4   2  -5   30.54    0.88
   4   2  -5   30.64    0.82
   4   2  -5   30.02    0.95
  -4  -2   5   31.22    0.93
  -4  -2   5   31.53    0.84
   3   2  -5  120.79    2.53
   3   2  -5  118.98    2.40
   3   2  -5  119.96    2.43
  -3  -2   5  121.90    2.46
  -3  -2   5  120.74    2.41
  -3  -2   5  123.38    2.55
   2   2  -5  267.56    5.05
   2   2  -5  275.15    5.08
  -2  -2   5  267.95    5.06
  -2  -2   5  272.23    5.09
  -2  -2   5  273.77    5.18
   1   2  -5  225.48    4.31
  -1  -2   5  234.81    4.39
  -1  -2   5  226.11    4.24
  -1  -2   5  226.69    4.32
   0  -2   5  133.08    2.68
   0  -2   5  135.99    2.58
   0  -2   5  139.21    2.72
  -1   2  -5   10.76    0.34
  -1   2  -5   10.76    0.42
   1  -2   5   10.48    0.34
   1  -2   5   11.26    0.44
   1  -2   5   11.19    0.44
  -2   2  -5  244.27    4.56
  -2   2  -5  248.92    4.66
   2  -2   5  243.44    4.70
   2  -2   5  242.51    4.56
   2  -2   5  250.11    4.69
  -3   2  -5   51.91    1.15
  -3   2  -5   51.25    1.22
   3  -2   5   50.58    1.15
   3  -2   5   51.16    1.24
   3  -2   5   50.89    1.23
  -4   2  -5  138.31    2.81
   4  -2   5  144.31    2.92
   4  -2   5  140.76    2.90
   4  -2   5  139.65    2.89
  -5   2  -5   45.56    1.24
  -5   2  -5   45.92    1.19
   5  -2   5   47.07    1.27
   5  -2   5   47.43    1.24
  -6   2  -5  149.49    3.14
  -6   2  -5  152.07    3.18
   6  -2   5  147.32    3.15
   6  -2   5  150.03    3.14
   6  -2   5  149.62    3.72
  -7   2  -5    9.54    0.73
  -7   2  -5    9.57    0.72
   7  -2   5    9.89    0.74
   7  -2   5   10.55    0.74
   7  -2   5    9.71    0.66
  -8   2  -5   32.03    1.22
   8  -2   5   34.43    1.26
   8  -2   5   28.96    1.24
   8  -2   5   32.29    1.13
  -9   2  -5    4.82    0.58
   9  -2   5    5.70    0.92
   9  -2   5    4.86    0.77
   9   1  -5   14.85    0.78
   9   1  -5   16.17    1.20
  -9  -1   5   12.35    1.29
   8   1  -5   11.89    0.65
   8   1  -5   13.21    0.93
  -8  -1   5   12.09    0.99
  -8  -1   5   12.00    0.67
   7   1  -5    8.92    0.72
   7   1  -5    8.45    0.51
   7   1  -5    8.92    0.78
  -7  -1   5    8.98    0.80
  -7  -1   5    8.84    0.53
  -7  -1   5   10.86    0.81
   6   1  -5   23.69    0.94
   6   1  -5   23.07    0.72
   6   1  -5   23.04    0.95
  -6  -1   5   24.13    0.96
  -6  -1   5   24.44    1.01
  -6  -1   5   23.26    0.73
   5   1  -5   29.64    0.95
   5   1  -5   27.86    0.94
   5   1  -5   28.22    0.77
  -5  -1   5   29.44    0.79
  -5  -1   5   29.23    0.99
   4   1  -5   52.27    1.16
   4   1  -5   51.05    1.31
   4   1  -5   53.65    1.31
  -4  -1   5   51.43    1.34
  -4  -1   5   53.46    1.17
  -4  -1   5   51.64    1.31
   3   1  -5   75.36    1.61
   3   1  -5   72.00    1.51
  -3  -1   5   75.20    1.66
  -3  -1   5   72.23    1.61
  -3  -1   5   71.95    1.51
   2   1  -5  116.09    2.32
   2   1  -5  116.27    2.37
   2   1  -5  115.63    2.27
  -2  -1   5  119.60    2.39
  -2  -1   5  115.91    2.33
  -2  -1   5  116.42    2.31
  -1  -1   5   62.21    1.26
  -1  -1   5   56.88    1.29
  -1  -1   5   56.10    1.26
   0  -1   5   35.45    0.88
   0  -1   5   35.49    0.88
   0  -1   5   39.90    0.86
  -1   1  -5  483.15    8.71
  -1   1  -5  477.39    8.75
   1  -1   5  473.25    8.76
   1  -1   5  474.71    8.70
   1  -1   5  484.34    8.79
  -2   1  -5  447.36    8.22
  -2   1  -5  448.58    8.18
   2  -1   5  434.39    8.27
   2  -1   5  451.37    8.24
   2  -1   5  457.68    8.42
  -3   1  -5  106.70    2.14
  -3   1  -5  104.63    2.15
   3  -1   5  104.56    2.17
   3  -1   5  106.38    2.14
   3  -1   5  105.86    2.21
  -4   1  -5  107.69    2.26
  -4   1  -5  110.09    2.26
   4  -1   5  108.72    2.27
   4  -1   5  108.15    2.29
   4  -1   5  111.28    2.31
  -5   1  -5   65.74    1.56
  -5   1  -5   66.21    1.56
  -5   1  -5   67.62    1.59
   5  -1   5   66.98    1.58
   5  -1   5   65.06    1.62
   5  -1   5   65.31    1.58
  -6   1  -5  216.85    4.31
  -6   1  -5  214.99    4.30
  -6   1  -5  211.70    4.29
   6  -1   5  218.11    4.33
   6  -1   5  216.50    4.29
   6  -1   5  208.54    4.30
  -7   1  -5    0.86    0.29
  -7   1  -5    0.51    0.29
   7  -1   5    0.50    0.30
   7  -1   5    0.80    0.29
   7  -1   5    0.66    0.25
  -8   1  -5   44.19    1.50
  -8   1  -5   43.65    1.46
   8  -1   5   45.85    1.37
   8  -1   5   40.29    1.50
   8  -1   5   48.70    1.47
  -9   1  -5    2.31    0.45
   9  -1   5    2.28    0.46
   9  -1   5    2.61    0.41
   9   0  -5    4.11    0.64
  -9   0   5    3.75    0.63
   8   0  -5    4.34    0.46
   8   0  -5    3.49    0.46
  -8   0   5    3.84    0.48
  -8   0   5    3.04    0.48
   7   0  -5   19.31    0.63
   7   0  -5   18.55    0.96
   7   0  -5   18.71    0.93
  -7   0   5   20.58    1.04
  -7   0   5   19.62    0.98
  -7   0   5   18.31    0.63
   6   0  -5   28.58    1.05
   6   0  -5   31.19    1.06
   6   0  -5   30.02    0.77
  -6   0   5   29.10    1.10
  -6   0   5   29.37    1.07
  -6   0   5   29.70    0.78
   5   0  -5   42.16    1.21
   5   0  -5   42.73    1.21
   5   0  -5   42.41    0.97
  -5   0   5   44.04    0.98
  -5   0   5   44.49    1.26
  -5   0   5   41.87    1.22
   4   0  -5   32.75    0.77
   4   0  -5   34.53    0.98
  -4   0   5   35.51    1.01
  -4   0   5   30.59    1.11
  -4   0   5   34.03    0.79
   3   0  -5  267.51    5.04
   3   0  -5  268.46    5.05
   3   0  -5  261.13    4.88
  -3   0   5  263.43    5.06
  -3   0   5  267.64    5.06
  -3   0   5  262.53    4.88
   2   0  -5   50.61    1.16
   2   0  -5   49.86    1.07
   2   0  -5   50.91    1.17
  -2   0   5   51.36    1.07
  -2   0   5   52.20    1.18
  -2   0   5   52.08    1.19
  -1   0   5  224.62    4.24
  -1   0   5  230.66    4.31
  -1   0   5  228.48    4.32
   0   0   5   85.79    1.73
   0   0   5   87.24    1.73
   0   0   5   84.34    1.77
  -1   0  -5  193.34    3.64
  -1   0  -5  193.16    3.61
   1   0   5  188.03    3.65
   1   0   5  194.40    3.74
   1   0   5  191.44    3.61
  -2   0  -5  821.23   15.14
   2   0   5  848.93   15.12
   2   0   5  836.52   15.16
  -3   0  -5  155.31    3.05
  -3   0  -5  154.28    2.99
  -3   0  -5  153.68    3.03
   3   0   5  155.07    3.07
   3   0   5  155.09    3.00
   3   0   5  154.99    3.04
  -4   0  -5  110.07    2.30
  -4   0  -5  109.71    2.29
  -4   0  -5  109.81    2.25
   4   0   5  110.58    2.35
   4   0   5  109.25    2.31
   4   0   5  109.56    2.29
  -5   0  -5   59.88    1.44
  -5   0  -5   58.45    1.44
  -5   0  -5   56.82    1.54
   5   0   5   61.50    1.43
   5   0   5   58.12    1.45
   5   0   5   59.20    1.44
  -6   0  -5  186.67    3.85
  -6   0  -5  189.32    3.84
  -6   0  -5  189.82    3.81
   6   0   5  188.71    3.84
   6   0   5  190.55    3.83
   6   0   5  190.34    3.88
  -7   0  -5    7.19    0.61
  -7   0  -5    7.98    0.64
  -7   0  -5    6.17    0.63
   7   0   5    7.45    0.60
   7   0   5    5.68    0.64
   7   0   5    7.09    0.62
  -8   0  -5   41.99    1.41
  -8   0  -5   43.55    1.36
  -8   0  -5   42.42    1.42
   8   0   5   40.58    1.48
   8   0   5   43.17    1.34
   8   0   5   44.60    1.39
  -9   0  -5    6.94    0.87
   9   0   5    6.20    0.78
   9   0   5    6.74    0.79
   9  -1  -5   18.45    1.56
  -9   1   5   17.09    1.63
   8  -1  -5   12.59    0.50
   8  -1  -5   14.45    0.95
  -8   1   5   12.32    0.53
  -8   1   5   13.26    1.03
   7  -1  -5   13.03    0.87
   7  -1  -5   12.45    0.81
   7  -1  -5   12.14    0.45
  -7   1   5   13.60    0.92
  -7   1   5   13.20    0.90
  -7   1   5   13.27    0.68
   6  -1  -5   59.58    1.63
   6  -1  -5   57.64    1.24
   6  -1  -5   62.99    1.64
  -6   1   5   61.04    1.65
  -6   1   5   61.17    1.83
  -6   1   5   58.95    1.25
   5  -1  -5  239.37    4.68
   5  -1  -5  237.81    4.67
   5  -1  -5  227.68    4.32
  -5   1   5  231.11    4.66
  -5   1   5  243.47    4.72
  -5   1   5  231.09    4.32
   4  -1  -5  155.14    3.09
   4  -1  -5  154.28    3.07
   4  -1  -5  149.32    2.79
  -4   1   5  155.63    3.12
  -4   1   5  153.03    2.80
  -4   1   5  133.85    3.40
   3  -1  -5   12.14    0.52
   3  -1  -5   14.06    0.53
  -3   1   5   12.96    0.35
  -3   1   5   12.50    0.54
  -3   1   5   12.35    0.52
   2  -1  -5  698.24   12.94
  -2   1   5  723.67   13.02
  -2   1   5  717.07   12.95
   1  -1  -5  104.93    2.03
  -1   1   5  102.07    1.98
  -1   1   5  101.27    2.10
  -1   1   5  103.49    1.99
  -1   1   5  103.02    2.03
   0   1   5  136.13    2.63
   0   1   5  140.72    2.65
   0   1   5  139.22    2.73
  -1  -1  -5  151.44    2.93
  -1  -1  -5  149.34    2.89
   1   1   5  151.98    2.90
   1   1   5  150.60    2.83
   1   1   5  149.64    2.93
  -2  -1  -5  628.80   11.77
  -2  -1  -5  651.97   11.77
   2   1   5  645.12   11.77
   2   1   5  659.49   11.78
  -3  -1  -5  249.63    4.67
  -3  -1  -5  247.26    4.66
  -3  -1  -5  241.79    4.65
   3   1   5  247.87    4.68
   3   1   5  242.18    4.67
   3   1   5  243.17    4.58
  -4  -1  -5  115.44    2.40
  -4  -1  -5  115.98    2.41
  -4  -1  -5  117.11    2.32
   4   1   5  115.18    2.41
   4   1   5  114.75    2.42
   4   1   5  115.97    2.33
  -5  -1  -5   57.30    1.33
  -5  -1  -5   56.00    1.41
  -5  -1  -5   58.40    1.40
   5   1   5   55.43    1.42
   5   1   5   56.85    1.36
   5   1   5   56.65    1.40
  -6  -1  -5   55.01    1.37
  -6  -1  -5   53.29    1.41
  -6  -1  -5   55.67    1.46
   6   1   5   54.37    1.47
   6   1   5   52.51    1.41
   6   1   5   52.69    1.37
  -7  -1  -5  163.12    3.43
  -7  -1  -5  165.35    3.50
  -7  -1  -5  161.62    3.53
   7   1   5  162.13    3.49
   7   1   5  162.92    3.52
   7   1   5  163.99    3.43
  -8  -1  -5   83.68    2.09
  -8  -1  -5   80.94    2.15
  -8  -1  -5   83.73    2.09
   8   1   5   84.37    2.08
   8   1   5   83.20    2.07
   8   1   5   82.38    2.35
  -9  -1  -5   21.80    1.16
   9   1   5   20.10    1.04
   9   1   5   22.64    1.05
   8  -2  -5   11.63    0.95
  -8   2   5   11.05    1.04
   7  -2  -5   13.50    0.87
   7  -2  -5   14.42    0.92
  -7   2   5   11.04    0.92
  -7   2   5   13.72    0.95
   6  -2  -5   40.84    1.29
   6  -2  -5   37.84    1.26
  -6   2   5   39.79    1.32
  -6   2   5   38.10    1.27
   5  -2  -5  105.57    2.37
   5  -2  -5  104.89    2.37
  -5   2   5  108.13    2.43
  -5   2   5  103.92    2.40
   4  -2  -5  128.88    2.68
   4  -2  -5  128.29    2.65
  -4   2   5  123.06    3.02
  -4   2   5  125.90    2.70
   3  -2  -5    3.10    0.35
   3  -2  -5    3.74    0.35
  -3   2   5    2.84    0.36
   2  -2  -5  156.89    3.07
  -2   2   5  159.99    2.92
  -2   2   5  162.04    3.19
  -2   2   5  158.14    2.92
  -2   2   5  160.67    3.09
   1  -2  -5  149.18    2.85
  -1   2   5  149.04    2.99
  -1   2   5  151.77    2.85
  -1   2   5  151.40    2.80
   0  -2  -5  176.14    3.28
   0   2   5  173.88    3.42
   0   2   5  176.36    3.28
   0   2   5  174.45    3.24
  -1  -2  -5  255.32    4.75
  -1  -2  -5  256.10    4.83
   1   2   5  252.71    4.63
   1   2   5  256.26    4.76
   1   2   5  255.73    4.83
  -2  -2  -5  169.35    3.28
  -2  -2  -5  171.01    3.24
  -2  -2  -5  162.07    3.10
   2   2   5  171.51    3.25
   2   2   5  167.55    3.28
   2   2   5  166.91    3.10
  -3  -2  -5   79.26    1.56
  -3  -2  -5   77.27    1.70
  -3  -2  -5   78.00    1.69
   3   2   5   80.35    1.72
   3   2   5   77.86    1.69
   3   2   5   77.22    1.56
  -4  -2  -5  120.78    2.51
  -4  -2  -5  121.86    2.37
  -4  -2  -5  117.83    2.60
   4   2   5  119.96    2.49
   4   2   5  121.13    2.53
   4   2   5  121.43    2.38
  -5  -2  -5   81.98    1.90
  -5  -2  -5   83.81    1.77
  -5  -2  -5   82.39    1.87
   5   2   5   81.49    1.78
   5   2   5   80.58    1.86
   5   2   5   85.37    1.93
  -6  -2  -5  271.94    5.30
  -6  -2  -5  272.69    5.35
  -6  -2  -5  276.56    5.54
   6   2   5  270.44    5.27
   6   2   5  272.90    5.36
   6   2   5  277.86    5.43
  -7  -2  -5  165.31    3.47
  -7  -2  -5  165.62    3.53
  -7  -2  -5  163.12    3.40
   7   2   5  164.27    3.49
   7   2   5  164.89    3.42
   7   2   5  165.59    3.56
  -8  -2  -5   55.38    1.64
  -8  -2  -5   52.67    1.57
  -8  -2  -5   54.98    1.55
   8   2   5   55.64    1.57
   8   2   5   53.36    1.52
  -9  -2  -5   12.52    0.98
   9   2   5   12.78    0.92
   9   2   5   12.22    0.87
   8  -3  -5    3.94    0.55
  -8   3   5    3.54    0.57
   7  -3  -5   37.23    1.96
   7  -3  -5   32.04    1.26
  -7   3   5   34.64    1.32
  -7   3   5   29.15    1.28
   6  -3  -5    0.35    0.29
   6  -3  -5    0.52    0.30
  -6   3   5   -0.03    0.30
  -6   3   5    0.27    0.31
   5  -3  -5   55.92    1.48
   5  -3  -5   57.08    1.50
  -5   3   5   52.89    1.74
  -5   3   5   55.46    1.49
   4  -3  -5   14.58    0.63
   4  -3  -5   14.43    0.65
  -4   3   5   14.16    0.63
  -4   3   5   14.40    0.68
   3  -3  -5  253.30    4.83
  -3   3   5  250.26    4.83
  -3   3   5  257.74    4.95
   2  -3  -5  171.58    3.27
  -2   3   5  170.37    3.41
  -2   3   5  169.10    3.27
   1  -3  -5  166.26    3.12
   1  -3  -5  163.33    3.07
  -1   3   5  166.02    3.13
  -1   3   5  168.82    3.07
  -1   3   5  166.73    3.31
   0  -3  -5   23.52    0.57
   0  -3  -5   23.87    0.52
   0   3   5   22.68    0.71
   0   3   5   23.83    0.52
   0   3   5   23.97    0.58
  -1  -3  -5  800.01   14.35
  -1  -3  -5  789.31   14.24
   1   3   5  767.64   14.34
   1   3   5  793.95   14.24
  -2  -3  -5  252.92    4.86
  -2  -3  -5  262.43    4.92
   2   3   5  255.15    4.88
   2   3   5  263.57    4.93
  -3  -3  -5  128.13    2.56
  -3  -3  -5  124.38    2.37
  -3  -3  -5  125.99    2.58
   3   3   5  124.33    2.56
   3   3   5  125.28    2.38
   3   3   5  129.25    2.61
  -4  -3  -5   81.50    1.80
  -4  -3  -5   80.69    1.70
  -4  -3  -5   77.88    1.88
   4   3   5   81.22    1.78
   4   3   5   73.00    1.94
   4   3   5   81.54    1.62
  -5  -3  -5   75.01    1.60
  -5  -3  -5   74.81    1.73
  -5  -3  -5   74.93    1.77
   5   3   5   73.58    1.74
   5   3   5   73.28    1.78
   5   3   5   74.24    1.61
  -6  -3  -5   24.41    0.89
  -6  -3  -5   24.28    0.78
  -6  -3  -5   22.88    1.07
   6   3   5   25.42    0.79
   6   3   5   25.57    0.97
   6   3   5   22.06    1.29
  -7  -3  -5   29.44    0.97
  -7  -3  -5   29.61    1.05
  -7  -3  -5   28.85    1.08
   7   3   5   29.31    0.96
   7   3   5   29.35    1.04
   7   3   5   28.10    1.11
  -8  -3  -5   29.93    1.20
  -8  -3  -5   31.36    1.19
  -8  -3  -5   31.53    1.11
   8   3   5   31.33    1.15
   8   3   5   30.35    1.09
  -9  -3  -5   22.71    1.16
  -9  -3  -5   19.84    1.14
   9   3   5   20.53    1.06
   9   3   5   21.22    1.04
   8  -4  -5    1.96    0.49
  -8   4   5    2.29    0.53
   7  -4  -5   31.33    1.26
  -7   4   5   35.45    1.36
   6  -4  -5    4.65    0.63
   6  -4  -5    6.75    0.68
  -6   4   5    4.76    0.68
  -6   4   5    6.06    0.68
   5  -4  -5   61.79    1.62
   5  -4  -5   62.03    1.64
  -5   4   5   64.77    1.71
  -5   4   5   61.48    1.62
   4  -4  -5    4.65    0.44
  -4   4   5    4.81    0.51
  -4   4   5    4.06    0.46
   3  -4  -5  307.52    5.77
  -3   4   5  306.46    5.90
  -3   4   5  302.68    5.77
   2  -4  -5   38.69    0.93
  -2   4   5   39.83    1.07
  -2   4   5   37.69    0.93
   1  -4  -5  286.77    5.31
   1  -4  -5  284.33    5.27
  -1   4   5  301.20    5.55
  -1   4   5  288.39    5.27
  -1   4   5  288.18    5.32
  -1   4   5  285.67    5.53
   0  -4  -5   42.56    0.84
   0  -4  -5   41.27    0.94
   0   4   5   42.27    0.84
   0   4   5   43.50    1.10
   0   4   5   43.17    0.94
  -1  -4  -5  368.99    6.76
  -1  -4  -5  364.49    6.89
   1   4   5  363.48    6.77
   1   4   5  371.02    6.89
  -2  -4  -5  242.40    4.48
  -2  -4  -5  234.69    4.55
   2   4   5  231.35    4.54
   2   4   5  234.49    4.48
  -3  -4  -5  133.40    2.66
  -3  -4  -5  130.34    2.42
  -3  -4  -5  130.60    2.70
   3   4   5  129.15    2.43
   3   4   5  131.55    2.67
  -4  -4  -5  119.26    2.31
  -4  -4  -5  119.71    2.55
  -4  -4  -5  121.70    2.52
   4   4   5  119.08    2.32
   4   4   5  122.88    2.57
   4   4   5  118.99    2.53
  -5  -4  -5  285.80    5.56
  -5  -4  -5  284.18    5.52
  -5  -4  -5  283.65    5.32
   5   4   5  288.87    5.35
   5   4   5  281.20    5.52
   5   4   5  285.63    5.58
  -6  -4  -5   28.11    1.01
  -6  -4  -5   27.93    0.97
  -6  -4  -5   28.45    0.83
   6   4   5   27.69    0.97
   6   4   5   28.14    1.04
   6   4   5   29.66    0.86
  -7  -4  -5   44.12    1.37
  -7  -4  -5   42.60    1.19
  -7  -4  -5   43.47    1.32
   7   4   5   43.24    1.41
   7   4   5   44.66    1.22
   7   4   5   43.68    1.33
  -8  -4  -5   30.68    1.10
  -8  -4  -5   31.01    1.23
   8   4   5   31.69    1.10
   8   4   5   32.24    1.18
  -9  -4  -5   26.23    1.27
  -9  -4  -5   23.21    1.17
   9   4   5   25.72    1.21
   9   4   5   25.51    1.13
   8  -5  -5    4.17    0.58
  -8   5   5    3.92    0.65
   7  -5  -5   27.31    1.20
  -7   5   5   24.19    1.24
   6  -5  -5    3.21    0.46
   6  -5  -5    3.95    0.64
  -6   5   5    3.28    0.46
  -6   5   5    3.24    0.42
  -5   5   5   34.62    1.15
  -5   5   5   34.50    1.19
   4  -5  -5    6.48    0.50
  -4   5   5    6.85    0.52
  -4   5   5    5.61    0.56
   3  -5  -5  124.58    2.56
  -3   5   5  125.69    2.58
  -3   5   5  124.72    2.70
   2  -5  -5   55.40    1.23
  -2   5   5   55.18    1.24
  -2   5   5   54.00    1.39
   1  -5  -5  181.86    3.44
   1  -5  -5  184.07    3.41
  -1   5   5  179.46    3.67
  -1   5   5  182.50    3.41
  -1   5   5  181.02    3.44
  -1   5   5  188.69    3.69
   0  -5  -5   35.27    0.74
   0  -5  -5   36.40    0.84
   0   5   5   35.49    1.00
   0   5   5   36.40    0.85
   0   5   5   36.34    0.74
  -1  -5  -5  273.42    5.05
  -1  -5  -5  277.05    5.21
   1   5   5  260.42    5.17
   1   5   5  266.32    5.05
  -2  -5  -5   62.15    1.39
  -2  -5  -5   60.14    1.47
   2   5   5   62.51    1.47
   2   5   5   63.15    1.41
  -3  -5  -5  198.72    3.77
   3   5   5  172.69    3.90
   3   5   5  191.71    3.71
  -4  -5  -5   54.83    1.12
  -4  -5  -5   54.97    1.36
  -4  -5  -5   55.72    1.40
   4   5   5   54.42    1.37
   4   5   5   54.47    1.41
   4   5   5   53.54    1.14
  -5  -5  -5  136.89    2.89
  -5  -5  -5  135.68    2.65
  -5  -5  -5  134.62    2.92
   5   5   5  136.75    2.95
   5   5   5  138.70    2.68
   5   5   5  134.81    2.91
  -6  -5  -5   83.11    2.00
  -6  -5  -5   82.93    1.79
  -6  -5  -5   82.14    2.04
   6   5   5   84.05    1.82
   6   5   5   83.42    2.01
   6   5   5   83.50    2.06
  -7  -5  -5   36.54    1.21
  -7  -5  -5   37.79    1.07
  -7  -5  -5   38.03    1.27
   7   5   5   34.88    1.33
   7   5   5   36.84    1.07
   7   5   5   36.89    1.23
  -8  -5  -5   25.04    1.12
  -8  -5  -5   23.36    1.00
   8   5   5   24.18    1.08
  -9  -5  -5   14.75    1.11
  -9  -5  -5   14.50    0.98
   9   5   5   12.54    1.03
   9   5   5   13.35    0.89
   7  -6  -5   13.29    1.03
  -7   6   5   12.22    1.04
   6  -6  -5    9.19    0.78
  -6   6   5    8.22    0.84
  -6   6   5    9.55    0.83
   5  -6  -5   15.17    0.91
  -5   6   5   15.48    0.85
  -5   6   5   15.28    0.79
   4  -6  -5    0.65    0.22
  -4   6   5    0.60    0.51
  -4   6   5    0.53    0.22
   3  -6  -5   95.66    2.07
  -3   6   5   96.17    2.08
  -3   6   5   94.70    2.20
   2  -6  -5   25.97    0.58
   2  -6  -5   25.38    0.74
  -2   6   5   28.40    0.93
  -2   6   5   25.92    0.60
  -2   6   5   25.66    0.88
  -2   6   5   25.80    0.74
   1  -6  -5   98.26    1.96
   1  -6  -5  103.43    2.14
  -1   6   5   98.25    2.20
  -1   6   5   94.72    2.05
  -1   6   5  100.15    1.95
   0  -6  -5   43.28    1.00
   0  -6  -5   41.56    0.87
   0   6   5   41.98    1.16
   0   6   5   42.16    0.99
   0   6   5   42.75    0.89
  -1  -6  -5  218.48    4.15
  -1  -6  -5  215.64    4.30
   1   6   5  218.55    4.28
   1   6   5  215.03    4.16
  -2  -6  -5   46.35    1.14
  -2  -6  -5   45.93    1.22
   2   6   5   45.10    1.14
  -3  -6  -5  175.87    3.47
  -3  -6  -5  171.88    3.52
   3   6   5  170.02    3.47
   3   6   5  174.01    3.53
  -4  -6  -5   65.59    1.60
  -4  -6  -5   66.60    1.64
  -4  -6  -5   65.71    1.31
   4   6   5   66.69    1.62
   4   6   5   66.15    1.65
  -5  -6  -5  181.60    3.51
  -5  -6  -5  179.55    4.15
  -5  -6  -5  187.36    3.80
   5   6   5  184.16    3.54
   5   6   5  187.38    3.86
   5   6   5  191.80    3.89
  -6  -6  -5   60.08    1.38
  -6  -6  -5   60.89    1.63
  -6  -6  -5   61.05    1.65
   6   6   5   58.59    1.67
   6   6   5   61.59    1.59
   6   6   5   62.83    1.65
  -7  -6  -5   52.95    1.60
  -7  -6  -5   52.87    1.33
   7   6   5   53.38    1.35
   7   6   5   49.74    1.65
   7   6   5   52.60    1.56
  -8  -6  -5   17.54    0.93
  -8  -6  -5   17.83    1.03
   8   6   5   19.12    0.91
   8   6   5   18.95    1.02
  -9  -6  -5   32.46    2.12
  -9  -6  -5   28.64    1.70
   9   6   5   28.18    1.30
   9   6   5   27.50    1.36
   7  -7  -5   15.61    1.17
  -7   7   5   16.95    1.22
   6  -7  -5    0.36    0.34
  -6   7   5   -0.44    0.51
  -6   7   5    0.53    0.38
   5  -7  -5   46.11    1.38
  -5   7   5   43.66    1.37
  -5   7   5   44.77    1.43
   4  -7  -5   17.37    0.78
  -4   7   5   16.70    0.86
  -4   7   5   18.50    0.80
   3  -7  -5   93.64    2.07
  -3   7   5   94.79    2.22
  -3   7   5   94.83    2.09
   2  -7  -5   15.98    0.60
   2  -7  -5   16.02    0.46
  -2   7   5   16.31    0.73
  -2   7   5   16.42    0.48
  -2   7   5   16.83    0.77
  -2   7   5   16.35    0.59
   1  -7  -5   73.87    1.54
   1  -7  -5   74.40    1.53
  -1   7   5   73.99    1.78
  -1   7   5   74.91    1.55
  -1   7   5   71.10    1.77
  -1   7   5   73.75    1.55
   0  -7  -5   63.52    1.38
   0  -7  -5   61.78    1.27
   0   7   5   63.19    1.40
   0   7   5   61.74    1.29
   0   7   5   64.21    1.57
  -1  -7  -5   50.68    1.22
   1   7   5   51.61    1.33
   1   7   5   50.07    1.23
  -2  -7  -5  110.11    2.33
  -2  -7  -5  112.00    2.44
   2   7   5  110.18    2.41
   2   7   5  109.10    2.34
  -3  -7  -5   85.71    2.00
  -3  -7  -5   85.57    1.94
   3   7   5   87.26    2.01
   3   7   5   85.49    1.96
  -4  -7  -5   34.04    1.08
  -4  -7  -5   33.86    1.06
   4   7   5   30.23    1.48
   4   7   5   33.50    1.08
  -5  -7  -5   74.50    1.88
  -5  -7  -5   77.21    1.91
  -5  -7  -5   76.31    1.62
   5   7   5   74.07    1.88
   5   7   5   75.72    1.91
  -6  -7  -5   22.67    0.98
  -6  -7  -5   21.21    0.70
  -6  -7  -5   22.20    0.96
   6   7   5   20.92    1.01
   6   7   5   22.07    0.95
  -7  -7  -5   63.44    1.72
  -7  -7  -5   66.40    1.87
   7   7   5   68.38    1.61
   7   7   5   65.34    1.83
  -8  -7  -5   37.46    1.44
  -8  -7  -5   37.73    1.21
   8   7   5   33.83    1.48
   8   7   5   37.18    1.42
   6  -8  -5    2.77    0.44
  -6   8   5    2.90    0.52
   5  -8  -5   39.61    1.30
  -5   8   5   37.13    1.30
  -5   8   5   37.09    1.45
   4  -8  -5   12.71    1.10
  -4   8   5   15.32    0.79
  -4   8   5   15.40    0.85
   3  -8  -5  104.87    2.27
  -3   8   5  103.17    2.49
  -3   8   5  104.17    2.27
  -3   8   5  101.00    2.45
   2  -8  -5    4.33    0.40
   2  -8  -5    4.34    0.41
  -2   8   5    4.72    0.52
  -2   8   5    4.11    0.40
  -2   8   5    4.89    0.33
  -2   8   5    4.09    0.58
   1  -8  -5   67.22    1.48
   1  -8  -5   67.83    1.48
  -1   8   5   70.01    1.51
  -1   8   5   68.86    1.72
  -1   8   5   69.90    1.51
  -1   8   5   68.72    1.73
   0  -8  -5    2.47    0.35
   0  -8  -5    2.52    0.26
   0   8   5    2.18    0.31
   0   8   5    3.11    0.29
   0   8   5    3.37    0.40
  -1  -8  -5   63.79    1.55
   1   8   5   64.90    1.53
   1   8   5   66.67    1.63
  -2  -8  -5    0.54    0.23
  -2  -8  -5    0.71    0.23
   2   8   5    0.31    0.19
   2   8   5    1.02    0.28
  -3  -8  -5  125.64    2.77
  -3  -8  -5  125.55    2.70
   3   8   5  126.95    2.75
   3   8   5  124.57    2.71
  -4  -8  -5    6.00    0.60
  -4  -8  -5    6.31    0.59
   4   8   5    6.87    0.62
   4   8   5    5.66    0.56
  -5  -8  -5  109.47    2.52
  -5  -8  -5  108.82    2.52
  -5  -8  -5  105.15    2.12
   5   8   5  109.27    2.52
   5   8   5  108.42    2.54
  -6  -8  -5    7.49    0.71
  -6  -8  -5    7.51    0.47
   6   8   5    8.27    0.86
   6   8   5    6.84    0.69
  -7  -8  -5   50.97    1.62
   7   8   5   51.27    1.61
  -8  -8  -5   22.00    1.21
   8   8   5   20.75    1.21
   5  -9  -5   27.22    1.14
  -5   9   5   23.77    1.13
  -5   9   5   26.54    1.20
   4  -9  -5    0.71    0.31
  -4   9   5    1.32    0.48
  -4   9   5    1.25    0.33
  -4   9   5    1.30    0.37
   3  -9  -5   77.28    1.55
   3  -9  -5   78.43    1.86
  -3   9   5   78.14    1.99
  -3   9   5   77.37    1.85
  -3   9   5   77.53    2.04
   2  -9  -5    2.63    0.42
   2  -9  -5    1.56    0.20
  -2   9   5    1.68    0.35
  -2   9   5    1.90    0.23
   1  -9  -5   60.33    1.38
   1  -9  -5   60.50    1.36
  -1   9   5   57.42    1.61
  -1   9   5   58.97    1.39
  -1   9   5   59.10    1.59
  -1   9   5   61.49    1.39
   0  -9  -5   13.10    0.61
   0  -9  -5   12.00    0.46
   0   9   5   12.72    0.58
   0   9   5   10.83    0.73
  -1  -9  -5  611.82   11.64
  -1  -9  -5  677.82   11.93
  -1  -9  -5  627.70   11.63
   1   9   5  660.13   11.93
   1   9   5  650.09   12.02
  -2  -9  -5   11.37    0.65
  -2  -9  -5   11.41    0.70
   2   9   5    9.99    0.68
   2   9   5    9.74    0.61
  -3  -9  -5  100.27    2.28
   3   9   5   98.38    2.27
   3   9   5   98.27    2.30
  -4  -9  -5   22.21    0.93
  -4  -9  -5   21.17    0.93
   4   9   5   20.69    0.91
   4   9   5   21.57    0.95
  -5  -9  -5  133.54    2.63
  -5  -9  -5  131.79    2.59
  -5  -9  -5  139.86    3.26
  -5  -9  -5  140.21    3.08
   5   9   5  134.94    3.05
   5   9   5  132.93    3.07
  -6  -9  -5   11.71    0.51
  -6  -9  -5   11.84    0.85
  -6  -9  -5   11.87    0.54
   6   9   5   12.19    0.85
  -7  -9  -5   38.19    1.42
   7   9   5   35.82    1.42
   5 -10  -5   20.20    1.11
   4 -10  -5    0.55    0.34
  -4  10   5    0.87    0.38
  -4  10   5    0.08    0.49
  -4  10   5   -0.33    0.34
   3 -10  -5   49.99    1.90
   3 -10  -5   60.85    1.27
  -3  10   5   59.60    1.81
  -3  10   5   58.96    1.66
  -3  10   5   60.76    1.59
   2 -10  -5    1.04    0.25
   2 -10  -5    1.45    0.25
  -2  10   5    1.15    0.38
  -2  10   5    1.01    0.31
  -2  10   5    1.16    0.27
  -2  10   5    1.13    0.24
   1 -10  -5   49.54    1.20
   1 -10  -5   47.10    1.39
  -1  10   5   48.05    1.23
  -1  10   5   48.33    1.45
  -1  10   5   50.11    1.26
  -1  10   5   47.72    1.45
   0 -10  -5   16.23    0.57
   0 -10  -5   17.97    0.76
   0  10   5   17.30    0.72
   0  10   5   16.56    0.87
  -1 -10  -5  126.89    2.47
  -1 -10  -5  124.02    2.42
  -1 -10  -5  125.71    2.72
   1  10   5  127.16    2.80
   1  10   5  126.28    2.73
  -2 -10  -5   21.14    0.88
   2  10   5   18.54    0.90
   2  10   5   20.22    0.87
  -3 -10  -5   56.67    1.59
  -3 -10  -5   57.28    1.63
   3  10   5   55.25    1.55
   3  10   5   56.52    1.59
  -4 -10  -5   20.19    1.04
  -4 -10  -5   21.43    0.99
   4  10   5   21.11    1.04
   4  10   5   22.04    0.96
  -5 -10  -5   57.70    1.68
   5  10   5   58.87    1.70
   5  10   5   52.38    1.74
  -6 -10  -5    3.14    0.49
  -6 -10  -5    2.51    0.46
   6  10   5    2.09    0.44
   3 -11  -5   23.30    1.00
  -3  11   5   23.43    1.05
  -3  11   5   24.13    1.08
  -3  11   5   21.82    1.24
   2 -11  -5    0.50    0.28
  -2  11   5    0.45    0.25
  -2  11   5    1.09    0.32
  -2  11   5    0.25    0.32
  -2  11   5    0.41    0.44
   1 -11  -5   42.33    1.13
   1 -11  -5   42.53    1.22
  -1  11   5   42.78    1.34
  -1  11   5   42.82    1.20
  -1  11   5   40.31    1.54
  -1  11   5   41.86    1.42
   0 -11  -5    3.50    0.43
   0 -11  -5    4.27    0.68
   0  11   5    3.43    0.44
   0  11   5    5.10    0.76
   0  11   5    3.20    0.44
  -1 -11  -5   61.97    1.35
  -1 -11  -5   63.47    1.66
  -1 -11  -5   60.60    1.32
   1  11   5   61.20    1.71
   1  11   5   62.78    1.64
  -2 -11  -5    0.16    0.35
   2  11   5    0.34    0.36
   2  11   5    0.14    0.26
  -3 -11  -5   54.10    1.71
   3  11   5   56.63    1.62
   3  11   5   54.26    1.65
  -4 -11  -5    1.74    0.40
   4  11   5    2.82    0.53
   4  11   5    2.13    0.38
  -5 -11  -5   64.27    1.90
   5  11   5   64.19    1.90
   2 -12  -5    0.66    0.53
  -2  12   5    0.57    0.49
  -2  12   5    0.22    0.39
   1 -12  -5   24.10    0.91
   1 -12  -5   24.07    1.11
  -1  12   5   23.36    1.03
  -1  12   5   24.42    1.17
   0 -12  -5    0.00    0.23
   0 -12  -5   -0.68    0.35
   0  12   5    0.24    0.42
   0  12   5    0.27    0.29
   0  12   5   -0.35    0.34
  -1 -12  -5   38.35    0.96
  -1 -12  -5   37.77    1.37
   1  12   5   38.64    1.39
   1  12   5   38.76    1.27
   2  12   5   -0.05    0.44
   2  12   5   -0.22    0.30
   3  12   5   32.88    1.38
   3  12   5   35.02    1.31
  -4 -12  -5    3.46    0.54
   4  12   5    2.81    0.48
   3  11  -6    1.21    0.51
  -3 -11   6    1.34    0.46
   2  11  -6   35.29    1.43
  -2 -11   6   31.66    1.37
   1  11  -6    2.68    0.47
  -1 -11   6    2.28    0.44
   0  11  -6   29.46    1.32
   0 -11   6   27.75    1.29
   1 -11   6    0.10    0.44
   2 -11   6   60.27    1.97
   5  10  -6    2.97    0.55
  -5 -10   6    3.28    0.55
   4  10  -6   37.27    1.43
  -4 -10   6   37.67    1.46
   3  10  -6    1.92    0.42
  -3 -10   6    1.52    0.42
   2  10  -6   22.62    1.10
  -2 -10   6   21.79    1.10
   1  10  -6   10.62    0.86
  -1 -10   6   10.12    0.82
   0  10  -6   44.96    1.48
   0 -10   6   41.28    1.46
   1 -10   6   -0.10    0.33
   2 -10   6   49.84    1.66
   3 -10   6   -0.21    0.41
   4 -10   6   32.85    1.73
   4 -10   6   27.99    1.32
   6   9  -6   33.37    1.41
  -6  -9   6   32.06    1.46
  -6  -9   6   25.13    1.67
   5   9  -6    3.39    0.48
   5   9  -6    4.22    0.65
  -5  -9   6    3.30    0.50
  -5  -9   6    3.62    0.60
   4   9  -6   30.80    0.86
   4   9  -6   33.67    1.25
  -4  -9   6   31.03    0.90
  -4  -9   6   31.48    1.29
   3   9  -6    7.02    0.77
  -3  -9   6    7.83    0.94
  -3  -9   6    9.07    0.81
   2   9  -6   72.34    1.92
  -2  -9   6   71.75    2.07
  -2  -9   6   71.42    1.95
  -2  -9   6   69.70    2.02
   1   9  -6    9.20    0.76
  -1  -9   6    8.60    0.81
  -1  -9   6    9.68    0.76
   0   9  -6   77.06    1.98
   0  -9   6   73.07    1.96
   0  -9   6   72.55    1.97
   1  -9   6    1.51    0.35
   1  -9   6    1.77    0.37
   2  -9   6   36.20    1.35
   2  -9   6   37.34    1.36
   3  -9   6    7.55    0.81
   3  -9   6    7.53    1.02
   4  -9   6   19.23    1.06
   4  -9   6   22.22    1.14
   5  -9   6    1.34    0.43
   5  -9   6    0.45    0.45
   7   8  -6    0.62    0.45
   6   8  -6   33.44    1.24
   6   8  -6   34.40    1.34
  -6  -8   6   34.18    1.43
   5   8  -6   10.25    0.83
   5   8  -6    9.07    0.67
  -5  -8   6    9.47    0.68
  -5  -8   6    8.58    0.85
   4   8  -6   73.33    1.67
   4   8  -6   81.63    2.02
  -4  -8   6   73.46    2.04
  -4  -8   6   78.63    2.08
  -4  -8   6   77.35    1.70
  -4  -8   6   73.67    2.12
   3   8  -6    2.35    0.36
  -3  -8   6    2.82    0.41
  -3  -8   6    2.37    0.40
  -3  -8   6    3.00    0.44
   2   8  -6   58.50    1.61
  -2  -8   6   56.63    1.61
  -2  -8   6   58.38    1.65
  -2  -8   6   57.65    1.69
   1   8  -6    3.66    0.56
  -1  -8   6    2.53    0.36
  -1  -8   6    3.81    0.59
   0   8  -6  202.46    4.13
   0  -8   6  197.65    4.10
   0  -8   6  192.64    4.14
   1  -8   6    9.59    0.73
   1  -8   6    9.78    0.75
  -2   8  -6   79.28    2.06
   2  -8   6   81.30    2.04
   2  -8   6   81.42    2.09
   3  -8   6    0.95    0.34
   3  -8   6    0.97    0.34
   4  -8   6   34.31    1.33
   4  -8   6   35.74    1.25
   4  -8   6   34.82    1.32
  -5   8  -6    5.80    0.43
   5  -8   6    5.96    0.77
   5  -8   6    8.83    1.16
   5  -8   6    4.86    0.81
   6  -8   6   31.87    1.67
   6  -8   6   33.53    1.33
   7   7  -6    2.77    0.44
   7   7  -6    2.63    0.55
  -7  -7   6    2.63    0.47
   6   7  -6    8.25    0.77
   6   7  -6    7.41    0.85
  -6  -7   6    7.72    0.80
   5   7  -6   15.47    0.77
   5   7  -6   18.00    0.89
  -5  -7   6   15.99    0.96
  -5  -7   6   15.68    0.77
  -5  -7   6   16.16    1.09
   4   7  -6   40.96    1.09
   4   7  -6   41.74    1.30
  -4  -7   6   45.04    1.37
  -4  -7   6   40.50    1.43
  -4  -7   6   42.46    1.12
   3   7  -6    1.33    0.18
   3   7  -6    1.23    0.30
  -3  -7   6    0.82    0.28
  -3  -7   6    1.22    0.31
  -3  -7   6    1.30    0.19
  -3  -7   6    1.07    0.31
   2   7  -6   86.82    2.05
  -2  -7   6   83.70    2.12
  -2  -7   6   84.05    2.09
  -2  -7   6   87.17    2.06
   1   7  -6   13.64    0.72
  -1  -7   6   13.57    0.72
  -1  -7   6   11.68    0.83
   0   7  -6  227.43    4.69
   0  -7   6  228.64    4.82
   0  -7   6  236.28    4.66
   1  -7   6    0.53    0.28
   1  -7   6    0.74    0.25
  -2   7  -6  125.54    2.83
   2  -7   6  125.71    2.79
   2  -7   6  127.45    2.86
  -3   7  -6   10.88    0.73
   3  -7   6   10.38    0.74
   3  -7   6   10.10    0.73
  -4   7  -6  103.31    2.52
  -4   7  -6  101.98    2.04
   4  -7   6  104.23    2.47
   4  -7   6  106.39    2.56
   4  -7   6  106.25    2.47
  -5   7  -6    1.23    0.25
   5  -7   6    1.46    0.41
   5  -7   6    0.96    0.36
   5  -7   6    1.43    0.34
   5  -7   6    1.54    0.25
  -6   7  -6   70.24    1.67
   6  -7   6   69.91    1.94
   6  -7   6   67.76    2.03
   6  -7   6   73.50    1.75
   6  -7   6   69.12    2.07
   8   6  -6   14.10    0.99
  -8  -6   6   13.06    1.15
   7   6  -6    9.45    0.83
   7   6  -6    9.42    1.05
  -7  -6   6   10.52    0.93
  -7  -6   6    9.34    1.39
   6   6  -6   28.11    1.06
   6   6  -6   27.83    1.11
  -6  -6   6   27.04    1.13
  -6  -6   6   28.60    1.14
   5   6  -6   65.38    1.71
   5   6  -6   63.70    1.61
  -5  -6   6   65.73    1.75
  -5  -6   6   66.75    1.65
  -5  -6   6   65.67    1.87
   4   6  -6   45.28    1.15
   4   6  -6   47.25    1.42
  -4  -6   6   45.04    1.19
  -4  -6   6   45.20    1.34
  -4  -6   6   46.09    1.44
   3   6  -6    1.53    0.49
  -3  -6   6    3.07    0.36
  -3  -6   6    2.17    0.44
  -3  -6   6    2.16    0.33
  -3  -6   6    2.57    0.33
   2   6  -6  141.55    2.96
  -2  -6   6  140.30    2.97
  -2  -6   6  138.42    2.64
  -2  -6   6  136.60    3.01
  -2  -6   6  138.90    3.04
   1   6  -6   77.41    1.85
  -1  -6   6   77.71    1.91
  -1  -6   6   78.35    1.86
   0   6  -6    9.12    0.58
   0  -6   6    9.97    0.59
   0  -6   6    8.63    0.61
  -1   6  -6   14.39    0.75
   1  -6   6   15.12    0.74
  -2   6  -6  153.12    3.15
   2  -6   6  136.57    3.39
   2  -6   6  150.16    3.12
  -3   6  -6    0.08    0.24
  -3   6  -6    0.29    0.11
   3  -6   6   -0.18    0.24
   3  -6   6    0.02    0.24
  -4   6  -6  105.63    2.49
  -4   6  -6  107.25    2.14
   4  -6   6  107.90    2.16
   4  -6   6  106.83    2.53
   4  -6   6  106.73    2.48
   4  -6   6  107.56    2.46
  -5   6  -6   10.74    0.84
  -5   6  -6   12.75    0.57
   5  -6   6   12.20    0.80
   5  -6   6   11.55    0.76
   5  -6   6   12.83    0.57
   5  -6   6   12.70    0.84
  -6   6  -6   87.88    2.00
   6  -6   6   90.56    2.35
   6  -6   6   85.37    2.26
   6  -6   6   89.52    2.04
   6  -6   6   87.29    2.21
  -7   6  -6    3.40    0.43
   7  -6   6    3.45    0.49
   7  -6   6    3.19    0.45
   7  -6   6    2.67    0.51
   8   5  -6   14.05    1.24
   8   5  -6   14.40    0.92
  -8  -5   6   14.45    1.16
  -8  -5   6   15.46    1.33
   7   5  -6    4.49    0.66
   7   5  -6    3.63    0.55
  -7  -5   6    2.81    0.46
  -7  -5   6    2.87    0.45
   6   5  -6   37.10    1.23
   6   5  -6   37.37    1.20
  -6  -5   6   37.63    1.28
  -6  -5   6   37.28    1.22
  -6  -5   6   36.07    1.37
   5   5  -6   27.54    0.95
  -5  -5   6   29.82    1.00
  -5  -5   6   29.06    1.14
  -5  -5   6   28.01    1.03
   4   5  -6   53.30    1.39
   4   5  -6   50.52    1.27
  -4  -5   6   51.71    1.51
  -4  -5   6   53.88    1.33
  -4  -5   6   52.82    1.41
   3   5  -6   27.53    0.75
   3   5  -6   28.89    0.92
  -3  -5   6   28.57    0.80
  -3  -5   6   28.40    0.93
  -3  -5   6   26.30    1.00
   2   5  -6  134.05    2.80
  -2  -5   6  133.42    2.89
  -2  -5   6  133.07    2.87
  -2  -5   6  132.62    2.80
  -2  -5   6  133.04    2.57
   1   5  -6  107.98    2.34
  -1  -5   6  106.90    2.40
  -1  -5   6  111.04    2.37
   0   5  -6   37.65    1.07
   0  -5   6   37.75    1.13
   0  -5   6   39.48    1.09
  -1   5  -6  232.66    4.71
   1  -5   6  243.50    4.75
   1  -5   6  241.09    4.70
  -2   5  -6  229.06    4.59
   2  -5   6  231.22    4.62
   2  -5   6  232.46    4.58
  -3   5  -6   92.28    2.14
  -3   5  -6   92.95    1.84
   3  -5   6   96.04    1.86
   3  -5   6   91.29    2.17
   3  -5   6   93.61    2.15
  -4   5  -6   68.24    1.49
  -4   5  -6   69.74    1.76
   4  -5   6   69.01    1.78
   4  -5   6   68.09    1.74
   4  -5   6   69.52    2.06
   4  -5   6   68.65    1.59
  -5   5  -6   22.67    0.75
  -5   5  -6   20.76    0.93
   5  -5   6   21.69    0.91
   5  -5   6   20.96    0.92
   5  -5   6   23.50    0.76
   5  -5   6   22.50    0.96
  -6   5  -6  122.18    2.63
   6  -5   6  119.56    2.81
   6  -5   6  124.77    2.67
   6  -5   6  122.94    2.81
   6  -5   6  126.12    2.92
  -7   5  -6    9.96    0.74
   7  -5   6    9.42    0.92
   7  -5   6   10.08    0.79
   7  -5   6    8.58    0.78
   7  -5   6    9.70    1.04
  -8   5  -6   33.29    1.30
   8  -5   6   32.29    1.43
   8  -5   6   37.71    2.06
   8  -5   6   34.84    1.33
   8   4  -6   10.84    0.81
   8   4  -6   12.37    1.14
  -8  -4   6   11.85    1.08
  -8  -4   6   10.17    0.95
   7   4  -6    8.00    0.87
   7   4  -6    6.92    0.91
   7   4  -6    7.42    0.67
  -7  -4   6    6.72    0.71
  -7  -4   6    6.54    0.81
   6   4  -6   28.46    0.99
   6   4  -6   28.69    1.16
   6   4  -6   28.38    1.07
  -6  -4   6   29.47    1.03
  -6  -4   6   27.67    1.09
  -6  -4   6   29.86    1.20
   5   4  -6   55.88    1.45
   5   4  -6   55.65    1.46
  -5  -4   6   58.54    1.52
  -5  -4   6   56.66    1.61
  -5  -4   6   59.99    1.50
   4   4  -6  106.35    2.24
   4   4  -6  105.29    2.28
  -4  -4   6  104.69    2.43
  -4  -4   6  105.76    2.27
  -4  -4   6  104.69    2.30
   3   4  -6   47.65    1.22
   3   4  -6   46.60    1.11
  -3  -4   6   47.58    1.23
  -3  -4   6   46.59    1.32
  -3  -4   6   48.22    1.15
   2   4  -6  118.44    2.51
  -2  -4   6  123.29    2.39
  -2  -4   6  121.09    2.62
   1   4  -6  149.97    3.06
  -1  -4   6  152.42    2.86
  -1  -4   6  150.80    3.12
  -1  -4   6  147.87    3.31
  -1  -4   6  154.33    2.85
   0   4  -6  134.31    2.79
   0  -4   6  135.47    2.83
   0  -4   6  134.71    2.52
   0  -4   6  137.96    2.52
  -1   4  -6   44.79    1.35
   1  -4   6   49.01    0.95
   1  -4   6   49.41    1.25
   1  -4   6   45.19    1.34
  -2   4  -6  270.11    5.04
  -2   4  -6  268.47    5.30
   2  -4   6  284.78    5.36
   2  -4   6  275.41    5.05
   2  -4   6  274.84    5.32
  -3   4  -6  100.03    1.99
  -3   4  -6  101.39    2.22
   3  -4   6   99.88    2.25
   3  -4   6  101.11    2.24
   3  -4   6   99.86    2.01
   3  -4   6   97.57    2.22
  -4   4  -6   92.17    1.90
  -4   4  -6   88.73    2.09
   4  -4   6   88.75    2.09
   4  -4   6   91.43    2.10
   4  -4   6   90.30    1.91
   4  -4   6   89.18    2.11
  -5   4  -6   28.56    0.86
  -5   4  -6   29.07    1.02
   5  -4   6   28.64    1.04
   5  -4   6   28.35    0.92
   5  -4   6   28.09    1.03
  -6   4  -6   58.34    1.52
  -6   4  -6   59.47    1.67
   6  -4   6   60.68    1.71
   6  -4   6   62.16    1.56
   6  -4   6   59.43    1.62
   6  -4   6   59.48    1.67
  -7   4  -6    8.69    0.70
   7  -4   6    9.73    0.97
   7  -4   6    8.51    0.76
   7  -4   6    7.20    0.72
   7  -4   6    8.38    0.81
  -8   4  -6   34.64    1.31
   8  -4   6   38.09    1.51
   8  -4   6   35.37    1.48
   8  -4   6   35.11    1.31
   8   3  -6   13.31    1.07
   8   3  -6   14.40    0.87
  -8  -3   6   13.73    0.87
  -8  -3   6   14.32    1.10
   7   3  -6    6.13    0.63
   7   3  -6    5.54    0.79
   7   3  -6    7.49    1.10
  -7  -3   6    6.29    0.67
  -7  -3   6    5.58    0.78
   6   3  -6    8.93    0.71
   6   3  -6    7.33    0.55
   6   3  -6    7.91    0.71
  -6  -3   6    7.08    0.72
  -6  -3   6    8.36    0.59
  -6  -3   6    8.28    0.74
   5   3  -6   51.38    1.50
   5   3  -6   53.67    1.40
   5   3  -6   53.00    1.32
  -5  -3   6   53.29    1.35
  -5  -3   6   52.67    1.45
  -5  -3   6   52.21    1.50
   4   3  -6  129.37    2.65
   4   3  -6  125.86    2.72
  -4  -3   6  130.92    2.83
  -4  -3   6  128.63    2.71
  -4  -3   6  132.09    2.72
   3   3  -6   23.92    0.70
   3   3  -6   22.33    0.72
  -3  -3   6   23.25    0.83
  -3  -3   6   23.18    0.73
  -3  -3   6   23.62    0.74
   2   3  -6  249.03    4.89
  -2  -3   6  259.51    4.93
  -2  -3   6  256.49    4.82
  -2  -3   6  262.69    5.08
   1   3  -6   86.20    1.89
  -1  -3   6   90.58    1.96
  -1  -3   6   88.14    1.91
  -1  -3   6   88.32    1.96
  -1  -3   6   89.62    1.77
   0  -3   6   96.35    2.08
   0  -3   6   99.00    2.12
   0  -3   6   99.53    1.91
   0  -3   6   98.88    1.91
  -1   3  -6   94.38    2.01
   1  -3   6   92.45    2.01
   1  -3   6   93.03    1.81
   1  -3   6   92.28    2.02
  -2   3  -6  187.35    3.57
  -2   3  -6  192.63    3.76
   2  -3   6  189.03    3.81
   2  -3   6  193.74    3.79
   2  -3   6  188.88    3.57
  -3   3  -6   85.38    1.77
  -3   3  -6   86.85    1.92
   3  -3   6   84.82    1.94
   3  -3   6   87.29    1.95
   3  -3   6   87.74    1.79
   3  -3   6   85.34    1.95
  -4   3  -6   69.32    1.53
  -4   3  -6   69.68    1.66
   4  -3   6   68.19    1.68
   4  -3   6   68.02    1.68
   4  -3   6   69.31    1.55
  -5   3  -6   56.83    1.34
  -5   3  -6   55.68    1.45
   5  -3   6   51.32    1.64
   5  -3   6   56.96    1.47
   5  -3   6   49.66    1.64
  -6   3  -6   30.55    1.07
  -6   3  -6   29.01    0.99
   6  -3   6   30.94    1.05
   6  -3   6   29.61    1.10
   6  -3   6   30.26    1.02
  -7   3  -6   23.04    0.94
  -7   3  -6   20.75    1.07
   7  -3   6   22.52    0.98
   7  -3   6   23.70    1.06
   7  -3   6   22.49    0.97
  -8   3  -6   22.90    1.09
   8  -3   6   24.24    1.05
   8  -3   6   22.30    1.23
   8  -3   6   24.96    1.20
   8   2  -6    6.62    0.63
   8   2  -6    5.53    0.85
  -8  -2   6    3.62    0.53
  -8  -2   6    5.00    0.70
   7   2  -6   27.91    1.17
   7   2  -6   27.63    0.90
   7   2  -6   28.56    1.16
  -7  -2   6   26.61    1.36
  -7  -2   6   27.00    0.92
  -7  -2   6   27.46    1.19
   6   2  -6   14.31    0.80
   6   2  -6   13.65    0.80
   6   2  -6   14.21    0.62
  -6  -2   6   14.16    1.00
   5   2  -6   43.60    1.27
   5   2  -6   45.15    1.13
   5   2  -6   43.42    1.85
  -5  -2   6   46.77    1.36
  -5  -2   6   46.65    1.16
  -5  -2   6   46.03    1.32
   4   2  -6   58.90    1.35
   4   2  -6   57.66    1.49
   4   2  -6   53.35    1.73
  -4  -2   6   60.50    1.53
  -4  -2   6   62.08    1.38
  -4  -2   6   60.11    1.47
   3   2  -6   47.66    1.12
   3   2  -6   48.13    1.14
  -3  -2   6   47.34    1.13
  -3  -2   6   46.37    1.16
  -3  -2   6   44.21    1.38
   2   2  -6   78.91    1.70
  -2  -2   6   79.40    1.79
  -2  -2   6   81.70    1.70
  -2  -2   6   79.67    1.71
   1   2  -6  131.19    2.62
  -1  -2   6  126.22    2.62
  -1  -2   6  133.79    2.69
  -1  -2   6  133.82    2.57
   0  -2   6  325.68    6.12
   0  -2   6  322.90    6.01
   0  -2   6  329.28    6.15
  -1   2  -6    1.20    0.17
  -1   2  -6    1.79    0.21
   1  -2   6    1.23    0.19
  -2   2  -6  349.77    6.47
  -2   2  -6  357.27    6.58
   2  -2   6  344.67    6.61
   2  -2   6  347.06    6.57
   2  -2   6  356.98    6.60
  -3   2  -6   17.24    0.55
  -3   2  -6   17.61    0.62
   3  -2   6   17.60    0.57
   3  -2   6   17.80    0.66
   3  -2   6   17.23    0.64
  -4   2  -6  104.19    2.17
  -4   2  -6  102.08    2.23
   4  -2   6  106.28    2.19
   4  -2   6  102.83    2.28
   4  -2   6  104.00    2.27
  -5   2  -6   49.43    1.27
  -5   2  -6   50.64    1.33
   5  -2   6   49.42    1.35
   5  -2   6   50.19    1.35
   5  -2   6   51.92    1.31
  -6   2  -6  114.18    2.51
  -6   2  -6  110.41    2.44
   6  -2   6  107.86    2.65
   6  -2   6  110.02    2.46
   6  -2   6  111.02    2.53
  -7   2  -6   19.88    0.95
  -7   2  -6   20.32    0.89
   7  -2   6   19.55    0.89
   7  -2   6   20.48    0.94
   7  -2   6   20.09    0.94
  -8   2  -6   18.82    1.00
   8  -2   6   19.05    1.13
   8  -2   6   19.68    0.96
   8  -2   6   20.93    1.06
  -9   2  -6   11.56    1.02
   9  -2   6   11.53    1.07
   9  -2   6   10.38    0.95
   8   1  -6    8.32    0.59
   8   1  -6   10.15    0.93
  -8  -1   6    7.31    0.96
  -8  -1   6    8.33    0.65
   7   1  -6    7.80    0.85
   7   1  -6    9.39    0.52
   7   1  -6   11.04    0.80
  -7  -1   6    7.80    0.82
  -7  -1   6    9.35    0.54
  -7  -1   6    8.78    0.88
   6   1  -6   28.95    0.83
   6   1  -6   29.50    1.08
   6   1  -6   29.42    1.09
  -6  -1   6   29.46    1.15
  -6  -1   6   29.95    0.85
  -6  -1   6   30.10    1.11
   5   1  -6   88.09    2.07
   5   1  -6   89.60    1.86
   5   1  -6   88.22    2.10
  -5  -1   6   90.13    1.88
  -5  -1   6   89.12    2.12
  -5  -1   6   90.04    2.11
   4   1  -6   11.18    0.45
   4   1  -6   11.77    0.57
   4   1  -6   10.81    0.59
  -4  -1   6   10.36    0.60
  -4  -1   6   12.58    0.48
  -4  -1   6   10.40    0.59
   3   1  -6  103.03    2.10
   3   1  -6  104.76    2.25
   3   1  -6  105.64    2.20
  -3  -1   6  106.24    2.27
  -3  -1   6  105.55    2.11
  -3  -1   6  104.15    2.22
   2   1  -6   50.67    1.14
  -2  -1   6   52.18    1.25
  -2  -1   6   50.09    1.15
  -2  -1   6   50.97    1.20
  -1  -1   6  101.93    2.05
  -1  -1   6   95.58    2.03
  -1  -1   6  102.57    2.09
   0  -1   6  193.79    3.82
   0  -1   6  196.68    3.77
   0  -1   6  195.78    3.76
  -1   1  -6   43.58    0.99
   1  -1   6   42.55    1.07
   1  -1   6   42.98    1.04
   1  -1   6   42.52    1.05
  -2   1  -6  111.69    2.24
  -2   1  -6  109.99    2.26
   2  -1   6  114.76    2.25
   2  -1   6  112.85    2.29
  -3   1  -6  129.12    2.57
  -3   1  -6  131.67    2.60
   3  -1   6  130.41    2.61
   3  -1   6  126.16    2.57
   3  -1   6  125.51    2.65
  -4   1  -6   87.95    1.90
  -4   1  -6   87.05    1.88
   4  -1   6   88.00    1.96
   4  -1   6   85.61    1.90
   4  -1   6   87.30    1.92
  -5   1  -6   46.55    1.23
  -5   1  -6   48.07    1.24
   5  -1   6   47.77    1.26
   5  -1   6   45.01    1.24
   5  -1   6   47.35    1.28
  -6   1  -6  108.07    2.43
  -6   1  -6  109.51    2.45
   6  -1   6  112.78    2.48
   6  -1   6  109.29    2.47
  -7   1  -6   19.32    0.86
  -7   1  -6   18.26    0.88
   7  -1   6   18.88    0.90
   7  -1   6   18.36    0.85
   7  -1   6   19.80    0.92
  -8   1  -6   49.63    1.56
  -8   1  -6   50.44    1.91
   8  -1   6   53.06    1.60
   8  -1   6   51.82    1.55
   8  -1   6   52.05    1.95
  -9   1  -6   14.74    1.03
   9  -1   6   13.57    0.97
   9  -1   6   14.22    1.03
   8   0  -6    6.51    0.49
   8   0  -6    5.39    0.82
  -8   0   6    5.68    0.53
  -8   0   6    4.21    0.55
   7   0  -6   14.01    0.54
   7   0  -6   13.79    0.95
   7   0  -6   14.18    0.85
  -7   0   6   14.40    0.98
  -7   0   6   11.98    0.97
  -7   0   6   13.35    0.54
   6   0  -6   47.14    1.41
   6   0  -6   48.03    1.42
   6   0  -6   46.22    1.08
  -6   0   6   49.28    1.48
  -6   0   6   46.00    1.42
  -6   0   6   47.06    1.09
   5   0  -6  103.08    2.33
   5   0  -6  100.49    2.33
   5   0  -6  100.76    2.04
  -5   0   6  102.55    2.35
  -5   0   6  102.28    2.05
  -5   0   6  105.67    2.38
   4   0  -6   34.69    1.01
   4   0  -6   34.03    1.02
   4   0  -6   34.41    0.81
  -4   0   6   34.83    0.92
  -4   0   6   35.54    1.06
  -4   0   6   34.43    1.03
   3   0  -6  179.54    3.43
   3   0  -6  183.43    3.60
   3   0  -6  178.80    3.59
  -3   0   6  185.25    3.63
  -3   0   6  185.21    3.62
  -3   0   6  179.15    3.63
   2   0  -6   44.82    1.10
  -2   0   6   43.95    1.10
  -2   0   6   44.78    1.21
  -2   0   6   44.57    1.11
  -1   0   6  434.71    8.00
  -1   0   6  436.38    7.98
  -1   0   6  426.25    7.92
   0   0   6  143.90    2.82
   0   0   6  144.62    2.83
   0   0   6  144.11    2.82
   0   0   6  147.02    2.86
  -1   0  -6  342.41    6.29
   1   0   6  344.44    6.33
   1   0   6  335.94    6.25
   1   0   6  329.38    6.28
  -2   0  -6  541.06   10.03
  -2   0  -6  548.62   10.07
   2   0   6  560.09   10.05
   2   0   6  546.53   10.12
   2   0   6  555.78   10.08
  -3   0  -6  233.90    4.46
  -3   0  -6  237.98    4.55
  -3   0  -6  236.43    4.51
   3   0   6  235.31    4.56
   3   0   6  235.44    4.48
   3   0   6  237.56    4.53
  -4   0  -6   62.44    1.46
  -4   0  -6   64.27    1.42
  -4   0  -6   63.24    1.49
   4   0   6   63.21    1.48
   4   0   6   62.09    1.44
   4   0   6   62.66    1.50
  -5   0  -6  144.26    3.25
  -5   0  -6  156.16    3.17
  -5   0  -6  155.23    3.18
   5   0   6  159.16    3.22
   5   0   6  156.03    3.15
   5   0   6  154.53    3.19
  -6   0  -6  490.64    8.80
  -6   0  -6  476.05    8.85
  -6   0  -6  474.03    8.86
   6   0   6  399.33    9.33
   6   0   6  483.56    8.88
   6   0   6  481.45    8.82
  -7   0  -6   26.98    1.01
  -7   0  -6   25.45    1.00
  -7   0  -6   26.63    0.98
   7   0   6   26.86    1.06
   7   0   6   25.21    0.98
   7   0   6   25.53    0.99
  -8   0  -6   40.44    1.38
  -8   0  -6   39.17    1.38
  -8   0  -6   41.08    1.41
   8   0   6   45.37    1.39
   8   0   6   42.18    1.46
  -9   0  -6   10.22    0.94
   9   0   6    9.52    0.87
   9   0   6    7.39    0.84
   8  -1  -6    9.78    0.94
  -8   1   6    8.44    1.08
   7  -1  -6   29.29    1.45
   7  -1  -6   27.54    1.15
  -7   1   6   26.32    1.23
  -7   1   6   27.51    0.69
  -7   1   6   28.30    1.25
   6  -1  -6   23.21    0.98
   6  -1  -6   22.22    0.59
   6  -1  -6   24.91    1.00
  -6   1   6   22.83    1.00
  -6   1   6   22.78    0.59
  -6   1   6   24.68    1.05
   5  -1  -6   29.04    0.70
   5  -1  -6   29.24    1.03
   5  -1  -6   31.61    1.05
  -5   1   6   29.97    1.08
  -5   1   6   29.10    0.70
  -5   1   6   33.09    1.13
   4  -1  -6   54.18    1.39
   4  -1  -6   53.60    1.37
  -4   1   6   55.92    1.43
  -4   1   6   53.32    1.10
  -4   1   6   53.88    1.38
   3  -1  -6   65.25    1.55
   3  -1  -6   64.92    1.51
  -3   1   6   67.84    1.59
  -3   1   6   66.32    1.32
  -3   1   6   67.71    1.53
   2  -1  -6  402.67    7.39
  -2   1   6  391.74    7.26
  -2   1   6  398.35    7.47
  -2   1   6  402.26    7.40
  -1   1   6  276.94    5.02
  -1   1   6  277.15    5.08
  -1   1   6  265.74    5.17
  -1   1   6  265.81    5.03
   0   1   6   76.87    1.56
   0   1   6   76.67    1.59
   0   1   6   76.75    1.67
  -1  -1  -6  448.27    8.19
   1   1   6  444.88    8.14
   1   1   6  433.03    8.18
   1   1   6  444.18    8.07
  -2  -1  -6  111.01    2.27
  -2  -1  -6  112.47    2.26
  -2  -1  -6  107.92    2.16
   2   1   6  110.89    2.28
   2   1   6  110.51    2.28
   2   1   6  113.30    2.17
  -3  -1  -6  128.74    2.50
  -3  -1  -6  130.65    2.62
  -3  -1  -6  128.44    2.61
   3   1   6  128.21    2.52
   3   1   6  127.04    2.63
   3   1   6  128.11    2.63
  -4  -1  -6   69.62    1.47
  -4  -1  -6   66.34    1.56
  -4  -1  -6   69.02    1.58
   4   1   6   67.64    1.49
   4   1   6   67.01    1.58
   4   1   6   65.87    1.74
  -5  -1  -6  125.23    2.69
  -5  -1  -6  131.35    2.60
  -5  -1  -6  122.81    2.68
   5   1   6  125.82    2.71
   5   1   6  126.47    2.70
   5   1   6  127.97    2.61
  -6  -1  -6  137.85    2.83
  -6  -1  -6  133.24    3.46
  -6  -1  -6  133.98    2.92
   6   1   6  135.39    2.85
   6   1   6  137.36    2.97
  -7  -1  -6   19.12    0.89
  -7  -1  -6   21.39    0.89
  -7  -1  -6   21.21    0.87
   7   1   6   20.32    0.97
   7   1   6   19.87    0.88
  -8  -1  -6   27.56    1.13
  -8  -1  -6   27.56    1.14
  -8  -1  -6   26.71    1.13
   8   1   6   28.37    1.07
   8   1   6   27.77    1.09
  -9  -1  -6   21.91    1.17
   9   1   6   22.82    1.09
   9   1   6   22.36    1.12
   8  -2  -6    3.72    0.52
  -8   2   6    3.39    0.59
   7  -2  -6   18.42    1.00
  -7   2   6   19.48    1.08
  -7   2   6   18.06    1.29
   6  -2  -6    0.18    0.31
   6  -2  -6    0.17    0.26
  -6   2   6    0.28    0.29
  -6   2   6    0.12    0.30
   5  -2  -6   70.49    1.78
   5  -2  -6   69.55    1.75
  -5   2   6   71.33    1.78
   4  -2  -6   42.25    1.18
   4  -2  -6   41.08    1.13
  -4   2   6   39.20    1.13
  -4   2   6   42.03    1.21
   3  -2  -6   75.49    1.69
  -3   2   6   76.34    1.70
  -3   2   6   77.15    1.79
   2  -2  -6   21.81    0.61
  -2   2   6   18.21    0.47
  -2   2   6   17.92    0.60
  -2   2   6   18.67    0.46
  -2   2   6   19.53    0.69
   1  -2  -6  173.62    3.26
  -1   2   6  171.05    3.21
  -1   2   6  168.72    3.41
   0   2   6  127.18    2.58
   0   2   6  124.86    2.44
   0   2   6  124.57    2.39
  -1  -2  -6  588.01   10.57
  -1  -2  -6  577.02   10.66
   1   2   6  581.33   10.46
   1   2   6  576.78   10.66
   1   2   6  574.16   10.57
   1   2   6  582.11   10.46
  -2  -2  -6   17.69    0.57
  -2  -2  -6   17.08    0.59
  -2  -2  -6   18.20    0.45
   2   2   6   17.52    0.45
   2   2   6   19.63    0.62
   2   2   6   17.84    0.59
  -3  -2  -6  192.55    3.67
  -3  -2  -6  196.41    3.83
  -3  -2  -6  198.35    3.86
   3   2   6  196.24    3.68
   3   2   6  195.79    3.84
   3   2   6  199.49    3.87
  -4  -2  -6  127.25    2.47
  -4  -2  -6  125.38    2.63
  -4  -2  -6  126.83    2.62
   4   2   6  126.22    2.63
   4   2   6  127.06    2.49
   4   2   6  122.15    2.66
  -5  -2  -6  415.80    7.77
  -5  -2  -6  418.18    7.63
  -5  -2  -6  409.42    7.78
   5   2   6  411.67    7.81
   5   2   6  402.90    7.64
   5   2   6  408.63    7.78
  -6  -2  -6    6.07    0.61
  -6  -2  -6    6.45    0.48
  -6  -2  -6    6.73    0.58
   6   2   6    6.82    0.63
   6   2   6    6.78    0.49
   6   2   6    7.88    0.65
  -7  -2  -6  125.95    2.73
  -7  -2  -6  126.91    2.89
  -7  -2  -6  130.53    2.85
   7   2   6  128.47    2.76
   7   2   6  128.34    2.85
   7   2   6  126.59    2.92
  -8  -2  -6   25.42    1.11
  -8  -2  -6   28.08    1.34
  -8  -2  -6   23.96    1.02
   8   2   6   25.37    1.06
   8   2   6   24.23    0.99
  -9  -2  -6   24.08    1.21
   9   2   6   24.89    1.16
   9   2   6   24.01    1.14
   8  -3  -6    0.61    0.45
  -8   3   6    1.25    0.51
   7  -3  -6   22.46    1.11
  -7   3   6   25.88    1.22
   6  -3  -6    1.50    0.36
   6  -3  -6    1.59    0.32
  -6   3   6    1.14    0.34
  -6   3   6    1.85    0.37
   5  -3  -6  140.15    3.09
   5  -3  -6  141.16    3.04
  -5   3   6  141.81    3.07
  -5   3   6  147.87    3.17
   4  -3  -6   66.66    1.58
  -4   3   6   65.00    1.69
  -4   3   6   66.15    1.60
   3  -3  -6  130.79    2.67
  -3   3   6  129.14    2.68
  -3   3   6  132.88    2.80
   2  -3  -6   25.07    0.69
  -2   3   6   24.47    0.82
  -2   3   6   24.58    0.69
  -2   3   6   24.04    0.53
  -2   3   6   24.89    0.53
   1  -3  -6  121.87    2.35
  -1   3   6  120.65    2.36
  -1   3   6  121.83    2.55
  -1   3   6  120.24    2.30
  -1   3   6  122.26    2.56
   0  -3  -6  116.29    2.38
   0   3   6  117.61    2.47
   0   3   6  122.17    2.31
   0   3   6  116.66    2.23
  -1  -3  -6  225.00    4.32
  -1  -3  -6  225.34    4.19
   1   3   6  226.61    4.21
   1   3   6  212.10    4.03
   1   3   6  221.05    4.31
   1   3   6  221.51    4.02
  -2  -3  -6  230.54    4.46
  -2  -3  -6  234.31    4.39
   2   3   6  224.79    4.18
   2   3   6  231.84    4.48
   2   3   6  230.87    4.40
  -3  -3  -6  150.83    2.84
  -3  -3  -6  152.14    3.05
  -3  -3  -6  154.94    3.10
   3   3   6  155.47    3.12
   3   3   6  148.91    2.84
   3   3   6  151.92    3.06
  -4  -3  -6   83.28    1.89
  -4  -3  -6   82.44    1.76
  -4  -3  -6   83.27    1.86
   4   3   6   82.69    1.91
   4   3   6   83.81    1.69
   4   3   6   83.38    1.87
  -5  -3  -6  122.78    2.44
  -5  -3  -6  122.27    2.65
  -5  -3  -6  122.45    2.62
   5   3   6  120.40    2.63
   5   3   6  123.15    2.45
   5   3   6  118.49    2.66
  -6  -3  -6   34.50    0.95
  -6  -3  -6   33.45    1.08
  -6  -3  -6   33.83    1.11
   6   3   6   35.25    1.10
   6   3   6   34.67    0.97
   6   3   6   33.79    1.14
  -7  -3  -6   83.58    2.07
  -7  -3  -6   82.64    1.93
  -7  -3  -6   84.41    2.11
   7   3   6   86.04    2.09
   7   3   6   85.46    1.95
   7   3   6   83.03    2.17
  -8  -3  -6   27.00    1.06
  -8  -3  -6   28.17    1.16
   8   3   6   27.19    1.08
   8   3   6   27.54    1.11
  -9  -3  -6   42.07    1.54
  -9  -3  -6   48.59    1.67
   9   3   6   47.14    1.50
   9   3   6   46.92    1.58
   8  -4  -6    2.02    0.51
  -8   4   6    2.08    0.61
   7  -4  -6   29.67    1.26
  -7   4   6   29.77    1.33
   6  -4  -6    0.21    0.36
   6  -4  -6    0.35    0.29
  -6   4   6    0.30    0.34
  -6   4   6    0.90    0.34
   5  -4  -6   64.09    1.94
  -5   4   6   66.78    1.73
  -5   4   6   70.91    1.84
   4  -4  -6   10.89    0.58
  -4   4   6    9.39    0.65
  -4   4   6    9.43    0.58
   3  -4  -6  177.77    3.53
  -3   4   6  177.95    3.54
  -3   4   6  180.19    3.69
   2  -4  -6   14.37    0.51
  -2   4   6   14.50    0.53
  -2   4   6   15.29    0.66
   1  -4  -6   96.67    1.91
   1  -4  -6   95.84    1.87
  -1   4   6   96.09    1.91
  -1   4   6   97.92    1.88
  -1   4   6   97.99    2.15
  -1   4   6   97.95    2.15
   0  -4  -6    0.24    0.09
   0  -4  -6    0.38    0.08
   0   4   6    0.33    0.11
   0   4   6    0.10    0.14
   0   4   6    0.23    0.07
  -1  -4  -6  204.34    3.87
  -1  -4  -6  204.21    4.03
   1   4   6  202.42    3.88
   1   4   6  202.33    4.02
  -2  -4  -6   49.05    1.16
  -2  -4  -6   48.31    1.23
   2   4   6   48.56    1.17
   2   4   6   50.07    1.26
  -3  -4  -6   62.98    1.87
  -3  -4  -6   71.34    1.63
   3   4   6   70.02    1.64
   3   4   6   70.22    1.58
  -4  -4  -6   49.14    1.02
  -4  -4  -6   49.20    1.25
  -4  -4  -6   47.65    1.28
   4   4   6   46.35    1.28
   4   4   6   48.67    1.03
   4   4   6   47.63    1.25
  -5  -4  -6   93.84    2.21
  -5  -4  -6   97.26    1.95
  -5  -4  -6   97.31    2.18
   5   4   6   95.81    2.20
   5   4   6   96.64    2.24
   5   4   6   97.90    1.98
  -6  -4  -6   20.77    0.68
  -6  -4  -6   21.03    0.85
  -6  -4  -6   20.51    0.88
   6   4   6   19.70    0.85
   6   4   6   20.68    0.70
   6   4   6   21.33    0.91
  -7  -4  -6   33.28    1.00
  -7  -4  -6   32.96    1.15
  -7  -4  -6   33.24    1.19
   7   4   6   32.65    1.25
   7   4   6   33.00    1.15
   7   4   6   32.37    1.13
  -8  -4  -6   21.39    1.04
  -8  -4  -6   21.50    0.95
   8   4   6   21.13    1.02
   8   4   6   19.72    1.05
  -9  -4  -6   46.10    1.51
  -9  -4  -6   46.75    1.68
   9   4   6   49.71    1.52
   9   4   6   47.90    1.62
   7  -5  -6   15.39    1.02
  -7   5   6   16.99    1.14
   6  -5  -6    0.05    0.28
  -6   5   6   -0.33    0.33
  -6   5   6   -0.14    0.32
   5  -5  -6   43.85    1.48
  -5   5   6   44.72    1.42
  -5   5   6   43.71    1.33
   4  -5  -6   21.15    0.79
  -4   5   6   20.76    0.99
  -4   5   6   21.76    0.81
   3  -5  -6  133.05    2.73
  -3   5   6  134.55    2.74
  -3   5   6  132.01    2.90
   2  -5  -6   33.28    0.85
  -2   5   6   32.49    0.85
  -2   5   6   31.94    1.03
   1  -5  -6  147.10    2.81
   1  -5  -6  150.16    2.84
  -1   5   6  151.22    3.16
  -1   5   6  150.93    3.13
  -1   5   6  150.63    2.82
  -1   5   6  143.89    2.84
   0  -5  -6   12.14    0.32
   0  -5  -6   12.57    0.43
   0   5   6   11.91    0.70
   0   5   6   12.49    0.32
   0   5   6   12.84    0.44
  -1  -5  -6  510.57    8.98
  -1  -5  -6  488.04    9.16
   1   5   6  462.63    9.31
   1   5   6  492.88    8.99
  -2  -5  -6   94.39    1.97
  -2  -5  -6   93.34    2.08
   2   5   6   90.54    2.10
   2   5   6   92.53    1.98
  -3  -5  -6  123.10    2.55
  -3  -5  -6  123.12    2.63
   3   5   6  123.47    2.64
   3   5   6  121.61    2.57
  -4  -5  -6   55.72    1.46
  -4  -5  -6   57.32    1.42
  -4  -5  -6   56.31    1.12
   4   5   6   55.95    1.47
   4   5   6   56.37    1.43
   4   5   6   55.99    1.14
  -5  -5  -6  120.92    3.03
  -5  -5  -6  134.51    2.54
  -5  -5  -6  132.87    2.82
   5   5   6  135.33    2.90
   5   5   6  133.98    2.56
   5   5   6  127.35    3.03
  -6  -5  -6   16.13    0.59
  -6  -5  -6   16.97    0.81
  -6  -5  -6   16.63    0.80
   6   5   6   16.37    0.79
   6   5   6   14.88    0.85
   6   5   6   16.48    0.60
  -7  -5  -6   48.53    1.52
  -7  -5  -6   50.63    1.30
  -7  -5  -6   54.01    1.57
   7   5   6   52.63    1.33
   7   5   6   52.05    1.53
   7   5   6   49.24    1.65
  -8  -5  -6   27.91    1.21
  -8  -5  -6   28.53    1.08
   8   5   6   27.67    1.16
   8   5   6   29.44    1.07
  -9  -5  -6   23.26    1.92
  -9  -5  -6   19.20    1.05
   9   5   6   17.99    1.32
   9   5   6   18.08    1.20
   7  -6  -6    5.55    0.93
  -7   6   6    7.83    1.06
   6  -6  -6    7.07    0.84
  -6   6   6    6.65    0.83
  -6   6   6    6.14    0.85
   5  -6  -6   15.80    0.84
  -5   6   6   17.45    0.86
  -5   6   6   17.65    0.94
   4  -6  -6    1.25    0.25
  -4   6   6    1.10    0.32
  -4   6   6    1.87    0.29
   3  -6  -6   71.20    1.60
  -3   6   6   66.58    1.76
  -3   6   6   68.55    1.78
   2  -6  -6    1.38    0.16
   2  -6  -6    1.04    0.18
  -2   6   6    1.02    0.26
  -2   6   6    0.98    0.26
  -2   6   6    1.12    0.18
   1  -6  -6   99.27    2.00
  -1   6   6   99.73    2.29
  -1   6   6  106.34    2.32
  -1   6   6  100.57    2.00
   0  -6  -6    9.37    0.28
   0  -6  -6    9.03    0.39
   0   6   6    9.23    0.56
   0   6   6    9.32    0.42
  -1  -6  -6  122.14    2.47
   1   6   6  123.57    2.64
   1   6   6  121.21    2.49
  -2  -6  -6   44.50    1.22
  -2  -6  -6   38.42    1.36
   2   6   6   44.12    1.12
   2   6   6   44.84    1.21
  -3  -6  -6  187.13    3.72
  -3  -6  -6  183.92    3.77
   3   6   6  182.52    3.77
   3   6   6  183.47    3.70
  -4  -6  -6   36.62    1.14
  -4  -6  -6   38.87    1.11
   4   6   6   36.58    1.15
   4   6   6   36.62    1.11
  -5  -6  -6  243.11    4.84
  -5  -6  -6  244.88    4.79
  -5  -6  -6  236.95    4.44
   5   6   6  239.21    4.85
   5   6   6  233.97    4.90
   5   6   6  236.31    4.45
  -6  -6  -6   61.92    1.38
  -6  -6  -6   63.69    1.72
  -6  -6  -6   62.70    1.68
   6   6   6   60.97    1.74
   6   6   6   63.09    1.69
   6   6   6   63.52    1.41
  -7  -6  -6   45.93    1.47
   7   6   6   45.34    1.20
   7   6   6   46.15    1.46
  -8  -6  -6   15.44    1.00
  -8  -6  -6   11.89    0.81
   8   6   6   13.86    0.97
   8   6   6   12.63    0.78
   6  -7  -6    0.35    0.36
   5  -7  -6   21.44    0.97
  -5   7   6   22.77    0.98
  -5   7   6   23.17    1.08
   4  -7  -6    3.50    0.54
  -4   7   6    4.26    0.62
  -4   7   6    3.77    0.56
   3  -7  -6  153.31    3.13
  -3   7   6  155.45    3.36
  -3   7   6  153.24    3.15
   2  -7  -6    0.11    0.09
   2  -7  -6    0.11    0.15
  -2   7   6    0.20    0.11
  -2   7   6    0.02    0.22
  -2   7   6    0.24    0.27
  -2   7   6    0.10    0.16
   1  -7  -6   84.28    1.75
   1  -7  -6   85.75    1.76
  -1   7   6   88.12    2.08
  -1   7   6   87.90    1.78
  -1   7   6   85.91    2.06
  -1   7   6   88.15    1.77
   0  -7  -6   27.75    0.77
   0  -7  -6   28.23    0.62
   0   7   6   28.21    0.63
   0   7   6   27.75    0.78
   0   7   6   27.10    0.98
  -1  -7  -6  478.13    8.77
   1   7   6  461.09    8.77
   1   7   6  482.15    9.01
  -2  -7  -6   12.45    0.58
  -2  -7  -6   12.19    0.67
   2   7   6   12.35    0.59
   2   7   6   12.82    0.65
  -3  -7  -6  149.77    3.09
  -3  -7  -6  149.30    3.18
   3   7   6  148.98    3.11
   3   7   6  147.45    3.17
  -4  -7  -6    8.62    0.64
  -4  -7  -6    9.89    0.63
   4   7   6    8.59    0.60
   4   7   6    8.51    0.64
  -5  -7  -6  142.20    3.14
  -5  -7  -6  145.12    3.12
   5   7   6  143.02    3.17
   5   7   6  142.21    3.12
  -6  -7  -6   29.93    1.15
  -6  -7  -6   30.13    1.15
  -6  -7  -6   30.45    0.79
   6   7   6   28.96    1.21
   6   7   6   31.53    1.14
  -7  -7  -6   60.21    1.78
  -7  -7  -6   57.39    1.40
   7   7   6   60.63    1.45
   7   7   6   60.41    1.77
  -8  -7  -6   30.58    1.35
   8   7   6   26.70    1.01
   8   7   6   28.24    1.29
   6  -8  -6   -0.28    0.37
  -6   8   6    0.02    0.46
   5  -8  -6   30.48    1.15
  -5   8   6   31.31    1.28
  -5   8   6   30.05    1.21
   4  -8  -6    2.46    0.55
  -4   8   6    2.85    0.41
  -4   8   6    2.84    0.38
   3  -8  -6   71.55    1.67
  -3   8   6   70.89    1.88
  -3   8   6   70.30    1.67
  -3   8   6   68.37    1.89
   2  -8  -6    0.59    0.23
   2  -8  -6    0.62    0.19
  -2   8   6    0.23    0.27
  -2   8   6    0.22    0.29
  -2   8   6    0.51    0.14
  -2   8   6    0.32    0.18
   1  -8  -6   74.53    1.56
   1  -8  -6   73.30    1.57
  -1   8   6   73.06    1.88
  -1   8   6   76.45    1.63
  -1   8   6   73.03    1.87
  -1   8   6   74.02    1.57
   0  -8  -6  125.86    2.50
   0  -8  -6  119.52    2.32
   0   8   6  120.29    2.34
   0   8   6  124.91    2.51
   0   8   6  120.95    2.72
  -1  -8  -6  132.57    2.72
   1   8   6  130.55    2.73
   1   8   6  132.56    2.88
  -2  -8  -6    2.00    0.27
  -2  -8  -6    2.21    0.34
   2   8   6    2.35    0.30
   2   8   6    2.80    0.37
  -3  -8  -6   80.49    1.88
  -3  -8  -6   79.56    2.29
   3   8   6   70.82    2.28
   3   8   6   81.76    1.96
  -4  -8  -6    6.60    0.62
  -4  -8  -6    7.02    0.63
   4   8   6    7.01    0.66
   4   8   6    6.86    0.60
  -5  -8  -6  155.27    3.34
  -5  -8  -6  147.94    3.28
   5   8   6  149.24    3.29
   5   8   6  148.53    3.33
  -6  -8  -6    1.81    0.38
  -6  -8  -6    1.63    0.21
   6   8   6    1.33    0.33
  -7  -8  -6   56.91    1.46
  -7  -8  -6   56.14    1.76
   7   8   6   56.14    1.74
  -8  -8  -6    7.66    1.05
   5  -9  -6   32.93    1.26
  -5   9   6   31.30    1.31
  -5   9   6   33.16    1.36
   4  -9  -6    0.12    0.30
  -4   9   6    0.12    0.35
  -4   9   6    0.37    0.50
  -4   9   6    0.24    0.31
   3  -9  -6   32.68    1.05
  -3   9   6   32.88    1.22
  -3   9   6   35.02    1.33
  -3   9   6   33.35    1.06
   2  -9  -6   -0.16    0.19
   2  -9  -6   -0.09    0.15
  -2   9   6    0.64    0.18
  -2   9   6    0.24    0.34
  -2   9   6    0.04    0.20
  -2   9   6    0.32    0.29
   1  -9  -6   86.27    1.78
   1  -9  -6   83.89    1.81
  -1   9   6   87.44    1.84
  -1   9   6   85.44    2.11
  -1   9   6   82.52    1.79
  -1   9   6   82.95    2.11
   0  -9  -6    0.29    0.25
   0   9   6    0.59    0.31
   0   9   6    0.46    0.20
  -1  -9  -6   88.82    2.02
   1   9   6   92.52    2.18
   1   9   6   90.57    2.04
  -2  -9  -6    5.92    0.58
   2   9   6    5.55    0.56
   2   9   6    5.97    0.64
  -3  -9  -6   48.19    1.47
  -3  -9  -6   45.73    1.35
   3   9   6   47.06    1.43
   3   9   6   46.75    1.36
  -4  -9  -6    4.74    0.69
  -4  -9  -6    4.49    0.63
   4   9   6    4.91    0.60
   4   9   6    4.33    0.69
  -5  -9  -6  122.25    2.83
   5   9   6  120.30    2.79
   5   9   6  116.45    2.88
  -6  -9  -6    0.16    0.35
   6   9   6   -0.15    0.31
  -7  -9  -6   55.41    1.77
   7   9   6   51.12    1.74
   4 -10  -6    0.45    0.34
  -4  10   6   -0.17    0.37
  -4  10   6    1.08    0.41
   3 -10  -6   60.70    1.61
  -3  10   6   51.60    1.82
  -3  10   6   59.78    1.56
  -3  10   6   60.12    1.74
   2 -10  -6    0.24    0.24
   2 -10  -6   -0.15    0.20
  -2  10   6    0.10    0.42
  -2  10   6   -0.11    0.19
  -2  10   6    0.59    0.31
  -2  10   6    0.01    0.25
   1 -10  -6   49.59    1.76
   1 -10  -6   55.39    1.35
  -1  10   6   55.41    1.60
  -1  10   6   55.41    1.32
  -1  10   6   55.92    1.64
  -1  10   6   56.58    1.36
   0 -10  -6    3.55    0.32
   0 -10  -6    4.08    0.54
   0  10   6    2.33    0.42
   0  10   6    4.02    0.49
   0  10   6    2.80    0.40
  -1 -10  -6  121.99    2.64
   1  10   6  122.14    2.71
   1  10   6  123.00    2.80
  -2 -10  -6    0.81    0.30
   2  10   6    1.59    0.38
   2  10   6    0.41    0.25
  -3 -10  -6   67.69    1.80
  -3 -10  -6   67.20    1.86
   3  10   6   68.13    1.77
   3  10   6   65.22    1.84
  -4 -10  -6    0.41    0.33
  -4 -10  -6   -0.97    0.64
   4  10   6    0.41    0.32
   4  10   6    1.02    0.42
  -5 -10  -6   87.56    2.28
   5  10   6   86.40    2.25
  -6 -10  -6    3.69    0.54
   6  10   6    3.96    0.55
   3 -11  -6   19.66    1.15
  -3  11   6   18.26    1.05
   2 -11  -6    0.19    0.27
  -2  11   6    0.01    0.33
  -2  11   6    0.52    0.49
  -2  11   6    0.03    0.35
  -2  11   6    0.39    0.25
   1 -11  -6   31.24    1.03
   1 -11  -6   31.47    0.91
  -1  11   6   28.42    1.31
  -1  11   6   30.73    1.18
  -1  11   6   31.21    0.99
  -1  11   6   31.80    0.94
   0 -11  -6    1.53    0.35
   0 -11  -6    1.05    0.20
   0  11   6    1.18    0.45
   0  11   6    0.37    0.33
   0  11   6    1.38    0.31
  -1 -11  -6   92.83    2.18
   1  11   6   90.49    2.32
   1  11   6   91.25    2.18
  -2 -11  -6    1.29    0.41
   2  11   6    2.08    0.35
   2  11   6    1.99    0.49
  -3 -11  -6   63.02    2.48
   3  11   6   60.30    1.70
   3  11   6   57.57    1.83
  -4 -11  -6    0.22    0.38
   4  11   6    0.27    0.35
  -5 -11  -6   61.04    1.86
   5  11   6   58.41    1.82
  -1  12   6   19.60    1.04
  -1  12   6   20.28    0.90
  -1  12   6   19.74    1.49
   0 -12  -6    2.31    0.39
   0  12   6    1.81    0.43
   0  12   6    1.67    0.52
   0  12   6    2.61    0.38
  -1 -12  -6   38.58    1.35
   1  12   6   38.91    1.28
   1  12   6   38.35    1.50
   2  12   6   -0.21    0.33
   2  12   6   -0.07    0.52
   3  12   6   54.62    1.68
  -4 -12  -6    4.13    0.58
   4  12   6    3.60    0.56
  -2 -11   7   25.30    1.34
   1  11  -7    2.30    0.51
  -1 -11   7    3.33    0.57
   0 -11   7   30.99    1.40
   1 -11   7    0.45    0.52
   4  10  -7   22.49    1.30
  -4 -10   7   22.48    1.28
   3  10  -7    4.43    0.56
  -3 -10   7    5.73    0.90
   2  10  -7   19.77    1.11
  -2 -10   7   17.57    1.09
   1  10  -7    2.16    0.44
  -1 -10   7    2.45    0.44
   0  10  -7   21.03    1.11
   0 -10   7   19.60    1.11
   1 -10   7    7.92    0.90
   2 -10   7   37.58    1.52
   3 -10   7    0.68    0.49
   5   9  -7    7.51    0.96
  -5  -9   7    8.47    1.04
  -5  -9   7    9.73    0.75
   4   9  -7   29.46    1.25
  -4  -9   7   25.23    0.78
  -4  -9   7   27.89    1.29
   3   9  -7    2.38    0.42
  -3  -9   7    2.69    0.44
   2   9  -7   44.55    1.47
  -2  -9   7   43.40    1.49
   1   9  -7   13.04    0.86
  -1  -9   7   11.00    0.86
   0   9  -7   90.00    2.26
   0  -9   7   86.19    2.29
   1  -9   7   12.03    0.89
   2  -9   7   29.59    1.26
   3  -9   7    9.94    0.92
   4  -9   7   23.45    1.27
   4  -9   7   26.04    1.21
   6   8  -7   43.29    1.50
   6   8  -7   45.36    1.56
  -6  -8   7   44.81    1.43
   5   8  -7   10.07    0.73
   5   8  -7   10.07    0.90
  -5  -8   7   10.61    0.72
  -5  -8   7   11.70    0.95
   4   8  -7   25.87    1.11
  -4  -8   7   27.37    1.20
  -4  -8   7   25.43    0.86
   3   8  -7   -0.22    0.29
  -3  -8   7   -0.45    0.29
  -3  -8   7    0.48    0.38
  -3  -8   7    0.54    0.34
   2   8  -7   53.99    1.57
  -2  -8   7   53.73    1.67
  -2  -8   7   51.68    1.57
  -2  -8   7   54.65    1.63
   1   8  -7    7.33    0.70
  -1  -8   7    6.82    0.69
  -1  -8   7    7.14    0.71
   0   8  -7   60.92    1.68
   0  -8   7   59.09    1.70
   0  -8   7   58.99    1.69
   1  -8   7    2.92    0.40
   1  -8   7    2.45    0.40
  -2   8  -7   44.60    1.49
   2  -8   7   48.05    1.50
   2  -8   7   49.75    1.54
   3  -8   7    1.41    0.38
   3  -8   7    0.51    0.33
   4  -8   7   48.58    1.57
   4  -8   7   49.31    1.66
   5  -8   7   13.96    0.96
   5  -8   7   13.37    1.04
   7   7  -7    2.45    0.49
   7   7  -7    2.78    0.58
  -7  -7   7    3.18    0.55
   6   7  -7   12.74    0.91
   6   7  -7   11.34    0.93
  -6  -7   7   12.19    0.96
   5   7  -7   10.66    0.80
   5   7  -7    9.51    0.73
  -5  -7   7   11.17    1.00
  -5  -7   7   10.43    0.72
   4   7  -7   21.49    0.75
   4   7  -7   22.35    0.97
  -4  -7   7   23.25    1.04
  -4  -7   7   21.34    1.12
  -4  -7   7   22.70    1.03
  -4  -7   7   22.42    0.79
   3   7  -7   13.77    0.81
  -3  -7   7   15.29    0.85
  -3  -7   7   14.08    0.54
  -3  -7   7   15.06    0.86
  -3  -7   7   13.99    0.88
   2   7  -7   65.23    1.70
  -2  -7   7   63.09    1.75
  -2  -7   7   62.76    1.70
  -2  -7   7   64.72    1.79
   1   7  -7  122.15    2.78
  -1  -7   7  126.32    2.86
  -1  -7   7  125.89    2.81
   0   7  -7   85.56    2.08
   0  -7   7   86.72    2.09
   0  -7   7   81.87    2.11
   1  -7   7   15.13    0.81
   1  -7   7   14.35    0.82
  -2   7  -7  108.13    2.58
   2  -7   7  110.08    2.56
   2  -7   7  113.14    2.64
  -3   7  -7   30.01    1.16
   3  -7   7   31.53    1.19
   3  -7   7   31.13    1.18
   4  -7   7   52.64    1.58
   4  -7   7   54.14    1.86
   4  -7   7   53.69    1.66
  -5   7  -7    1.37    0.24
   5  -7   7    1.68    0.29
   5  -7   7    1.02    0.37
   5  -7   7    0.53    0.34
   5  -7   7    1.65    0.53
  -6   7  -7   70.84    1.66
   6  -7   7   69.57    2.14
   6  -7   7   70.07    2.01
   7   6  -7   16.21    1.16
   7   6  -7   15.99    0.98
  -7  -6   7   18.20    1.12
   6   6  -7   10.01    0.88
   6   6  -7   10.53    0.84
  -6  -6   7    8.21    0.90
  -6  -6   7    9.24    0.85
   5   6  -7   56.22    1.57
   5   6  -7   55.08    1.49
  -5  -6   7   57.82    1.53
  -5  -6   7   57.69    1.64
  -5  -6   7   56.15    1.79
   4   6  -7   56.15    1.37
   4   6  -7   58.07    1.56
  -4  -6   7   57.63    1.60
  -4  -6   7   55.13    1.68
  -4  -6   7   58.06    1.41
   3   6  -7   14.83    0.76
  -3  -6   7   15.43    0.78
  -3  -6   7   15.29    0.83
  -3  -6   7   14.81    0.85
  -3  -6   7   15.38    0.58
   2   6  -7   84.93    2.08
  -2  -6   7   87.92    2.13
  -2  -6   7   84.12    2.04
  -2  -6   7   84.38    1.70
  -2  -6   7   86.13    2.11
  -1  -6   7  159.16    4.38
  -1  -6   7  194.60    3.73
   0  -6   7  228.85    4.61
   1  -6   7    1.56    0.29
   1  -6   7    2.01    0.39
  -2   6  -7  180.26    3.79
   2  -6   7  183.42    3.84
   2  -6   7  179.59    3.77
  -3   6  -7   19.44    0.90
   3  -6   7   18.85    0.90
   3  -6   7   20.56    0.90
  -4   6  -7   79.29    1.67
  -4   6  -7   80.55    2.08
   4  -6   7   81.54    2.05
   4  -6   7   82.30    1.69
   4  -6   7   81.62    2.06
   4  -6   7   82.31    2.12
  -5   6  -7   14.56    0.61
   5  -6   7   14.27    0.85
   5  -6   7   13.98    0.89
   5  -6   7   15.21    0.66
   5  -6   7   15.41    0.98
  -6   6  -7   40.61    1.16
   6  -6   7   41.79    1.22
   6  -6   7   40.74    1.41
   6  -6   7   38.78    2.18
   6  -6   7   42.21    1.52
  -7   6  -7    2.60    0.46
   7  -6   7    2.46    0.56
   7  -6   7    2.42    0.45
   7   5  -7    5.44    0.76
   7   5  -7    8.72    1.04
  -7  -5   7    6.21    0.89
  -7  -5   7    6.43    0.91
   6   5  -7   18.86    0.89
   6   5  -7   17.29    0.96
  -6  -5   7   20.16    1.01
  -6  -5   7   18.66    0.94
   5   5  -7   35.59    1.30
   5   5  -7   33.84    1.10
  -5  -5   7   35.54    1.18
  -5  -5   7   33.12    1.12
  -5  -5   7   34.77    1.33
   4   5  -7   38.15    1.08
  -4  -5   7   39.15    1.10
  -4  -5   7   38.19    1.29
  -4  -5   7   38.09    1.20
   3   5  -7   24.21    0.88
  -3  -5   7   23.32    0.97
  -3  -5   7   23.98    0.89
  -3  -5   7   24.74    0.75
   2   5  -7   61.05    1.55
  -2  -5   7   60.75    1.56
  -2  -5   7   61.09    1.62
  -2  -5   7   62.95    1.64
  -2  -5   7   61.69    1.33
   1   5  -7   44.45    1.24
  -1  -5   7   44.21    0.94
  -1  -5   7   44.75    1.25
  -1  -5   7   44.81    0.95
  -1  -5   7   45.27    1.30
   0  -5   7   43.25    1.22
   0  -5   7   43.21    1.27
   1  -5   7   77.55    1.84
   1  -5   7   74.54    1.86
  -2   5  -7   30.95    1.03
   2  -5   7   31.97    1.07
   2  -5   7   31.83    1.04
  -3   5  -7   51.06    1.10
  -3   5  -7   51.89    1.42
   3  -5   7   51.00    1.16
   3  -5   7   50.94    1.49
   3  -5   7   50.59    1.43
  -4   5  -7   56.23    1.29
  -4   5  -7   58.47    1.57
   4  -5   7   58.45    1.97
   4  -5   7   58.51    1.62
   4  -5   7   56.42    1.31
   4  -5   7   56.54    1.57
  -5   5  -7   50.03    1.50
  -5   5  -7   49.07    1.22
   5  -5   7   48.62    1.51
   5  -5   7   47.68    1.46
   5  -5   7   49.44    1.25
   5  -5   7   46.86    1.47
  -6   5  -7   52.35    1.38
   6  -5   7   50.90    1.67
   6  -5   7   54.34    1.67
   6  -5   7   53.25    1.58
   6  -5   7   53.17    1.44
  -7   5  -7    8.12    0.74
   7  -5   7    7.37    0.92
   7  -5   7    7.88    0.83
   7  -5   7    7.36    0.81
   8   4  -7    2.93    0.43
   8   4  -7    3.86    0.63
  -8  -4   7    2.70    0.48
  -8  -4   7    3.35    0.60
   7   4  -7   10.35    0.97
   7   4  -7   10.79    1.06
   7   4  -7   10.87    0.77
  -7  -4   7   10.45    0.82
  -7  -4   7   11.43    0.93
   6   4  -7   16.17    0.92
   6   4  -7   15.94    0.90
  -6  -4   7   15.87    1.04
  -6  -4   7   17.49    0.95
  -6  -4   7   16.92    0.85
   5   4  -7   27.20    0.99
   5   4  -7   27.64    0.95
  -5  -4   7   28.34    1.00
  -5  -4   7   28.69    1.16
  -5  -4   7   27.26    1.01
   4   4  -7   52.74    1.35
   4   4  -7   47.17    1.63
  -4  -4   7   50.99    1.49
  -4  -4   7   53.87    1.35
  -4  -4   7   53.10    1.39
   3   4  -7   57.20    1.33
   3   4  -7   56.48    1.42
  -3  -4   7   56.55    1.44
  -3  -4   7   57.40    1.56
  -3  -4   7   58.05    1.36
   2   4  -7   22.59    0.79
  -2  -4   7   22.03    0.84
  -2  -4   7   21.91    0.79
  -2  -4   7   22.52    0.66
  -2  -4   7   22.49    0.86
   1   4  -7  127.55    2.69
  -1  -4   7  127.84    2.48
  -1  -4   7  129.41    2.75
  -1  -4   7  126.79    2.75
  -1  -4   7  127.37    2.47
  -1  -4   7  128.16    2.70
   0  -4   7   33.72    0.77
   0  -4   7   35.04    0.77
   0  -4   7   35.27    1.05
   0  -4   7   34.46    1.02
   1  -4   7  175.81    3.62
   1  -4   7  174.52    3.29
   1  -4   7  180.39    3.60
  -2   4  -7  153.09    3.17
  -2   4  -7  149.52    2.90
   2  -4   7  154.65    3.22
   2  -4   7  154.75    3.19
   2  -4   7  151.71    2.90
  -3   4  -7  134.78    2.88
  -3   4  -7  134.29    2.64
   3  -4   7  136.36    2.91
   3  -4   7  139.02    2.94
   3  -4   7  134.74    2.65
   3  -4   7  131.87    2.90
  -4   4  -7   47.74    1.13
  -4   4  -7   47.99    1.34
   4  -4   7   47.82    1.15
   4  -4   7   42.80    1.51
   4  -4   7   46.50    1.36
  -5   4  -7   68.01    1.57
  -5   4  -7   68.76    1.78
   5  -4   7   67.01    1.77
   5  -4   7   67.79    1.79
   5  -4   7   66.21    1.80
  -6   4  -7   89.54    2.29
  -6   4  -7   90.71    2.10
   6  -4   7   92.25    2.27
   6  -4   7   93.88    2.16
   6  -4   7   94.40    2.35
   6  -4   7   94.48    2.32
  -7   4  -7   16.06    0.83
   7  -4   7   16.02    1.00
   7  -4   7   16.15    0.95
   7  -4   7   17.04    0.91
   7  -4   7   17.37    1.29
  -8   4  -7   17.80    1.02
   8  -4   7   19.20    1.09
   8  -4   7   21.70    1.26
   8   3  -7    2.17    0.39
   8   3  -7    3.30    0.53
  -8  -3   7    3.71    0.63
  -8  -3   7    2.89    0.45
   7   3  -7    6.10    0.64
   7   3  -7    7.08    0.87
  -7  -3   7    6.69    0.92
  -7  -3   7    7.27    0.71
   6   3  -7    5.12    0.73
   6   3  -7    3.78    0.53
   6   3  -7    5.58    0.72
  -6  -3   7    5.24    0.59
  -6  -3   7    4.89    0.77
  -6  -3   7    4.53    0.72
   5   3  -7   30.17    1.12
   5   3  -7   30.40    1.04
   5   3  -7   30.41    0.95
  -5  -3   7   30.99    1.08
  -5  -3   7   30.48    1.14
  -5  -3   7   30.64    0.97
   4   3  -7   68.25    1.60
   4   3  -7   65.86    1.57
  -4  -3   7   68.00    1.64
  -4  -3   7   65.71    1.75
  -4  -3   7   65.90    1.59
   3   3  -7   47.22    1.20
   3   3  -7   47.56    1.16
  -3  -3   7   45.11    1.31
  -3  -3   7   48.11    1.20
   2   3  -7   88.16    1.94
  -2  -3   7   88.78    1.89
  -2  -3   7   89.91    2.00
  -2  -3   7   89.96    2.04
   1   3  -7   37.39    1.04
  -1  -3   7   39.40    1.47
  -1  -3   7   38.91    0.92
  -1  -3   7   39.07    0.93
  -1  -3   7   38.66    1.05
  -1  -3   7   38.71    1.09
   0  -3   7   90.98    2.24
   0  -3   7   99.62    1.93
   0  -3   7   99.32    2.15
   0  -3   7   97.79    1.93
   1  -3   7   51.80    1.10
   1  -3   7   50.31    1.32
   1  -3   7   51.42    1.31
  -2   3  -7   84.92    1.76
  -2   3  -7   85.82    1.93
   2  -3   7   85.46    1.80
   2  -3   7   88.05    1.97
   2  -3   7   87.71    1.97
   2  -3   7   87.79    1.98
  -3   3  -7  134.72    2.80
  -3   3  -7  131.86    2.63
   3  -3   7  133.18    2.85
   3  -3   7  131.66    2.64
   3  -3   7  135.82    2.85
   3  -3   7  132.71    2.84
  -4   3  -7   89.56    2.04
  -4   3  -7   88.75    1.88
   4  -3   7   87.28    2.07
   4  -3   7   86.49    1.89
   4  -3   7   85.51    2.05
  -5   3  -7   41.16    1.21
  -5   3  -7   38.80    1.06
   5  -3   7   38.90    1.22
   5  -3   7   37.51    1.20
   5  -3   7   37.70    1.09
  -6   3  -7   23.61    0.89
  -6   3  -7   25.02    1.01
   6  -3   7   25.10    1.03
   6  -3   7   24.05    0.99
   6  -3   7   23.76    0.92
  -7   3  -7   18.66    0.87
   7  -3   7   19.20    0.96
   7  -3   7   17.19    0.97
   7  -3   7   19.86    0.95
  -8   3  -7   24.05    1.11
   8  -3   7   27.05    1.28
   8  -3   7   25.73    1.16
   8   2  -7    3.35    0.53
   8   2  -7    3.95    0.65
  -8  -2   7    2.86    0.58
  -8  -2   7    2.96    0.44
   7   2  -7   15.78    1.12
   7   2  -7   16.21    0.73
   7   2  -7   16.66    1.02
  -7  -2   7   18.61    1.09
  -7  -2   7   17.71    0.79
   6   2  -7    7.01    0.71
   6   2  -7    8.28    0.54
   6   2  -7    7.89    0.73
  -6  -2   7    8.14    0.80
  -6  -2   7    7.29    0.56
  -6  -2   7    8.06    0.77
   5   2  -7  122.41    2.78
   5   2  -7  123.73    2.55
   5   2  -7  122.15    2.70
  -5  -2   7  126.56    2.59
  -5  -2   7  125.26    2.76
  -5  -2   7  121.29    2.80
   4   2  -7   49.75    1.39
   4   2  -7   48.75    1.20
   4   2  -7   48.00    1.27
  -4  -2   7   50.61    1.23
  -4  -2   7   49.03    1.40
  -4  -2   7   50.61    1.34
   3   2  -7   48.50    1.18
   3   2  -7   46.98    1.19
  -3  -2   7   47.55    1.30
  -3  -2   7   48.25    1.22
  -3  -2   7   48.94    1.19
   2   2  -7   36.22    0.96
  -2  -2   7   37.33    0.98
  -2  -2   7   37.53    0.97
  -1  -2   7   50.96    1.19
  -1  -2   7   51.48    1.29
  -1  -2   7   51.16    1.18
  -1  -2   7   52.29    1.30
  -1  -2   7   51.98    1.25
   0  -2   7   89.31    1.82
   0  -2   7   89.68    1.82
   0  -2   7   87.24    1.94
   0  -2   7   86.71    1.91
   1  -2   7   67.62    1.57
   1  -2   7   69.11    1.58
   1  -2   7   66.15    1.44
  -2   2  -7  247.76    4.71
  -2   2  -7  251.49    4.82
   2  -2   7  251.05    4.71
   2  -2   7  253.92    4.86
   2  -2   7  243.05    5.06
   2  -2   7  255.15    4.87
  -3   2  -7   88.93    2.49
  -3   2  -7  100.28    2.04
   3  -2   7  101.90    2.06
   3  -2   7  100.60    2.17
   3  -2   7   99.86    2.19
  -4   2  -7   82.13    1.87
  -4   2  -7   82.92    1.80
   4  -2   7   81.28    1.90
   4  -2   7   78.59    1.92
   4  -2   7   83.34    1.82
  -5   2  -7   66.46    1.63
  -5   2  -7   67.07    1.55
   5  -2   7   67.10    1.66
   5  -2   7   55.09    2.13
   5  -2   7   64.82    1.58
  -6   2  -7   76.66    1.90
  -6   2  -7   76.03    1.84
   6  -2   7   76.76    1.94
   6  -2   7   76.08    1.88
   6  -2   7   76.97    1.94
  -7   2  -7   49.53    1.45
  -7   2  -7   48.43    1.65
   7  -2   7   51.59    1.56
   7  -2   7   52.42    1.52
   7  -2   7   51.62    1.52
  -8   2  -7   24.55    1.09
   8  -2   7   22.56    1.10
   8  -2   7   24.58    1.18
   8   1  -7    8.59    0.96
   8   1  -7    8.70    0.63
  -8  -1   7    7.35    1.09
   7   1  -7   12.35    1.60
   7   1  -7   13.48    0.91
   7   1  -7   14.05    0.63
  -7  -1   7   13.43    1.02
  -7  -1   7   13.40    0.64
   6   1  -7   22.86    0.75
   6   1  -7   23.27    1.01
   6   1  -7   23.85    1.01
  -6  -1   7   24.69    1.07
  -6  -1   7   22.77    1.06
  -6  -1   7   22.05    0.74
   5   1  -7  104.15    2.35
   5   1  -7  101.53    2.11
   5   1  -7   99.54    2.37
  -5  -1   7  100.08    2.12
  -5  -1   7  102.05    2.39
  -5  -1   7  103.43    2.45
   4   1  -7   28.53    0.92
   4   1  -7   27.90    0.78
   4   1  -7   27.09    0.95
  -4  -1   7   28.86    0.80
  -4  -1   7   26.64    0.96
  -4  -1   7   27.45    0.95
   3   1  -7   52.01    1.35
   3   1  -7   53.81    1.22
  -3  -1   7   53.56    1.23
  -3  -1   7   53.16    1.37
  -3  -1   7   52.60    1.34
  -2  -1   7  116.46    2.47
  -2  -1   7  117.91    2.51
  -2  -1   7  124.05    2.42
  -1  -1   7  314.85    5.88
  -1  -1   7  303.96    5.82
  -1  -1   7  312.83    5.83
  -1  -1   7  308.13    5.82
   0  -1   7  212.44    4.08
   0  -1   7  204.70    4.01
   0  -1   7  212.61    4.07
   1  -1   7  130.73    2.68
   1  -1   7  135.58    2.70
   1  -1   7  131.35    2.63
  -2   1  -7  144.28    2.86
  -2   1  -7  141.33    2.83
   2  -1   7  142.51    2.93
   2  -1   7  145.90    2.84
   2  -1   7  143.74    2.96
  -3   1  -7   81.43    1.75
  -3   1  -7   79.28    1.73
   3  -1   7   78.71    1.83
   3  -1   7   80.67    1.83
   3  -1   7   81.90    1.79
  -4   1  -7  174.47    3.44
   4  -1   7  173.16    3.54
   4  -1   7  171.60    3.48
   4  -1   7  171.56    3.45
  -5   1  -7    6.82    0.49
  -5   1  -7    6.27    0.51
   5  -1   7    5.60    0.51
   5  -1   7    6.07    0.50
   5  -1   7    6.00    0.54
  -6   1  -7  161.22    3.69
  -6   1  -7  168.28    3.47
   6  -1   7  167.26    3.50
   6  -1   7  167.60    3.54
  -7   1  -7   36.66    1.24
  -7   1  -7   35.86    1.20
   7  -1   7   34.97    1.22
   7  -1   7   35.34    1.23
   7  -1   7   36.99    1.23
  -8   1  -7   31.38    1.21
   8  -1   7   32.99    1.23
   8  -1   7   31.61    1.25
  -9   1  -7   22.17    1.20
   9  -1   7   21.04    1.22
   9  -1   7   21.35    1.20
   8   0  -7    4.26    0.48
   8   0  -7    3.28    0.52
  -8   0   7    2.92    0.63
   7   0  -7   20.29    1.05
   7   0  -7   18.94    0.65
  -7   0   7   21.69    1.16
  -7   0   7   18.94    0.65
   6   0  -7    1.54    0.34
   6   0  -7    1.33    0.20
   6   0  -7    1.33    0.36
  -6   0   7    1.42    0.34
  -6   0   7    1.16    0.19
  -6   0   7    1.51    0.36
   5   0  -7   57.49    1.84
   5   0  -7   59.31    1.28
   5   0  -7   58.94    1.56
  -5   0   7   59.78    1.61
  -5   0   7   59.67    1.29
  -5   0   7   53.91    2.12
   4   0  -7   27.83    0.91
   4   0  -7   25.28    0.90
   4   0  -7   25.93    0.70
  -4   0   7   26.80    0.95
  -4   0   7   26.96    0.95
  -4   0   7   26.20    0.71
   3   0  -7  160.09    3.25
  -3   0   7  160.89    3.29
  -3   0   7  159.96    3.09
  -2   0   7    5.76    0.44
  -2   0   7    5.70    0.34
  -2   0   7    6.14    0.42
  -1   0   7  417.92    7.59
  -1   0   7  406.81    7.61
  -1   0   7  407.26    7.71
  -1   0   7  400.01    7.53
   0   0   7  404.33    7.45
   0   0   7  406.36    7.48
   0   0   7  394.99    7.44
   0   0   7  393.98    7.45
   0   0   7  409.34    7.45
  -1   0  -7  329.80    6.07
   1   0   7  317.32    6.02
   1   0   7  321.45    6.06
   1   0   7  321.43    6.05
  -2   0  -7   21.51    0.67
  -2   0  -7   21.51    0.63
   2   0   7   24.90    0.71
   2   0   7   21.99    0.66
   2   0   7   22.11    0.72
  -3   0  -7   91.82    1.95
  -3   0  -7   89.92    1.89
   3   0   7   93.23    1.93
   3   0   7   90.86    1.96
   3   0   7   89.05    2.00
  -4   0  -7  107.26    2.30
  -4   0  -7  108.86    2.35
  -4   0  -7  109.64    2.26
   4   0   7  106.70    2.29
   4   0   7  107.22    2.36
  -5   0  -7   59.00    1.59
  -5   0  -7   62.19    1.55
  -5   0  -7   64.31    1.50
   5   0   7   62.54    1.52
   5   0   7   63.74    1.59
   5   0   7   62.23    1.60
  -6   0  -7   51.44    1.41
  -6   0  -7   45.01    1.74
  -6   0  -7   49.01    1.33
   6   0   7   49.82    1.37
   6   0   7   49.13    1.40
   6   0   7   48.88    1.41
  -7   0  -7   28.03    1.01
  -7   0  -7   28.16    1.05
  -7   0  -7   27.63    1.09
   7   0   7   26.95    1.05
   7   0   7   27.49    1.04
   7   0   7   28.50    1.11
  -8   0  -7   15.00    1.00
  -8   0  -7   16.27    0.95
   8   0   7   17.30    0.95
   8   0   7   16.76    0.91
  -9   0  -7   11.10    1.01
   9   0   7    8.49    0.98
   9   0   7    9.68    0.96
   8  -1  -7    1.54    0.46
  -8   1   7    2.23    0.55
   7  -1  -7   37.42    1.37
  -7   1   7   41.10    1.52
   6  -1  -7    1.48    0.37
   6  -1  -7    1.08    0.31
  -6   1   7    1.65    0.35
  -6   1   7    1.53    0.38
   5  -1  -7   40.08    1.23
  -5   1   7   38.69    0.87
  -5   1   7   41.07    1.30
  -5   1   7   39.08    1.25
   4  -1  -7   81.16    1.88
   4  -1  -7   81.40    1.92
  -4   1   7   80.33    1.60
  -4   1   7   79.86    1.95
  -4   1   7   80.22    1.90
   3  -1  -7  142.69    2.90
  -3   1   7  139.68    2.92
  -3   1   7  142.27    2.70
  -3   1   7  142.04    2.99
   2  -1  -7   36.69    0.96
  -2   1   7   34.66    0.95
  -2   1   7   35.85    0.84
  -2   1   7   37.03    1.03
  -2   1   7   35.48    0.92
  -1   1   7  262.30    4.96
  -1   1   7  269.71    4.95
  -1   1   7  261.86    4.99
  -1   1   7  264.36    5.10
  -1   1   7  267.36    5.10
   0   1   7   75.82    1.59
   0   1   7   76.87    1.60
   0   1   7   75.39    1.62
   0   1   7   77.21    1.70
  -1  -1  -7  450.12    8.41
   1   1   7  454.31    8.36
   1   1   7  446.58    8.28
   1   1   7  458.55    8.41
  -2  -1  -7   56.57    1.32
  -2  -1  -7   56.35    1.21
  -2  -1  -7   54.57    1.31
   2   1   7   55.24    1.32
   2   1   7   56.29    1.33
   2   1   7   56.84    1.22
  -3  -1  -7  231.33    4.46
  -3  -1  -7  227.36    4.34
   3   1   7  230.24    4.36
   3   1   7  227.68    4.48
   3   1   7  234.58    4.49
  -4  -1  -7    8.80    0.42
  -4  -1  -7    9.26    0.50
   4   1   7    8.51    0.53
   4   1   7    8.06    0.51
   4   1   7    8.20    0.44
  -5  -1  -7  525.82   10.01
  -5  -1  -7  537.69   10.01
  -5  -1  -7  541.00    9.89
   5   1   7  541.34   10.04
   5   1   7  532.33   10.03
   5   1   7  534.24    9.91
  -6  -1  -7   19.01    0.73
  -6  -1  -7   17.43    0.83
  -6  -1  -7   18.35    0.80
   6   1   7   18.43    0.83
   6   1   7   18.07    0.86
   6   1   7   18.26    0.74
  -7  -1  -7   47.86    1.43
  -7  -1  -7   47.13    1.42
  -7  -1  -7   48.37    1.35
   7   1   7   45.73    1.91
   7   1   7   47.60    1.49
   7   1   7   47.17    1.42
  -8  -1  -7   20.91    1.01
  -8  -1  -7   18.12    1.00
   8   1   7   18.55    0.92
   8   1   7   18.62    0.97
  -9  -1  -7   54.92    1.80
   9   1   7   54.77    1.76
   9   1   7   53.96    1.69
   8  -2  -7    1.48    0.47
  -8   2   7    1.36    0.58
   7  -2  -7   31.90    1.30
  -7   2   7   33.30    1.41
   6  -2  -7   11.24    0.82
   6  -2  -7   10.93    0.73
  -6   2   7    9.69    0.81
  -6   2   7   11.82    0.87
   5  -2  -7   15.87    0.81
  -5   2   7   14.05    0.87
  -5   2   7   17.02    0.95
   4  -2  -7    1.36    0.26
  -4   2   7    1.87    0.33
  -4   2   7    1.54    0.27
   3  -2  -7   46.24    1.20
  -3   2   7   48.41    0.97
  -3   2   7   49.12    1.32
  -3   2   7   47.53    1.22
  -3   2   7   46.60    0.97
  -2   2   7    0.62    0.16
  -2   2   7    0.35    0.10
  -2   2   7    0.57    0.12
  -1   2   7  156.69    3.24
  -1   2   7  161.64    3.08
  -1   2   7  157.84    3.03
  -1   2   7  160.18    3.24
   0   2   7   26.11    0.81
   0   2   7   26.56    0.66
   0   2   7   26.16    0.70
  -1  -2  -7  235.07    4.44
  -1  -2  -7  237.86    4.55
   1   2   7  232.37    4.53
   1   2   7  232.09    4.44
   1   2   7  232.46    4.33
   1   2   7  231.39    4.33
  -2  -2  -7   47.68    1.16
  -2  -2  -7   47.97    1.20
   2   2   7   48.33    1.18
   2   2   7   48.70    1.22
   2   2   7   48.17    1.03
  -3  -2  -7  257.18    5.20
  -3  -2  -7  245.23    4.81
   3   2   7  247.63    4.80
   3   2   7  243.49    4.62
  -4  -2  -7   72.44    1.69
  -4  -2  -7   69.99    1.66
  -4  -2  -7   71.60    1.52
   4   2   7   70.47    1.71
   4   2   7   72.57    1.54
   4   2   7   71.68    1.69
  -5  -2  -7  619.08   11.56
  -5  -2  -7  627.58   11.59
  -5  -2  -7  624.96   11.40
   5   2   7  619.81   11.58
   5   2   7  611.02   11.41
   5   2   7  632.17   11.62
  -6  -2  -7  104.95    2.42
  -6  -2  -7  105.52    2.39
  -6  -2  -7  104.54    2.24
   6   2   7  106.21    2.27
   6   2   7  104.31    2.41
   6   2   7  104.46    2.45
  -7  -2  -7   67.96    1.67
  -7  -2  -7   66.85    1.80
  -7  -2  -7   64.98    1.78
   7   2   7   69.24    1.70
   7   2   7   68.68    1.81
   7   2   7   68.55    1.89
  -8  -2  -7   31.00    1.16
  -8  -2  -7   31.29    1.24
   8   2   7   32.71    1.22
   8   2   7   30.74    1.12
  -9  -2  -7   48.49    1.69
   9   2   7   46.44    1.54
   9   2   7   46.93    1.62
   8  -3  -7    1.10    0.48
  -8   3   7   -0.52    0.52
   7  -3  -7   19.74    1.09
  -7   3   7   20.44    1.19
   6  -3  -7    1.81    0.34
   6  -3  -7    1.94    0.41
  -6   3   7    1.26    0.37
  -6   3   7    1.40    0.40
   5  -3  -7   64.94    2.12
  -5   3   7   68.59    1.77
  -5   3   7   71.03    1.88
   4  -3  -7   12.87    0.64
  -4   3   7   13.86    0.68
  -4   3   7   12.77    1.13
   3  -3  -7  119.15    2.49
  -3   3   7  119.50    2.51
  -3   3   7  121.04    2.66
   2  -3  -7    0.39    0.14
  -2   3   7    0.20    0.15
  -2   3   7    0.22    0.18
  -2   3   7    0.17    0.09
   1  -3  -7  164.19    3.09
  -1   3   7  163.09    3.09
  -1   3   7  150.98    3.45
  -1   3   7  162.21    3.31
  -1   3   7  162.64    3.04
   0  -3  -7   61.04    1.31
   0   3   7   60.97    1.32
   0   3   7   61.12    1.25
   0   3   7   62.39    1.50
  -1  -3  -7  296.47    5.68
  -1  -3  -7  292.28    5.53
   1   3   7  302.72    5.55
   1   3   7  292.42    5.67
   1   3   7  295.43    5.37
   1   3   7  291.04    5.36
  -2  -3  -7   19.43    0.69
  -2  -3  -7   19.14    0.63
   2   3   7   19.42    0.46
   2   3   7   19.49    0.66
   2   3   7   19.63    0.73
  -3  -3  -7   68.76    1.58
  -3  -3  -7   67.31    1.35
  -3  -3  -7   68.15    1.61
   3   3   7   67.49    1.58
   3   3   7   67.37    1.36
   3   3   7   67.59    1.63
  -4  -3  -7   39.96    1.10
  -4  -3  -7   39.69    0.92
  -4  -3  -7   38.20    1.12
   4   3   7   37.85    1.10
   4   3   7   39.05    1.15
   4   3   7   39.86    0.91
  -5  -3  -7   51.19    1.15
  -5  -3  -7   50.64    1.35
  -5  -3  -7   48.41    1.43
   5   3   7   43.82    1.52
   5   3   7   49.88    1.40
   5   3   7   51.09    1.17
  -6  -3  -7   41.22    1.09
  -6  -3  -7   42.25    1.27
  -6  -3  -7   42.16    1.28
   6   3   7   42.17    1.10
   6   3   7   41.00    1.26
   6   3   7   41.74    1.32
  -7  -3  -7   72.07    1.92
  -7  -3  -7   69.80    1.87
  -7  -3  -7   72.70    1.71
   7   3   7   72.23    1.89
   7   3   7   70.26    1.97
   7   3   7   72.30    1.72
  -8  -3  -7   22.30    1.06
  -8  -3  -7   20.68    0.96
   8   3   7   20.89    0.94
   8   3   7   20.01    1.02
  -9  -3  -7   23.13    1.20
  -9  -3  -7   24.37    1.28
   9   3   7   25.50    1.24
   9   3   7   25.11    1.24
   7  -4  -7   19.89    1.12
  -7   4   7   21.69    1.24
   6  -4  -7    0.05    0.30
  -6   4   7    0.08    0.34
  -6   4   7   -0.40    0.34
   5  -4  -7   84.76    2.19
  -5   4   7   87.95    2.21
  -5   4   7   83.65    2.08
   4  -4  -7   26.69    0.90
  -4   4   7   25.58    1.03
  -4   4   7   26.34    0.92
   3  -4  -7   99.61    2.13
  -3   4   7   98.96    2.15
  -3   4   7   99.03    2.31
   2  -4  -7    0.57    0.16
  -2   4   7    0.44    0.16
  -2   4   7    0.39    0.21
   1  -4  -7  148.47    2.88
  -1   4   7  148.61    3.15
  -1   4   7  153.89    3.16
  -1   4   7  151.98    3.08
  -1   4   7  149.50    2.86
   0  -4  -7   79.91    1.66
   0   4   7   80.04    1.56
   0   4   7   82.61    1.68
  -1  -4  -7   41.00    1.14
  -1  -4  -7   39.06    0.97
   1   4   7   38.69    0.99
   1   4   7   42.86    1.37
  -2  -4  -7   38.24    1.09
  -2  -4  -7   39.24    1.00
   2   4   7   39.66    1.03
   2   4   7   39.56    1.11
  -3  -4  -7   87.31    1.93
  -3  -4  -7   87.38    2.00
   3   4   7   88.70    2.03
   3   4   7   88.22    1.95
  -4  -4  -7   16.70    0.45
  -4  -4  -7   16.39    0.69
  -4  -4  -7   15.91    0.71
   4   4   7   17.24    0.75
   4   4   7   16.43    0.46
   4   4   7   16.01    0.69
  -5  -4  -7  145.38    2.77
  -5  -4  -7  141.96    3.03
  -5  -4  -7  142.38    3.12
   5   4   7  138.91    3.09
   5   4   7  145.08    2.79
   5   4   7  142.13    3.10
  -6  -4  -7   10.03    0.69
  -6  -4  -7   10.80    0.50
  -6  -4  -7    9.38    0.68
   6   4   7   10.59    0.74
   6   4   7   10.66    0.52
  -7  -4  -7   28.16    0.92
  -7  -4  -7   26.16    1.09
  -7  -4  -7   27.96    1.16
   7   4   7   29.02    1.10
   7   4   7   28.73    1.29
   7   4   7   28.75    0.92
  -8  -4  -7    9.90    0.85
  -8  -4  -7   10.56    0.81
   8   4   7    9.13    0.81
   8   4   7    9.21    1.07
  -9  -4  -7   58.87    2.74
  -9  -4  -7   51.45    1.63
   9   4   7   53.07    1.62
   9   4   7   54.68    1.83
   7  -5  -7    7.49    0.91
  -7   5   7   10.06    1.07
   6  -5  -7    0.34    0.30
  -6   5   7    0.13    0.36
  -6   5   7    0.03    0.41
   5  -5  -7   52.83    1.50
  -5   5   7   53.56    1.52
  -5   5   7   52.43    1.62
   4  -5  -7   22.28    0.82
  -4   5   7   20.35    0.97
  -4   5   7   21.16    0.84
   3  -5  -7  160.00    3.14
  -3   5   7  143.11    3.68
  -3   5   7  161.47    3.17
   2  -5  -7    6.45    0.39
  -2   5   7    6.50    0.57
  -2   5   7    6.72    0.41
  -2   5   7    6.33    0.58
   1  -5  -7  102.30    2.04
   1  -5  -7  100.44    2.06
  -1   5   7  102.50    2.35
  -1   5   7  103.32    2.03
  -1   5   7  104.38    2.34
  -1   5   7  107.30    2.26
   0  -5  -7    0.42    0.12
   0   5   7    0.12    0.12
   0   5   7    0.21    0.20
  -1  -5  -7  251.23    4.70
   1   5   7  244.77    4.70
   1   5   7  244.72    4.88
  -2  -5  -7   13.41    0.64
  -2  -5  -7   13.97    0.65
   2   5   7   14.86    0.59
  -3  -5  -7  134.44    2.82
  -3  -5  -7  138.05    2.92
   3   5   7  137.37    2.85
   3   5   7  136.38    2.94
  -4  -5  -7   41.12    1.23
  -4  -5  -7   41.15    1.16
   4   5   7   41.76    1.19
   4   5   7   40.19    1.23
  -5  -5  -7   75.78    1.87
  -5  -5  -7   73.21    1.80
   5   5   7   74.46    1.90
   5   5   7   72.72    2.02
   5   5   7   73.06    1.52
  -6  -5  -7    6.62    0.65
  -6  -5  -7    6.67    0.64
  -6  -5  -7    7.10    0.40
   6   5   7    7.14    0.43
   6   5   7    5.99    0.68
   6   5   7    7.88    0.63
  -7  -5  -7   37.72    1.33
   7   5   7   39.69    1.09
   7   5   7   37.47    1.30
  -8  -5  -7   19.50    0.90
  -8  -5  -7   19.34    1.07
   8   5   7   18.80    0.98
   8   5   7   18.71    1.06
   7  -6  -7    9.51    1.03
  -7   6   7    9.49    1.19
   6  -6  -7    0.15    0.33
  -6   6   7    0.31    0.42
  -6   6   7    0.24    0.39
   5  -6  -7   27.04    1.06
  -5   6   7   27.33    1.05
  -5   6   7   27.03    1.17
   4  -6  -7    6.19    0.57
  -4   6   7    5.69    0.56
  -4   6   7    4.88    0.67
   3  -6  -7   93.35    2.06
  -3   6   7   95.05    2.30
   2  -6  -7    0.02    0.14
  -2   6   7   -0.36    0.23
  -2   6   7    0.17    0.25
  -2   6   7    0.06    0.15
   1  -6  -7  116.69    2.29
   1  -6  -7  114.89    2.30
  -1   6   7  121.75    2.66
  -1   6   7  118.36    2.30
  -1   6   7  116.72    2.64
   0  -6  -7   50.23    1.16
   0   6   7   50.44    1.40
   0   6   7   50.91    1.18
  -1  -6  -7  538.12    9.91
   1   6   7  533.32    9.95
   1   6   7  543.77   10.13
  -2  -6  -7    2.65    0.36
  -2  -6  -7    2.00    0.30
   2   6   7    3.37    0.40
   2   6   7    2.79    0.47
  -3  -6  -7  263.26    5.13
  -3  -6  -7  263.16    5.24
   3   6   7  265.80    5.16
   3   6   7  264.91    5.26
  -4  -6  -7   14.43    0.74
  -4  -6  -7   15.95    0.71
   4   6   7   15.08    0.78
  -5  -6  -7  189.25    3.54
  -5  -6  -7  193.60    4.03
  -5  -6  -7  192.05    3.96
   5   6   7  190.56    3.57
   5   6   7  191.56    4.05
   5   6   7  194.48    3.99
  -6  -6  -7    4.73    0.68
  -6  -6  -7    5.64    0.36
  -6  -6  -7    4.96    0.64
   6   6   7    5.25    0.62
   6   6   7    5.14    0.77
   6   6   7    5.81    0.38
  -7  -6  -7   71.62    1.97
  -7  -6  -7   68.93    1.58
   7   6   7   69.82    1.61
   7   6   7   69.69    1.92
  -8  -6  -7    8.16    0.82
  -8  -6  -7    7.21    0.91
   8   6   7    6.78    0.64
   8   6   7    6.32    0.88
   6  -7  -7    0.37    0.37
  -6   7   7    0.95    0.47
   5  -7  -7   31.75    1.16
  -5   7   7   30.42    1.18
  -5   7   7   32.29    1.31
   4  -7  -7    0.06    0.24
  -4   7   7    0.03    0.27
  -4   7   7    0.39    0.31
   3  -7  -7   58.10    1.43
  -3   7   7   56.74    1.65
  -3   7   7   58.34    1.43
  -3   7   7   56.98    1.67
   2  -7  -7    1.07    0.12
   2  -7  -7    0.79    0.18
  -2   7   7    0.80    0.29
  -2   7   7    0.99    0.13
  -2   7   7    1.03    0.31
  -2   7   7    0.83    0.18
   1  -7  -7   44.33    0.98
   1  -7  -7   42.70    1.00
  -1   7   7   43.01    1.00
  -1   7   7   42.34    1.01
  -1   7   7   41.89    1.39
  -1   7   7   43.55    1.33
   0  -7  -7   47.15    1.12
   0   7   7   48.13    1.15
   0   7   7   45.23    1.37
  -1  -7  -7  333.36    6.53
   1   7   7  341.36    6.39
   1   7   7  339.62    6.59
  -2  -7  -7    2.60    0.36
  -2  -7  -7    2.69    0.41
   2   7   7    2.91    0.38
   2   7   7    2.91    0.42
  -3  -7  -7  115.61    2.50
  -3  -7  -7  114.97    2.69
   3   7   7  114.81    2.62
   3   7   7  114.91    2.52
  -4  -7  -7   23.71    0.97
  -4  -7  -7   27.08    0.95
   4   7   7   24.59    0.94
   4   7   7   25.92    1.03
  -5  -7  -7  225.43    4.63
  -5  -7  -7  221.02    4.55
   5   7   7  227.01    4.58
   5   7   7  218.83    4.64
  -6  -7  -7   16.43    0.92
   6   7   7   18.13    0.93
  -7  -7  -7   81.01    2.18
  -7  -7  -7   77.03    1.69
   7   7   7   76.63    1.97
   7   7   7   78.88    2.14
  -8  -7  -7    2.76    0.55
   8   7   7    2.00    0.50
   5  -8  -7   23.03    1.04
  -5   8   7   21.97    1.18
  -5   8   7   19.66    1.07
   4  -8  -7    0.92    0.36
  -4   8   7    1.01    0.32
  -4   8   7    1.11    0.39
  -4   8   7    0.54    0.50
   3  -8  -7   40.60    1.14
  -3   8   7   40.41    1.41
  -3   8   7   38.92    1.14
  -3   8   7   38.64    1.35
   2  -8  -7    1.19    0.22
   2  -8  -7    0.90    0.14
  -2   8   7    0.57    0.34
  -2   8   7    1.10    0.21
  -2   8   7    1.08    0.15
  -2   8   7    1.20    0.33
   1  -8  -7   41.68    0.97
   1  -8  -7   40.30    1.01
  -1   8   7   43.23    0.99
  -1   8   7   42.12    1.03
  -1   8   7   42.08    1.33
  -1   8   7   42.65    1.34
   0  -8  -7   18.27    0.65
   0   8   7   16.14    0.83
   0   8   7   17.55    0.65
  -1  -8  -7   46.67    1.31
   1   8   7   47.52    1.41
   1   8   7   47.60    1.23
  -2  -8  -7    0.23    0.26
  -2  -8  -7   -0.09    0.22
   2   8   7    0.49    0.22
   2   8   7    0.68    0.29
  -3  -8  -7   78.32    1.92
  -3  -8  -7   81.61    2.05
   3   8   7   82.05    2.05
   3   8   7   78.55    1.94
  -4  -8  -7    0.77    0.30
  -4  -8  -7    1.02    0.31
   4   8   7    0.61    0.26
  -5  -8  -7  141.72    3.14
  -5  -8  -7  135.73    3.07
   5   8   7  139.11    3.08
   5   8   7  132.12    3.14
  -6  -8  -7    2.91    0.45
   6   8   7    3.05    0.43
  -7  -8  -7   80.89    2.22
   7   8   7   76.17    2.17
   5  -9  -7   20.62    1.09
  -5   9   7   19.45    1.23
  -5   9   7   18.08    1.14
   4  -9  -7    0.20    0.31
  -4   9   7    0.04    0.37
  -4   9   7    0.21    0.34
   3  -9  -7   31.30    1.01
  -3   9   7   28.54    1.37
  -3   9   7   30.74    1.25
  -3   9   7   32.65    1.03
   2  -9  -7   12.55    0.49
   2  -9  -7   12.03    0.58
  -2   9   7   11.22    0.92
  -2   9   7   10.88    0.80
  -2   9   7   11.46    0.57
  -2   9   7   11.67    0.47
   1  -9  -7  163.08    3.13
   1  -9  -7  163.62    3.19
  -1   9   7  157.91    3.14
  -1   9   7  168.73    3.22
  -1   9   7  159.26    3.55
  -1   9   7  163.42    3.58
   0  -9  -7   14.55    0.68
   0   9   7   14.93    0.64
   0   9   7   14.91    0.86
  -1  -9  -7  101.48    2.25
   1   9   7  103.62    2.46
   1   9   7  104.39    2.27
  -2  -9  -7    1.00    0.28
   2   9   7    1.47    0.36
  -3  -9  -7   82.52    2.10
  -3  -9  -7   77.34    1.94
   3   9   7   78.96    1.96
   3   9   7   79.70    2.07
  -4  -9  -7    0.38    0.33
  -4  -9  -7   -0.17    0.28
   4   9   7   -0.45    0.37
   4   9   7    0.19    0.28
  -5  -9  -7   91.86    2.34
   5   9   7   90.72    2.30
  -6  -9  -7    0.58    0.39
   6   9   7    0.87    0.38
  -7  -9  -7   52.92    1.82
   7   9   7   56.58    2.14
   4 -10  -7    0.80    0.37
  -4  10   7    0.84    0.47
   3 -10  -7   36.80    1.17
  -3  10   7   36.48    1.18
  -3  10   7   36.24    1.40
   2 -10  -7    0.23    0.24
   2 -10  -7    0.50    0.20
  -2  10   7    0.48    0.34
  -2  10   7    0.57    0.21
  -2  10   7    0.17    0.46
   1 -10  -7   76.60    1.64
   1 -10  -7   75.41    1.71
  -1  10   7   73.00    1.62
  -1  10   7   73.99    2.07
  -1  10   7   73.44    2.02
  -1  10   7   77.21    1.71
   0 -10  -7   15.44    0.74
   0  10   7   13.18    0.87
   0  10   7   15.79    0.71
   0  10   7   14.48    0.97
  -1 -10  -7   56.09    1.51
   1  10   7   56.91    1.70
   1  10   7   57.22    1.71
  -2 -10  -7    0.73    0.31
   2  10   7   -0.26    0.23
   2  10   7    0.16    0.40
  -3 -10  -7   43.38    1.42
  -3 -10  -7   44.19    1.48
   3  10   7   42.86    1.54
   3  10   7   43.95    1.35
  -4 -10  -7   -0.22    0.34
   4  10   7    0.26    0.29
  -5 -10  -7   52.58    1.69
   5  10   7   49.97    1.62
  -6 -10  -7    0.19    0.44
   6  10   7    0.05    0.39
   2 -11  -7    0.15    0.27
  -2  11   7    0.52    0.39
   1 -11  -7   32.30    1.03
   1 -11  -7   33.17    0.90
  -1  11   7   32.27    1.30
  -1  11   7   33.78    1.03
   0 -11  -7    6.08    0.74
   0  11   7    5.10    0.61
   0  11   7    4.70    0.75
   0  11   7    3.81    0.61
  -1 -11  -7   58.65    1.60
   1  11   7   59.40    1.58
   1  11   7   53.35    1.80
  -2 -11  -7    0.95    0.43
   2  11   7    0.60    0.32
   2  11   7    0.34    0.53
   3  11   7   38.00    1.32
  -4 -11  -7    8.51    0.93
   4  11   7    6.76    0.82
  -5 -11  -7   76.14    2.23
   5  11   7   76.69    2.17
   0  12   7    0.73    0.40
   0  12   7    0.27    0.33
  -1 -12  -7   32.58    1.30
   1  12   7   35.29    1.24
   2  12   7   -0.33    0.35
   3  12   7   65.84    1.91
   3  10  -8    4.71    0.64
  -3 -10   8    3.32    0.58
   2  10  -8   21.13    1.22
  -2 -10   8   19.10    1.21
   1  10  -8    2.55    0.49
  -1 -10   8    2.65    0.49
   0 -10   8   42.84    1.63
   1 -10   8    1.30    0.46
   2 -10   8   32.16    1.51
   4   9  -8   10.56    1.01
  -4  -9   8   10.89    1.09
   3   9  -8    9.30    0.93
  -3  -9   8    7.31    0.94
   2   9  -8   45.87    1.55
  -2  -9   8   45.22    1.58
   1   9  -8   16.91    0.98
  -1  -9   8   16.32    1.02
   0  -9   8   13.25    0.94
   1  -9   8    8.09    0.83
   2  -9   8   12.87    1.00
   3  -9   8    8.18    0.99
   4  -9   8   45.71    1.66
   5   8  -8   17.33    1.11
  -5  -8   8   18.49    0.87
  -5  -8   8   16.42    1.17
   4   8  -8   27.27    1.19
  -4  -8   8   27.27    1.03
  -4  -8   8   26.42    1.25
   3   8  -8    2.06    0.40
  -3  -8   8    2.15    0.44
   2   8  -8   58.26    1.70
  -2  -8   8   58.52    1.77
   1   8  -8   44.36    1.45
  -1  -8   8   44.77    1.48
  -1  -8   8   43.87    1.68
   0  -8   8   29.03    1.17
   0  -8   8   27.66    1.29
   1  -8   8    9.18    1.33
   1  -8   8    9.28    0.83
   2  -8   8   34.16    1.32
   3  -8   8   24.08    1.17
   4  -8   8   23.99    1.14
   4  -8   8   22.97    1.26
   5  -8   8   13.85    1.06
   5  -8   8   12.44    1.28
   6   7  -8   14.48    0.91
   6   7  -8   14.15    0.99
  -6  -7   8   13.26    0.96
   5   7  -8    3.18    0.45
   5   7  -8    3.26    0.43
  -5  -7   8    4.29    0.67
   4   7  -8   21.52    1.00
  -4  -7   8   19.46    0.78
  -4  -7   8   22.20    1.09
  -4  -7   8   19.17    1.11
   3   7  -8   27.47    1.08
  -3  -7   8   28.59    1.16
  -3  -7   8   25.25    1.19
  -3  -7   8   26.59    0.77
  -3  -7   8   28.29    1.16
   2   7  -8   67.81    1.80
  -2  -7   8   63.30    1.79
  -2  -7   8   66.91    1.90
  -2  -7   8   68.30    1.86
   1   7  -8   21.52    0.94
  -1  -7   8   19.52    0.96
  -1  -7   8   19.74    0.94
   0  -7   8   60.88    1.74
   0  -7   8   61.68    1.70
   1  -7   8   33.35    1.20
   1  -7   8   31.78    1.20
   2  -7   8   56.15    1.65
   2  -7   8   57.57    1.70
   3  -7   8   56.09    1.68
   3  -7   8   51.80    1.63
   4  -7   8   52.47    1.62
   4  -7   8   53.07    1.69
  -5   7  -8   18.50    0.64
   5  -7   8   19.01    1.05
   5  -7   8   17.82    1.13
   6  -7   8   46.83    2.34
   6  -7   8   44.12    1.61
   7   6  -8   24.10    1.17
  -7  -6   8   24.82    1.30
   6   6  -8    5.22    0.78
   6   6  -8    7.00    0.88
  -6  -6   8    5.00    0.84
   5   6  -8   23.44    0.98
   5   6  -8   24.40    1.04
  -5  -6   8   24.88    1.16
  -5  -6   8   22.38    0.98
   4   6  -8   30.39    1.11
  -4  -6   8   29.57    0.97
  -4  -6   8   30.84    1.16
  -4  -6   8   28.61    1.27
   3   6  -8   25.55    1.01
  -3  -6   8   24.23    1.09
  -3  -6   8   25.03    1.07
  -3  -6   8   26.26    1.02
  -3  -6   8   25.93    0.79
   2   6  -8   17.90    0.84
  -2  -6   8   17.63    0.89
  -2  -6   8   16.07    0.53
  -2  -6   8   16.41    0.90
  -2  -6   8   17.21    0.84
  -2  -6   8   17.20    0.56
   1   6  -8   79.56    1.98
  -1  -6   8   82.86    2.03
  -1  -6   8   80.97    2.06
   0  -6   8   73.48    1.88
   0  -6   8   76.33    1.96
   1  -6   8   13.62    0.77
   1  -6   8   12.87    0.77
  -2   6  -8  128.26    2.88
   2  -6   8  127.41    2.92
   2  -6   8  126.15    2.86
  -3   6  -8   28.86    1.12
   3  -6   8   30.35    1.17
   3  -6   8   30.80    1.15
   3  -6   8   30.03    1.13
  -4   6  -8   54.57    1.23
  -4   6  -8   55.58    1.71
   4  -6   8   57.57    1.72
   4  -6   8   56.15    1.65
   4  -6   8   55.90    1.66
   4  -6   8   57.37    1.25
  -5   6  -8   19.61    0.69
   5  -6   8   19.79    0.72
   5  -6   8   19.41    1.01
   5  -6   8   18.79    1.03
  -6   6  -8   20.65    0.83
   6  -6   8   20.77    1.21
   6  -6   8   21.38    1.11
   7   5  -8   11.68    0.90
  -7  -5   8   11.12    1.07
  -7  -5   8   11.15    1.06
   6   5  -8    6.21    0.73
   6   5  -8    6.92    0.86
  -6  -5   8    6.33    0.82
  -6  -5   8    5.99    0.84
   5   5  -8   23.53    0.96
   5   5  -8   23.34    0.98
  -5  -5   8   21.12    1.21
  -5  -5   8   24.94    1.04
  -5  -5   8   23.02    0.97
   4   5  -8   24.19    0.94
   4   5  -8   22.49    0.86
  -4  -5   8   22.91    1.06
  -4  -5   8   24.22    0.87
  -4  -5   8   23.47    0.97
   3   5  -8   28.77    1.13
  -3  -5   8   29.58    0.88
  -3  -5   8   28.65    1.14
  -3  -5   8   29.97    1.12
   2   5  -8    4.27    0.53
  -2  -5   8    6.04    0.61
  -2  -5   8    4.79    0.38
  -2  -5   8    5.32    0.63
  -2  -5   8    5.78    0.57
   1   5  -8  184.67    4.00
  -1  -5   8  192.91    3.62
  -1  -5   8  194.11    3.62
  -1  -5   8  197.85    3.97
  -1  -5   8  196.12    4.03
   0  -5   8  117.76    2.56
   0  -5   8  108.92    2.75
   1  -5   8   33.49    1.09
  -2   5  -8   14.82    0.75
   2  -5   8   15.20    0.77
   2  -5   8   14.65    0.76
  -3   5  -8   50.42    1.45
  -3   5  -8   48.84    1.11
   3  -5   8   50.94    1.46
   3  -5   8   51.25    1.33
   3  -5   8   50.81    1.46
   3  -5   8   50.00    1.49
  -4   5  -8   79.84    1.71
  -4   5  -8   79.68    2.03
   4  -5   8   77.31    2.06
   4  -5   8   80.26    2.04
   4  -5   8   82.25    1.73
   4  -5   8   80.38    2.04
  -5   5  -8   30.77    0.90
  -5   5  -8   29.41    1.23
   5  -5   8   30.49    1.20
   5  -5   8   29.24    1.14
   5  -5   8   29.01    1.21
   5  -5   8   28.64    1.02
  -6   5  -8   27.48    0.96
   6  -5   8   27.55    1.22
   6  -5   8   26.73    1.16
   6  -5   8   26.95    1.10
  -7   5  -8   12.50    0.81
   7  -5   8   13.28    1.00
   7  -5   8   11.90    1.08
   7  -5   8   13.31    1.00
   7   4  -8   11.52    0.82
  -7  -4   8   12.45    0.95
  -7  -4   8   11.32    1.02
   6   4  -8    6.58    0.83
   6   4  -8    8.06    0.70
  -6  -4   8    6.55    0.80
  -6  -4   8    6.68    0.73
   5   4  -8   38.71    1.23
  -5  -4   8   41.75    1.27
  -5  -4   8   39.96    1.43
  -5  -4   8   39.47    1.27
   4   4  -8   21.53    0.81
   4   4  -8   22.56    0.86
  -4  -4   8   21.77    0.84
  -4  -4   8   20.85    0.99
  -4  -4   8   20.83    0.87
   3   4  -8   61.31    1.57
  -3  -4   8   63.07    1.60
  -3  -4   8   63.98    1.71
  -3  -4   8   63.52    1.50
  -2  -4   8    0.91    0.27
  -2  -4   8    0.97    0.20
  -2  -4   8    0.76    0.24
  -2  -4   8    0.63    0.25
  -1  -4   8   75.92    1.87
  -1  -4   8   78.29    1.89
  -1  -4   8   76.18    1.83
  -1  -4   8   77.12    1.61
  -1  -4   8   77.21    1.61
   0  -4   8  105.29    2.35
   0  -4   8  105.72    2.07
   0  -4   8  106.09    2.38
   0  -4   8  103.84    2.06
   1  -4   8   93.46    2.20
   1  -4   8   96.13    2.18
   1  -4   8   96.16    1.89
   1  -4   8   94.50    1.87
  -2   4  -8   76.28    1.83
   2  -4   8   74.38    1.83
   2  -4   8   75.55    1.88
  -3   4  -8   82.77    1.98
  -3   4  -8   80.29    1.71
   3  -4   8   82.84    2.10
   3  -4   8   82.02    1.99
   3  -4   8   82.00    1.73
  -4   4  -8   32.30    1.11
  -4   4  -8   32.68    0.90
   4  -4   8   32.42    1.12
   4  -4   8   32.39    1.12
   4  -4   8   31.94    1.14
   4  -4   8   32.54    0.90
  -5   4  -8   44.79    1.19
  -5   4  -8   45.19    1.42
   5  -4   8   47.70    1.47
   5  -4   8   44.02    1.40
   5  -4   8   44.31    1.43
   5  -4   8   46.43    1.23
  -6   4  -8   49.91    1.36
   6  -4   8   48.53    1.64
   6  -4   8   48.72    1.58
   6  -4   8   51.66    1.42
   6  -4   8   50.38    1.55
  -7   4  -8   19.55    0.91
   7  -4   8   20.28    1.02
   7  -4   8   21.16    1.14
   7  -4   8   19.18    1.05
   8   3  -8    1.27    0.39
  -8  -3   8   -0.26    0.51
   7   3  -8   10.00    0.89
   7   3  -8    9.69    1.00
  -7  -3   8    8.27    0.81
  -7  -3   8   10.70    0.99
   6   3  -8   23.75    1.13
   6   3  -8   23.32    1.07
   6   3  -8   22.22    0.96
  -6  -3   8   22.08    1.08
  -6  -3   8   21.66    0.92
   5   3  -8   39.71    1.26
   5   3  -8   43.11    1.18
  -5  -3   8   39.94    1.51
  -5  -3   8   43.44    1.23
   4   3  -8   28.73    0.96
   4   3  -8   29.79    0.94
  -4  -3   8   30.23    0.97
  -4  -3   8   30.11    0.99
  -4  -3   8   28.86    1.11
   3   3  -8   54.42    1.37
  -3  -3   8   52.94    1.39
  -3  -3   8   55.42    1.52
  -3  -3   8   56.01    1.37
   2   3  -8   36.19    1.04
  -2  -3   8   36.44    1.06
  -2  -3   8   37.51    0.99
  -2  -3   8   38.29    1.14
  -1  -3   8   87.46    1.84
  -1  -3   8   88.24    2.04
  -1  -3   8   87.97    1.85
  -1  -3   8   86.47    1.98
  -1  -3   8   90.72    2.05
   0  -3   8   48.54    1.11
   0  -3   8   47.88    1.10
   0  -3   8   48.12    1.27
   0  -3   8   48.82    1.31
   1  -3   8   87.51    2.03
   1  -3   8   91.50    2.03
   1  -3   8   87.03    1.81
  -2   3  -8   62.14    1.54
  -2   3  -8   62.00    1.38
   2  -3   8   62.71    1.58
   2  -3   8   63.48    1.58
   2  -3   8   61.69    1.37
   2  -3   8   62.17    1.58
  -3   3  -8  147.01    3.07
  -3   3  -8  144.71    2.89
   3  -3   8  147.11    3.13
   3  -3   8  148.09    3.13
   3  -3   8  143.68    2.90
   3  -3   8  146.03    3.12
  -4   3  -8   32.32    1.05
  -4   3  -8   33.00    0.91
   4  -3   8   32.88    1.12
   4  -3   8   32.94    0.94
   4  -3   8   31.18    1.09
   4  -3   8   31.57    1.21
  -5   3  -8   64.85    1.71
  -5   3  -8   65.82    1.56
   5  -3   8   63.50    1.57
   5  -3   8   64.95    1.74
   5  -3   8   64.33    1.73
  -6   3  -8   60.48    1.62
  -6   3  -8   60.75    1.73
   6  -3   8   62.46    1.74
   6  -3   8   61.43    1.63
   6  -3   8   62.93    1.76
  -7   3  -8   38.58    1.25
   7  -3   8   37.80    1.42
   7  -3   8   40.60    1.36
   7  -3   8   39.80    1.39
  -8   3  -8   29.69    1.19
   8  -3   8   30.68    1.42
   8  -3   8   28.93    1.31
   8   2  -8    1.75    0.60
   8   2  -8    1.88    0.37
  -8  -2   8    2.82    0.62
   7   2  -8   20.97    0.84
   7   2  -8   22.53    1.15
  -7  -2   8   19.72    1.19
  -7  -2   8   18.93    0.87
   6   2  -8    8.08    0.78
   6   2  -8    6.43    0.76
   6   2  -8    6.98    0.56
  -6  -2   8    5.79    0.79
  -6  -2   8    6.78    0.59
   5   2  -8   42.92    1.38
   5   2  -8   42.69    1.30
   5   2  -8   43.11    1.15
  -5  -2   8   42.54    1.39
  -5  -2   8   42.95    1.20
  -5  -2   8   39.71    1.51
   4   2  -8   32.65    1.03
   4   2  -8   32.16    0.94
  -4  -2   8   31.30    1.13
  -4  -2   8   33.57    1.07
  -4  -2   8   32.07    1.08
   3   2  -8   34.63    0.98
  -3  -2   8   35.54    1.00
  -3  -2   8   34.40    1.10
  -3  -2   8   36.14    1.04
  -2  -2   8   76.63    1.70
  -2  -2   8   75.26    1.71
  -2  -2   8   74.35    1.79
  -1  -2   8   88.00    2.23
  -1  -2   8   90.33    2.01
  -1  -2   8   94.15    1.96
  -1  -2   8   94.34    2.07
  -1  -2   8   91.98    1.95
   0  -2   8  167.38    3.41
   0  -2   8  168.81    3.29
   0  -2   8  168.96    3.29
   1  -2   8   68.99    1.53
   1  -2   8   70.36    1.67
   1  -2   8   71.98    1.67
   1  -2   8   71.14    1.67
  -2   2  -8   48.87    1.16
   2  -2   8   49.69    1.30
   2  -2   8   48.41    1.16
   2  -2   8   47.66    1.28
   2  -2   8   49.75    1.31
  -3   2  -8   93.45    2.07
  -3   2  -8   93.89    1.98
   3  -2   8   94.20    1.99
   3  -2   8   94.37    2.12
   3  -2   8   90.71    2.13
  -4   2  -8   89.38    1.93
  -4   2  -8   89.27    2.01
   4  -2   8   80.23    2.35
   4  -2   8   87.41    1.99
   4  -2   8   89.96    2.06
  -5   2  -8   51.05    1.40
  -5   2  -8   50.99    1.32
   5  -2   8   50.71    1.45
   5  -2   8   48.53    1.34
  -6   2  -8   74.11    1.90
   6  -2   8   72.47    1.85
   6  -2   8   74.73    1.95
   6  -2   8   75.03    1.94
  -7   2  -8   53.46    1.52
  -7   2  -8   50.96    1.64
   7  -2   8   54.94    1.69
   7  -2   8   56.35    1.66
   7  -2   8   54.64    1.61
  -8   2  -8   20.42    1.02
   8  -2   8   19.34    1.08
   8  -2   8   20.73    1.15
   8   1  -8    7.07    1.09
  -8  -1   8    5.11    0.73
   7   1  -8   21.66    0.81
   7   1  -8   22.92    1.17
  -7  -1   8   24.86    1.25
  -7  -1   8   21.16    0.85
   6   1  -8    0.11    0.34
   6   1  -8    0.07    0.30
   6   1  -8    0.09    0.20
  -6  -1   8   -0.02    0.21
  -6  -1   8    0.07    0.34
  -6  -1   8   -0.52    0.35
   5   1  -8   47.65    1.44
   5   1  -8   46.98    1.18
   5   1  -8   45.88    1.39
  -5  -1   8   47.28    1.46
  -5  -1   8   48.75    1.46
  -5  -1   8   49.80    1.20
   4   1  -8   28.06    1.03
   4   1  -8   29.92    0.86
  -4  -1   8   29.72    0.86
  -4  -1   8   30.15    1.04
  -3  -1   8   81.33    1.88
  -3  -1   8   78.01    1.90
  -3  -1   8   81.43    1.76
  -2  -1   8   71.35    1.58
  -2  -1   8   69.81    1.76
  -2  -1   8   68.73    1.63
  -1  -1   8   53.26    1.30
  -1  -1   8   57.29    1.34
  -1  -1   8   53.08    1.34
  -1  -1   8   54.34    1.31
   0  -1   8   31.44    0.90
   0  -1   8   31.46    0.91
   0  -1   8   30.64    0.90
   0  -1   8   31.67    0.87
   1  -1   8  232.66    4.77
   1  -1   8  239.05    4.59
   1  -1   8  237.66    4.58
   1  -1   8  234.41    4.51
  -2   1  -8    0.34    0.14
  -2   1  -8    0.49    0.16
   2  -1   8    0.31    0.18
   2  -1   8    0.89    0.19
   2  -1   8    0.29    0.16
  -3   1  -8   72.42    1.65
  -3   1  -8   73.77    1.64
   3  -1   8   73.43    1.69
   3  -1   8   72.97    1.65
   3  -1   8   71.33    1.74
  -4   1  -8   77.73    1.76
  -4   1  -8   77.33    1.77
   4  -1   8   76.55    1.82
   4  -1   8   75.56    1.87
   4  -1   8   77.23    1.80
  -5   1  -8  104.53    2.32
  -5   1  -8  104.76    2.34
   5  -1   8  105.88    2.37
   5  -1   8  105.31    2.43
   5  -1   8  104.48    2.35
  -6   1  -8   11.15    0.73
  -6   1  -8   11.97    0.71
   6  -1   8   12.71    0.75
   6  -1   8   11.85    0.76
   6  -1   8   12.77    0.75
  -7   1  -8   39.65    1.34
  -7   1  -8   41.66    1.30
   7  -1   8   43.32    1.36
   7  -1   8   40.79    1.37
   7  -1   8   40.42    1.36
  -8   1  -8   14.46    0.90
   8  -1   8   12.95    0.93
   8  -1   8   12.95    0.97
   8   0  -8    0.86    0.47
  -8   0   8    0.18    0.56
   7   0  -8   24.93    1.18
  -7   0   8   24.60    0.74
  -7   0   8   25.55    1.28
   6   0  -8    0.26    0.31
   6   0  -8   -0.14    0.33
  -6   0   8    0.27    0.32
  -6   0   8   -0.34    0.31
  -6   0   8    0.27    0.18
   5   0  -8   64.57    1.72
   5   0  -8   63.74    1.71
  -5   0   8   63.61    1.41
  -5   0   8   65.17    1.79
  -5   0   8   65.18    1.75
   4   0  -8    3.89    0.54
  -4   0   8    5.16    0.58
  -4   0   8    4.06    0.59
  -4   0   8    4.87    0.39
   3   0  -8  164.79    3.43
  -3   0   8  167.12    3.27
  -3   0   8  171.56    3.49
  -3   0   8  170.11    3.46
  -2   0   8    6.00    0.49
  -2   0   8    5.89    0.46
  -2   0   8    6.69    0.40
  -1   0   8  298.69    5.79
  -1   0   8  303.55    5.71
  -1   0   8  310.81    5.80
  -1   0   8  300.14    5.72
  -1   0   8  304.00    5.76
   0   0   8  151.12    3.03
   0   0   8  151.11    3.04
   0   0   8  149.39    3.00
   0   0   8  153.13    3.02
   0   0   8  147.75    3.00
   1   0   8  405.76    7.62
   1   0   8  413.32    7.62
   1   0   8  403.04    7.58
  -2   0  -8   25.60    0.79
   2   0   8   29.58    0.87
   2   0   8   26.06    0.78
   2   0   8   25.10    0.79
  -3   0  -8  334.18    6.38
  -3   0  -8  342.17    6.33
   3   0   8  337.76    6.40
   3   0   8  336.10    6.35
   3   0   8  334.42    6.45
  -4   0  -8  229.13    4.38
  -4   0  -8  226.84    4.43
   4   0   8  226.10    4.40
   4   0   8  219.92    4.44
   4   0   8  223.01    4.50
  -5   0  -8  255.82    4.91
  -5   0  -8  253.66    4.96
   5   0   8  246.55    4.99
   5   0   8  252.91    4.94
   5   0   8  249.99    5.03
  -6   0  -8   14.48    0.74
  -6   0  -8   15.80    0.74
   6   0   8   15.32    0.74
   6   0   8   14.50    0.82
   6   0   8   15.04    0.81
  -7   0  -8   31.87    1.12
  -7   0  -8   30.69    1.13
   7   0   8   30.74    1.17
   7   0   8   31.53    1.13
   7   0   8   29.79    1.20
  -8   0  -8   13.62    1.17
  -8   0  -8   14.54    0.90
   8   0   8   13.18    0.93
   8   0   8   13.29    0.90
   8  -1  -8    1.13    0.51
  -8   1   8    1.26    0.59
   7  -1  -8   19.51    1.10
  -7   1   8   23.01    1.28
   6  -1  -8    0.03    0.28
   6  -1  -8    0.37    0.36
  -6   1   8    0.52    0.39
  -6   1   8    0.60    0.35
   5  -1  -8   62.90    1.67
  -5   1   8   60.52    1.29
  -5   1   8   62.59    1.69
  -5   1   8   64.81    1.79
   4  -1  -8   31.04    1.02
  -4   1   8   31.90    0.86
  -4   1   8   31.66    1.05
  -4   1   8   31.56    1.16
   3  -1  -8  195.34    3.88
  -3   1   8  196.78    3.89
  -3   1   8  189.65    3.67
  -3   1   8  194.57    3.67
  -3   1   8  193.71    3.97
  -2   1   8    0.83    0.21
  -2   1   8    0.85    0.19
  -2   1   8    0.82    0.15
  -1   1   8  293.95    5.49
  -1   1   8  285.87    5.62
  -1   1   8  291.07    5.52
  -1   1   8  294.45    5.48
  -1   1   8  296.41    5.64
   0   1   8   86.13    1.93
   0   1   8   88.00    1.86
   0   1   8   87.52    1.83
   0   1   8   86.11    1.82
   1   1   8  162.08    3.27
   1   1   8  156.80    3.14
   1   1   8  166.18    3.23
  -2  -1  -8   39.83    1.06
   2   1   8   40.25    0.97
   2   1   8   37.94    1.06
   2   1   8   39.77    1.07
  -3  -1  -8  234.68    4.60
  -3  -1  -8  242.41    4.63
  -3  -1  -8  237.92    4.48
   3   1   8  237.56    4.64
   3   1   8  225.94    4.81
   3   1   8  235.36    4.50
  -4  -1  -8  133.52    2.85
  -4  -1  -8  134.36    2.70
  -4  -1  -8  134.10    2.82
   4   1   8  131.77    2.86
   4   1   8  132.37    2.85
   4   1   8  135.85    2.72
  -5  -1  -8   21.84    0.86
  -5  -1  -8   20.75    0.86
   5   1   8   21.05    0.88
   5   1   8   23.74    0.78
   5   1   8   22.59    0.89
  -6  -1  -8   13.55    0.76
  -6  -1  -8   12.79    0.72
  -6  -1  -8   12.73    0.65
   6   1   8   13.28    0.76
   6   1   8   12.33    0.75
   6   1   8   12.93    0.66
  -7  -1  -8   56.45    1.52
  -7  -1  -8   53.64    1.63
  -7  -1  -8   54.44    1.59
   7   1   8   58.08    1.55
   7   1   8   57.42    1.64
   7   1   8   54.37    1.68
  -8  -1  -8   14.30    0.91
  -8  -1  -8   11.85    0.96
   8   1   8   12.04    0.92
   8   1   8   11.40    0.81
   8  -2  -8    0.82    0.51
   7  -2  -8   24.85    1.19
  -7   2   8   27.07    1.37
   6  -2  -8    1.28    0.32
   6  -2  -8    0.58    0.48
  -6   2   8    0.57    0.36
  -6   2   8    0.54    0.39
   5  -2  -8   21.49    0.91
  -5   2   8   21.73    0.96
  -5   2   8   23.28    1.04
   4  -2  -8    8.83    0.59
  -4   2   8    8.91    0.63
  -4   2   8    9.00    0.71
   3  -2  -8   31.56    0.94
  -3   2   8   30.78    1.00
  -3   2   8   31.38    0.73
  -3   2   8   31.82    1.06
  -3   2   8   30.32    0.72
   2  -2  -8    0.75    0.18
  -2   2   8    0.31    0.20
  -2   2   8    0.64    0.18
  -2   2   8    0.75    0.14
  -1   2   8  191.23    3.85
  -1   2   8  193.67    3.64
  -1   2   8  191.99    3.65
  -1   2   8  178.68    3.99
  -1   2   8  195.93    3.68
   0   2   8   19.92    0.63
   0   2   8   21.11    0.60
   0   2   8   20.67    0.76
   0   2   8   19.72    0.59
   1   2   8  212.60    3.88
   1   2   8  207.44    3.95
   1   2   8  192.50    4.04
   1   2   8  200.41    3.83
  -2  -2  -8    1.31    0.22
  -2  -2  -8    1.35    0.22
   2   2   8    1.36    0.43
  -3  -2  -8  130.28    2.71
  -3  -2  -8  126.71    2.67
  -3  -2  -8  125.00    2.49
   3   2   8  127.84    2.51
   3   2   8  129.24    2.71
   3   2   8  127.42    2.72
  -4  -2  -8    0.18    0.19
  -4  -2  -8   -0.02    0.13
  -4  -2  -8   -0.23    0.21
   4   2   8    0.05    0.20
   4   2   8    0.10    0.23
   4   2   8    0.08    0.16
  -5  -2  -8  341.75    6.47
  -5  -2  -8  342.63    6.67
   5   2   8  343.54    6.50
   5   2   8  343.94    6.72
   5   2   8  356.22    6.82
  -6  -2  -8   10.43    0.57
  -6  -2  -8   11.35    0.72
  -6  -2  -8   10.67    0.70
   6   2   8   11.12    0.76
   6   2   8   11.12    0.59
   6   2   8   10.87    0.71
  -7  -2  -8   50.24    1.52
  -7  -2  -8   51.77    1.39
   7   2   8   51.53    1.39
   7   2   8   46.17    1.58
   7   2   8   50.82    1.53
  -8  -2  -8   13.11    0.90
  -8  -2  -8   13.07    0.90
   8   2   8   12.90    0.92
   8   2   8   13.46    0.81
   7  -3  -8   19.03    1.10
  -7   3   8   19.18    1.27
   6  -3  -8    1.70    0.35
  -6   3   8    1.68    0.43
  -6   3   8    1.36    0.41
   5  -3  -8   22.76    0.95
  -5   3   8   22.95    1.05
  -5   3   8   20.77    0.96
   4  -3  -8    2.20    0.31
  -4   3   8    2.17    0.32
  -4   3   8    2.76    0.44
   3  -3  -8   74.86    1.64
  -3   3   8   73.11    1.81
  -3   3   8   60.67    1.93
   2  -3  -8   -0.02    0.15
  -2   3   8   -0.04    0.10
  -2   3   8    0.25    0.21
  -2   3   8    0.32    0.11
  -2   3   8    0.09    0.17
  -1   3   8   85.34    1.76
  -1   3   8   88.69    2.02
  -1   3   8   85.80    1.79
  -1   3   8   86.13    2.02
   0   3   8   12.62    0.61
   0   3   8   13.26    0.43
   0   3   8   12.67    0.49
  -1  -3  -8  147.30    2.90
   1   3   8  142.11    2.74
   1   3   8  147.02    3.05
   1   3   8  146.25    2.91
   1   3   8  143.69    2.73
  -2  -3  -8   11.45    0.57
  -2  -3  -8   11.15    0.60
   2   3   8   11.39    0.53
   2   3   8   11.28    0.36
   2   3   8   11.70    0.35
   2   3   8   10.87    0.58
  -3  -3  -8   87.25    1.98
  -3  -3  -8   89.84    2.05
   3   3   8   92.85    2.02
   3   3   8   88.64    2.07
   3   3   8   88.71    1.76
  -4  -3  -8   25.43    0.66
  -4  -3  -8   26.88    0.89
  -4  -3  -8   25.43    0.92
   4   3   8   26.34    0.95
   4   3   8   26.35    0.69
   4   3   8   24.62    0.89
  -5  -3  -8  224.15    4.26
  -5  -3  -8  223.49    4.50
  -5  -3  -8  221.45    4.53
   5   3   8  223.39    4.27
   5   3   8  226.87    4.56
   5   3   8  222.14    4.57
  -6  -3  -8   41.62    1.29
  -6  -3  -8   40.51    1.10
  -6  -3  -8   41.42    1.31
   6   3   8   40.67    1.35
   6   3   8   42.33    1.30
   6   3   8   41.13    1.10
  -7  -3  -8   73.96    1.96
  -7  -3  -8   71.22    1.73
   7   3   8   72.53    1.75
   7   3   8   73.14    1.95
  -8  -3  -8   12.86    0.92
  -8  -3  -8   11.25    0.82
   8   3   8   10.73    0.89
   8   3   8   10.92    1.14
   7  -4  -8   17.28    1.11
  -7   4   8   19.72    1.32
   6  -4  -8    0.15    0.31
  -6   4   8   -0.03    0.39
  -6   4   8    0.15    0.38
   5  -4  -8   39.45    1.27
  -5   4   8   38.40    1.29
  -5   4   8   39.89    1.41
   4  -4  -8    9.21    0.61
  -4   4   8    8.88    0.64
  -4   4   8    9.85    0.76
   3  -4  -8   72.45    1.67
  -3   4   8   71.26    2.10
   2  -4  -8   15.30    0.56
  -2   4   8   14.84    0.42
  -2   4   8   14.65    0.57
  -2   4   8   15.04    0.43
  -2   4   8   13.77    0.74
  -2   4   8   14.52    0.74
   1  -4  -8  124.49    2.47
  -1   4   8  126.69    2.77
  -1   4   8  124.99    2.45
  -1   4   8  123.36    2.47
  -1   4   8  129.30    2.76
   0  -4  -8   18.32    0.58
   0   4   8   18.62    0.50
   0   4   8   19.43    0.78
   0   4   8   19.93    0.63
  -1  -4  -8  102.56    2.12
   1   4   8  100.63    2.29
  -2  -4  -8    4.26    0.45
   2   4   8    4.73    0.41
   2   4   8    5.30    0.50
  -3  -4  -8  120.52    2.54
  -3  -4  -8  118.12    2.62
   3   4   8  119.89    2.56
   3   4   8  119.92    2.65
  -4  -4  -8    0.81    0.24
  -4  -4  -8    0.92    0.31
  -4  -4  -8    1.56    0.20
   4   4   8    1.12    0.14
   4   4   8    0.92    0.24
   4   4   8    0.78    0.28
  -5  -4  -8   96.28    1.94
  -5  -4  -8   97.66    2.28
  -5  -4  -8   94.49    2.23
   5   4   8   95.75    2.27
   5   4   8   99.47    2.33
   5   4   8   95.75    1.96
  -6  -4  -8    7.84    0.68
  -6  -4  -8    7.30    0.65
  -6  -4  -8    6.94    0.45
   6   4   8    7.00    0.64
   6   4   8    7.25    0.79
   6   4   8    6.87    0.46
  -7  -4  -8   71.45    1.93
  -7  -4  -8   68.75    1.64
   7   4   8   70.48    1.67
   7   4   8   68.65    1.91
  -8  -4  -8   17.03    1.06
  -8  -4  -8   17.44    0.88
   8   4   8   13.95    1.22
   8   4   8   16.89    1.01
   7  -5  -8   16.52    1.12
  -7   5   8   14.92    1.34
   6  -5  -8    2.01    0.40
  -6   5   8    2.23    0.49
  -6   5   8    1.29    0.44
   5  -5  -8   54.08    1.55
  -5   5   8   56.05    1.74
  -5   5   8   52.75    1.57
   4  -5  -8   13.72    0.71
  -4   5   8   12.41    0.86
  -4   5   8   13.64    0.73
   3  -5  -8  110.53    2.34
  -3   5   8  106.96    2.58
   2  -5  -8    1.98    0.32
  -2   5   8    1.25    0.31
  -2   5   8    0.38    0.41
  -2   5   8    1.68    0.22
  -2   5   8    1.45    0.20
   1  -5  -8  177.85    3.41
  -1   5   8  181.07    3.78
  -1   5   8  180.85    3.41
  -1   5   8  182.70    3.77
  -1   5   8  175.59    3.42
   0  -5  -8   97.52    2.01
   0   5   8  100.66    2.04
   0   5   8   98.12    2.28
   0   5   8   96.39    1.86
  -1  -5  -8  426.95    7.84
   1   5   8  418.93    7.85
   1   5   8  419.46    8.06
  -2  -5  -8   -0.10    0.15
  -2  -5  -8    0.09    0.20
   2   5   8    0.06    0.17
   2   5   8    0.38    0.23
  -3  -5  -8  165.04    3.49
  -3  -5  -8  166.35    3.37
   3   5   8  167.03    3.52
   3   5   8  163.74    3.39
  -4  -5  -8    7.08    0.58
  -4  -5  -8    5.57    0.53
   4   5   8    5.57    0.58
  -5  -5  -8  188.82    3.57
  -5  -5  -8  190.49    4.01
  -5  -5  -8  191.54    3.95
   5   5   8  193.31    3.98
   5   5   8  194.12    4.06
   5   5   8  187.49    3.58
  -6  -5  -8    3.97    0.67
  -6  -5  -8    5.16    0.38
  -6  -5  -8    5.30    0.65
   6   5   8    5.41    0.40
   6   5   8    5.63    0.76
   6   5   8    4.34    0.59
  -7  -5  -8   56.84    1.69
  -7  -5  -8   54.67    1.45
   7   5   8   54.82    1.36
   7   5   8   53.07    1.64
  -8  -5  -8   16.01    1.07
  -8  -5  -8   16.43    0.87
   8   5   8   14.75    0.80
   8   5   8   16.02    1.05
   6  -6  -8    1.00    0.37
  -6   6   8    0.56    0.48
   5  -6  -8   27.96    1.11
  -5   6   8   30.72    1.30
  -5   6   8   28.43    1.13
   4  -6  -8    0.31    0.25
  -4   6   8    0.55    0.35
  -4   6   8    0.27    0.27
   3  -6  -8   37.10    1.07
  -3   6   8   37.98    1.31
  -3   6   8   40.41    1.33
  -3   6   8   36.19    1.11
   2  -6  -8    0.29    0.16
  -2   6   8    0.44    0.17
  -2   6   8    0.13    0.29
  -2   6   8    0.14    0.26
   1  -6  -8   92.91    1.88
   1  -6  -8   91.05    1.90
  -1   6   8   94.77    2.02
  -1   6   8   95.47    1.91
  -1   6   8   96.86    2.27
   0  -6  -8   25.84    0.75
   0   6   8   26.66    1.01
   0   6   8   26.91    0.78
  -1  -6  -8  199.35    3.90
   1   6   8  202.47    3.92
   1   6   8  196.42    4.13
  -2  -6  -8    0.12    0.27
  -2  -6  -8    0.52    0.20
   2   6   8    0.67    0.27
   2   6   8    0.55    0.19
  -3  -6  -8  189.49    3.81
  -3  -6  -8  187.55    3.96
   3   6   8  188.64    3.84
   3   6   8  189.92    3.97
  -4  -6  -8   36.60    1.12
  -4  -6  -8   35.83    1.20
   4   6   8   36.90    1.16
   4   6   8   36.33    1.23
  -5  -6  -8  168.96    3.58
  -5  -6  -8  172.99    3.67
   5   6   8  165.10    3.69
   5   6   8  170.02    3.62
  -6  -6  -8    3.40    0.47
  -6  -6  -8    2.22    0.38
   6   6   8    3.43    0.33
   6   6   8    2.69    0.39
  -7  -6  -8   63.78    1.47
  -7  -6  -8   66.13    1.91
   7   6   8   64.81    1.89
   7   6   8   65.64    1.59
  -8  -6  -8   -0.27    0.42
   8   6   8    0.03    0.41
   8   6   8   -0.38    0.29
   6  -7  -8    3.58    0.50
  -6   7   8    3.59    0.65
   5  -7  -8   37.66    1.30
  -5   7   8   37.19    1.32
  -5   7   8   39.67    1.52
   4  -7  -8    4.68    0.77
  -4   7   8    3.83    0.62
  -4   7   8    3.42    0.50
   3  -7  -8   41.42    1.14
  -3   7   8   41.09    1.40
  -3   7   8   39.19    1.13
  -3   7   8   39.39    1.40
   2  -7  -8    3.17    0.38
  -2   7   8    2.48    0.42
  -2   7   8    3.38    0.38
  -2   7   8    2.58    0.40
   1  -7  -8  151.31    3.02
   1  -7  -8  155.48    2.99
  -1   7   8  157.90    3.04
  -1   7   8  157.01    3.44
  -1   7   8  161.26    3.44
   0  -7  -8   29.97    0.85
   0   7   8   31.06    0.87
   0   7   8   31.21    1.13
  -1  -7  -8  115.27    2.48
   1   7   8  121.57    2.50
   1   7   8  118.16    2.71
  -2  -7  -8    0.18    0.21
  -2  -7  -8    0.13    0.26
   2   7   8    0.17    0.20
   2   7   8    0.12    0.27
  -3  -7  -8  130.71    2.82
  -3  -7  -8  130.59    2.96
   3   7   8  132.34    2.98
  -4  -7  -8    9.95    0.68
  -4  -7  -8    8.46    0.70
   4   7   8    8.68    0.65
   4   7   8    7.93    0.74
  -5  -7  -8   87.47    2.18
  -5  -7  -8   91.86    2.26
   5   7   8   89.42    2.19
   5   7   8   84.16    2.27
  -6  -7  -8    0.13    0.31
   6   7   8    1.02    0.34
  -7  -7  -8  101.47    2.61
   7   7   8  100.32    2.57
   5  -8  -8   19.55    1.01
  -5   8   8   15.92    1.07
  -5   8   8   18.14    1.21
   4  -8  -8    0.47    0.30
  -4   8   8    1.09    0.43
  -4   8   8    0.54    0.34
   3  -8  -8   53.33    1.36
  -3   8   8   50.45    1.69
  -3   8   8   51.67    1.36
  -3   8   8   52.43    1.65
   2  -8  -8    0.46    0.20
  -2   8   8    0.43    0.20
  -2   8   8    0.36    0.36
  -2   8   8    0.22    0.30
   1  -8  -8   47.45    1.07
   1  -8  -8   46.08    1.12
  -1   8   8   48.30    1.15
  -1   8   8   49.35    1.33
  -1   8   8   50.64    1.52
  -1   8   8   47.39    1.49
   0  -8  -8    0.12    0.19
   0   8   8    0.05    0.18
   0   8   8   -0.16    0.30
  -1  -8  -8   47.14    1.25
   1   8   8   48.31    1.26
   1   8   8   47.08    1.46
  -2  -8  -8    6.59    0.57
   2   8   8    6.55    0.55
   2   8   8    5.25    0.67
  -3  -8  -8  106.73    2.54
  -3  -8  -8  102.13    2.37
   3   8   8  105.10    2.54
   3   8   8  104.29    2.40
  -4  -8  -8    8.79    0.78
  -4  -8  -8   10.30    0.76
   4   8   8   11.60    0.72
   4   8   8    8.56    0.83
  -5  -8  -8   92.52    2.36
   5   8   8   91.66    2.29
  -6  -8  -8    0.85    0.39
   6   8   8    0.25    0.35
  -7  -8  -8   52.42    1.77
   7   8   8   49.72    1.73
   4  -9  -8    0.79    0.35
  -4   9   8    0.89    0.39
  -4   9   8    0.98    0.48
   3  -9  -8   21.97    0.85
  -3   9   8   19.96    1.10
  -3   9   8   19.61    0.85
   2  -9  -8    1.39    0.25
  -2   9   8    1.95    0.47
  -2   9   8    1.67    0.41
  -2   9   8    1.72    0.24
   1  -9  -8   26.53    0.70
   1  -9  -8   26.47    0.81
  -1   9   8   27.41    0.83
  -1   9   8   29.23    1.16
  -1   9   8   26.08    1.34
  -1   9   8   26.69    0.82
   0  -9  -8   39.44    1.10
   0   9   8   39.82    1.39
   0   9   8   39.99    1.10
  -1  -9  -8   60.43    1.53
   1   9   8   61.02    1.53
   1   9   8   60.43    1.76
  -2  -9  -8    5.49    0.65
   2   9   8    6.30    0.78
   2   9   8    5.73    0.58
  -3  -9  -8   74.36    1.91
  -3  -9  -8   78.87    2.08
   3   9   8   72.23    2.05
   3   9   8   74.63    1.90
  -4  -9  -8    7.59    0.84
  -4  -9  -8    7.39    0.78
   4   9   8    7.11    0.71
  -5  -9  -8   86.05    2.28
   5   9   8   85.19    2.21
  -6  -9  -8    0.41    0.42
   6   9   8    0.60    0.40
   3 -10  -8   19.41    0.88
  -3  10   8   18.93    1.18
   2 -10  -8    2.15    0.30
  -2  10   8    1.88    0.26
  -2  10   8    2.16    0.48
   1 -10  -8   93.55    1.91
   1 -10  -8   95.90    2.05
  -1  10   8   98.02    2.04
  -1  10   8   99.58    2.08
  -1  10   8   93.32    2.46
   0 -10  -8    0.61    0.29
   0  10   8   -0.21    0.34
   0  10   8    0.22    0.25
   0  10   8   -0.11    0.43
  -1 -10  -8   58.49    1.53
   1  10   8   50.56    1.88
   1  10   8   54.06    1.74
  -2 -10  -8    1.39    0.37
   2  10   8    1.82    0.51
   2  10   8    1.13    0.32
  -3 -10  -8   70.14    1.96
   3  10   8   74.84    1.92
  -4 -10  -8    0.16    0.37
   4  10   8    0.28    0.32
  -5 -10  -8   59.52    1.88
   5  10   8   59.97    1.83
  -2  11   8    4.28    0.60
  -1  11   8   32.87    1.36
  -1  11   8   33.10    1.03
   0 -11  -8    0.52    0.35
   0  11   8    0.38    0.34
   0  11   8    0.13    0.38
  -1 -11  -8   38.02    1.29
   1  11   8   39.18    1.26
  -2 -11  -8    0.78    0.42
   2  11   8   -0.11    0.32
   3  11   8   46.79    1.50
  -4 -11  -8    3.58    0.57
   4  11   8    3.26    0.49
  -1 -10   9   21.23    1.49
   0 -10   9   16.95    1.50
   4   9  -9   11.76    1.36
   3   9  -9   20.70    1.24
  -3  -9   9   21.72    1.32
   2   9  -9   28.14    1.29
  -2  -9   9   27.83    1.35
  -1  -9   9   40.96    1.57
   0  -9   9   14.21    1.05
   1  -9   9   11.55    0.99
   2  -9   9   11.66    1.08
   3  -9   9   26.87    1.90
   5   8  -9    9.90    1.10
  -5  -8   9    9.38    1.38
   4   8  -9   17.46    1.10
  -4  -8   9   17.70    1.16
  -4  -8   9   16.89    0.81
   3   8  -9   10.44    0.93
  -3  -8   9   13.08    0.98
   2   8  -9   31.29    1.27
  -2  -8   9   33.37    1.34
  -1  -8   9   18.55    1.05
   0  -8   9   23.77    1.12
   1  -8   9   18.66    1.08
   2  -8   9   31.64    1.34
   3  -8   9   44.96    1.59
   3  -8   9   45.13    1.65
   4  -8   9   44.12    1.71
   4  -8   9   43.81    1.60
   5   7  -9    8.16    0.93
  -5  -7   9    7.37    0.78
  -5  -7   9    6.31    0.96
   4   7  -9   12.70    0.91
  -4  -7   9   10.96    0.67
  -4  -7   9   12.78    0.98
   3   7  -9   36.94    1.33
  -3  -7   9   36.66    1.38
  -3  -7   9   35.75    0.95
  -3  -7   9   36.04    0.93
   2   7  -9   18.26    0.96
  -2  -7   9   20.04    1.63
  -2  -7   9   17.68    1.02
  -2  -7   9   19.28    1.03
  -1  -7   9   27.03    1.18
  -1  -7   9   29.73    1.19
  -1  -7   9   27.55    1.19
   0  -7   9   44.44    1.47
   0  -7   9   42.07    1.44
   1  -7   9   28.70    1.19
   1  -7   9   30.43    1.21
   2  -7   9   10.80    0.86
   3  -7   9   39.14    1.47
   3  -7   9   41.69    1.42
   4  -7   9   48.85    1.70
   4  -7   9   49.24    1.62
   5  -7   9   21.72    1.18
   5  -7   9   20.19    1.27
   6   6  -9    1.51    0.47
   6   6  -9    2.26    0.43
  -6  -6   9    2.33    0.49
   5   6  -9   12.99    0.92
  -5  -6   9   13.04    1.57
  -5  -6   9   12.71    0.88
   4   6  -9   15.95    0.91
  -4  -6   9   13.97    0.96
  -4  -6   9   14.42    0.76
  -4  -6   9   14.95    0.97
   3   6  -9   71.23    1.88
  -3  -6   9   70.91    1.61
  -3  -6   9   71.61    1.98
  -3  -6   9   70.76    1.90
  -3  -6   9   67.72    1.98
   2   6  -9   44.83    1.39
  -2  -6   9   45.78    1.05
  -2  -6   9   42.59    1.47
  -2  -6   9   45.29    1.42
  -2  -6   9   44.88    1.05
  -2  -6   9   46.56    1.47
  -1  -6   9    9.45    0.74
  -1  -6   9    7.34    0.70
  -1  -6   9    8.00    0.73
   0  -6   9   55.55    1.61
   0  -6   9   52.83    1.56
   1  -6   9   20.13    0.96
   1  -6   9   20.70    0.96
   2  -6   9   54.59    1.63
   2  -6   9   53.01    1.59
  -3   6  -9   37.38    1.36
   3  -6   9   40.34    1.36
   3  -6   9   41.12    1.36
   3  -6   9   39.90    1.41
  -4   6  -9   20.22    0.64
   4  -6   9   21.77    1.09
   4  -6   9   21.42    1.05
   4  -6   9   21.86    0.65
  -5   6  -9   17.58    0.69
   5  -6   9   16.34    1.01
   5  -6   9   18.55    0.76
   5  -6   9   16.43    1.07
  -6   6  -9   16.34    0.97
   6  -6   9   18.52    1.25
   6  -6   9   15.04    1.08
   7   5  -9   16.34    1.06
  -7  -5   9   16.87    1.24
   6   5  -9    9.41    0.86
   6   5  -9   10.58    1.00
  -6  -5   9    8.34    0.91
  -6  -5   9    7.76    0.99
   5   5  -9   19.47    0.94
  -5  -5   9   19.58    1.03
  -5  -5   9   17.86    1.43
   4   5  -9    7.62    0.71
  -4  -5   9    7.54    0.74
  -4  -5   9    6.97    0.85
  -4  -5   9    5.23    0.63
   3   5  -9   32.97    1.15
  -3  -5   9   34.89    1.26
  -3  -5   9   34.17    0.99
  -3  -5   9   32.63    1.16
  -3  -5   9   34.13    1.23
   2   5  -9    6.55    0.80
  -2  -5   9    5.53    0.67
  -2  -5   9    6.81    0.68
  -2  -5   9    6.50    0.65
  -2  -5   9    5.88    0.41
  -2  -5   9    6.21    0.44
  -1  -5   9   35.31    1.19
  -1  -5   9   34.80    1.22
  -1  -5   9   34.29    0.85
  -1  -5   9   34.13    1.14
   0  -5   9   11.24    0.38
   0  -5   9   10.33    0.70
   0  -5   9   10.73    0.38
   0  -5   9   10.03    0.72
   1  -5   9   30.15    1.08
   1  -5   9   30.56    1.10
   2  -5   9   11.22    0.75
   2  -5   9   10.79    0.40
   2  -5   9   10.00    0.72
  -3   5  -9   56.46    1.62
   3  -5   9   56.57    1.63
   3  -5   9   57.89    1.26
   3  -5   9   58.99    1.69
   3  -5   9   57.23    1.62
  -4   5  -9   39.50    1.37
  -4   5  -9   41.57    1.05
   4  -5   9   42.29    1.39
   4  -5   9   41.06    1.40
   4  -5   9   42.24    1.42
   4  -5   9   42.89    1.07
  -5   5  -9   32.31    0.96
   5  -5   9   32.00    1.24
   5  -5   9   31.09    1.27
  -6   5  -9   15.66    0.79
   6  -5   9   15.62    1.08
   6  -5   9   15.41    0.86
   6  -5   9   14.77    0.98
   7   4  -9   10.76    0.90
  -7  -4   9   10.78    1.10
  -7  -4   9    9.81    1.01
   6   4  -9    7.38    0.74
   6   4  -9    8.87    0.99
  -6  -4   9    8.20    0.83
  -6  -4   9    8.05    0.88
   5   4  -9   46.47    1.36
  -5  -4   9   45.32    1.47
  -5  -4   9   44.34    1.39
   4   4  -9    4.64    0.69
  -4  -4   9    4.75    0.82
  -4  -4   9    3.99    0.60
  -4  -4   9    5.87    0.66
   3   4  -9   36.15    1.34
  -3  -4   9   36.65    1.18
  -3  -4   9   36.36    1.06
  -3  -4   9   37.97    1.28
  -2  -4   9    1.05    0.28
  -2  -4   9    0.66    0.27
  -2  -4   9    0.97    0.37
  -2  -4   9    0.92    0.29
  -2  -4   9    1.52    0.25
  -1  -4   9  207.86    4.29
  -1  -4   9  212.74    4.25
  -1  -4   9  197.55    4.95
  -1  -4   9  213.48    4.01
  -1  -4   9  211.91    4.00
   0  -4   9   97.22    1.97
   0  -4   9   97.34    2.26
   0  -4   9   96.80    1.97
   0  -4   9   97.89    2.34
   1  -4   9  131.74    2.54
   1  -4   9  125.83    2.91
   1  -4   9  128.36    2.55
   1  -4   9  130.75    2.85
   2  -4   9   28.77    1.12
   2  -4   9   27.91    1.51
   2  -4   9   28.79    0.77
   2  -4   9   30.14    1.04
  -3   4  -9  113.36    2.34
  -3   4  -9  113.54    2.60
   3  -4   9  117.23    2.65
   3  -4   9  113.76    2.34
   3  -4   9  115.48    2.66
   3  -4   9  116.19    2.64
  -4   4  -9   71.92    1.63
  -4   4  -9   73.40    1.89
   4  -4   9   71.74    1.90
   4  -4   9   72.63    1.65
   4  -4   9   71.99    1.92
   4  -4   9   72.17    1.91
  -5   4  -9   23.74    0.82
  -5   4  -9   21.66    1.05
   5  -4   9   23.49    1.05
   5  -4   9   20.98    1.10
   5  -4   9   23.01    0.87
   5  -4   9   22.85    1.04
  -6   4  -9   53.92    1.57
   6  -4   9   57.22    1.74
   6  -4   9   54.05    1.53
   6  -4   9   52.35    1.67
  -7   4  -9   26.17    1.06
   7  -4   9   26.00    1.32
   7  -4   9   24.43    1.26
   7  -4   9   26.92    1.22
   7   3  -9   11.08    0.84
  -7  -3   9   12.06    1.11
  -7  -3   9   12.71    0.92
   6   3  -9    3.81    0.57
  -6  -3   9    5.51    0.72
  -6  -3   9    4.44    0.53
   5   3  -9   24.22    0.93
  -5  -3   9   24.94    1.13
  -5  -3   9   25.45    0.98
  -5  -3   9   21.31    1.13
   4   3  -9   23.58    0.89
  -4  -3   9   22.41    0.88
  -4  -3   9   23.14    1.05
  -4  -3   9   22.76    0.93
   3   3  -9   54.22    1.42
  -3  -3   9   54.86    1.56
  -3  -3   9   54.30    1.45
  -3  -3   9   56.30    1.42
  -2  -3   9   31.07    0.92
  -2  -3   9   31.29    1.07
  -2  -3   9   29.31    1.07
  -2  -3   9   30.94    1.00
  -1  -3   9  116.54    2.68
  -1  -3   9  114.35    2.37
  -1  -3   9  116.88    2.57
  -1  -3   9  112.72    2.51
  -1  -3   9  113.57    2.36
   0  -3   9   77.58    1.87
   0  -3   9   75.59    1.65
   0  -3   9   77.91    1.66
   0  -3   9   73.97    1.82
   1  -3   9  139.74    2.98
   1  -3   9  140.54    2.97
   1  -3   9  134.18    2.73
   2  -3   9   19.85    0.86
   2  -3   9   21.20    0.87
   2  -3   9   21.89    0.68
   2  -3   9   20.71    0.97
  -3   3  -9   61.18    1.43
  -3   3  -9   60.95    1.59
   3  -3   9   63.37    1.44
   3  -3   9   61.32    1.64
   3  -3   9   63.43    1.66
   3  -3   9   61.97    1.65
  -4   3  -9   39.59    1.23
  -4   3  -9   39.90    1.07
   4  -3   9   38.03    1.14
   4  -3   9   39.56    1.27
   4  -3   9   38.99    1.26
   4  -3   9   39.40    1.29
  -5   3  -9   20.07    0.78
  -5   3  -9   19.21    0.93
   5  -3   9   21.22    1.03
   5  -3   9   20.79    0.96
   5  -3   9   20.12    0.84
   5  -3   9   19.35    0.93
  -6   3  -9   34.01    1.28
  -6   3  -9   32.21    1.31
   6  -3   9   34.99    1.16
   6  -3   9   35.04    1.29
   6  -3   9   33.62    1.28
  -7   3  -9   49.28    1.45
   7  -3   9   47.97    1.55
   7  -3   9   49.54    1.65
   7  -3   9   47.82    1.63
   7   2  -9   33.00    1.11
   7   2  -9   33.13    1.49
  -7  -2   9   32.91    1.14
  -7  -2   9   34.79    1.52
   6   2  -9    0.60    0.27
   6   2  -9    0.39    0.36
   6   2  -9    0.24    0.42
  -6  -2   9    0.39    0.29
  -6  -2   9   -0.10    0.37
   5   2  -9   14.00    0.69
  -5  -2   9   13.54    0.92
  -5  -2   9   13.78    0.71
  -5  -2   9   13.79    0.86
   4   2  -9   22.05    0.81
  -4  -2   9   22.00    1.00
  -4  -2   9   23.26    0.94
  -4  -2   9   21.97    0.81
  -3  -2   9   33.14    1.01
  -3  -2   9   32.95    1.04
  -3  -2   9   34.50    1.14
  -2  -2   9    1.46    0.25
  -2  -2   9    1.12    0.24
  -2  -2   9    1.68    0.28
  -1  -2   9   94.83    2.13
  -1  -2   9   89.73    2.07
  -1  -2   9   93.92    2.02
  -1  -2   9   94.13    2.14
  -1  -2   9   92.18    2.01
   0  -2   9   86.96    1.99
   0  -2   9   85.99    1.88
   0  -2   9   88.83    2.01
   0  -2   9   86.51    1.88
   1  -2   9  216.81    4.27
   1  -2   9  202.64    4.11
   1  -2   9  214.83    4.26
   1  -2   9  218.63    4.28
  -2   2  -9    5.07    0.41
   2  -2   9    4.49    0.50
   2  -2   9    4.90    0.52
   2  -2   9    5.32    0.42
   2  -2   9    4.36    0.50
  -3   2  -9   99.97    2.15
  -3   2  -9  100.64    2.25
   3  -2   9  101.82    2.29
   3  -2   9  100.69    2.16
  -4   2  -9   29.75    1.01
  -4   2  -9   30.74    0.93
   4  -2   9   30.29    1.04
   4  -2   9   30.88    1.08
   4  -2   9   31.13    0.96
  -5   2  -9  239.27    4.86
  -5   2  -9  246.37    4.79
   5  -2   9  241.92    4.93
   5  -2   9  240.73    4.96
   5  -2   9  245.02    4.83
  -6   2  -9    0.74    0.28
  -6   2  -9    0.57    0.35
   6  -2   9    0.64    0.30
   6  -2   9    0.32    0.29
   6  -2   9    1.00    0.33
  -7   2  -9   52.62    1.53
   7  -2   9   52.82    1.68
   7  -2   9   52.42    1.64
   7  -2   9   51.56    1.61
  -8   2  -9   25.59    1.17
   8  -2   9   27.71    1.34
   8  -2   9   25.11    1.28
   7   1  -9   32.29    1.42
  -7  -1   9   32.23    1.48
   6   1  -9   -0.59    0.32
   6   1  -9    0.36    0.43
  -6  -1   9   -0.33    0.34
   5   1  -9   29.91    1.14
  -5  -1   9   29.46    1.18
  -5  -1   9   29.52    1.17
  -5  -1   9   29.63    0.91
  -4  -1   9    6.77    0.67
  -4  -1   9    7.30    0.50
  -4  -1   9    7.55    0.67
  -3  -1   9  109.30    2.48
  -3  -1   9  110.40    2.45
  -3  -1   9  108.92    2.32
  -2  -1   9    7.70    0.49
  -2  -1   9    7.41    0.52
  -2  -1   9    6.55    0.56
  -1  -1   9   97.70    2.21
  -1  -1   9  103.30    2.20
  -1  -1   9   99.92    2.22
  -1  -1   9  101.56    2.22
  -1  -1   9  100.42    2.18
   0  -1   9   39.73    1.13
   0  -1   9   41.85    1.15
   0  -1   9   41.01    1.12
   0  -1   9   40.90    1.11
   0  -1   9   41.53    1.09
   1  -1   9   81.01    1.87
   1  -1   9   81.20    1.85
   1  -1   9   80.36    1.79
   1  -1   9   82.02    1.87
  -2   1  -9   20.41    0.70
   2  -1   9   18.96    0.77
   2  -1   9   20.29    0.71
   2  -1   9   19.65    0.74
  -3   1  -9  145.88    2.99
  -3   1  -9  147.13    3.02
   3  -1   9  149.31    3.13
   3  -1   9  140.33    3.18
   3  -1   9  148.81    3.06
  -4   1  -9  110.89    2.43
  -4   1  -9  112.01    2.42
   4  -1   9  112.99    2.48
   4  -1   9  113.08    2.45
   4  -1   9  111.30    2.55
  -5   1  -9  173.07    3.56
  -5   1  -9  173.01    3.57
   5  -1   9  175.38    3.62
   5  -1   9  169.98    3.68
   5  -1   9  171.03    3.59
  -6   1  -9    7.16    0.66
  -6   1  -9    6.60    0.63
   6  -1   9    6.01    0.65
   6  -1   9    6.64    0.70
   6  -1   9    6.84    0.71
  -7   1  -9   79.37    2.14
  -7   1  -9   83.32    2.08
   7  -1   9   85.63    2.15
   7  -1   9   80.88    2.18
   7  -1   9   79.76    2.14
  -8   1  -9   12.05    0.92
   8  -1   9   11.27    1.00
   8  -1   9   11.51    0.98
   7   0  -9   21.65    1.22
  -7   0   9   21.78    1.34
   6   0  -9   -0.07    0.33
  -6   0   9    0.37    0.20
   5   0  -9   52.73    1.56
  -5   0   9   54.40    1.26
  -5   0   9   55.15    1.61
  -5   0   9   55.33    1.66
   4   0  -9   -0.05    0.34
  -4   0   9    0.04    0.35
  -4   0   9   -0.19    0.36
  -4   0   9   -0.16    0.16
  -3   0   9  135.71    2.88
  -3   0   9  128.14    2.69
  -3   0   9  136.57    2.93
  -2   0   9    4.37    0.48
  -2   0   9    4.40    0.41
  -2   0   9    4.45    0.48
  -1   0   9  115.15    2.34
  -1   0   9   99.59    2.87
  -1   0   9  113.36    2.41
  -1   0   9  112.14    2.32
  -1   0   9  113.48    2.37
   0   0   9   15.33    0.62
   0   0   9   15.91    0.64
   0   0   9   15.05    0.60
   0   0   9   14.40    0.73
   0   0   9   14.39    0.61
   1   0   9  147.03    3.03
   1   0   9  149.50    3.04
   1   0   9  146.49    2.99
  -2   0  -9    4.56    0.42
   2   0   9    4.28    0.46
   2   0   9    4.57    0.41
   2   0   9    4.60    0.45
  -3   0  -9   70.00    1.65
  -3   0  -9   69.78    1.59
   3   0   9   69.26    1.72
   3   0   9   69.89    1.68
   3   0   9   70.04    1.63
  -4   0  -9   12.61    0.59
  -4   0  -9   11.76    0.62
   4   0   9   13.98    0.62
   4   0   9   11.70    0.79
   4   0   9   12.14    0.67
  -5   0  -9   80.45    2.00
  -5   0  -9   83.42    1.89
   5   0   9   79.74    1.90
   5   0   9   79.03    1.96
   5   0   9   80.57    2.02
  -6   0  -9   14.75    0.77
  -6   0  -9   14.88    0.77
   6   0   9   15.19    0.84
   6   0   9   13.74    0.83
  -7   0  -9   39.99    1.31
  -7   0  -9   37.83    1.31
   7   0   9   38.48    1.37
   7   0   9   35.87    1.38
   7   0   9   41.09    1.31
  -8   0  -9   10.69    0.90
   8   0   9    9.58    0.88
   8   0   9    9.71    0.97
   7  -1  -9   15.96    1.10
  -7   1   9   17.66    1.28
   6  -1  -9    0.02    0.31
  -6   1   9    0.35    0.39
  -6   1   9   -0.14    0.43
   5  -1  -9   42.15    1.33
  -5   1   9   40.54    1.34
  -5   1   9   39.66    0.95
  -5   1   9   42.60    1.43
   4  -1  -9    8.25    0.77
  -4   1   9    7.80    0.67
  -4   1   9    8.54    0.40
  -4   1   9    7.41    0.73
  -4   1   9    8.03    0.42
   3  -1  -9  162.84    3.33
  -3   1   9  157.01    3.13
  -3   1   9  162.81    3.36
  -3   1   9  162.33    3.13
  -3   1   9  161.26    3.44
  -2   1   9    0.48    0.16
  -2   1   9    1.06    0.37
  -2   1   9    0.47    0.17
  -2   1   9    0.40    0.21
  -1   1   9  131.94    2.74
  -1   1   9  134.02    2.72
  -1   1   9  136.74    2.86
  -1   1   9  133.24    2.70
  -1   1   9  135.61    2.86
   0   1   9   22.66    0.70
   0   1   9   21.49    0.68
   0   1   9   20.82    0.71
   0   1   9   20.22    0.90
   1   1   9  145.85    2.80
   1   1   9  120.71    3.35
   1   1   9  144.88    2.88
   1   1   9  146.53    2.84
  -2  -1  -9   12.09    0.60
   2   1   9   13.06    0.61
   2   1   9   12.93    0.62
   2   1   9   13.91    0.53
  -3  -1  -9  275.58    5.26
  -3  -1  -9  278.06    5.41
   3   1   9  282.23    5.28
   3   1   9  276.20    5.43
   3   1   9  278.44    5.44
  -4  -1  -9   26.21    0.92
  -4  -1  -9   28.27    0.81
   4   1   9   27.38    0.97
   4   1   9   24.20    1.39
   4   1   9   28.57    0.84
  -5  -1  -9   66.46    1.71
  -5  -1  -9   66.14    1.54
  -5  -1  -9   62.40    1.75
   5   1   9   65.22    1.56
   5   1   9   64.11    1.70
   5   1   9   62.98    1.71
  -6  -1  -9    5.45    0.59
  -6  -1  -9    6.11    0.58
  -6  -1  -9    5.67    0.70
   6   1   9    5.27    0.55
   6   1   9    4.23    0.60
   6   1   9    5.79    0.67
  -7  -1  -9   46.78    1.40
  -7  -1  -9   46.96    1.49
   7   1   9   48.00    1.51
   7   1   9   49.14    1.85
   7   1   9   48.36    1.54
  -8  -1  -9    1.86    0.44
  -8  -1  -9    2.31    0.45
   8   1   9    2.79    0.43
   8   1   9    1.78    0.43
   7  -2  -9    5.31    0.90
  -7   2   9    3.96    0.63
   6  -2  -9   -0.04    0.31
  -6   2   9   -0.26    0.40
   5  -2  -9   12.50    0.79
  -5   2   9   12.98    0.91
  -5   2   9   13.04    0.83
   4  -2  -9    1.41    0.29
  -4   2   9    2.14    0.33
  -4   2   9    1.80    0.37
   3  -2  -9   41.70    1.17
  -3   2   9   39.87    1.77
  -3   2   9   42.14    1.18
  -3   2   9   41.19    0.94
  -2   2   9    5.45    0.37
  -2   2   9    4.32    0.53
  -2   2   9    5.68    0.36
  -2   2   9    5.71    0.46
  -2   2   9    5.74    0.54
  -1   2   9  181.39    3.49
  -1   2   9  178.35    3.69
  -1   2   9  179.78    3.50
  -1   2   9  178.93    3.53
  -1   2   9  181.12    3.71
   0   2   9    3.06    0.31
   0   2   9    3.04    0.32
   0   2   9    2.98    0.42
   0   2   9    2.79    0.36
   1   2   9   86.31    1.96
   1   2   9   82.68    1.85
   1   2   9   82.47    1.74
   1   2   9   82.36    1.73
  -2  -2  -9    0.33    0.19
   2   2   9    0.18    0.19
   2   2   9    0.40    0.14
  -3  -2  -9  447.28    8.45
  -3  -2  -9  462.13    8.43
   3   2   9  438.27    8.46
   3   2   9  447.94    8.44
   3   2   9  438.11    8.21
  -4  -2  -9   79.84    1.92
  -4  -2  -9   78.35    1.89
  -4  -2  -9   76.04    1.68
   4   2   9   78.98    1.94
   4   2   9   81.05    1.72
  -5  -2  -9  104.35    2.44
  -5  -2  -9  110.79    2.77
  -5  -2  -9  104.47    2.23
   5   2   9  105.28    2.47
   5   2   9  107.71    2.49
   5   2   9  106.64    2.26
  -6  -2  -9    3.87    0.57
  -6  -2  -9    2.14    0.34
  -6  -2  -9    3.21    0.48
   6   2   9    2.61    0.37
   6   2   9    3.37    0.46
   6   2   9    3.55    0.56
  -7  -2  -9   46.06    1.33
  -7  -2  -9   46.78    1.49
   7   2   9   47.68    1.51
   7   2   9   45.24    1.52
  -8  -2  -9   14.78    0.91
  -8  -2  -9   15.45    1.03
   8   2   9   13.53    0.85
   8   2   9   15.31    1.04
   7  -3  -9   11.02    1.01
  -7   3   9    8.45    1.19
   6  -3  -9    1.03    0.36
  -6   3   9   -0.05    0.48
  -6   3   9   -0.12    0.41
   5  -3  -9   28.39    1.08
  -5   3   9   30.55    1.26
  -5   3   9   27.65    1.10
   4  -3  -9    0.09    0.23
  -4   3   9   -0.02    0.28
  -4   3   9   -0.09    0.24
   3  -3  -9   86.87    1.97
  -3   3   9   85.77    2.19
  -3   3   9   87.10    1.98
   2  -3  -9    3.39    0.39
  -2   3   9    3.42    0.53
  -2   3   9    2.68    0.36
  -2   3   9    3.76    0.41
  -2   3   9    3.44    0.30
  -2   3   9    3.29    0.34
  -1   3   9  139.45    3.01
  -1   3   9  139.31    2.74
  -1   3   9  136.80    2.99
  -1   3   9  139.92    2.76
   0   3   9   13.92    0.47
   0   3   9   12.36    0.68
   0   3   9   12.92    0.55
   0   3   9   13.42    0.47
   1   3   9  242.71    4.57
   1   3   9  244.39    4.89
   1   3   9  243.32    4.56
   1   3   9  253.02    4.75
  -2  -3  -9    1.32    0.27
  -2  -3  -9    1.37    0.23
   2   3   9    1.54    0.29
   2   3   9    1.22    0.23
   2   3   9    1.65    0.23
   2   3   9    1.08    0.14
  -3  -3  -9  128.34    2.72
  -3  -3  -9  124.33    2.77
   3   3   9  125.90    2.46
   3   3   9  128.26    2.74
   3   3   9  129.44    2.82
  -4  -3  -9   13.35    1.09
  -4  -3  -9   17.70    0.77
  -4  -3  -9   16.49    0.53
   4   3   9   16.08    0.83
   4   3   9   16.90    0.92
   4   3   9   16.39    0.55
  -5  -3  -9  122.74    2.72
  -5  -3  -9  121.74    2.74
  -5  -3  -9  118.27    2.43
   5   3   9  121.36    2.78
   5   3   9  122.60    2.47
   5   3   9  119.49    2.73
  -6  -3  -9   11.73    0.79
  -6  -3  -9   12.43    0.75
  -6  -3  -9   12.75    0.78
   6   3   9   13.41    0.60
   6   3   9   11.67    0.78
   6   3   9   11.51    0.85
  -7  -3  -9   53.83    1.62
  -7  -3  -9   50.90    1.39
   7   3   9   54.13    1.64
   7   3   9   52.46    1.40
  -8  -3  -9    3.88    0.56
  -8  -3  -9    3.33    0.43
   8   3   9    4.40    0.55
   8   3   9    2.77    0.51
   7  -4  -9   31.47    1.40
   6  -4  -9    0.41    0.34
  -6   4   9    0.69    0.48
   5  -4  -9   23.66    1.03
  -5   4   9   23.76    1.08
  -5   4   9   26.70    1.23
   4  -4  -9    0.12    0.26
  -4   4   9   -0.43    0.25
  -4   4   9    0.13    0.32
   3  -4  -9   58.29    1.44
  -3   4   9   56.92    1.67
  -3   4   9   57.85    1.46
   2  -4  -9    0.07    0.17
  -2   4   9    0.12    0.24
  -2   4   9    0.04    0.12
  -2   4   9   -0.17    0.26
  -2   4   9    0.06    0.13
  -2   4   9    0.01    0.16
  -1   4   9   42.78    1.06
  -1   4   9   44.81    1.06
  -1   4   9   45.72    1.34
  -1   4   9   47.18    1.36
   0   4   9  100.48    2.00
   0   4   9  102.23    2.35
   0   4   9   99.12    1.98
   0   4   9  103.73    2.12
  -1  -4  -9  217.21    4.20
   1   4   9  214.49    3.96
   1   4   9  212.22    4.38
   1   4   9  219.25    4.21
  -2  -4  -9    1.09    0.22
  -2  -4  -9    0.81    0.25
   2   4   9    1.14    0.27
   2   4   9    1.20    0.22
  -3  -4  -9  147.08    3.03
  -3  -4  -9  139.74    3.41
   3   4   9  146.10    3.16
   3   4   9  146.22    3.05
  -4  -4  -9    0.34    0.25
  -4  -4  -9    0.62    0.25
   4   4   9    0.34    0.24
   4   4   9    0.41    0.12
   4   4   9    0.59    0.27
  -5  -4  -9  159.35    3.17
  -5  -4  -9  167.25    3.52
  -5  -4  -9  167.63    3.58
   5   4   9  169.81    3.64
   5   4   9  166.04    3.55
   5   4   9  165.72    3.20
  -6  -4  -9    4.38    0.65
  -6  -4  -9    4.96    0.69
  -6  -4  -9    4.40    0.42
   6   4   9    4.81    0.79
   6   4   9    4.35    0.64
   6   4   9    4.38    0.43
  -7  -4  -9   93.27    2.06
  -7  -4  -9   95.92    2.42
   7   4   9   94.84    2.09
   7   4   9   92.49    2.38
  -8  -4  -9    0.86    0.48
  -8  -4  -9    0.79    0.45
   8   4   9    0.71    0.59
   8   4   9    1.34    0.47
   6  -5  -9    0.36    0.36
  -6   5   9   -0.08    0.48
   5  -5  -9   43.73    1.41
  -5   5   9   46.71    1.63
  -5   5   9   46.90    1.47
   4  -5  -9    0.33    0.26
  -4   5   9    0.33    0.36
  -4   5   9    0.43    0.28
   3  -5  -9   31.28    0.97
  -3   5   9   30.06    0.97
  -3   5   9   31.35    1.21
  -3   5   9   30.82    1.18
   2  -5  -9    2.78    0.38
  -2   5   9    2.53    0.39
  -2   5   9    2.13    0.36
  -2   5   9    1.63    0.36
  -2   5   9    2.85    0.25
  -2   5   9    2.87    0.26
  -1   5   9  106.33    2.17
  -1   5   9  107.44    2.57
  -1   5   9  110.41    2.53
  -1   5   9  107.58    2.16
   0  -5  -9    4.57    0.37
   0   5   9    4.02    0.25
   0   5   9    5.56    0.58
   0   5   9    4.64    0.25
   0   5   9    3.94    0.40
   1   5   9   97.49    2.11
   1   5   9   97.80    2.31
  -2  -5  -9    0.52    0.20
  -2  -5  -9    0.43    0.45
   2   5   9    0.06    0.18
   2   5   9    0.03    0.22
  -3  -5  -9   76.91    1.85
  -3  -5  -9   80.08    2.04
   3   5   9   78.42    1.87
   3   5   9   79.43    2.00
  -4  -5  -9    1.90    0.34
  -4  -5  -9    1.94    0.30
   4   5   9    1.76    0.35
   4   5   9    2.11    0.31
  -5  -5  -9  107.91    2.56
  -5  -5  -9  108.41    2.50
   5   5   9  107.13    2.61
   5   5   9  107.42    2.52
  -6  -5  -9    0.39    0.18
  -6  -5  -9    0.04    0.29
   6   5   9    0.71    0.19
   6   5   9    0.76    0.32
  -7  -5  -9  114.58    2.42
  -7  -5  -9  119.36    2.87
   7   5   9  118.69    2.45
   7   5   9  116.86    2.83
  -8  -5  -9    1.13    0.49
   8   5   9    0.67    0.33
   8   5   9    0.39    0.45
   6  -6  -9    0.96    0.42
  -6   6   9    0.34    0.57
   5  -6  -9   23.65    1.06
  -5   6   9   22.79    1.09
  -5   6   9   25.05    1.29
   4  -6  -9    0.06    0.32
  -4   6   9    0.34    0.32
  -4   6   9    0.46    0.38
   3  -6  -9   34.37    1.02
  -3   6   9   33.03    1.28
  -3   6   9   34.40    1.30
  -3   6   9   31.37    1.01
   2  -6  -9    8.12    0.47
  -2   6   9    6.08    0.70
  -2   6   9    6.96    0.73
  -2   6   9    8.23    0.47
   1  -6  -9  243.79    4.71
  -1   6   9  254.01    4.75
  -1   6   9  258.53    5.18
  -1   6   9  262.85    5.17
  -1   6   9  244.25    4.72
   0  -6  -9   14.63    0.58
   0   6   9   15.67    0.82
   0   6   9   15.68    0.61
  -1  -6  -9   75.13    1.75
   1   6   9   78.08    1.76
   1   6   9   78.62    1.98
  -2  -6  -9    2.65    0.42
  -2  -6  -9    2.84    0.45
   2   6   9    2.53    0.42
   2   6   9    2.08    0.32
  -3  -6  -9  129.17    2.80
  -3  -6  -9  132.05    2.96
   3   6   9  129.88    2.98
  -4  -6  -9   20.54    0.88
  -4  -6  -9   20.87    0.93
   4   6   9   18.38    0.85
   4   6   9   20.53    0.99
  -5  -6  -9  128.85    2.95
  -5  -6  -9  136.86    3.06
   5   6   9  126.46    3.07
   5   6   9  135.39    2.99
  -6  -6  -9    0.42    0.33
   6   6   9   -0.16    0.29
  -7  -6  -9   81.47    2.25
   7   6   9   79.79    2.21
   7   6   9   82.84    1.75
   5  -7  -9   22.32    1.03
  -5   7   9   23.03    1.33
  -5   7   9   19.25    1.11
  -4   7   9    2.84    0.39
  -4   7   9    3.08    0.50
   3  -7  -9   31.26    0.99
  -3   7   9   31.06    1.00
  -3   7   9   32.35    1.45
  -3   7   9   31.90    1.30
   2  -7  -9    4.08    0.41
  -2   7   9    4.73    0.77
  -2   7   9    3.71    0.41
  -2   7   9    3.33    0.47
   1  -7  -9   98.50    2.09
   1  -7  -9  102.49    2.04
  -1   7   9  104.51    2.11
  -1   7   9  106.09    2.52
  -1   7   9  105.46    2.53
   0  -7  -9    7.03    0.46
   0   7   9    6.42    0.70
   0   7   9    6.32    0.46
  -1  -7  -9  122.49    2.54
   1   7   9  121.26    2.55
   1   7   9  117.52    2.79
  -2  -7  -9    1.72    0.28
   2   7   9    1.26    0.33
   2   7   9    1.12    0.25
  -3  -7  -9  177.85    3.83
  -3  -7  -9  174.84    3.64
   3   7   9  173.90    3.67
   3   7   9  177.52    3.84
  -4  -7  -9    0.52    0.29
  -4  -7  -9    0.18    0.29
   4   7   9    0.45    0.26
   4   7   9    0.88    0.36
  -5  -7  -9   86.53    2.53
  -5  -7  -9   89.82    2.31
   5   7   9   90.07    2.25
  -6  -7  -9   -0.65    0.34
   6   7   9   -0.21    0.32
  -7  -7  -9   84.52    2.35
   7   7   9   82.60    2.31
   5  -8  -9   17.40    1.02
  -5   8   9   16.06    1.11
  -5   8   9   16.32    1.32
   4  -8  -9    2.27    0.38
  -4   8   9    1.63    0.49
  -4   8   9    2.04    0.40
   3  -8  -9   13.02    0.71
  -3   8   9   12.70    0.71
  -3   8   9   11.88    0.98
   2  -8  -9    5.78    0.46
  -2   8   9    5.59    0.47
  -2   8   9    4.00    0.57
  -2   8   9    4.40    0.53
   1  -8  -9   51.11    1.22
   1  -8  -9   51.90    1.13
  -1   8   9   52.77    1.15
  -1   8   9   54.04    1.66
  -1   8   9   53.72    1.25
  -1   8   9   54.45    1.66
   0  -8  -9    0.25    0.39
   0   8   9    1.00    0.36
   0   8   9    0.42    0.20
  -1  -8  -9   42.94    1.20
   1   8   9   44.16    1.21
   1   8   9   41.96    1.43
  -2  -8  -9    8.21    0.64
   2   8   9    7.13    0.79
  -3  -8  -9  100.28    2.34
  -3  -8  -9  102.35    2.54
   3   8   9  102.22    2.36
   3   8   9   99.32    2.54
  -4  -8  -9    0.74    0.33
  -4  -8  -9   -0.21    0.44
   4   8   9    0.46    0.29
  -5  -8  -9   51.83    1.68
   5   8   9   53.67    1.62
  -6  -8  -9   -0.15    0.38
   6   8   9   -0.24    0.39
   4  -9  -9    1.12    0.41
  -4   9   9    0.48    0.51
   3  -9  -9   25.71    0.92
  -3   9   9   22.69    1.24
  -3   9   9   24.26    1.16
   2  -9  -9    3.21    0.46
  -2   9   9    2.85    0.50
  -2   9   9    4.16    0.46
   1  -9  -9   42.77    1.09
  -1   9   9   44.28    1.12
  -1   9   9   44.18    1.52
   0  -9  -9   17.19    0.74
   0   9   9   18.88    0.74
   0   9   9   17.15    1.07
  -1  -9  -9   27.50    0.98
   1   9   9   27.99    0.96
   1   9   9   23.91    1.20
  -2  -9  -9    1.89    0.36
   2   9   9    1.41    0.50
   2   9   9    1.84    0.34
  -3  -9  -9   86.97    2.30
  -3  -9  -9   84.52    2.14
   3   9   9   85.54    2.12
  -4  -9  -9    5.68    0.79
   4   9   9    6.15    0.71
  -5  -9  -9   58.85    1.87
   5   9   9   60.35    1.79
  -6  -9  -9   -0.43    0.43
   6   9   9   -0.10    0.43
  -3  10   9   26.85    1.46
  -2  10   9    0.82    0.45
   1 -10  -9   24.29    1.12
  -1  10   9   22.51    0.79
  -1  10   9   19.66    1.16
   0 -10  -9    1.45    0.34
   0  10   9    1.16    0.30
   0  10   9    1.52    0.44
  -1 -10  -9   29.05    1.11
   1  10   9   29.71    1.05
  -2 -10  -9    2.95    0.46
   2  10   9    2.40    0.38
  -3 -10  -9   63.22    2.32
   3  10   9   60.29    1.73
  -4 -10  -9    8.71    1.00
   4  10   9    9.37    0.86
  -5 -10  -9   39.16    1.60
   5  10   9   39.70    1.50
  -1  11   9   21.08    1.25
   0  11   9    5.33    0.62
   0  11   9    6.15    0.72
  -1 -11  -9   26.70    1.11
   1  11   9   26.06    1.06
  -2 -11  -9    6.01    0.94
   2  11   9    5.88    0.81
   3  11   9   72.91    2.01
  -2  -9  10    3.11    0.64
  -1  -9  10   18.18    1.23
   0  -9  10   12.83    1.11
   1  -9  10   16.04    1.23
   4   8 -10   13.29    1.16
   3   8 -10   20.05    1.20
  -3  -8  10   21.64    1.25
  -2  -8  10    6.18    0.94
  -1  -8  10   24.60    1.25
   0  -8  10   12.95    0.98
   1  -8  10   32.55    1.41
   2  -8  10    9.57    1.00
   3  -8  10   30.84    1.39
   3  -8  10   26.92    1.43
   5   7 -10    6.03    1.00
  -5  -7  10    5.07    0.83
  -5  -7  10    4.46    0.99
   4   7 -10    3.99    0.52
  -4  -7  10    3.44    0.54
  -4  -7  10    4.38    0.64
   3   7 -10   24.07    1.14
  -3  -7  10   23.64    0.74
  -3  -7  10   24.63    1.22
  -3  -7  10   23.71    0.77
  -2  -7  10    4.38    0.54
  -1  -7  10   20.95    1.08
   0  -7  10   14.95    0.95
   1  -7  10   47.03    1.59
   2  -7  10    2.89    0.46
   3  -7  10   64.47    2.02
   3  -7  10   65.91    1.93
   4  -7  10   39.63    1.53
   4  -7  10   40.52    1.61
   5   6 -10   20.15    1.11
  -5  -6  10   19.74    1.22
   4   6 -10    3.28    0.47
  -4  -6  10    2.93    0.39
  -4  -6  10    2.72    0.49
   3   6 -10   43.97    1.43
  -3  -6  10   40.68    1.10
  -3  -6  10   41.85    1.14
  -3  -6  10   39.12    1.47
  -3  -6  10   42.22    1.47
  -2  -6  10    4.40    0.42
  -2  -6  10    2.69    0.42
  -2  -6  10    4.38    0.37
  -2  -6  10    2.70    0.44
  -1  -6  10   23.61    1.08
  -1  -6  10   21.45    1.09
  -1  -6  10   25.27    1.12
   0  -6  10   48.69    1.57
   0  -6  10   53.63    1.64
   1  -6  10   32.37    1.25
   1  -6  10   31.82    1.25
   2  -6  10   27.71    1.19
   3  -6  10   45.36    1.58
   3  -6  10   46.75    1.50
   4  -6  10   18.60    0.72
   4  -6  10   16.58    1.05
   4  -6  10   15.70    1.00
  -5   6 -10   12.28    0.78
   5  -6  10   10.67    1.00
   5  -6  10   12.43    1.09
   6   5 -10    7.13    0.89
  -6  -5  10    7.93    1.32
   5   5 -10   15.52    0.94
  -5  -5  10   10.80    1.03
  -5  -5  10   13.25    1.33
   4   5 -10    0.29    0.31
  -4  -5  10   -0.21    0.32
  -4  -5  10   -0.21    0.35
   3   5 -10   86.29    2.10
  -3  -5  10   81.06    2.10
  -3  -5  10   78.67    2.21
  -3  -5  10   82.29    1.90
  -3  -5  10   83.47    2.20
  -2  -5  10   51.19    1.23
  -2  -5  10   50.61    1.56
  -2  -5  10   46.63    1.53
  -2  -5  10   48.33    1.49
  -2  -5  10   48.88    1.20
  -1  -5  10   23.16    1.00
  -1  -5  10   22.87    0.66
  -1  -5  10   22.47    1.03
  -1  -5  10   22.45    0.68
  -1  -5  10   22.59    1.01
   0  -5  10    9.06    0.60
   0  -5  10    9.97    0.73
   0  -5  10   10.08    0.75
   0  -5  10    9.11    0.42
   1  -5  10   19.24    0.94
   1  -5  10   18.60    0.54
   1  -5  10   18.92    0.54
   1  -5  10   18.90    0.92
   2  -5  10   10.81    0.76
   2  -5  10   12.50    0.46
   2  -5  10   11.72    0.80
   2  -5  10   11.33    0.80
  -3   5 -10   33.75    1.27
   3  -5  10   34.78    1.30
   3  -5  10   34.02    1.32
   3  -5  10   35.18    1.25
   3  -5  10   35.65    0.90
  -4   5 -10   20.50    0.75
   4  -5  10   19.54    1.06
   4  -5  10   19.07    1.00
   4  -5  10   21.47    0.73
  -5   5 -10   16.41    0.72
   5  -5  10   15.91    0.77
   5  -5  10   16.60    1.04
   5  -5  10   15.67    1.00
  -6   5 -10   21.35    0.92
   6  -5  10   18.37    1.16
   6  -5  10   21.68    1.26
   6   4 -10    1.42    0.39
  -6  -4  10    1.15    0.46
  -6  -4  10    1.63    0.49
   5   4 -10   14.91    0.88
  -5  -4  10   14.09    0.96
  -5  -4  10   14.99    0.96
   4   4 -10    1.23    0.34
  -4  -4  10    0.74    0.35
  -4  -4  10    0.98    0.34
  -4  -4  10    1.25    0.49
  -3  -4  10   49.09    1.55
  -3  -4  10   48.48    1.32
  -3  -4  10   47.42    1.43
  -3  -4  10   48.65    1.52
  -2  -4  10   16.65    0.69
  -2  -4  10   16.46    0.89
  -2  -4  10   16.30    0.67
  -2  -4  10   14.63    0.82
  -2  -4  10   18.54    0.90
  -1  -4  10   63.02    1.46
  -1  -4  10   60.15    1.40
  -1  -4  10   62.63    1.70
  -1  -4  10   60.98    1.69
  -1  -4  10   60.67    1.64
   0  -4  10   29.99    0.83
   0  -4  10   31.29    1.14
   0  -4  10   30.62    0.85
   0  -4  10   33.47    1.11
   1  -4  10  132.62    2.68
   1  -4  10  138.04    2.70
   1  -4  10  137.70    3.02
   1  -4  10  136.18    3.04
   2  -4  10    0.26    0.18
   2  -4  10    0.20    0.28
   2  -4  10    0.25    0.29
   2  -4  10   -0.09    0.22
  -3   4 -10   40.05    1.31
   3  -4  10   37.69    1.02
   3  -4  10   39.24    1.29
   3  -4  10   38.10    1.29
   3  -4  10   39.07    1.32
  -4   4 -10   36.14    1.01
  -4   4 -10   34.30    1.27
   4  -4  10   36.33    1.27
   4  -4  10   33.40    1.29
   4  -4  10   35.57    1.03
   4  -4  10   34.87    1.27
  -5   4 -10   36.18    1.09
   5  -4  10   36.69    1.36
   5  -4  10   35.70    1.13
   5  -4  10   37.06    1.35
  -6   4 -10   12.78    0.93
   6  -4  10   14.74    1.02
   6  -4  10   12.24    0.98
   6  -4  10   13.33    0.89
   7   3 -10   15.38    0.98
  -7  -3  10   14.08    1.29
   6   3 -10    0.67    0.34
  -6  -3  10   -0.25    0.37
  -6  -3  10    0.86    0.47
   5   3 -10   14.11    0.95
  -5  -3  10   13.03    0.92
  -5  -3  10   13.40    0.86
  -4  -3  10    5.92    0.71
  -4  -3  10    7.14    0.85
  -4  -3  10    6.51    0.67
  -3  -3  10   66.21    1.70
  -3  -3  10   67.59    1.83
  -3  -3  10   65.24    1.66
  -2  -3  10   -0.32    0.38
  -2  -3  10    0.12    0.21
  -2  -3  10    0.00    0.24
  -2  -3  10    0.13    0.27
  -2  -3  10    0.46    0.25
  -1  -3  10   99.60    2.15
  -1  -3  10  102.24    2.36
  -1  -3  10   99.36    2.14
  -1  -3  10  101.02    2.32
   0  -3  10   44.32    1.25
   0  -3  10   42.60    1.28
   0  -3  10   42.48    1.10
   0  -3  10   43.12    1.31
   1  -3  10  148.75    3.18
   1  -3  10  141.63    2.91
   1  -3  10  145.25    3.15
   1  -3  10  147.85    3.15
   2  -3  10    0.22    0.44
   2  -3  10    0.22    0.26
   2  -3  10    0.39    0.19
   2  -3  10    0.52    0.24
  -3   3 -10  150.77    3.12
  -3   3 -10  153.91    3.31
   3  -3  10  150.66    3.34
   3  -3  10  155.92    3.36
   3  -3  10  156.77    3.36
   3  -3  10  156.33    3.12
  -4   3 -10   66.02    1.57
  -4   3 -10   65.00    1.75
   4  -3  10   65.98    1.59
   4  -3  10   64.46    1.82
   4  -3  10   64.92    1.79
   4  -3  10   65.38    1.79
  -5   3 -10  105.58    2.35
  -5   3 -10  102.02    2.52
   5  -3  10  106.68    2.38
   5  -3  10  106.05    2.56
   5  -3  10  104.73    2.58
  -6   3 -10    1.36    0.33
   6  -3  10    1.11    0.36
   6  -3  10    1.30    0.37
   6  -3  10    1.17    0.38
  -7   3 -10   40.67    1.34
   7  -3  10   38.16    1.54
   7  -3  10   40.63    1.55
   7  -3  10   35.13    1.42
  -7  -2  10   18.10    1.37
  -6  -2  10   -0.58    0.39
  -6  -2  10    0.14    0.33
  -5  -2  10   17.98    0.85
  -5  -2  10   17.76    0.98
  -5  -2  10   17.25    1.28
  -4  -2  10    5.01    0.80
  -4  -2  10    4.85    0.56
  -4  -2  10    5.65    0.77
  -3  -2  10   50.25    1.36
  -3  -2  10   50.07    1.40
  -3  -2  10   50.39    1.48
  -2  -2  10    0.12    0.25
  -2  -2  10    0.15    0.22
  -2  -2  10    0.36    0.23
  -2  -2  10   -0.07    0.22
  -1  -2  10   91.25    2.12
  -1  -2  10   91.24    2.16
  -1  -2  10   93.93    2.05
  -1  -2  10   93.79    2.16
  -1  -2  10   93.03    2.05
   0  -2  10   13.51    0.60
   0  -2  10   12.18    0.67
   0  -2  10   12.97    0.70
   0  -2  10   13.40    0.70
   0  -2  10   14.66    0.71
   0  -2  10   14.00    0.72
   1  -2  10  145.00    3.07
   1  -2  10  143.38    2.93
   1  -2  10  145.23    3.06
   1  -2  10  140.79    3.06
   2  -2  10   34.70    0.98
   2  -2  10   33.76    1.11
   2  -2  10   34.73    1.17
   2  -2  10   33.96    1.13
  -3   2 -10  138.82    3.05
  -3   2 -10  143.88    2.96
   3  -2  10  141.70    3.09
   3  -2  10  145.00    3.14
   3  -2  10  145.82    3.14
  -4   2 -10   46.80    1.26
  -4   2 -10   44.68    1.34
   4  -2  10   45.87    1.41
   4  -2  10   46.23    1.44
   4  -2  10   45.33    1.27
  -5   2 -10  150.18    3.25
  -5   2 -10  151.86    3.17
   5  -2  10  146.95    3.34
   5  -2  10  149.91    3.29
   5  -2  10  148.00    3.18
  -6   2 -10    2.95    0.47
  -6   2 -10    4.15    0.61
   6  -2  10    4.76    0.72
   6  -2  10    3.44    0.45
   6  -2  10    3.12    0.43
  -7   2 -10   83.05    2.11
   7  -2  10   84.39    2.25
   7  -2  10   77.18    2.18
   7  -2  10   84.45    2.31
   7   1 -10   24.64    1.42
  -7  -1  10   23.82    1.46
   6   1 -10    0.45    0.39
  -6  -1  10   -0.09    0.28
  -6  -1  10    0.80    0.42
  -5  -1  10   22.78    0.88
  -5  -1  10   20.56    1.09
  -5  -1  10   23.11    1.08
  -4  -1  10    4.23    0.50
  -4  -1  10    4.83    0.65
  -4  -1  10    2.66    0.38
  -3  -1  10   42.13    1.20
  -3  -1  10   41.76    1.28
  -3  -1  10   43.34    1.35
  -2  -1  10    0.29    0.24
  -2  -1  10    0.40    0.24
  -2  -1  10    0.42    0.24
  -2  -1  10    0.42    0.20
  -1  -1  10   75.10    1.79
  -1  -1  10   74.44    1.75
  -1  -1  10   75.37    1.77
  -1  -1  10   73.81    1.74
  -1  -1  10   72.40    1.78
  -1  -1  10   75.09    1.76
   0  -1  10   -0.35    0.18
   0  -1  10    0.03    0.19
   0  -1  10   -0.01    0.19
   0  -1  10   -0.06    0.18
   0  -1  10   -0.22    0.21
   0  -1  10    0.34    0.19
   1  -1  10   71.48    1.72
   1  -1  10   74.10    1.78
   1  -1  10   72.88    1.74
   1  -1  10   72.47    1.76
   2  -1  10    0.66    0.23
   2  -1  10    0.72    0.26
   2  -1  10    0.44    0.23
  -3   1 -10   91.13    2.07
  -3   1 -10   91.95    2.06
   3  -1  10   88.84    2.06
   3  -1  10   92.51    2.26
   3  -1  10   92.91    2.11
  -4   1 -10    5.10    0.57
  -4   1 -10    5.32    0.53
   4  -1  10    5.30    0.55
   4  -1  10    5.74    0.56
   4  -1  10    4.32    0.59
  -5   1 -10   64.69    1.65
  -5   1 -10   55.99    2.07
   5  -1  10   64.32    1.68
   5  -1  10   64.13    1.77
   5  -1  10   65.22    1.76
  -6   1 -10    5.04    0.72
  -6   1 -10    5.06    0.63
   6  -1  10    5.45    0.69
   6  -1  10    4.73    0.70
   6  -1  10    4.81    0.72
  -7   1 -10   93.12    3.04
  -7   1 -10   89.34    2.29
   7  -1  10   89.37    2.34
   7  -1  10   98.14    2.78
   7  -1  10   91.56    2.44
   7   0 -10   20.08    1.30
  -7   0  10   20.17    1.44
   6   0 -10   -0.07    0.38
  -6   0  10   -0.12    0.31
   5   0 -10   28.30    1.13
  -5   0  10   26.50    1.20
  -5   0  10   26.59    1.18
  -5   0  10   28.00    0.93
  -4   0  10    0.35    0.31
  -4   0  10    0.36    0.20
  -4   0  10    0.37    0.31
  -3   0  10   61.08    1.60
  -3   0  10   56.66    1.69
  -3   0  10   58.88    1.41
  -2   0  10    0.63    0.26
  -2   0  10    0.73    0.20
  -2   0  10    0.27    0.25
  -2   0  10    0.43    0.20
  -2   0  10    0.40    0.26
  -1   0  10  155.39    3.07
  -1   0  10  154.35    3.12
  -1   0  10  130.12    3.51
  -1   0  10  155.23    3.16
  -1   0  10  156.26    3.17
  -1   0  10  148.32    3.10
   0   0  10    1.39    0.23
   0   0  10    1.66    0.26
   0   0  10    1.57    0.25
   0   0  10    1.95    0.31
   0   0  10    1.84    0.25
   1   0  10  138.01    2.92
   1   0  10  139.64    2.89
   1   0  10  140.88    2.94
   1   0  10  138.68    2.93
  -2   0 -10    1.43    0.25
   2   0  10    1.01    0.25
   2   0  10    1.08    0.25
   2   0  10    1.12    0.22
  -3   0 -10  116.96    2.54
   3   0  10  111.03    2.79
   3   0  10  117.83    2.56
   3   0  10  119.51    2.50
  -4   0 -10    6.29    0.56
  -4   0 -10    5.72    0.50
   4   0  10    5.98    0.58
   4   0  10    4.58    0.58
   4   0  10    5.69    0.50
  -5   0 -10   70.15    1.76
  -5   0 -10   68.85    1.70
   5   0  10   67.47    1.79
   5   0  10   67.30    1.85
   5   0  10   70.24    1.73
  -6   0 -10   -0.08    0.30
  -6   0 -10   -0.18    0.26
   6   0  10   -0.08    0.26
   6   0  10    0.04    0.34
   6   0  10    0.05    0.28
  -7   0 -10   41.59    1.45
  -7   0 -10   42.68    1.42
   7   0  10   42.05    1.50
   7   0  10   43.83    1.42
  -8   0 -10    3.71    0.54
   8   0  10    3.26    0.59
   8   0  10    2.99    0.49
   7  -1 -10   10.87    1.13
  -7   1  10   14.10    1.32
   6  -1 -10    0.54    0.37
  -6   1  10    0.41    0.45
   5  -1 -10   42.58    1.38
  -5   1  10   40.67    0.97
  -5   1  10   41.83    1.44
  -5   1  10   40.94    1.49
  -5   1  10   39.82    0.98
   4  -1 -10   -0.03    0.26
  -4   1  10    0.08    0.28
  -4   1  10    0.01    0.17
  -4   1  10    0.00    0.17
  -4   1  10    0.06    0.30
  -3   1  10  163.74    3.26
  -3   1  10  157.41    3.34
  -3   1  10  155.58    3.13
  -3   1  10  157.18    3.46
  -2   1  10    5.69    0.58
  -2   1  10    5.67    0.58
  -2   1  10    6.74    0.46
  -2   1  10    6.63    0.53
  -2   1  10    5.65    0.44
  -1   1  10   68.76    1.70
  -1   1  10   67.33    1.69
  -1   1  10   66.37    1.56
  -1   1  10   66.53    1.61
  -1   1  10   66.61    1.55
   0   1  10    1.36    0.27
   0   1  10    1.14    0.26
   0   1  10    1.36    0.23
   0   1  10    1.50    0.23
   0   1  10    1.66    0.23
   1   1  10  103.05    2.19
   1   1  10  103.02    2.31
   1   1  10  102.89    2.17
   1   1  10  102.95    2.26
  -2  -1 -10   23.08    0.86
   2   1  10   23.65    0.87
   2   1  10   24.23    0.77
   2   1  10   25.00    0.89
  -3  -1 -10   34.50    1.09
   3   1  10   36.10    1.12
   3   1  10   37.72    1.01
  -4  -1 -10    0.36    0.22
  -4  -1 -10    0.69    0.30
   4   1  10    0.58    0.25
   4   1  10    0.83    0.22
   4   1  10    0.63    0.28
  -5  -1 -10   34.89    1.17
  -5  -1 -10   36.31    1.06
   5   1  10   37.16    1.23
   5   1  10   35.88    1.23
   5   1  10   36.91    1.09
  -6  -1 -10    0.32    0.28
  -6  -1 -10    0.61    0.29
   6   1  10    0.25    0.29
   6   1  10   -0.09    0.34
   6   1  10   -0.35    0.24
  -7  -1 -10   51.56    1.59
  -7  -1 -10   52.33    1.51
   7   1  10   49.52    1.64
   7   1  10   52.46    1.53
  -8  -1 -10   -0.43    0.47
  -8  -1 -10   -0.13    0.41
   8   1  10    0.10    0.38
   8   1  10   -0.18    0.42
   7  -2 -10   10.90    1.12
  -7   2  10   13.54    1.67
   6  -2 -10   -0.12    0.35
  -6   2  10   -0.14    0.47
   5  -2 -10    8.37    0.75
  -5   2  10    8.39    0.92
  -5   2  10   10.20    0.84
   4  -2 -10    0.05    0.27
  -4   2  10    0.55    0.14
  -4   2  10    0.23    0.14
  -4   2  10    1.10    0.35
  -4   2  10    0.46    0.28
   3  -2 -10   68.21    1.68
  -3   2  10   66.53    1.45
  -3   2  10   66.89    1.44
  -3   2  10   68.55    1.70
  -3   2  10   66.08    1.83
  -2   2  10    0.04    0.26
  -2   2  10   -0.21    0.16
  -2   2  10    0.12    0.17
  -2   2  10   -0.09    0.21
  -1   2  10   92.46    2.19
  -1   2  10   93.60    2.02
  -1   2  10   93.08    2.20
  -1   2  10   91.38    1.99
  -1   2  10   94.45    1.99
   0   2  10   18.19    0.64
   0   2  10   19.23    0.64
   0   2  10   17.71    0.79
   0   2  10   18.32    0.68
   1   2  10  132.75    2.70
   1   2  10  136.48    2.73
   1   2  10  138.99    2.85
   1   2  10  137.03    2.96
  -2  -2 -10   19.28    0.85
   2   2  10   20.60    0.86
   2   2  10   22.38    0.67
   2   2  10   21.59    0.82
  -3  -2 -10  311.14    6.04
   3   2  10  315.70    5.79
   3   2  10  310.79    6.06
   3   2  10  294.34    6.17
  -4  -2 -10    5.18    0.40
  -4  -2 -10    5.25    0.57
  -4  -2 -10    5.68    0.61
   4   2  10    5.84    0.62
   4   2  10    5.57    0.43
   4   2  10    5.22    0.59
  -5  -2 -10  117.94    2.70
  -5  -2 -10  116.56    2.62
  -5  -2 -10  117.01    2.71
   5   2  10  120.31    2.50
   5   2  10  119.13    2.73
   5   2  10  119.11    2.75
  -6  -2 -10    0.79    0.31
  -6  -2 -10    1.55    0.30
   6   2  10    1.00    0.27
   6   2  10    1.26    0.42
   6   2  10    0.92    0.31
  -7  -2 -10   76.13    1.90
  -7  -2 -10   77.04    2.07
   7   2  10   76.23    2.10
  -8  -2 -10   11.00    1.01
  -8  -2 -10   10.45    0.92
   8   2  10    9.43    0.84
   8   2  10   10.15    1.04
   6  -3 -10    1.51    0.41
  -6   3  10    1.44    0.52
   5  -3 -10   19.90    0.99
  -5   3  10   20.37    1.03
  -5   3  10   20.69    1.16
   4  -3 -10    6.21    0.73
  -4   3  10    6.01    0.67
  -4   3  10    6.27    0.78
   3  -3 -10   35.16    1.08
  -3   3  10   34.39    1.07
  -3   3  10   34.48    1.26
  -3   3  10   34.60    0.81
  -3   3  10   33.64    0.81
  -2   3  10    0.25    0.16
  -2   3  10    0.16    0.28
  -2   3  10    0.42    0.26
  -1   3  10   85.98    1.84
  -1   3  10   85.73    2.09
  -1   3  10   84.92    2.44
  -1   3  10   85.87    1.84
  -1   3  10   83.64    1.83
   0   3  10   22.75    0.67
   0   3  10   22.83    0.76
   0   3  10   20.77    0.89
   0   3  10   22.52    0.67
   1   3  10  194.95    3.87
   1   3  10  194.42    4.02
   1   3  10  194.48    3.69
   1   3  10  192.99    3.69
  -2  -3 -10    4.07    0.55
   2   3  10    5.11    0.32
   2   3  10    4.61    0.56
   2   3  10    4.53    0.49
  -3  -3 -10  340.11    7.22
  -3  -3 -10  375.65    6.95
   3   3  10  357.72    7.20
   3   3  10  370.14    6.66
   3   3  10  362.62    7.05
  -4  -3 -10  126.24    2.84
  -4  -3 -10  124.94    2.78
   4   3  10  126.54    2.52
   4   3  10  127.30    2.83
   4   3  10  127.03    2.88
  -5  -3 -10  149.18    3.32
  -5  -3 -10  155.68    3.37
  -5  -3 -10  152.78    3.04
   5   3  10  152.77    3.41
   5   3  10  153.86    3.05
   5   3  10  155.62    3.37
  -6  -3 -10    3.49    0.46
   6   3  10    4.56    0.68
   6   3  10    4.49    0.65
   6   3  10    4.47    0.47
  -7  -3 -10   90.38    2.07
  -7  -3 -10   90.48    2.35
   7   3  10   89.18    2.36
   7   3  10   88.41    2.07
  -8  -3 -10    9.55    1.04
   8   3  10    9.37    1.21
   8   3  10    8.14    0.78
   6  -4 -10    0.44    0.37
  -6   4  10   -0.07    0.52
   5  -4 -10   24.85    1.07
  -5   4  10   25.82    1.27
  -5   4  10   25.13    1.16
   4  -4 -10   11.58    0.88
  -4   4  10   12.51    0.79
  -4   4  10    9.83    0.90
   3  -4 -10   25.04    0.91
  -3   4  10   24.56    0.90
  -3   4  10   24.54    1.09
  -3   4  10   26.13    1.09
  -2   4  10    1.20    0.22
  -2   4  10    0.78    0.31
  -2   4  10    0.59    0.32
  -2   4  10    1.52    0.18
  -2   4  10    1.22    0.17
  -1   4  10  114.73    2.33
  -1   4  10  116.45    2.77
  -1   4  10  111.62    2.33
  -1   4  10  114.03    2.63
   0   4  10    4.77    0.57
   0   4  10    4.15    0.31
   0   4  10    4.27    0.33
   0   4  10    4.36    0.43
  -1  -4 -10   35.13    1.02
   1   4  10   35.82    1.03
   1   4  10   35.69    0.80
   1   4  10   37.51    1.20
   1   4  10   35.18    0.80
  -2  -4 -10    5.43    0.50
  -2  -4 -10    5.22    0.56
   2   4  10    5.28    0.58
   2   4  10    4.42    0.50
  -3  -4 -10   87.99    2.17
  -3  -4 -10   89.61    2.08
   3   4  10   90.10    2.21
  -4  -4 -10   -0.05    0.26
   4   4  10    0.42    0.30
   4   4  10   -0.33    0.22
  -5  -4 -10   94.15    2.29
  -5  -4 -10   97.14    2.35
  -5  -4 -10   90.83    1.91
   5   4  10   95.03    1.93
   5   4  10   96.10    2.32
   5   4  10   93.50    2.38
  -6  -4 -10    7.32    0.73
  -6  -4 -10    7.34    0.49
   6   4  10    6.66    0.53
   6   4  10    5.52    0.72
  -7  -4 -10   89.31    2.01
  -7  -4 -10   92.00    2.39
   7   4  10   88.83    2.01
   7   4  10   90.23    2.39
   6  -5 -10    0.58    0.41
  -6   5  10    0.08    0.56
   5  -5 -10   24.44    1.09
  -5   5  10   22.84    1.29
  -5   5  10   24.32    1.16
   4  -5 -10    5.60    0.74
  -4   5  10    5.73    0.71
  -4   5  10    5.00    0.84
   3  -5 -10   64.94    1.58
  -3   5  10   63.24    1.87
  -3   5  10   65.60    1.60
  -3   5  10   58.80    1.81
   2  -5 -10    0.91    0.21
  -2   5  10    1.04    0.22
  -2   5  10    0.68    0.33
  -2   5  10    1.01    0.18
  -2   5  10    0.82    0.16
  -2   5  10    0.77    0.33
  -1   5  10  130.63    2.98
  -1   5  10  133.62    2.98
  -1   5  10  126.72    2.58
  -1   5  10  131.09    2.62
   0   5  10   55.23    1.33
   0   5  10   55.44    1.58
   0   5  10   54.02    1.14
   0   5  10   54.69    1.15
  -1  -5 -10   47.14    1.24
   1   5  10   47.70    1.24
   1   5  10   47.29    1.44
  -2  -5 -10   15.56    0.71
   2   5  10   15.75    0.83
   2   5  10   14.96    0.70
  -3  -5 -10  181.09    3.71
  -3  -5 -10  179.05    3.86
   3   5  10  179.09    3.78
   3   5  10  180.99    3.89
  -4  -5 -10   14.29    0.83
  -4  -5 -10   16.14    0.81
   4   5  10   15.87    0.81
  -5  -5 -10   72.74    1.96
  -5  -5 -10   70.63    1.90
   5   5  10   70.47    2.06
   5   5  10   75.32    1.94
  -6  -5 -10    0.71    0.32
  -6  -5 -10    0.82    0.20
   6   5  10    0.64    0.31
   6   5  10    1.21    0.19
  -7  -5 -10  108.87    2.76
   7   5  10  109.53    2.29
   7   5  10  107.82    2.74
   5  -6 -10   14.84    0.91
  -5   6  10   12.33    1.02
  -5   6  10   12.93    1.18
   4  -6 -10    0.88    0.32
  -4   6  10    0.48    0.33
  -4   6  10    0.24    0.40
   3  -6 -10   26.69    0.93
  -3   6  10   27.22    0.93
  -3   6  10   26.20    1.21
   2  -6 -10    3.56    0.43
  -2   6  10    3.31    0.42
  -2   6  10    3.25    0.48
  -2   6  10    2.35    0.42
  -1   6  10   94.62    2.34
  -1   6  10   92.09    1.92
  -1   6  10   93.44    2.31
  -1   6  10   87.78    1.86
   0  -6 -10    3.19    0.42
   0   6  10    2.59    0.39
   0   6  10    3.56    0.43
  -1  -6 -10   97.68    2.15
   1   6  10   98.81    2.16
   1   6  10   97.12    2.40
  -2  -6 -10    3.51    0.52
   2   6  10    2.27    0.30
   2   6  10    1.69    0.34
  -3  -6 -10  114.23    2.55
  -3  -6 -10  115.77    2.72
   3   6  10  114.46    2.61
   3   6  10  112.64    2.73
  -4  -6 -10    8.27    0.74
  -4  -6 -10    9.32    0.75
   4   6  10   10.06    0.85
   4   6  10    8.84    0.69
  -5  -6 -10   54.21    1.67
   5   6  10   54.64    1.62
  -6  -6 -10    7.35    0.84
   6   6  10    7.24    0.78
  -7  -6 -10   34.64    1.47
   7   6  10   35.18    1.46
   5  -7 -10   12.76    0.94
  -5   7  10   11.63    1.37
  -5   7  10    9.86    1.00
  -4   7  10    3.36    0.56
  -4   7  10    4.83    0.74
   3  -7 -10   14.11    0.72
  -3   7  10   12.67    1.02
  -3   7  10   13.45    0.72
   2  -7 -10    4.39    0.49
  -2   7  10    3.04    0.45
  -2   7  10    2.81    0.45
  -1   7  10   86.00    2.27
  -1   7  10   88.90    2.30
  -1   7  10   88.44    1.86
   0   7  10   10.27    0.83
   0   7  10   12.73    0.60
  -1  -7 -10   64.14    1.57
   1   7  10   66.18    1.58
   1   7  10   61.48    1.80
  -2  -7 -10    0.24    0.27
   2   7  10    0.72    0.35
  -3  -7 -10   62.48    1.81
  -3  -7 -10   60.84    1.64
   3   7  10   58.67    1.82
   3   7  10   62.58    1.65
  -4  -7 -10    6.90    1.02
  -4  -7 -10    7.93    0.76
   4   7  10    6.25    0.67
  -5  -7 -10   60.74    1.82
   5   7  10   60.45    1.76
  -6  -7 -10    7.47    0.90
   6   7  10    9.06    0.91
   4  -8 -10    0.66    0.42
  -4   8  10    1.06    0.52
   3  -8 -10   12.20    0.71
  -3   8  10   11.77    1.09
  -3   8  10   11.18    0.73
   2  -8 -10    0.95    0.24
  -2   8  10    1.12    0.24
  -2   8  10    1.18    0.40
   1  -8 -10   34.60    0.96
  -1   8  10   38.31    1.39
  -1   8  10   35.24    1.05
   0  -8 -10    1.44    0.27
   0   8  10    1.15    0.25
   0   8  10    1.46    0.58
  -1  -8 -10   23.04    0.91
   1   8  10   23.41    0.89
   1   8  10   22.91    1.17
  -2  -8 -10    5.18    0.66
   2   8  10    5.29    0.61
   2   8  10    4.55    0.92
  -3  -8 -10   74.71    1.92
  -3  -8 -10   74.41    2.10
   3   8  10   74.54    1.92
  -4  -8 -10    5.34    0.78
  -4  -8 -10    4.58    0.72
   4   8  10    3.22    0.43
  -5  -8 -10   43.26    1.57
   5   8  10   43.22    1.47
  -6  -8 -10    7.00    1.00
   6   8  10    7.13    0.95
   3  -9 -10    3.93    0.56
  -3   9  10    3.45    0.63
   2  -9 -10   29.77    0.86
  -2   9  10   27.92    1.36
   1  -9 -10    8.94    0.56
  -1   9  10    9.56    0.92
  -1   9  10   10.39    0.57
   0  -9 -10   18.26    0.80
   0   9  10   18.68    0.78
  -1  -9 -10   27.10    1.05
   1   9  10   27.72    1.19
  -2  -9 -10    9.49    0.81
   2   9  10   10.26    0.74
  -3  -9 -10  110.33    2.66
   3   9  10  115.20    2.65
  -4  -9 -10   13.25    1.04
   4   9  10   13.75    0.91
  -5  -9 -10   45.54    1.69
   5   9  10   43.48    1.56
  -2  10  10    4.56    0.65
  -1  10  10   57.01    1.92
   0 -10 -10   10.74    0.88
   0  10  10   11.55    0.73
   0  10  10    9.33    0.97
  -1 -10 -10   25.96    1.06
   1  10  10   27.48    1.16
  -2 -10 -10    5.09    0.85
   2  10  10    3.46    0.44
   3  10  10   92.47    2.33
  -4 -10 -10   13.47    1.18
   4  10  10   13.83    1.01
  -2  -8  11    0.85    0.48
  -1  -8  11   17.21    1.21
   0  -8  11    6.59    0.96
   1  -8  11   50.54    1.85
   2  -8  11   26.05    2.12
   4   7 -11   -0.11    0.45
  -3  -7  11   19.13    1.21
  -2  -7  11    2.37    0.49
  -1  -7  11   21.94    1.17
   0  -7  11    1.81    0.43
   1  -7  11   41.36    1.56
   2  -7  11    7.89    0.98
   3  -7  11   33.85    1.42
   3  -7  11   30.32    1.50
   5   6 -11   20.19    1.20
  -5  -6  11   18.34    1.10
   4   6 -11    3.99    0.51
  -4  -6  11    3.78    0.55
  -4  -6  11    4.38    0.48
  -3  -6  11   17.93    0.78
  -3  -6  11   16.62    0.76
  -3  -6  11   17.32    1.11
  -2  -6  11    7.62    0.56
  -2  -6  11    8.69    0.48
  -2  -6  11    9.16    0.89
  -1  -6  11   19.82    1.05
   0  -6  11   16.34    0.99
   1  -6  11   59.19    1.81
   2  -6  11    5.11    0.77
   2  -6  11    4.03    0.53
   3  -6  11   31.58    1.28
   3  -6  11   31.06    1.38
   4  -6  11   10.91    1.00
   4  -6  11   12.80    1.09
   5   5 -11    8.21    0.95
  -5  -5  11    6.08    0.92
  -4  -5  11    2.73    0.48
  -4  -5  11    2.81    0.42
  -4  -5  11    2.20    0.53
  -3  -5  11   23.72    0.92
  -3  -5  11   25.65    1.20
  -3  -5  11   21.71    1.13
  -3  -5  11   24.86    0.88
  -2  -5  11    2.59    0.43
  -2  -5  11    2.67    0.30
  -2  -5  11    1.63    0.44
  -2  -5  11    2.52    0.31
  -1  -5  11   19.20    0.99
  -1  -5  11   20.52    1.04
  -1  -5  11   21.58    0.70
  -1  -5  11   20.56    0.66
  -1  -5  11   17.89    1.03
   0  -5  11    7.32    0.78
   0  -5  11    7.26    0.78
   0  -5  11    7.83    0.45
   0  -5  11    8.44    0.43
   1  -5  11   35.16    0.89
   1  -5  11   34.74    1.34
   1  -5  11   36.76    0.90
   1  -5  11   36.91    1.33
   2  -5  11   -0.32    0.30
   2  -5  11    0.08    0.28
   2  -5  11    0.58    0.18
   3  -5  11   35.37    1.33
   3  -5  11   35.85    0.95
   3  -5  11   36.49    1.38
   4  -5  11   11.13    0.60
   4  -5  11   10.10    0.89
   4  -5  11    9.46    0.90
  -5   5 -11   32.85    1.05
   5  -5  11   31.58    1.42
   5  -5  11   34.15    1.42
  -6  -4  11   -0.70    0.49
  -6  -4  11   -0.29    0.49
  -5  -4  11    6.07    0.99
  -5  -4  11    6.31    0.90
  -4  -4  11    1.75    0.40
  -4  -4  11    2.02    0.49
  -3  -4  11   92.33    2.34
  -3  -4  11   90.12    2.12
  -3  -4  11   89.53    2.68
  -3  -4  11   87.22    2.09
  -3  -4  11   89.06    2.23
  -2  -4  11    6.75    0.79
  -2  -4  11    6.60    0.72
  -2  -4  11    8.23    0.59
  -2  -4  11    6.48    0.79
  -2  -4  11    7.69    0.75
  -1  -4  11   62.41    1.74
  -1  -4  11   61.11    1.46
  -1  -4  11   59.24    1.67
  -1  -4  11   60.88    1.74
  -1  -4  11   60.09    1.43
   0  -4  11    5.08    0.44
   0  -4  11    5.43    0.68
   0  -4  11    5.98    0.70
   0  -4  11    4.38    0.67
   0  -4  11    4.53    0.46
   1  -4  11  123.47    2.84
   1  -4  11  122.85    2.81
   1  -4  11  122.47    2.80
   1  -4  11  116.95    2.47
   1  -4  11  124.56    2.50
   2  -4  11   10.38    0.52
   2  -4  11    9.80    0.81
   2  -4  11    8.32    0.78
   2  -4  11   10.71    0.75
   3  -4  11   49.43    1.51
   3  -4  11   46.62    1.21
   3  -4  11   46.36    1.51
  -4   4 -11   38.11    1.87
  -4   4 -11   35.26    1.07
   4  -4  11   38.98    1.13
   4  -4  11   35.00    1.35
   4  -4  11   37.32    1.35
  -5   4 -11   97.48    2.22
   5  -4  11   97.35    2.53
   5  -4  11   95.00    2.52
   5  -4  11   98.36    2.24
  -6   4 -11    0.52    0.50
   6  -4  11    0.84    0.47
   6  -4  11    0.34    0.43
  -6  -3  11    0.18    0.45
  -6  -3  11   -0.36    0.46
  -5  -3  11   18.05    1.02
  -5  -3  11   17.53    1.06
  -4  -3  11    0.09    0.31
  -4  -3  11   -0.34    0.33
  -3  -3  11  102.45    2.35
  -3  -3  11   98.96    2.37
  -3  -3  11  102.06    2.50
  -2  -3  11    9.57    0.73
  -2  -3  11   10.64    0.64
  -2  -3  11    9.21    0.64
  -2  -3  11   10.01    0.78
  -2  -3  11    8.72    0.75
  -1  -3  11   61.62    1.67
  -1  -3  11   61.50    1.64
  -1  -3  11   60.73    1.48
  -1  -3  11   53.44    1.88
  -1  -3  11   62.09    1.67
   0  -3  11    9.04    0.54
   0  -3  11    7.65    0.71
   0  -3  11    8.51    0.69
   0  -3  11    8.73    0.69
   0  -3  11    8.65    0.52
   1  -3  11   64.85    1.73
   1  -3  11   64.50    1.73
   1  -3  11   65.88    1.52
   1  -3  11   61.36    1.49
   1  -3  11   63.29    1.70
   2  -3  11   12.07    0.60
   2  -3  11   11.72    0.79
   2  -3  11   11.05    0.78
   2  -3  11   11.66    0.76
   3  -3  11   62.16    1.73
   3  -3  11   65.06    1.74
   3  -3  11   58.70    1.67
   3  -3  11   61.56    1.75
  -4   3 -11   21.87    0.85
  -4   3 -11   21.29    1.06
   4  -3  11   21.84    1.02
   4  -3  11   23.76    1.06
   4  -3  11   23.69    0.89
  -5   3 -11   50.94    1.84
  -5   3 -11   50.19    1.45
   5  -3  11   51.55    1.48
   5  -3  11   51.06    1.62
   5  -3  11   51.30    1.64
  -6   3 -11   11.76    0.82
   6  -3  11   12.48    0.96
   6  -3  11   10.47    0.93
   6  -3  11    9.78    0.97
  -6  -2  11   -0.08    0.48
  -6  -2  11    0.02    0.52
  -5  -2  11    9.93    0.83
  -5  -2  11    9.63    0.91
  -4  -2  11    0.56    0.35
  -4  -2  11    1.07    0.39
  -4  -2  11   -0.14    0.28
  -3  -2  11   36.77    1.28
  -3  -2  11   38.96    1.32
  -3  -2  11   37.70    1.18
  -2  -2  11   -0.07    0.25
  -2  -2  11   -0.28    0.24
  -2  -2  11   -0.30    0.27
  -2  -2  11   -0.21    0.24
  -2  -2  11   -0.46    0.23
  -1  -2  11   89.73    2.02
  -1  -2  11   83.37    2.32
  -1  -2  11   90.53    2.14
  -1  -2  11   90.25    2.03
  -1  -2  11   88.53    2.10
   0  -2  11    0.74    0.27
   0  -2  11    0.77    0.23
   0  -2  11    1.20    0.29
   0  -2  11    0.85    0.29
   0  -2  11    1.39    0.34
   0  -2  11    0.76    0.27
   1  -2  11   79.18    1.95
   1  -2  11   78.18    1.94
   1  -2  11   78.92    1.96
   2  -2  11    1.36    0.30
   2  -2  11    1.14    0.30
   2  -2  11    0.68    0.28
  -3   2 -11  152.74    3.23
   3  -2  11  159.12    3.60
   3  -2  11  155.30    3.22
   3  -2  11  150.41    3.40
   3  -2  11  159.07    3.41
  -4   2 -11   -0.35    0.23
  -4   2 -11    0.43    0.31
   4  -2  11   -0.10    0.26
   4  -2  11    0.24    0.34
   4  -2  11    0.17    0.28
   4  -2  11    0.47    0.30
  -5   2 -11   60.32    1.75
  -5   2 -11   62.34    1.67
   5  -2  11   60.05    1.79
   5  -2  11   60.62    1.65
   5  -2  11   61.86    1.75
  -6   2 -11    5.89    0.70
   6  -2  11    6.33    0.84
   6  -2  11    5.07    0.80
   6  -2  11    5.05    0.85
  -7   2 -11   33.85    1.30
   7  -2  11   33.76    1.40
   7  -2  11   30.34    1.50
  -6  -1  11   -0.23    0.44
  -5  -1  11   12.35    0.75
  -5  -1  11   14.74    1.00
  -4  -1  11    0.42    0.26
  -4  -1  11   -0.44    0.30
  -4  -1  11    0.26    0.35
  -3  -1  11   46.07    1.41
  -3  -1  11   44.03    1.26
  -3  -1  11   43.66    1.41
  -2  -1  11   -0.36    0.22
  -2  -1  11   -0.08    0.25
  -2  -1  11   -0.03    0.25
  -2  -1  11   -0.08    0.26
  -1  -1  11   36.26    1.11
  -1  -1  11   37.08    1.11
  -1  -1  11   36.90    1.14
  -1  -1  11   35.35    1.08
  -1  -1  11   35.98    1.14
  -1  -1  11   36.82    1.12
   0  -1  11    3.01    0.48
   0  -1  11    3.21    0.44
   0  -1  11    3.05    0.51
   0  -1  11    3.09    0.52
   0  -1  11    3.61    0.47
   0  -1  11    2.71    0.33
   1  -1  11   71.35    1.75
   1  -1  11   70.72    1.78
   1  -1  11   69.84    1.70
   2  -1  11    1.63    0.30
   2  -1  11    1.86    0.31
   2  -1  11    2.08    0.29
   2  -1  11    1.84    0.29
  -3   1 -11  136.03    2.92
   3  -1  11  136.97    2.97
   3  -1  11  139.76    3.05
   3  -1  11  133.22    2.92
  -4   1 -11    5.62    0.63
  -4   1 -11    4.35    0.56
   4  -1  11    5.31    0.64
   4  -1  11    4.63    0.60
  -5   1 -11   88.77    2.13
  -5   1 -11   85.42    2.14
   5  -1  11   86.73    2.15
   5  -1  11   88.27    2.17
   5  -1  11   88.50    2.27
  -6   1 -11    0.66    0.33
  -6   1 -11    0.83    0.43
   6  -1  11   -0.14    0.33
   6  -1  11    0.31    0.32
   6  -1  11    0.21    0.40
  -7   1 -11   77.65    2.07
   7  -1  11   79.50    2.13
   7  -1  11   72.60    2.21
   6   0 -11    0.01    0.42
  -6   0  11   -0.37    0.28
  -6   0  11    0.06    0.47
  -5   0  11   20.67    0.78
  -5   0  11   20.42    0.78
  -5   0  11   22.46    1.20
  -4   0  11    0.07    0.33
  -4   0  11   -0.25    0.31
  -4   0  11   -0.25    0.21
  -4   0  11    0.12    0.24
  -3   0  11   27.96    1.26
  -3   0  11   25.43    1.02
  -3   0  11   26.79    0.86
  -3   0  11   23.37    1.00
  -2   0  11    4.73    0.47
  -2   0  11    4.68    0.50
  -2   0  11    4.43    0.61
  -2   0  11    4.30    0.59
  -2   0  11    4.73    0.61
  -1   0  11   77.48    1.80
  -1   0  11   77.04    1.89
  -1   0  11   78.07    1.81
  -1   0  11   76.74    1.83
  -1   0  11   76.61    1.85
  -1   0  11   76.03    1.87
   0   0  11    5.31    0.51
   0   0  11    5.59    0.54
   0   0  11    6.18    0.54
   0   0  11    5.62    0.51
   0   0  11    5.85    0.54
   0   0  11    5.66    0.50
   1   0  11   56.47    1.51
   1   0  11   58.05    1.53
   1   0  11   56.68    1.50
   1   0  11   59.66    1.47
   1   0  11   58.40    1.46
   2   0  11    0.21    0.24
   2   0  11    0.31    0.22
   2   0  11    0.55    0.26
  -3   0 -11   86.63    2.06
   3   0  11   88.34    2.13
   3   0  11   85.01    2.07
   3   0  11   87.97    2.02
  -4   0 -11    0.84    0.32
  -4   0 -11    0.81    0.28
   4   0  11    1.30    0.29
   4   0  11    1.16    0.33
   4   0  11    1.25    0.32
  -5   0 -11   52.37    1.49
  -5   0 -11   52.05    1.45
   5   0  11   51.20    1.53
   5   0  11   49.23    1.62
   5   0  11   50.98    1.58
  -6   0 -11    0.13    0.36
  -6   0 -11   -0.11    0.31
   6   0  11   -0.01    0.32
   6   0  11    0.38    0.40
   6   0  11   -0.04    0.29
  -7   0 -11   77.09    2.09
  -7   0 -11   73.64    2.05
   7   0  11   82.20    2.14
   7   0  11   76.88    2.23
   6  -1 -11   -0.64    0.40
  -6   1  11   -0.86    0.47
   5  -1 -11   38.38    1.35
  -5   1  11   35.06    1.40
  -5   1  11   35.35    1.45
  -5   1  11   34.02    0.91
  -5   1  11   35.70    0.92
  -4   1  11    0.21    0.32
  -4   1  11    0.34    0.21
  -4   1  11    0.57    0.21
  -4   1  11    0.06    0.34
  -3   1  11   65.91    1.73
  -3   1  11   66.65    1.84
  -3   1  11   67.78    1.52
  -3   1  11   63.47    1.52
  -2   1  11   -0.04    0.23
  -2   1  11   -0.16    0.25
  -2   1  11    0.17    0.20
  -2   1  11    0.33    0.29
  -2   1  11    0.13    0.19
  -1   1  11   52.90    1.33
  -1   1  11   51.86    1.35
  -1   1  11   51.66    1.33
  -1   1  11   52.85    1.36
  -1   1  11   51.59    1.46
  -1   1  11   51.64    1.46
   0   1  11    5.06    0.50
   0   1  11    3.79    0.48
   0   1  11    4.72    0.45
   0   1  11    4.89    0.54
   0   1  11    3.17    0.37
   1   1  11  227.85    4.66
   1   1  11  232.26    4.53
   1   1  11  236.60    4.52
   1   1  11  232.67    4.62
   2   1  11   -0.15    0.23
   2   1  11    0.08    0.19
   2   1  11    0.19    0.39
   3   1  11  130.39    2.69
   3   1  11  129.49    2.86
   3   1  11  123.59    2.83
  -4  -1 -11    3.25    0.54
   4   1  11    3.10    0.38
   4   1  11    3.11    0.45
   4   1  11    3.56    0.42
  -5  -1 -11   40.87    1.19
  -5  -1 -11   41.84    1.32
   5   1  11   41.27    1.21
   5   1  11   42.20    1.37
   5   1  11   41.40    1.39
  -6  -1 -11    0.50    0.33
  -6  -1 -11    0.66    0.35
   6   1  11    0.69    0.34
   6   1  11    0.58    0.54
   6   1  11    1.14    0.44
  -7  -1 -11   57.74    1.63
  -7  -1 -11   56.85    1.75
   7   1  11   55.91    1.83
   7   1  11   58.33    1.66
   6  -2 -11    0.20    0.41
  -6   2  11   -0.91    0.49
   5  -2 -11   15.83    0.96
  -5   2  11   13.75    1.03
  -5   2  11   13.25    1.08
   4  -2 -11    2.86    0.40
  -4   2  11    2.49    0.41
  -4   2  11    2.20    0.22
  -4   2  11    2.43    0.46
  -3   2  11   39.32    1.23
  -3   2  11   38.09    1.00
  -3   2  11   39.84    1.00
  -3   2  11   39.87    1.38
  -3   2  11   40.70    1.37
  -2   2  11    1.07    0.27
  -2   2  11    0.75    0.22
  -2   2  11    1.03    0.21
  -2   2  11    0.61    0.31
  -2   2  11    0.97    0.33
  -1   2  11   45.75    1.32
  -1   2  11   45.83    1.41
  -1   2  11   46.49    1.38
  -1   2  11   38.86    1.54
  -1   2  11   47.79    1.19
   0   2  11    0.57    0.28
   0   2  11    0.49    0.19
   0   2  11    0.51    0.20
   0   2  11    0.58    0.19
   1   2  11  215.23    4.22
   1   2  11  221.13    4.48
   1   2  11  220.88    4.37
   1   2  11  218.50    4.55
   2   2  11   28.02    0.83
   2   2  11   28.39    1.12
   2   2  11   27.53    1.01
   2   2  11   27.62    0.81
  -3  -2 -11   62.05    1.68
   3   2  11   64.31    1.45
   3   2  11   62.44    1.71
   3   2  11   61.79    1.66
  -4  -2 -11   -0.07    0.25
   4   2  11    0.09    0.19
   4   2  11   -0.40    0.30
   4   2  11    0.08    0.26
  -5  -2 -11   75.00    1.94
  -5  -2 -11   71.61    1.72
   5   2  11   73.99    2.00
   5   2  11   74.37    1.73
   5   2  11   73.34    1.97
  -6  -2 -11    0.38    0.33
  -6  -2 -11    0.63    0.31
   6   2  11    0.30    0.28
   6   2  11    0.65    0.32
  -7  -2 -11   76.79    1.90
  -7  -2 -11   75.67    2.12
   7   2  11   78.98    1.99
   7   2  11   76.03    2.19
   6  -3 -11    0.14    0.40
  -6   3  11    1.41    0.63
   5  -3 -11   17.86    0.98
  -5   3  11   15.05    1.04
  -5   3  11   17.57    1.19
   4  -3 -11   19.63    0.94
  -4   3  11   18.35    0.94
  -4   3  11   19.96    1.12
  -3   3  11   36.80    1.16
  -3   3  11   36.69    1.36
  -3   3  11   37.21    1.34
  -3   3  11   37.35    0.90
  -3   3  11   35.94    0.89
  -2   3  11   -0.17    0.18
  -2   3  11    0.18    0.22
  -2   3  11    0.39    0.18
  -2   3  11   -0.02    0.30
  -1   3  11  145.61    3.16
  -1   3  11  141.03    3.17
  -1   3  11  141.35    2.89
  -1   3  11  142.53    2.89
  -1   3  11  141.30    2.89
   0   3  11   33.66    0.92
   0   3  11   34.77    1.01
   0   3  11   34.34    0.95
   0   3  11   34.59    1.18
   1   3  11   30.71    0.82
   1   3  11   30.31    1.10
   1   3  11   30.77    0.82
   1   3  11   30.88    1.00
   2   3  11    0.48    0.25
   2   3  11    0.15    0.15
   2   3  11    0.42    0.15
   2   3  11    0.38    0.29
  -3  -3 -11  130.63    2.96
   3   3  11  130.91    2.59
   3   3  11  131.14    2.59
   3   3  11  130.41    2.99
   3   3  11  134.20    3.06
  -4  -3 -11    0.74    0.30
  -4  -3 -11    0.30    0.28
   4   3  11    0.10    0.33
   4   3  11    0.67    0.20
   4   3  11    0.90    0.31
  -5  -3 -11   72.43    2.25
  -5  -3 -11   78.37    2.03
  -5  -3 -11   74.69    1.68
   5   3  11   75.91    2.01
   5   3  11   77.18    1.69
   5   3  11   75.04    2.07
  -6  -3 -11    1.21    0.36
  -6  -3 -11    0.79    0.29
   6   3  11    0.86    0.26
   6   3  11    0.96    0.37
  -7  -3 -11  108.61    2.75
  -7  -3 -11  113.17    2.69
   7   3  11  107.93    2.79
   7   3  11  107.91    2.43
   6  -4 -11    1.28    0.45
   5  -4 -11   15.25    0.97
  -5   4  11   13.73    1.18
  -5   4  11   11.94    1.03
   4  -4 -11    5.88    0.70
  -4   4  11    5.81    0.89
  -4   4  11    5.60    0.73
   3  -4 -11   28.71    1.00
  -3   4  11   26.52    1.21
  -3   4  11   27.23    0.99
  -3   4  11   27.92    1.23
  -2   4  11    1.92    0.39
  -2   4  11    0.87    0.34
  -2   4  11    1.47    0.21
  -2   4  11    1.42    0.33
  -2   4  11    1.77    0.21
  -1   4  11  113.81    2.33
  -1   4  11  112.49    2.65
  -1   4  11  114.61    2.65
  -1   4  11  108.75    2.30
  -1   4  11  108.50    2.31
   0   4  11   17.85    0.58
   0   4  11   17.95    0.88
   0   4  11   17.65    0.72
   0   4  11   18.23    0.58
   1   4  11   40.34    0.92
   1   4  11   41.84    1.33
   1   4  11   39.53    0.92
   1   4  11   39.76    1.16
  -2  -4 -11   46.01    1.32
   2   4  11   46.33    1.31
   2   4  11   44.91    0.96
   2   4  11   43.82    1.40
  -3  -4 -11  202.54    4.15
  -3  -4 -11  200.76    4.27
   3   4  11  200.54    4.30
   3   4  11  205.14    4.17
  -4  -4 -11    4.77    0.66
  -4  -4 -11    5.23    0.64
   4   4  11    5.33    0.32
   4   4  11    5.31    0.76
   4   4  11    5.58    0.65
  -5  -4 -11   75.88    2.05
   5   4  11   75.55    1.60
   5   4  11   77.32    2.04
  -6  -4 -11    1.64    0.27
  -6  -4 -11    1.34    0.37
   6   4  11    1.50    0.39
   6   4  11    2.08    0.32
  -7  -4 -11  118.34    2.98
   7   4  11  117.81    2.97
   7   4  11  121.33    2.56
   5  -5 -11   13.25    0.95
  -5   5  11   12.23    1.19
  -5   5  11    9.14    1.06
   4  -5 -11   10.99    0.80
  -4   5  11    9.40    0.83
   3  -5 -11   23.04    0.91
  -3   5  11   23.21    0.93
  -3   5  11   25.28    1.20
  -2   5  11    7.96    0.41
  -2   5  11    8.53    0.84
  -2   5  11    7.77    0.57
  -2   5  11    8.27    0.81
  -2   5  11    8.13    0.43
  -1   5  11   44.51    1.44
  -1   5  11   44.23    1.13
  -1   5  11   41.92    1.07
  -1   5  11   47.07    1.46
   0   5  11   13.62    0.48
   0   5  11   13.43    0.45
   0   5  11   13.00    0.63
   0   5  11   14.18    0.85
   1   5  11   49.29    1.33
   1   5  11   50.70    1.54
  -2  -5 -11   15.84    0.78
   2   5  11   14.86    1.13
   2   5  11   16.72    1.01
  -3  -5 -11  120.59    2.69
  -3  -5 -11  122.62    2.85
   3   5  11  114.75    2.84
   3   5  11  121.12    2.70
  -4  -5 -11   19.52    0.95
  -4  -5 -11   18.66    0.96
   4   5  11   18.28    0.91
  -5  -5 -11   76.59    2.08
   5   5  11   75.34    2.03
  -6  -5 -11    1.13    0.43
   6   5  11    1.27    0.39
  -7  -5 -11   50.41    1.84
   7   5  11   54.22    1.90
   5  -6 -11    2.53    0.48
  -5   6  11    3.18    0.56
   4  -6 -11    6.71    0.78
  -4   6  11    4.91    0.79
  -4   6  11    6.40    1.01
   3  -6 -11   25.82    0.96
  -3   6  11   26.25    1.27
  -3   6  11   26.26    0.98
  -2   6  11    1.06    0.25
  -2   6  11    0.81    0.37
  -2   6  11    0.87    0.17
  -1   6  11   64.84    1.41
  -1   6  11   68.11    1.92
  -1   6  11   66.33    1.49
  -1   6  11   61.75    1.86
   0   6  11    9.84    0.58
   0   6  11    9.29    0.80
  -1  -6 -11   16.99    0.77
   1   6  11   16.76    0.76
   1   6  11   17.05    0.94
  -2  -6 -11   24.54    0.95
   2   6  11   25.07    1.10
   2   6  11   23.42    1.09
  -3  -6 -11   94.86    2.40
  -3  -6 -11   93.09    2.22
   3   6  11   87.33    2.43
   3   6  11   93.32    2.23
  -4  -6 -11   17.67    0.97
  -4  -6 -11   17.48    0.98
   4   6  11   18.05    0.92
  -5  -6 -11   50.19    1.66
   5   6  11   51.22    1.60
  -6  -6 -11    9.66    0.96
   6   6  11    6.66    0.88
   4  -7 -11    2.36    0.41
  -4   7  11    1.46    0.62
  -4   7  11    2.28    0.61
   3  -7 -11   17.17    0.82
  -3   7  11   16.59    0.82
  -3   7  11   17.53    1.19
  -2   7  11    3.61    0.45
  -2   7  11    3.35    0.49
  -1   7  11   29.50    1.11
  -1   7  11   29.25    1.25
   0  -7 -11   13.15    0.67
   0   7  11   12.09    0.64
  -1  -7 -11   46.35    1.33
   1   7  11   46.98    1.32
  -2  -7 -11   -0.34    0.30
   2   7  11    0.01    0.26
  -3  -7 -11   91.90    2.39
  -3  -7 -11   89.23    2.22
   3   7  11   92.24    2.23
  -4  -7 -11    2.33    0.42
   4   7  11    4.15    0.68
  -5  -7 -11   42.88    1.56
   5   7  11   44.44    1.50
  -6  -7 -11    6.86    1.01
   6   7  11    7.43    0.95
   3  -8 -11   11.90    0.82
  -3   8  11   11.48    1.22
  -2   8  11    9.19    0.99
  -1   8  11   25.07    1.22
  -1   8  11   23.55    0.95
   0  -8 -11    2.74    0.35
   0   8  11    3.49    0.53
  -1  -8 -11   36.44    1.20
   1   8  11   37.80    1.23
  -2  -8 -11    0.08    0.33
   2   8  11    0.09    0.30
  -3  -8 -11   45.95    1.54
   3   8  11   48.91    1.48
  -4  -8 -11   13.42    1.04
   4   8  11   14.16    0.92
  -5  -8 -11   35.99    1.51
   5   8  11   33.47    1.37
  -2   9  11    7.89    1.08
  -1   9  11   16.23    1.17
  -1   9  11   16.03    1.00
   0  -9 -11   23.87    0.95
   0   9  11   25.44    1.30
   0   9  11   24.94    0.92
  -1  -9 -11   25.78    1.07
   1   9  11   26.91    1.03
  -2  -9 -11    8.02    0.87
   2   9  11    7.43    0.77
   3   9  11   68.39    1.89
  -4  -9 -11   12.31    1.17
   4   9  11   11.58    0.96
   0  10  11   17.97    0.95
   0  10  11   18.89    1.27
  -1 -10 -11   18.20    1.51
   1  10  11   18.44    0.95
  -2 -10 -11   30.28    1.32
   2  10  11   33.99    1.27
  -2  -7  12    2.68    0.60
  -1  -7  12   24.32    1.34
   0  -7  12    0.13    0.41
   1  -7  12   62.27    2.07
   2  -7  12    7.25    1.10
   2  -7  12    9.64    1.24
  -3  -6  12   19.99    0.96
  -3  -6  12   22.30    1.31
  -2  -6  12    4.64    0.61
  -2  -6  12    4.86    0.54
  -1  -6  12   15.95    1.08
   0  -6  12    4.79    0.59
   1  -6  12   80.63    2.27
   2  -6  12    3.15    0.48
   2  -6  12    3.26    0.53
   3  -6  12   12.45    1.04
   3  -6  12   10.94    1.10
  -4  -5  12    3.08    0.55
  -4  -5  12    3.93    0.69
  -4  -5  12    2.99    0.48
  -3  -5  12   22.62    1.24
  -3  -5  12   20.46    0.91
  -3  -5  12   19.79    0.94
  -2  -5  12    1.07    0.31
  -2  -5  12    0.41    0.35
  -1  -5  12    7.12    0.50
  -1  -5  12    8.44    0.56
  -1  -5  12    7.35    0.86
   0  -5  12    0.73    0.38
   0  -5  12    0.75    0.22
   0  -5  12    0.59    0.36
   1  -5  12   25.06    0.76
   1  -5  12   25.40    0.74
   1  -5  12   25.48    1.16
   1  -5  12   24.40    1.12
   2  -5  12    4.99    0.75
   2  -5  12    3.56    0.43
   2  -5  12    2.70    0.44
   2  -5  12    2.91    0.47
   3  -5  12   43.59    1.58
   3  -5  12   40.99    1.50
   4  -5  12    9.11    0.95
   4  -5  12   10.09    1.02
  -5  -4  12   16.61    1.15
  -4  -4  12    0.26    0.44
  -4  -4  12    0.48    0.41
  -4  -4  12    0.20    0.41
  -3  -4  12   21.74    0.96
  -3  -4  12   19.47    1.09
  -3  -4  12   22.44    1.16
  -3  -4  12   22.66    1.01
  -2  -4  12   -0.07    0.26
  -2  -4  12   -0.28    0.27
  -2  -4  12   -0.03    0.35
  -2  -4  12   -0.27    0.32
  -1  -4  12   57.59    1.70
  -1  -4  12   56.03    1.42
  -1  -4  12   53.26    1.70
  -1  -4  12   52.33    1.64
   0  -4  12    2.78    0.47
   0  -4  12    2.75    0.41
   0  -4  12    2.37    0.29
   0  -4  12    2.57    0.42
   0  -4  12    3.11    0.48
   1  -4  12   44.59    1.15
   1  -4  12   44.14    1.43
   1  -4  12   43.51    1.16
   1  -4  12   43.43    1.45
   2  -4  12    3.67    0.48
   2  -4  12    4.41    0.50
   2  -4  12    4.39    0.74
   2  -4  12    2.78    0.44
   3  -4  12   48.25    1.58
   3  -4  12   44.75    1.50
   4  -4  12    2.01    0.44
   4  -4  12    1.83    0.43
   4  -4  12    2.60    0.40
  -5   4 -12   32.98    1.18
   5  -4  12   32.78    1.43
   5  -4  12   34.10    1.42
  -5  -3  12   12.85    1.09
  -5  -3  12   13.51    1.12
  -4  -3  12    3.68    0.51
  -4  -3  12    4.72    0.79
  -3  -3  12   66.64    1.84
  -3  -3  12   70.99    1.96
  -3  -3  12   69.08    1.79
  -3  -3  12   65.60    2.00
  -2  -3  12    4.81    0.61
  -2  -3  12    3.90    0.47
  -2  -3  12    4.20    0.65
  -2  -3  12    3.28    0.42
  -2  -3  12    3.00    0.46
  -1  -3  12   48.44    1.50
  -1  -3  12   48.72    1.33
  -1  -3  12   48.94    1.47
  -1  -3  12   46.95    1.30
  -1  -3  12   47.69    1.49
   0  -3  12    0.46    0.29
   0  -3  12    0.17    0.24
   0  -3  12    0.38    0.28
   0  -3  12    0.58    0.26
   0  -3  12    0.88    0.32
   0  -3  12    0.16    0.31
   1  -3  12   95.40    2.32
   1  -3  12   95.62    2.30
   1  -3  12   91.29    2.26
   1  -3  12   94.96    2.09
   1  -3  12   92.06    2.31
   2  -3  12    2.26    0.39
   2  -3  12    2.32    0.38
   2  -3  12    1.81    0.40
   2  -3  12    2.87    0.38
   3  -3  12   59.45    1.53
   3  -3  12   61.48    1.77
   3  -3  12   60.79    1.75
  -4   3 -12   -0.10    0.29
   4  -3  12    0.22    0.34
   4  -3  12    0.49    0.34
   4  -3  12   -0.21    0.33
  -5   3 -12   29.50    1.09
   5  -3  12   28.37    1.24
   5  -3  12   27.40    1.14
   5  -3  12   28.26    1.29
  -6   3 -12    0.16    0.37
   6  -3  12    0.32    0.44
  -5  -2  12    9.09    1.01
  -5  -2  12    8.95    0.93
  -4  -2  12    1.08    0.34
  -4  -2  12    1.30    0.41
  -3  -2  12   45.34    1.41
  -3  -2  12   44.23    1.54
  -3  -2  12   44.82    1.36
  -3  -2  12   43.73    1.42
  -2  -2  12    0.14    0.30
  -2  -2  12    0.43    0.32
  -2  -2  12    0.16    0.30
  -2  -2  12    0.78    0.30
  -2  -2  12    0.15    0.29
  -1  -2  12   61.25    1.63
  -1  -2  12   63.53    1.70
  -1  -2  12   60.05    1.66
  -1  -2  12   62.08    1.69
  -1  -2  12   59.72    1.59
  -1  -2  12   61.61    1.58
   0  -2  12    0.31    0.28
   0  -2  12    0.09    0.24
   0  -2  12    0.56    0.26
   0  -2  12   -0.43    0.27
   0  -2  12    0.48    0.25
   0  -2  12   -0.47    0.27
   1  -2  12   74.77    1.90
   1  -2  12   72.21    1.89
   1  -2  12   73.27    1.77
   1  -2  12   74.13    1.91
   2  -2  12    4.56    0.65
   2  -2  12    5.79    0.58
   2  -2  12    5.29    0.65
   2  -2  12    5.88    0.70
   3  -2  12   82.03    2.10
   3  -2  12   81.36    1.94
   3  -2  12   80.37    2.26
   3  -2  12   76.34    2.03
  -4   2 -12    0.58    0.56
   4  -2  12    1.77    0.37
   4  -2  12    1.10    0.34
   4  -2  12    1.07    0.34
  -5   2 -12   63.30    1.96
  -5   2 -12   73.62    1.86
   5  -2  12   70.50    1.95
   5  -2  12   70.24    2.02
   5  -2  12   69.83    1.87
  -6   2 -12    2.33    0.43
   6  -2  12    1.87    0.52
   6  -2  12    3.01    0.50
   6  -2  12    2.02    0.53
  -5  -1  12    6.41    0.99
  -5  -1  12    6.52    0.77
  -4  -1  12    1.84    0.39
  -4  -1  12    2.11    0.44
  -3  -1  12   36.07    1.29
  -3  -1  12   36.84    1.28
  -3  -1  12   34.39    1.28
  -3  -1  12   35.47    1.17
  -3  -1  12   36.04    1.14
  -2  -1  12    1.45    0.33
  -2  -1  12    1.04    0.34
  -2  -1  12    0.40    0.29
  -2  -1  12    0.93    0.27
  -2  -1  12    1.08    0.30
  -2  -1  12    0.28    0.29
  -1  -1  12   36.55    1.15
  -1  -1  12   36.28    1.16
  -1  -1  12   35.34    1.16
  -1  -1  12   34.75    1.17
  -1  -1  12   35.92    1.19
   0  -1  12    0.52    0.24
   0  -1  12    0.32    0.26
   0  -1  12   -0.23    0.25
   0  -1  12   -0.09    0.25
   0  -1  12   -0.01    0.23
   0  -1  12    0.26    0.28
   1  -1  12   49.53    1.38
   1  -1  12   46.27    1.32
   1  -1  12   47.77    1.40
   1  -1  12   46.61    1.39
   1  -1  12   47.20    1.36
   2  -1  12    1.20    0.30
   2  -1  12    1.65    0.37
   2  -1  12    0.82    0.29
   2  -1  12    0.91    0.30
   3  -1  12  111.36    2.55
   3  -1  12  107.75    2.43
   3  -1  12   92.94    3.05
   3  -1  12  107.61    2.55
  -4   1 -12   -0.03    0.28
   4  -1  12    0.23    0.32
   4  -1  12    0.32    0.32
   4  -1  12    0.37    0.30
  -5   1 -12   72.97    1.90
  -5   1 -12   72.02    1.95
   5  -1  12   71.66    1.92
   5  -1  12   71.20    1.93
   5  -1  12   72.69    2.04
  -6   1 -12    6.65    0.81
  -6   1 -12    4.44    0.57
   6  -1  12    6.12    1.00
   6  -1  12    6.15    0.82
   6  -1  12    6.96    0.93
  -6   0  12   -0.02    0.57
  -5   0  12   10.82    0.66
  -5   0  12    9.08    1.07
  -4   0  12    3.90    0.54
  -4   0  12    3.92    0.55
  -4   0  12    4.40    0.56
  -3   0  12   26.83    0.96
  -3   0  12   28.99    1.14
  -3   0  12   28.51    0.95
  -3   0  12   27.01    1.14
  -3   0  12   27.19    1.16
  -2   0  12    0.79    0.27
  -2   0  12    0.00    0.30
  -2   0  12    0.49    0.25
  -2   0  12   -0.02    0.31
  -2   0  12    0.15    0.30
  -1   0  12   35.55    1.14
  -1   0  12   36.11    1.11
  -1   0  12   36.70    1.50
  -1   0  12   36.47    1.16
  -1   0  12   37.20    1.13
  -1   0  12   35.00    1.17
   0   0  12   -0.07    0.22
   0   0  12   -0.02    0.23
   0   0  12    0.17    0.25
   0   0  12   -0.14    0.26
   0   0  12   -0.15    0.26
   0   0  12    0.00    0.26
   1   0  12  121.87    2.70
   1   0  12  119.71    2.71
   1   0  12  121.90    2.65
   1   0  12  120.51    2.63
   1   0  12  124.17    2.72
   2   0  12    0.50    0.26
   2   0  12    0.35    0.26
   2   0  12    0.25    0.28
   2   0  12    0.76    0.29
  -3   0 -12   83.42    2.09
   3   0  12   84.14    2.12
   3   0  12   84.71    2.09
   3   0  12   83.15    2.00
  -4   0 -12    0.63    0.30
   4   0  12    1.21    0.34
   4   0  12    0.98    0.33
   4   0  12    0.86    0.29
  -5   0 -12   65.80    1.77
  -5   0 -12   66.77    1.81
   5   0  12   67.33    1.78
   5   0  12   64.98    1.91
   5   0  12   67.09    1.87
  -6   0 -12    0.50    0.42
  -6   0 -12    0.41    0.38
   6   0  12    0.67    0.35
   6   0  12    0.26    0.39
  -5   1  12   36.72    1.57
  -5   1  12   38.69    1.04
  -4   1  12    2.04    0.44
  -4   1  12    3.18    0.48
  -4   1  12    2.59    0.49
  -3   1  12   18.76    0.75
  -3   1  12   19.38    1.03
  -3   1  12   17.46    0.91
  -3   1  12   18.36    1.00
  -2   1  12    0.82    0.25
  -2   1  12    0.69    0.32
  -2   1  12    0.47    0.29
  -2   1  12    1.02    0.35
  -2   1  12    0.20    0.23
  -1   1  12   49.76    1.34
  -1   1  12   49.90    1.36
  -1   1  12   50.42    1.34
  -1   1  12   49.28    1.52
  -1   1  12   49.96    1.37
  -1   1  12   49.80    1.46
   0   1  12    0.75    0.28
   0   1  12    0.30    0.23
   0   1  12    0.28    0.27
   0   1  12    0.39    0.25
   0   1  12   -0.20    0.21
   0   1  12    0.26    0.22
   1   1  12   26.79    1.00
   1   1  12   27.04    0.90
   1   1  12   27.43    0.89
   1   1  12   27.84    1.03
   1   1  12   24.53    1.13
   2   1  12    0.62    0.28
   2   1  12    0.62    0.23
   2   1  12    0.21    0.24
   2   1  12    0.17    0.21
  -3  -1 -12   38.82    1.29
   3   1  12   38.46    1.29
   3   1  12   38.25    1.26
   3   1  12   38.93    1.12
  -4  -1 -12    0.22    0.28
   4   1  12   -0.15    0.32
   4   1  12    0.03    0.23
   4   1  12    0.42    0.29
  -5  -1 -12   50.08    1.69
  -5  -1 -12   50.86    1.43
   5   1  12   50.73    1.42
   5   1  12   50.14    1.61
   5   1  12   47.55    1.59
  -6  -1 -12    4.07    0.47
  -6  -1 -12    4.51    0.76
   6   1  12    3.48    0.44
   6   1  12    2.77    0.45
  -7  -1 -12   89.52    2.42
  -7  -1 -12   90.06    2.62
   7   1  12   91.27    2.32
  -5   2  12   19.60    1.33
  -4   2  12    1.31    0.23
  -4   2  12    1.38    0.41
  -4   2  12    1.29    0.22
  -4   2  12    1.19    0.44
  -3   2  12   17.71    1.03
  -3   2  12   19.18    0.92
  -3   2  12   20.05    0.89
  -3   2  12   17.78    1.03
  -3   2  12   19.32    0.71
  -2   2  12    0.24    0.30
  -2   2  12   -0.46    0.26
  -2   2  12   -0.06    0.33
  -2   2  12    0.13    0.21
  -1   2  12   74.95    1.77
  -1   2  12   74.01    1.75
  -1   2  12   73.18    1.96
  -1   2  12   76.21    1.77
  -1   2  12   76.11    1.76
  -1   2  12   73.92    1.94
   0   2  12   65.79    1.75
   0   2  12   64.71    1.60
   0   2  12   66.32    1.62
   0   2  12   57.04    1.97
   0   2  12   64.08    1.54
   1   2  12   45.38    1.41
   1   2  12   46.38    1.21
   1   2  12   46.18    1.19
   1   2  12   47.65    1.46
   2   2  12   17.70    0.68
   2   2  12   18.69    0.88
   2   2  12   17.10    0.67
   2   2  12   17.12    0.88
  -3  -2 -12  111.09    2.66
   3   2  12  113.30    2.68
   3   2  12  115.49    2.40
   3   2  12  114.95    2.65
  -4  -2 -12   18.61    0.92
   4   2  12   18.69    0.95
   4   2  12   17.22    1.05
   4   2  12   18.22    0.73
  -5  -2 -12   51.80    1.59
   5   2  12   49.83    1.60
   5   2  12   49.76    1.93
   5   2  12   50.72    1.35
  -6  -2 -12    0.08    0.35
  -6  -2 -12    0.14    0.35
   6   2  12    0.90    0.35
   6   2  12    0.53    0.37
  -7  -2 -12  109.30    2.79
   7   2  12  108.80    2.52
   5  -3 -12    8.33    0.90
  -5   3  12    7.58    1.17
  -4   3  12    9.34    0.88
  -4   3  12   10.29    1.03
  -3   3  12   40.62    1.01
  -3   3  12   39.03    1.27
  -3   3  12   44.53    1.53
  -3   3  12   39.43    1.01
  -2   3  12    0.15    0.21
  -2   3  12    0.53    0.36
  -2   3  12    0.72    0.34
  -2   3  12    0.37    0.27
  -2   3  12    0.67    0.21
  -1   3  12   67.36    1.86
  -1   3  12   67.10    1.85
  -1   3  12   66.47    1.60
  -1   3  12   67.53    1.60
  -1   3  12   67.49    1.60
   0   3  12   62.69    1.46
   0   3  12   62.57    1.57
   0   3  12   62.28    1.76
   0   3  12   63.02    1.47
   1   3  12  214.23    4.12
   1   3  12  215.16    4.12
   1   3  12  216.74    4.33
   1   3  12  210.06    4.47
   2   3  12   14.76    0.87
   2   3  12   14.63    0.56
   2   3  12   13.77    0.77
   2   3  12   14.07    0.57
  -3  -3 -12  161.76    3.58
   3   3  12  162.76    3.17
   3   3  12  160.35    3.17
   3   3  12  161.89    3.60
   3   3  12  164.07    3.50
  -4  -3 -12    2.06    0.38
   4   3  12    2.17    0.47
   4   3  12    2.15    0.38
   4   3  12    2.55    0.41
  -5  -3 -12   68.22    1.91
   5   3  12   65.96    1.90
   5   3  12   66.65    1.55
  -6  -3 -12    0.01    0.32
  -6  -3 -12    0.56    0.40
   6   3  12    0.26    0.26
   6   3  12   -0.48    0.35
  -7  -3 -12   48.85    1.75
   5  -4 -12    7.81    0.92
  -5   4  12    5.79    0.77
   4  -4 -12   11.94    0.85
  -4   4  12   12.82    1.13
  -4   4  12   10.88    0.93
  -3   4  12   21.28    0.94
  -3   4  12   21.58    1.18
  -2   4  12    1.29    0.22
  -2   4  12    0.72    0.37
  -2   4  12    0.90    0.22
  -2   4  12    1.63    0.69
  -2   4  12    0.74    0.28
  -1   4  12   43.07    1.43
  -1   4  12   43.45    1.46
  -1   4  12   43.23    1.13
  -1   4  12   44.22    1.17
  -1   4  12   44.49    1.15
   0   4  12    6.80    0.42
   0   4  12    6.86    0.74
   0   4  12    6.59    0.42
   0   4  12    6.18    0.60
   1   4  12   49.94    1.13
   1   4  12   50.30    1.12
   1   4  12   50.58    1.41
   1   4  12   49.72    1.55
   2   4  12    1.82    0.27
   2   4  12    1.50    0.31
   2   4  12    0.83    0.35
   2   4  12    2.07    0.27
  -3  -4 -12   44.59    1.46
   3   4  12   42.47    1.34
   3   4  12   42.98    0.94
   3   4  12   41.35    1.47
  -4  -4 -12    1.68    0.41
  -4  -4 -12    1.83    0.38
   4   4  12    2.39    0.30
   4   4  12    1.88    0.38
  -5  -4 -12   35.87    1.37
   5   4  12   35.72    1.34
   5   4  12   35.19    0.89
  -6  -4 -12   14.19    1.07
   6   4  12   16.50    0.72
   6   4  12   16.36    1.09
   4  -5 -12    5.02    0.75
  -4   5  12    4.57    0.53
  -4   5  12    3.43    0.59
  -3   5  12   13.27    0.82
  -3   5  12   14.67    1.09
  -2   5  12    3.60    0.42
  -2   5  12    5.47    0.42
  -2   5  12    5.16    0.81
  -2   5  12    3.97    0.54
  -1   5  12   17.74    0.68
  -1   5  12   19.45    0.73
  -1   5  12   18.04    0.66
  -1   5  12   20.06    1.04
  -1   5  12   18.01    0.70
   0   5  12   28.92    1.24
   0   5  12   31.36    0.98
   0   5  12   29.60    0.83
   0   5  12   30.40    0.77
   1   5  12   20.38    0.87
   1   5  12   19.34    1.04
   2   5  12   24.64    1.16
   2   5  12   25.81    1.12
  -3  -5 -12   80.90    2.20
  -3  -5 -12   82.66    2.10
   3   5  12   84.05    2.08
  -4  -5 -12   13.20    0.91
   4   5  12   13.03    0.85
  -5  -5 -12   35.80    1.39
   5   5  12   34.98    1.34
  -6  -5 -12   20.79    1.20
   6   5  12   21.27    1.21
   4  -6 -12    3.03    0.45
  -4   6  12    2.24    0.69
  -3   6  12   13.86    0.87
  -3   6  12   14.37    1.19
  -2   6  12   14.11    1.03
  -2   6  12   13.13    0.50
  -2   6  12   12.32    0.51
  -2   6  12   13.72    0.82
  -1   6  12   21.28    0.67
  -1   6  12   20.60    0.66
  -1   6  12   21.89    1.11
  -1   6  12   21.86    0.77
   0   6  12    8.45    0.61
   1   6  12   19.84    0.89
  -2  -6 -12   10.63    0.79
   2   6  12   10.98    0.75
  -3  -6 -12   45.69    1.48
   3   6  12   47.90    1.46
  -4  -6 -12   28.00    1.26
   4   6  12   29.48    1.18
  -5  -6 -12   45.42    1.63
   5   6  12   43.99    1.54
  -6  -6 -12    5.10    0.99
   6   6  12    4.87    0.58
  -3   7  12   17.45    1.33
  -2   7  12    9.12    1.00
  -1   7  12   19.56    0.73
  -1   7  12   21.03    1.16
   0   7  12    4.74    0.58
  -1  -7 -12   18.04    0.93
   1   7  12   14.99    1.26
  -2  -7 -12   10.03    0.84
   2   7  12    9.65    0.74
  -3  -7 -12   76.27    2.09
   3   7  12   80.83    2.06
  -4  -7 -12   24.71    1.27
   4   7  12   23.96    1.12
  -5  -7 -12   31.17    1.46
   5   7  12   33.54    1.37
  -2   8  12    1.09    0.52
  -1   8  12   34.08    1.04
  -1   8  12   33.23    1.51
   0   8  12   11.74    1.06
   0   8  12   10.61    0.71
  -1  -8 -12   18.94    0.98
   1   8  12   20.34    0.94
  -2  -8 -12    8.56    0.91
   2   8  12   10.00    0.79
   3   8  12   40.53    1.40
  -4  -8 -12    8.87    1.10
   4   8  12   11.60    0.94
  -1   9  12    6.56    1.18
   0   9  12   24.14    1.34
   0   9  12   23.61    0.96
  -1  -9 -12   42.77    1.39
   1   9  12   44.62    1.38
  -2  -9 -12   30.70    1.30
   2   9  12   31.25    1.36
   3   9  12    9.73    0.92
  -2  -6  13   -0.42    0.53
  -1  -6  13   29.20    1.41
   0  -6  13   -0.30    0.43
   1  -6  13   50.60    1.77
   1  -6  13   51.57    1.83
   2  -6  13    8.60    1.11
  -3  -5  13   19.18    1.02
  -3  -5  13   18.98    1.28
  -2  -5  13   -0.12    0.44
  -2  -5  13    0.50    0.34
  -1  -5  13   11.96    1.02
  -1  -5  13   12.41    0.70
   0  -5  13    0.49    0.31
   0  -5  13    0.73    0.39
   1  -5  13   29.10    1.31
   1  -5  13   29.00    1.28
   1  -5  13   28.73    0.88
   2  -5  13    1.47    0.46
   3  -5  13   30.24    1.40
   3  -5  13   28.92    1.42
  -4  -4  13   -0.25    0.63
  -4  -4  13    0.40    0.62
  -4  -4  13   -0.42    0.46
  -3  -4  13   16.31    0.95
  -3  -4  13   17.52    1.14
  -3  -4  13   17.01    1.16
  -2  -4  13    0.32    0.33
  -2  -4  13   -0.45    0.35
  -2  -4  13   -0.07    0.33
  -1  -4  13   33.91    1.35
  -1  -4  13   32.09    1.04
  -1  -4  13   32.80    1.09
   0  -4  13    5.19    0.56
   0  -4  13    4.80    0.77
   0  -4  13    5.52    0.59
   0  -4  13    4.65    0.79
   1  -4  13   35.07    1.05
   1  -4  13   35.96    1.36
   1  -4  13   34.86    1.32
   2  -4  13    1.02    0.28
   2  -4  13    1.11    0.41
   2  -4  13    0.55    0.36
   2  -4  13    0.46    0.37
   3  -4  13   53.73    1.75
   3  -4  13   52.06    1.73
   4  -4  13    1.11    0.45
   4  -4  13    1.16    0.46
  -4  -3  13    0.44    0.47
  -4  -3  13   -0.17    0.44
  -4  -3  13    0.24    0.52
  -4  -3  13   -0.08    0.43
  -3  -3  13   24.25    1.10
  -3  -3  13   23.06    1.09
  -3  -3  13   22.87    1.18
  -3  -3  13   21.15    1.13
  -2  -3  13    0.03    0.35
  -2  -3  13    0.85    0.38
  -2  -3  13    0.08    0.33
  -1  -3  13   33.46    1.13
  -1  -3  13   31.05    1.33
  -1  -3  13   32.44    1.44
  -1  -3  13   32.34    1.22
  -1  -3  13   33.82    1.28
  -1  -3  13   30.47    1.24
   0  -3  13    1.34    0.31
   0  -3  13    0.56    0.29
   0  -3  13    0.92    0.35
   0  -3  13    1.28    0.49
   0  -3  13    0.85    0.40
   0  -3  13    0.24    0.39
   1  -3  13   29.43    1.24
   1  -3  13   33.34    1.05
   1  -3  13   30.85    1.03
   1  -3  13   32.84    1.23
   1  -3  13   32.82    1.22
   2  -3  13    0.72    0.34
   2  -3  13    0.76    0.36
   2  -3  13    0.58    0.32
   3  -3  13   40.46    1.36
   3  -3  13   42.47    1.48
   3  -3  13   41.03    1.45
   4  -3  13    0.02    0.35
   4  -3  13   -0.51    0.39
   4  -3  13    0.45    0.40
  -5   3 -13   30.91    1.19
   5  -3  13   29.07    1.35
  -4  -2  13    0.40    0.42
  -4  -2  13    1.04    0.45
  -4  -2  13    0.68    0.57
  -3  -2  13   27.88    1.21
  -3  -2  13   29.05    1.19
  -3  -2  13   29.03    1.24
  -3  -2  13   26.46    1.13
  -2  -2  13    0.13    0.33
  -2  -2  13    0.24    0.32
  -2  -2  13   -0.40    0.33
  -2  -2  13   -0.48    0.27
  -2  -2  13   -0.03    0.38
  -2  -2  13   -0.11    0.38
  -1  -2  13   20.47    0.92
  -1  -2  13   21.34    1.04
  -1  -2  13   21.43    0.94
  -1  -2  13   22.57    1.01
  -1  -2  13   21.90    1.03
   0  -2  13    4.50    0.72
   0  -2  13    3.54    0.42
   0  -2  13    3.90    0.65
   0  -2  13    3.46    0.44
   0  -2  13    3.72    0.61
   0  -2  13    5.00    0.74
   1  -2  13   96.07    2.33
   1  -2  13   95.34    2.20
   1  -2  13   91.40    2.35
   1  -2  13   92.71    2.18
   1  -2  13   96.23    2.33
   1  -2  13   96.75    2.33
   2  -2  13    0.24    0.30
   2  -2  13    0.11    0.30
   2  -2  13    0.09    0.31
   3  -2  13   53.84    1.66
   3  -2  13   52.52    1.62
   3  -2  13   53.40    1.52
   4  -2  13    2.95    0.47
   4  -2  13    4.59    0.73
   4  -2  13    2.31    0.44
  -5   2 -13   21.35    1.04
   5  -2  13   22.20    1.22
   5  -2  13   20.22    1.13
   5  -2  13   21.92    1.13
  -5  -1  13    7.28    1.16
  -4  -1  13    4.68    0.79
  -4  -1  13    5.79    0.92
  -4  -1  13    6.66    0.86
  -3  -1  13   16.90    1.03
  -3  -1  13   17.36    0.86
  -3  -1  13   16.93    1.23
  -3  -1  13   17.49    0.93
  -3  -1  13   19.11    1.04
  -2  -1  13   -0.07    0.30
  -2  -1  13    0.42    0.33
  -2  -1  13   -0.20    0.33
  -2  -1  13    0.00    0.30
  -2  -1  13   -0.17    0.27
  -2  -1  13    0.01    0.31
  -1  -1  13   19.87    0.90
  -1  -1  13   19.91    0.93
  -1  -1  13   18.85    0.91
  -1  -1  13   20.30    0.91
  -1  -1  13   20.14    0.95
  -1  -1  13   20.47    0.93
   0  -1  13    0.28    0.27
   0  -1  13    0.07    0.32
   0  -1  13    0.37    0.31
   0  -1  13    0.22    0.29
   0  -1  13   -0.58    0.31
   0  -1  13    0.35    0.31
   1  -1  13   98.94    2.34
   1  -1  13   96.00    2.40
   1  -1  13  102.35    2.38
   1  -1  13  104.35    2.43
   1  -1  13  100.10    2.36
   2  -1  13    0.51    0.32
   2  -1  13    0.30    0.32
   2  -1  13    0.49    0.35
   3  -1  13   67.08    1.82
   3  -1  13   66.64    1.80
   3  -1  13   70.13    1.92
  -4   1 -13    0.09    0.33
   4  -1  13    0.30    0.35
   4  -1  13    0.24    0.31
   4  -1  13    0.48    0.38
  -5   1 -13   73.93    1.96
   5  -1  13   67.73    1.98
   5  -1  13   72.81    1.98
   5  -1  13   70.81    2.09
  -5   0  13    7.56    1.20
  -4   0  13   11.00    0.74
  -4   0  13   11.08    1.03
  -4   0  13    8.83    0.74
  -3   0  13    9.07    0.72
  -3   0  13    7.83    0.87
  -3   0  13    9.35    0.92
  -3   0  13    7.95    0.88
  -3   0  13    8.76    0.72
  -2   0  13    2.24    0.40
  -2   0  13    2.73    0.43
  -2   0  13    1.84    0.35
  -2   0  13    1.51    0.35
  -2   0  13    2.27    0.41
  -2   0  13    2.31    0.40
  -1   0  13   44.23    1.35
  -1   0  13   45.56    1.36
  -1   0  13   46.65    1.34
  -1   0  13   44.10    1.33
  -1   0  13   44.13    1.40
  -1   0  13   43.07    1.37
   0   0  13   18.17    0.86
   0   0  13   15.47    0.85
   0   0  13   16.70    0.86
   0   0  13   17.11    0.85
   0   0  13   17.31    0.85
   1   0  13   21.89    0.93
   1   0  13   20.31    0.93
   1   0  13   20.58    0.89
   1   0  13   22.78    0.98
   1   0  13   21.03    0.93
   2   0  13    0.60    0.31
   2   0  13    0.14    0.29
   2   0  13    1.32    0.32
   2   0  13    0.90    0.29
   2   0  13    0.72    0.35
   3   0  13   34.98    1.35
   3   0  13   36.53    1.26
   3   0  13   36.63    1.31
  -4   0 -13    1.66    0.37
   4   0  13    0.95    0.37
   4   0  13    2.23    0.46
   4   0  13    1.55    0.35
  -5   0 -13   89.50    2.29
   5   0  13   88.01    2.40
   5   0  13   87.27    2.21
   5   0  13   89.86    2.52
  -6   0 -13    9.57    1.05
  -6   0 -13   10.06    0.96
   6   0  13   12.90    1.79
   6   0  13   10.14    0.93
  -5   1  13   14.53    1.31
  -4   1  13    9.58    0.66
  -4   1  13    9.46    1.04
  -3   1  13   26.56    0.94
  -3   1  13   27.05    0.96
  -3   1  13   25.53    1.23
  -3   1  13   23.89    1.12
  -2   1  13   -0.10    0.37
  -2   1  13   -0.03    0.28
  -2   1  13    0.60    0.28
  -2   1  13    0.44    0.32
  -2   1  13   -0.15    0.27
  -2   1  13    0.41    0.33
  -1   1  13   82.47    1.96
  -1   1  13   82.28    2.02
  -1   1  13   81.92    1.96
  -1   1  13   82.49    2.00
  -1   1  13   78.91    2.07
  -1   1  13   79.54    2.09
   0   1  13   44.52    1.41
   0   1  13   45.81    1.34
   0   1  13   45.41    1.29
   0   1  13   44.23    1.33
   0   1  13   45.44    1.41
   0   1  13   44.35    1.29
   1   1  13   41.23    1.29
   1   1  13   40.99    1.21
   1   1  13   41.65    1.30
   1   1  13   42.63    1.33
   1   1  13   41.12    1.20
   2   1  13    1.22    0.28
   2   1  13    1.06    0.32
   2   1  13    1.40    0.29
   2   1  13    1.34    0.36
   3   1  13   57.78    1.67
   3   1  13   56.05    1.48
   3   1  13   54.07    1.64
  -4  -1 -13   15.55    0.92
   4   1  13   14.81    1.00
   4   1  13   16.07    0.97
   4   1  13   16.06    0.81
  -5  -1 -13   45.16    1.52
   5   1  13   46.08    1.61
  -6  -1 -13    1.11    0.46
  -6  -1 -13    0.39    0.54
   6   1  13    0.57    0.38
   6   1  13    0.79    0.44
  -5   2  13   14.07    1.35
  -4   2  13    0.75    0.48
  -4   2  13    0.63    0.46
  -4   2  13    0.59    0.29
  -3   2  13   14.74    0.94
  -3   2  13   15.94    1.07
  -3   2  13   15.11    0.71
  -3   2  13   15.40    1.07
  -2   2  13    2.79    0.34
  -2   2  13    2.83    0.40
  -2   2  13    2.69    0.49
  -2   2  13    3.39    0.50
  -2   2  13    3.96    0.57
  -1   2  13   64.12    1.62
  -1   2  13   61.54    1.80
  -1   2  13   66.88    1.85
  -1   2  13   64.38    1.62
  -1   2  13   62.83    1.62
  -1   2  13   64.03    1.63
   0   2  13    0.62    0.24
   0   2  13    0.12    0.31
   0   2  13    0.57    0.34
   0   2  13    0.20    0.26
   0   2  13    0.46    0.26
   1   2  13   39.05    1.25
   1   2  13   35.97    1.40
   1   2  13   39.21    1.25
   1   2  13   37.53    1.09
   2   2  13    8.55    0.93
   2   2  13   10.48    0.75
   2   2  13   10.16    0.88
   2   2  13    9.50    0.57
   3   2  13   46.88    1.48
   3   2  13   43.66    1.50
   3   2  13   45.77    1.23
  -4  -2 -13   29.00    1.20
   4   2  13   28.51    1.20
   4   2  13   30.05    1.92
   4   2  13   30.23    0.97
  -5  -2 -13   48.61    1.60
   5   2  13   49.66    1.66
   5   2  13   48.91    1.36
  -6  -2 -13   15.07    1.09
   6   2  13   14.18    1.16
  -4   3  13    2.79    0.53
  -4   3  13    1.93    0.56
  -3   3  13   15.72    0.91
  -3   3  13   14.48    0.82
  -3   3  13   14.76    1.10
  -3   3  13   15.57    0.64
  -2   3  13    2.38    0.38
  -2   3  13    2.42    0.47
  -2   3  13    3.30    0.52
  -2   3  13    2.31    0.44
  -1   3  13   18.96    1.05
  -1   3  13   19.56    0.84
  -1   3  13   20.74    0.80
  -1   3  13   20.39    0.82
  -1   3  13   20.95    0.84
  -1   3  13   21.78    1.07
   0   3  13   13.27    0.73
   0   3  13   12.69    0.75
   0   3  13   12.86    0.62
   0   3  13   11.30    0.74
   0   3  13   12.43    0.88
   0   3  13   14.59    0.91
   1   3  13   38.45    1.04
   1   3  13   37.72    1.03
   1   3  13   37.18    1.34
   1   3  13   37.76    1.22
   2   3  13    8.94    0.86
   2   3  13    9.96    0.73
   2   3  13    8.15    0.51
   2   3  13    9.78    0.51
   3   3  13   84.10    1.78
   3   3  13   85.17    2.51
   3   3  13   78.77    1.82
   3   3  13   81.37    2.11
  -4  -3 -13   14.98    0.95
   4   3  13   14.29    0.94
   4   3  13   14.40    0.63
   4   3  13   15.48    0.64
  -5  -3 -13   44.00    1.55
   5   3  13   43.82    1.57
   5   3  13   43.65    1.17
  -6  -3 -13   16.10    1.13
   6   3  13   17.63    1.25
  -4   4  13    2.47    0.59
  -4   4  13    3.98    0.55
  -3   4  13   12.57    0.88
  -3   4  13   13.98    0.66
  -3   4  13   14.03    1.13
  -2   4  13    2.18    0.27
  -2   4  13    2.21    0.36
  -2   4  13    2.05    0.28
  -2   4  13    1.59    0.43
  -1   4  13   10.25    0.99
  -1   4  13   12.60    0.68
  -1   4  13   11.83    0.69
  -1   4  13   11.68    0.92
  -1   4  13   12.04    0.62
   0   4  13   46.76    1.17
   0   4  13   46.43    1.35
   0   4  13   46.70    1.23
   0   4  13   48.92    1.58
   1   4  13   57.52    1.33
   1   4  13   59.32    1.33
   1   4  13   58.90    1.62
   1   4  13   67.70    2.63
   2   4  13    0.12    0.27
   2   4  13    0.17    0.29
   2   4  13    0.34    0.16
   3   4  13   31.18    1.20
  -4  -4 -13   10.15    0.88
   4   4  13   11.30    0.88
  -5  -4 -13   60.02    1.90
   5   4  13   61.01    1.89
  -6  -4 -13    6.60    1.04
   6   4  13    4.36    0.75
  -3   5  13   12.07    0.92
  -3   5  13   13.78    1.21
  -2   5  13   11.59    0.83
  -2   5  13   11.49    0.74
  -2   5  13   10.77    0.72
  -2   5  13   11.16    1.01
  -1   5  13    1.86    0.29
  -1   5  13    2.30    0.31
  -1   5  13    1.97    0.41
  -1   5  13    1.98    0.27
  -1   5  13    1.75    0.25
   0   5  13   21.29    0.66
   0   5  13   22.56    0.92
   0   5  13   22.02    0.66
   0   5  13   24.06    1.14
   1   5  13   42.21    1.39
   2   5  13    9.03    0.76
   3   5  13   49.05    1.53
  -4  -5 -13    5.51    0.86
   4   5  13    5.31    0.78
  -5  -5 -13   25.14    1.31
   5   5  13   25.99    1.26
  -3   6  13   13.52    1.77
  -2   6  13   10.67    1.06
  -1   6  13    9.75    0.63
  -1   6  13    9.97    0.78
  -1   6  13    9.22    0.98
  -1   6  13    9.94    0.50
   0   6  13   23.50    1.20
   0   6  13   21.90    0.92
   1   6  13   23.69    1.00
   2   6  13   16.13    0.90
   3   6  13   54.60    1.65
  -4  -6 -13   18.18    1.18
   4   6  13   19.03    1.08
  -5  -6 -13   18.18    1.43
   5   6  13   15.26    1.12
  -2   7  13    3.00    0.69
  -1   7  13   20.94    0.86
  -1   7  13   19.77    1.28
   0   7  13   16.10    1.17
   0   7  13   15.55    0.83
   1   7  13   37.74    1.26
  -2  -7 -13   13.99    1.05
   2   7  13   11.91    0.86
   3   7  13   21.27    1.06
  -4  -7 -13   15.87    1.38
   4   7  13   16.32    1.06
   0   8  13    1.69    0.57
   0   8  13    1.43    0.36
   1   8  13   14.45    0.92
  -2  -8 -13   36.38    1.45
   2   8  13   38.76    1.53
   3   8  13    3.08    0.51
  -1  -5  14   12.80    1.15
   0  -5  14    0.09    0.44
   0  -5  14    0.01    0.43
   1  -5  14   26.10    1.53
   1  -5  14   26.57    1.47
  -2  -4  14    2.78    0.48
  -2  -4  14    2.70    0.54
  -1  -4  14   14.60    1.06
  -1  -4  14   15.47    0.91
  -1  -4  14   16.16    1.12
   0  -4  14    7.32    0.92
   0  -4  14    7.33    0.72
   0  -4  14    8.15    0.90
   1  -4  14   29.90    1.01
   1  -4  14   28.13    1.31
   1  -4  14   28.87    1.33
   2  -4  14    0.22    0.42
   2  -4  14    0.22    0.33
   2  -4  14   -0.49    0.39
  -3  -3  14   15.29    1.05
  -3  -3  14   15.40    1.08
  -3  -3  14   18.06    1.21
  -2  -3  14    0.27    0.40
  -2  -3  14   -0.16    0.37
  -2  -3  14   -0.29    0.37
  -2  -3  14    0.73    0.40
  -1  -3  14   27.17    1.13
  -1  -3  14   28.10    1.25
  -1  -3  14   25.75    1.07
  -1  -3  14   27.46    1.16
   0  -3  14    0.21    0.33
   0  -3  14   -0.04    0.35
   0  -3  14    0.68    0.57
   0  -3  14    0.08    0.35
   1  -3  14   40.85    1.28
   1  -3  14   42.85    1.46
   1  -3  14   42.45    1.49
   1  -3  14   43.10    1.48
   2  -3  14    0.69    0.39
   2  -3  14    0.39    0.38
   2  -3  14    0.55    0.40
   2  -3  14    0.88    0.38
   3  -3  14   27.40    1.28
   3  -3  14   28.73    1.32
  -3  -2  14    9.35    0.96
  -3  -2  14    6.82    0.97
  -3  -2  14    5.86    0.96
  -3  -2  14    7.81    0.98
  -3  -2  14    5.84    0.94
  -2  -2  14   -0.57    0.33
  -2  -2  14    0.29    0.33
  -2  -2  14    0.59    0.41
  -2  -2  14   -0.12    0.37
  -2  -2  14   -0.09    0.40
  -1  -2  14   23.04    1.32
  -1  -2  14   20.52    0.99
  -1  -2  14   21.25    1.06
  -1  -2  14   20.99    1.04
  -1  -2  14   21.84    1.02
   0  -2  14    0.78    0.35
   0  -2  14    0.13    0.31
   0  -2  14    0.72    0.40
   0  -2  14    0.45    0.36
   0  -2  14   -0.11    0.31
   1  -2  14   38.15    1.36
   1  -2  14   37.99    1.34
   1  -2  14   38.64    1.26
   1  -2  14   36.83    1.23
   1  -2  14   36.37    1.35
   2  -2  14    0.94    0.36
   2  -2  14    0.87    0.37
   2  -2  14    0.97    0.38
   3  -2  14   24.23    1.21
   3  -2  14   24.81    1.11
   3  -2  14   25.61    1.17
   4  -2  14    0.73    0.47
   4  -2  14    0.70    0.40
   4  -2  14    0.21    0.44
  -4  -1  14    4.58    0.63
  -3  -1  14    8.89    1.02
  -3  -1  14   11.31    0.94
  -3  -1  14    9.01    0.82
  -3  -1  14   10.09    0.94
  -2  -1  14    0.22    0.40
  -2  -1  14    0.43    0.32
  -2  -1  14    0.19    0.34
  -2  -1  14    0.23    0.37
  -2  -1  14   -0.34    0.37
  -1  -1  14   20.20    1.01
  -1  -1  14   20.54    1.04
  -1  -1  14   18.73    0.97
  -1  -1  14   19.48    1.05
  -1  -1  14   20.73    0.97
  -1  -1  14   17.83    0.98
   0  -1  14   20.66    1.01
   0  -1  14   21.62    0.97
   0  -1  14   21.00    1.02
   0  -1  14   20.67    1.06
   0  -1  14   20.26    0.98
   0  -1  14   22.44    1.03
   1  -1  14   28.38    1.16
   1  -1  14   28.07    1.16
   1  -1  14   28.77    1.10
   1  -1  14   27.81    1.10
   1  -1  14   27.64    1.11
   2  -1  14    0.82    0.36
   2  -1  14    0.19    0.36
   2  -1  14    0.43    0.32
   2  -1  14    0.54    0.37
   3  -1  14   45.98    1.52
   3  -1  14   48.04    1.51
   3  -1  14   48.65    1.61
   4  -1  14    0.04    0.46
   4  -1  14   -0.19    0.39
   4  -1  14    0.09    0.52
  -4   0  14    3.30    0.62
  -4   0  14    3.61    0.66
  -3   0  14   11.45    0.90
  -3   0  14   10.39    1.03
  -3   0  14   10.13    0.89
  -3   0  14   11.83    0.91
  -2   0  14    4.73    0.72
  -2   0  14    3.22    0.41
  -2   0  14    3.22    0.49
  -2   0  14    2.31    0.47
  -2   0  14    2.89    0.49
  -2   0  14    4.88    0.76
  -1   0  14   42.08    1.36
  -1   0  14   42.20    1.35
  -1   0  14   42.03    1.42
  -1   0  14   42.34    1.35
  -1   0  14   41.37    1.42
  -1   0  14   43.79    1.39
   0   0  14   31.46    1.14
   0   0  14   30.60    1.16
   0   0  14   31.84    1.17
   0   0  14   29.70    1.18
   0   0  14   30.33    1.17
   0   0  14   31.25    1.21
   1   0  14   39.86    1.39
   1   0  14   41.18    1.31
   1   0  14   42.14    1.38
   1   0  14   40.05    1.36
   1   0  14   42.44    1.31
   2   0  14    1.24    0.37
   2   0  14    1.75    0.35
   2   0  14    1.33    0.36
   2   0  14    1.12    0.37
   3   0  14   50.38    1.56
   3   0  14   52.37    1.64
   3   0  14   48.63    1.60
   4   0  14   11.80    0.86
   4   0  14   12.65    1.03
   4   0  14   13.05    1.25
  -5   0 -14   42.07    1.53
   5   0  14   44.21    1.48
   5   0  14   49.22    2.22
  -4   1  14    4.04    0.62
  -3   1  14   16.21    1.12
  -3   1  14   15.21    1.11
  -3   1  14   15.92    1.02
  -3   1  14   16.42    0.86
  -2   1  14    1.99    0.46
  -2   1  14    2.00    0.37
  -2   1  14    1.90    0.37
  -2   1  14    2.04    0.42
  -1   1  14   21.66    0.97
  -1   1  14   20.11    1.07
  -1   1  14   21.60    0.97
  -1   1  14   22.10    0.97
  -1   1  14   22.54    1.09
  -1   1  14   21.91    0.97
   0   1  14    9.34    0.80
   0   1  14   10.07    0.86
   0   1  14    9.83    0.74
   0   1  14    9.31    0.76
   0   1  14    9.27    0.80
   1   1  14   35.69    1.14
   1   1  14   34.19    1.23
   1   1  14   33.57    1.24
   1   1  14   35.19    1.15
   1   1  14   32.89    1.27
   2   1  14    5.21    0.66
   2   1  14    5.70    0.75
   2   1  14    5.83    0.81
   2   1  14    5.58    0.69
   3   1  14   44.61    1.32
   3   1  14   44.36    1.57
   3   1  14   44.88    1.34
   3   1  14   43.39    1.49
  -4  -1 -14   18.65    1.06
   4   1  14   19.50    1.12
  -5  -1 -14   72.40    2.09
   5   1  14   73.95    2.20
   5   1  14   69.95    1.88
  -3   2  14    6.37    0.97
  -3   2  14   10.40    1.07
  -3   2  14    8.13    0.69
  -2   2  14    6.83    0.70
  -2   2  14    6.25    0.73
  -2   2  14    7.63    0.72
  -2   2  14    7.65    0.87
  -2   2  14    6.61    0.80
  -1   2  14   12.66    0.94
  -1   2  14   13.81    0.84
  -1   2  14   12.92    0.82
  -1   2  14   13.82    0.94
   0   2  14   20.96    0.96
   0   2  14   24.03    0.94
   0   2  14   22.69    0.92
   0   2  14   24.99    1.01
   0   2  14   22.47    1.09
   1   2  14   36.04    1.07
   1   2  14   33.33    1.23
   1   2  14   32.89    1.35
   1   2  14   34.16    1.07
   1   2  14   33.37    1.22
   2   2  14   13.41    0.71
   2   2  14   13.16    1.50
   2   2  14   13.50    0.68
   2   2  14   12.90    0.89
   3   2  14   15.63    1.00
   3   2  14   16.65    0.76
   3   2  14   15.41    0.74
  -4  -2 -14   26.73    1.25
   4   2  14   27.35    0.99
   4   2  14   28.33    1.26
  -5  -2 -14   61.20    1.92
   5   2  14   61.10    1.95
   5   2  14   59.94    1.62
  -3   3  14    6.77    0.91
  -3   3  14    7.78    1.09
  -2   3  14   20.69    0.96
  -2   3  14   21.57    1.01
  -2   3  14   20.70    0.86
  -2   3  14   20.82    0.89
  -2   3  14   19.40    1.18
  -1   3  14   32.68    1.12
  -1   3  14   34.51    1.28
  -1   3  14   33.78    1.37
  -1   3  14   31.75    1.12
  -1   3  14   33.40    1.09
   0   3  14    2.33    0.32
   0   3  14    1.82    0.32
   0   3  14    1.45    0.40
   0   3  14    1.52    0.35
   0   3  14    1.87    0.34
   1   3  14   32.30    0.97
   1   3  14   31.90    1.07
   1   3  14   32.96    1.17
   2   3  14    4.91    0.49
   2   3  14    3.52    0.45
   2   3  14    5.25    0.49
   3   3  14   36.09    1.04
   3   3  14   34.36    1.31
   3   3  14   35.26    0.99
  -4  -3 -14   14.20    1.05
   4   3  14   14.98    0.69
   4   3  14   13.88    1.04
  -5  -3 -14   24.93    1.31
   5   3  14   25.55    1.34
  -3   4  14    8.00    1.21
  -2   4  14   14.12    1.12
  -2   4  14   11.85    0.81
  -2   4  14   11.85    0.71
  -2   4  14   12.02    0.87
  -1   4  14   10.03    0.69
  -1   4  14   10.01    0.64
  -1   4  14    9.82    0.74
  -1   4  14    9.68    0.74
  -1   4  14    9.81    1.01
   0   4  14    0.46    0.38
   0   4  14    1.00    0.35
   0   4  14    1.30    0.27
   0   4  14    1.19    0.33
   0   4  14    0.98    0.24
   1   4  14    8.18    0.50
   1   4  14    7.46    0.78
   1   4  14    8.53    0.49
   2   4  14    2.60    0.41
   2   4  14    2.19    0.37
   3   4  14   14.98    0.96
  -4  -4 -14   17.56    1.17
   4   4  14   17.88    1.11
  -5  -4 -14   22.47    1.29
   5   4  14   18.21    1.24
  -2   5  14    4.90    0.64
  -2   5  14    5.05    0.65
  -1   5  14    2.46    0.36
  -1   5  14    1.31    0.51
  -1   5  14    2.05    0.29
   0   5  14   36.10    0.96
   0   5  14   36.50    1.48
   0   5  14   34.32    1.36
   1   5  14   36.64    1.26
   2   5  14   10.85    0.86
   3   5  14   20.71    1.10
   4   5  14   25.76    1.24
  -1   6  14    9.03    1.05
  -1   6  14   10.21    1.16
   0   6  14   19.43    1.22
   0   6  14   13.65    1.43
   1   6  14   29.83    1.16
   2   6  14   31.87    1.26
   3   6  14   13.68    0.99
   1   7  14   34.66    1.38
   2   7  14   55.50    1.69
   0  -3  15    2.57    0.48
   0  -3  15    2.94    0.46
   0  -3  15    2.18    0.49
   1  -3  15   16.39    1.13
   1  -3  15   18.14    1.14
   1  -3  15   17.44    0.95
  -1  -2  15   31.83    1.36
  -1  -2  15   33.29    1.32
  -1  -2  15   30.13    1.27
  -1  -2  15   32.40    1.27
   0  -2  15   11.07    0.89
   0  -2  15   11.53    0.92
   0  -2  15   14.26    1.01
   0  -2  15   12.04    0.99
   1  -2  15   11.65    0.88
   1  -2  15   11.98    0.96
   1  -2  15   13.71    1.05
   1  -2  15   12.32    0.94
   2  -2  15    2.58    0.46
   2  -2  15    1.61    0.46
   2  -2  15    1.44    0.44
   2  -2  15    2.88    0.53
  -2  -1  15    1.14    0.42
  -2  -1  15    1.54    0.42
  -2  -1  15    0.88    0.46
  -1  -1  15   30.67    1.35
  -1  -1  15   34.12    1.32
  -1  -1  15   34.38    1.33
  -1  -1  15   33.98    1.32
   0  -1  15    3.14    0.54
   0  -1  15    2.84    0.46
   0  -1  15    3.14    0.48
   0  -1  15    2.35    0.56
   0  -1  15    2.83    0.47
   1  -1  15   26.87    1.21
   1  -1  15   25.61    1.22
   1  -1  15   27.40    1.13
   1  -1  15   26.87    1.17
   1  -1  15   26.24    1.18
   2  -1  15    3.12    0.53
   2  -1  15    3.17    0.49
   2  -1  15    3.33    0.51
   2  -1  15    3.24    0.52
   3  -1  15   45.74    1.54
   3  -1  15   48.02    1.68
   3  -1  15   44.06    1.56
  -2   0  15    3.70    0.47
  -2   0  15    3.64    0.55
  -2   0  15    5.55    0.86
  -2   0  15    3.63    0.49
  -1   0  15    6.28    0.95
  -1   0  15    7.58    0.86
  -1   0  15    8.14    0.83
  -1   0  15    7.01    0.89
  -1   0  15    6.08    0.92
   0   0  15    3.92    0.50
   0   0  15    6.99    0.77
   0   0  15    5.82    0.83
   0   0  15    5.50    0.82
   1   0  15   24.97    1.22
   1   0  15   24.82    1.12
   1   0  15   25.97    1.09
   1   0  15   25.42    1.14
   1   0  15   24.78    1.16
   2   0  15    6.04    0.84
   2   0  15    5.19    0.76
   2   0  15    6.08    0.90
   2   0  15    4.34    0.70
   3   0  15   46.51    1.63
   3   0  15   42.95    1.49
   3   0  15   45.72    1.46
  -2   1  15    8.28    1.01
  -2   1  15    9.83    0.83
  -2   1  15    7.74    0.99
  -2   1  15    8.04    0.86
  -2   1  15    9.97    1.10
  -1   1  15   10.77    0.96
  -1   1  15   10.68    0.84
  -1   1  15   10.94    0.87
  -1   1  15   10.13    0.94
  -1   1  15   11.06    0.91
   0   1  15   12.70    0.98
   0   1  15   13.83    0.91
   0   1  15   13.60    0.90
   0   1  15   10.97    0.93
   0   1  15   11.82    0.84
   1   1  15   18.86    0.94
   1   1  15   18.30    1.03
   1   1  15   18.31    1.29
   1   1  15   18.80    1.07
   2   1  15   11.24    0.92
   2   1  15    9.85    0.79
   2   1  15   12.84    0.86
   3   1  15   24.45    1.03
   3   1  15   23.96    1.24
  -2   2  15    7.71    0.96
  -2   2  15    7.29    1.04
  -2   2  15    6.03    0.80
  -2   2  15    5.83    0.79
  -1   2  15    2.94    0.52
  -1   2  15    3.06    0.42
  -1   2  15    3.22    0.46
   0   2  15   10.38    0.94
   0   2  15    9.23    0.83
   0   2  15   10.31    0.92
   0   2  15   10.46    0.87
   1   2  15    9.97    0.73
   1   2  15    7.08    0.86
   1   2  15    9.58    0.76
   2   2  15   19.18    1.07
   2   2  15   19.72    0.86
   3   2  15    8.20    0.70
   3   2  15    9.27    0.98
  -2   3  15   13.45    1.04
  -2   3  15   13.30    1.15
  -2   3  15   10.43    0.84
  -1   3  15    1.18    0.41
  -1   3  15    0.22    0.37
  -1   3  15    1.31    0.49
   0   3  15   16.49    0.93
   0   3  15   15.22    1.05
   0   3  15   15.86    0.78
   0   3  15   15.39    0.99
   1   3  15   28.97    1.28
   1   3  15   30.41    1.22
   1   3  15   30.50    0.99
   2   3  15   14.93    0.73
   2   3  15   14.12    0.97
   3   3  15   21.52    1.19
  -1   4  15   27.55    1.40
  -1   4  15   24.83    1.14
  -1   4  15   22.69    1.19
   0   4  15    2.92    0.44
   0   4  15    2.04    0.40
   0   4  15    1.99    0.50
   1   4  15   16.42    1.21
   2   4  15    3.02    0.46
   3   4  15   13.55    1.06
   0   5  15    3.44    0.44
   0   5  15    4.16    0.63
   1   5  15   19.29    1.06
   2   5  15   25.42    1.20
   0   0   0    0.00    0.00
;
_shelx_hkl_checksum              91857
_shelx_res_file
;
    T.res created by SHELXL-2014/7
TITL T in P1                     New: P-1
CELL  0.71073    7.6924   10.1280   12.2400    84.850    85.980    83.700
ZERR  2           0.0015    0.0020    0.0020     0.030     0.030     0.030
LATT   1
SFAC  C   2.31000  20.84392   1.02000  10.20751   1.58860   0.56870   0.86500 =
         51.65125   0.21560   0.00330   0.00160    11.500   0.68000  12.01000
SFAC  H   0.49300  10.51091   0.32291  26.12573   0.14019   3.14236   0.04081 =
         57.79977   0.00304   0.00000   0.00000     0.624   0.35000   1.00800
SFAC Cd  19.22142   0.59460  17.64442   6.90891   4.46100  24.70084   1.60290 =
         87.48257   5.06941  -0.80750   1.20240  5180.000   1.69000 112.41000
SFAC  N  12.21261   0.00570   3.13220   9.89331   2.01250  28.99754   1.16630 =
          0.58260 -11.52901   0.00610   0.00330    19.600   0.68000  14.01000
SFAC  O   3.04850  13.27711   2.28680   5.70111   1.54630   0.32390   0.86700 =
         32.90894   0.25080   0.01060   0.00600    32.500   0.68000  16.00000
UNIT 40 26 2 2 10
L.S. 15
OMIT 2 4 4
OMIT 1 1 0
TEMP -50
SIZE 0.16 0.25 0.28
FMAP 2
PLAN -20
ACTA
BOND $H
WGHT    0.022900    0.389900
FVAR       0.31892
CD1   3    0.253396    0.489188    0.477301    11.00000    0.02974    0.02179 =
         0.03276   -0.00227   -0.01441   -0.00512
N1    4    0.204760    0.715637    0.444037    11.00000    0.02872    0.02347 =
         0.04011   -0.00180   -0.00517   -0.00507
O1    5    0.306762    0.317017    0.613769    11.00000    0.03671    0.04614 =
         0.04029    0.00082   -0.01970   -0.00606
O2    5    0.459671    0.487713    0.617204    11.00000    0.03401    0.04028 =
         0.03257    0.00263   -0.00865   -0.00286
O3    5    1.000305    0.457990    1.384302    11.00000    0.04923    0.03886 =
         0.03202   -0.01405   -0.00670   -0.01257
O4    5    1.246775    0.339182    1.342007    11.00000    0.05027    0.04685 =
         0.06065   -0.01896   -0.02544   -0.00242
O5    5    0.758828    0.113912    1.020788    11.00000    0.11398    0.03427 =
         0.05180   -0.01025   -0.05828    0.00090
C1    1    0.076227    0.768431    0.380000    11.00000    0.03236    0.03240 =
         0.05320   -0.00063   -0.01292   -0.00715
AFIX  43
H1    2    0.003532    0.711647    0.352969    11.00000   -1.20000
AFIX   0
C2    1    0.047702    0.903659    0.352692    11.00000    0.04791    0.03569 =
         0.07369    0.00717   -0.02885   -0.00094
AFIX  43
H2    2   -0.045211    0.938905    0.309295    11.00000   -1.20000
AFIX   0
C3    1    0.157226    0.986582    0.389855    11.00000    0.05435    0.02415 =
         0.07182    0.00551   -0.01990   -0.00172
AFIX  43
H3    2    0.138552    1.079101    0.372264    11.00000   -1.20000
AFIX   0
C4    1    0.294636    0.933982    0.453009    11.00000    0.03734    0.02288 =
         0.04342   -0.00386   -0.00461   -0.00491
C5    1    0.309756    0.796825    0.480365    11.00000    0.03118    0.02373 =
         0.03804   -0.00374   -0.00592   -0.00459
AFIX  43
H5    2    0.398070    0.759564    0.526608    11.00000   -1.20000
AFIX   0
C6    1    0.419799    1.020213    0.486377    11.00000    0.04766    0.02053 =
         0.05507   -0.00641   -0.00741   -0.00724
AFIX  43
H6    2    0.382034    1.111485    0.488363    11.00000   -1.20000
AFIX   0
C7    1    0.498606    0.310904    0.758583    11.00000    0.03298    0.04208 =
         0.02596   -0.00226   -0.00863   -0.00576
C8    1    0.601282    0.381227    0.816474    11.00000    0.05574    0.03663 =
         0.03700   -0.00086   -0.01857   -0.01059
AFIX  43
H8    2    0.612323    0.471484    0.794789    11.00000   -1.20000
AFIX   0
C9    1    0.687722    0.319501    0.906024    11.00000    0.06798    0.04086 =
         0.04161   -0.00755   -0.03095   -0.01135
AFIX  43
H9    2    0.756281    0.367535    0.945580    11.00000   -1.20000
AFIX   0
C10   1    0.671725    0.186275    0.936386    11.00000    0.06259    0.03800 =
         0.03052   -0.00720   -0.02383   -0.00093
C11   1    0.569644    0.115232    0.879697    11.00000    0.06687    0.03417 =
         0.03288   -0.00149   -0.01943   -0.01155
AFIX  43
H11   2    0.559634    0.024774    0.901130    11.00000   -1.20000
AFIX   0
C12   1    0.482410    0.177647    0.791448    11.00000    0.04619    0.04344 =
         0.03114   -0.00352   -0.01519   -0.01438
AFIX  43
H12   2    0.411611    0.129778    0.753324    11.00000   -1.20000
AFIX   0
C13   1    0.838958    0.183342    1.093484    11.00000    0.07981    0.03135 =
         0.03680   -0.00830   -0.03644    0.00234
C14   1    0.738075    0.253931    1.169509    11.00000    0.05325    0.05590 =
         0.05557   -0.01781   -0.02751   -0.00149
AFIX  43
H14   2    0.615182    0.259114    1.171017    11.00000   -1.20000
AFIX   0
C15   1    0.819797    0.317704    1.244293    11.00000    0.05038    0.04684 =
         0.03887   -0.01810   -0.01478   -0.00160
AFIX  43
H15   2    0.751426    0.368239    1.295493    11.00000   -1.20000
AFIX   0
C16   1    1.000360    0.307869    1.244458    11.00000    0.04872    0.02543 =
         0.02733   -0.00419   -0.01588   -0.00174
C17   1    1.099437    0.234378    1.167374    11.00000    0.05213    0.05293 =
         0.04922   -0.02277   -0.01493    0.00594
AFIX  43
H17   2    1.222385    0.226325    1.166936    11.00000   -1.20000
AFIX   0
C18   1    1.018497    0.172689    1.090947    11.00000    0.07703    0.05450 =
         0.04482   -0.02750   -0.02002    0.01124
AFIX  43
H18   2    1.085893    0.124167    1.038051    11.00000   -1.20000
AFIX   0
C19   1    0.415247    0.375278    0.657938    11.00000    0.02815    0.04285 =
         0.02686   -0.00390   -0.00572   -0.00030
C20   1    1.087769    0.371895    1.328626    11.00000    0.04710    0.02387 =
         0.02718    0.00081   -0.01186   -0.00946
HKLF 4
REM  T in P1                     New: P-1
REM R1 =  0.0193 for    4065 Fo > 4sig(Fo)  and  0.0211 for all    4296 data
REM    244 parameters refined using      0 restraints
END
WGHT      0.0229      0.3895
REM Highest difference peak  0.315,  deepest hole -0.591,  1-sigma level  0.054
Q1    1   0.8506  0.1508  0.9778  11.00000  0.05    0.32
Q2    1   0.2426  0.5381  0.5769  11.00000  0.05    0.30
Q3    1   0.2859  0.3902  0.3945  11.00000  0.05    0.28
Q4    1   0.3816  0.5216  0.5676  11.00000  0.05    0.25
Q5    1   0.9256  0.2150  1.0719  11.00000  0.05    0.24
Q6    1   1.0469  0.3362  1.2786  11.00000  0.05    0.24
Q7    1   0.4591  0.5234  0.5119  11.00000  0.05    0.23
Q8    1   0.6613  0.1560  1.0421  11.00000  0.05    0.23
Q9    1   0.2344  0.4953  0.3557  11.00000  0.05    0.23
Q10   1   0.4477  0.3529  0.7202  11.00000  0.05    0.23
Q11   1   0.3204  0.4445  0.5939  11.00000  0.05    0.23
Q12   1   0.0379  0.8406  0.3967  11.00000  0.05    0.23
Q13   1   0.5576  0.3400  0.7751  11.00000  0.05    0.22
Q14   1   0.2897  0.6164  0.5240  11.00000  0.05    0.21
Q15   1   0.2245  0.6398  0.4572  11.00000  0.05    0.21
Q16   1   0.3146  0.5030  0.4153  11.00000  0.05    0.21
Q17   1   0.0276  0.5369  0.5160  11.00000  0.05    0.20
Q18   1   0.1403  0.5406  0.3776  11.00000  0.05    0.20
Q19   1   0.3263  0.5132  0.6501  11.00000  0.05    0.20
Q20   1   0.1513  0.4427  0.3944  11.00000  0.05    0.20
;
_shelx_res_checksum              62653
loop_
_space_group_symop_operation_xyz
'x, y, z'
'-x, -y, -z'
loop_
_atom_site_type_symbol
_atom_site_label
_atom_site_fract_x
_atom_site_fract_y
_atom_site_fract_z
_atom_site_U_iso_or_equiv
_atom_site_adp_type
_atom_site_calc_flag
_atom_site_occupancy
Cd Cd1 0.25340(2) 0.48919(2) 0.47730(2) 0.02732(5) Uani d 1
N N1 0.20476(18) 0.71564(13) 0.44404(12) 0.0305(3) Uani d 1
O O1 0.30676(17) 0.31702(14) 0.61377(11) 0.0404(3) Uani d 1
O O2 0.45967(16) 0.48771(13) 0.61720(10) 0.0357(3) Uani d 1
O O3 1.00031(18) 0.45799(13) 1.38430(10) 0.0386(3) Uani d 1
O O4 1.24677(19) 0.33918(15) 1.34201(13) 0.0509(4) Uani d 1
O O5 0.7588(3) 0.11391(14) 1.02079(13) 0.0644(5) Uani d 1
C C1 0.0762(2) 0.76843(18) 0.38000(17) 0.0387(4) Uani d 1
H H1 0.0035 0.7116 0.3530 0.046 Uiso calc 1
C C2 0.0477(3) 0.9037(2) 0.3527(2) 0.0522(5) Uani d 1
H H2 -0.0452 0.9389 0.3093 0.063 Uiso calc 1
C C3 0.1572(3) 0.98658(19) 0.3899(2) 0.0501(5) Uani d 1
H H3 0.1386 1.0791 0.3723 0.060 Uiso calc 1
C C4 0.2946(2) 0.93398(16) 0.45301(16) 0.0342(4) Uani d 1
C C5 0.3098(2) 0.79683(16) 0.48036(14) 0.0306(3) Uani d 1
H H5 0.3981 0.7596 0.5266 0.037 Uiso calc 1
C C6 0.4198(3) 1.02021(17) 0.48638(17) 0.0404(4) Uani d 1
H H6 0.3820 1.1115 0.4884 0.048 Uiso calc 1
C C7 0.4986(2) 0.31090(18) 0.75858(14) 0.0332(3) Uani d 1
C C8 0.6013(3) 0.38123(19) 0.81647(16) 0.0421(4) Uani d 1
H H8 0.6123 0.4715 0.7948 0.050 Uiso calc 1
C C9 0.6877(3) 0.3195(2) 0.90602(17) 0.0482(5) Uani d 1
H H9 0.7563 0.3675 0.9456 0.058 Uiso calc 1
C C10 0.6717(3) 0.18627(19) 0.93639(15) 0.0428(4) Uani d 1
C C11 0.5696(3) 0.11523(19) 0.87970(15) 0.0435(4) Uani d 1
H H11 0.5596 0.0248 0.9011 0.052 Uiso calc 1
C C12 0.4824(3) 0.17765(19) 0.79145(15) 0.0389(4) Uani d 1
H H12 0.4116 0.1298 0.7533 0.047 Uiso calc 1
C C13 0.8390(3) 0.18334(19) 1.09348(16) 0.0480(5) Uani d 1
C C14 0.7381(3) 0.2539(2) 1.16951(19) 0.0533(5) Uani d 1
H H14 0.6152 0.2591 1.1710 0.064 Uiso calc 1
C C15 0.8198(3) 0.3177(2) 1.24429(16) 0.0442(4) Uani d 1
H H15 0.7514 0.3682 1.2955 0.053 Uiso calc 1
C C16 1.0004(2) 0.30787(16) 1.24446(13) 0.0332(4) Uani d 1
C C17 1.0994(3) 0.2344(2) 1.16737(18) 0.0506(5) Uani d 1
H H17 1.2224 0.2263 1.1669 0.061 Uiso calc 1
C C18 1.0185(3) 0.1727(2) 1.09095(19) 0.0579(6) Uani d 1
H H18 1.0859 0.1242 1.0381 0.070 Uiso calc 1
C C19 0.4152(2) 0.37528(18) 0.65794(14) 0.0326(3) Uani d 1
C C20 1.0878(2) 0.37190(16) 1.32863(13) 0.0320(3) Uani d 1
loop_
_atom_site_aniso_label
_atom_site_aniso_U_11
_atom_site_aniso_U_22
_atom_site_aniso_U_33
_atom_site_aniso_U_12
_atom_site_aniso_U_13
_atom_site_aniso_U_23
Cd1 0.02974(7) 0.02179(6) 0.03276(7) -0.00512(4) -0.01441(5) -0.00227(4)
N1 0.0287(7) 0.0235(6) 0.0401(8) -0.0051(5) -0.0052(6) -0.0018(6)
O1 0.0367(6) 0.0461(7) 0.0403(7) -0.0061(5) -0.0197(5) 0.0008(6)
O2 0.0340(6) 0.0403(7) 0.0326(6) -0.0029(5) -0.0086(5) 0.0026(5)
O3 0.0492(7) 0.0389(7) 0.0320(6) -0.0126(6) -0.0067(5) -0.0141(5)
O4 0.0503(8) 0.0469(8) 0.0607(9) -0.0024(6) -0.0254(7) -0.0190(7)
O5 0.1140(14) 0.0343(7) 0.0518(9) 0.0009(8) -0.0583(9) -0.0102(6)
C1 0.0324(8) 0.0324(9) 0.0532(11) -0.0071(7) -0.0129(8) -0.0006(8)
C2 0.0479(11) 0.0357(10) 0.0737(15) -0.0009(8) -0.0288(11) 0.0072(10)
C3 0.0543(12) 0.0242(8) 0.0718(14) -0.0017(8) -0.0199(10) 0.0055(9)
C4 0.0373(9) 0.0229(7) 0.0434(9) -0.0049(6) -0.0046(7) -0.0039(7)
C5 0.0312(8) 0.0237(7) 0.0380(9) -0.0046(6) -0.0059(7) -0.0037(6)
C6 0.0477(10) 0.0205(7) 0.0551(11) -0.0072(7) -0.0074(9) -0.0064(7)
C7 0.0330(8) 0.0421(9) 0.0260(8) -0.0058(7) -0.0086(6) -0.0023(7)
C8 0.0557(11) 0.0366(9) 0.0370(9) -0.0106(8) -0.0186(8) -0.0009(8)
C9 0.0680(13) 0.0409(10) 0.0416(10) -0.0114(9) -0.0310(10) -0.0076(8)
C10 0.0626(12) 0.0380(9) 0.0305(9) -0.0009(8) -0.0238(8) -0.0072(7)
C11 0.0669(13) 0.0342(9) 0.0329(9) -0.0116(8) -0.0194(9) -0.0015(7)
C12 0.0462(10) 0.0434(10) 0.0311(8) -0.0144(8) -0.0152(7) -0.0035(7)
C13 0.0798(15) 0.0314(9) 0.0368(10) 0.0023(9) -0.0364(10) -0.0083(8)
C14 0.0533(12) 0.0559(13) 0.0556(13) -0.0015(10) -0.0275(10) -0.0178(10)
C15 0.0504(11) 0.0468(11) 0.0389(10) -0.0016(8) -0.0148(8) -0.0181(8)
C16 0.0487(10) 0.0254(7) 0.0273(8) -0.0017(7) -0.0159(7) -0.0042(6)
C17 0.0521(12) 0.0529(12) 0.0492(11) 0.0059(9) -0.0149(9) -0.0228(10)
C18 0.0770(16) 0.0545(13) 0.0448(11) 0.0112(11) -0.0200(11) -0.0275(10)
C19 0.0282(8) 0.0428(9) 0.0269(8) -0.0003(7) -0.0057(6) -0.0039(7)
C20 0.0471(10) 0.0239(7) 0.0272(8) -0.0095(7) -0.0119(7) 0.0008(6)
loop_
_atom_type_symbol
_atom_type_description
_atom_type_scat_dispersion_real
_atom_type_scat_dispersion_imag
_atom_type_scat_source
C C 0.0033 0.0016 'International Tables Vol C Tables 4.2.6.8 and 6.1.1.4'
H H 0.0000 0.0000 'International Tables Vol C Tables 4.2.6.8 and 6.1.1.4'
Cd Cd -0.8075 1.2024 'International Tables Vol C Tables 4.2.6.8 and 6.1.1.4'
N N 0.0061 0.0033 'International Tables Vol C Tables 4.2.6.8 and 6.1.1.4'
O O 0.0106 0.0060 'International Tables Vol C Tables 4.2.6.8 and 6.1.1.4'
loop_
_geom_angle_atom_site_label_1
_geom_angle_atom_site_label_2
_geom_angle_atom_site_label_3
_geom_angle_site_symmetry_1
_geom_angle_site_symmetry_3
_geom_angle
N1 Cd1 O1 . . 144.00(5)
N1 Cd1 O4 . 1_454 123.66(6)
O1 Cd1 O4 . 1_454 92.29(5)
N1 Cd1 O3 . 1_454 91.54(6)
O1 Cd1 O3 . 1_454 110.24(5)
O4 Cd1 O3 1_454 1_454 54.97(5)
N1 Cd1 O2 . . 96.89(6)
O1 Cd1 O2 . . 55.28(5)
O4 Cd1 O2 1_454 . 129.11(5)
O3 Cd1 O2 1_454 . 162.53(5)
N1 Cd1 O2 . 2_666 85.40(6)
O1 Cd1 O2 . 2_666 104.30(5)
O4 Cd1 O2 1_454 2_666 80.49(6)
O3 Cd1 O2 1_454 2_666 123.16(4)
O2 Cd1 O2 . 2_666 72.95(5)
N1 Cd1 O3 . 2_667 79.12(6)
O1 Cd1 O3 . 2_667 78.98(5)
O4 Cd1 O3 1_454 2_667 123.42(5)
O3 Cd1 O3 1_454 2_667 75.88(5)
O2 Cd1 O3 . 2_667 90.69(4)
O2 Cd1 O3 2_666 2_667 155.99(4)
N1 Cd1 C19 . . 121.50(6)
O1 Cd1 C19 . . 27.35(5)
O4 Cd1 C19 1_454 . 112.60(6)
O3 Cd1 C19 1_454 . 136.69(5)
O2 Cd1 C19 . . 27.95(5)
O2 Cd1 C19 2_666 . 89.30(5)
O3 Cd1 C19 2_667 . 83.38(5)
N1 Cd1 C20 . 1_454 109.01(6)
O1 Cd1 C20 . 1_454 102.75(5)
O4 Cd1 C20 1_454 1_454 27.33(5)
O3 Cd1 C20 1_454 1_454 27.64(5)
O2 Cd1 C20 . 1_454 153.30(5)
O2 Cd1 C20 2_666 1_454 102.15(5)
O3 Cd1 C20 2_667 1_454 100.21(5)
C19 Cd1 C20 . 1_454 128.95(5)
C5 N1 C1 . . 118.72(15)
C5 N1 Cd1 . . 121.52(11)
C1 N1 Cd1 . . 119.57(12)
C19 O1 Cd1 . . 93.95(11)
C19 O2 Cd1 . . 89.43(10)
C19 O2 Cd1 . 2_666 121.99(11)
Cd1 O2 Cd1 . 2_666 107.05(5)
C20 O3 Cd1 . 1_656 90.99(11)
C20 O3 Cd1 . 2_667 147.54(12)
Cd1 O3 Cd1 1_656 2_667 104.12(5)
C20 O4 Cd1 . 1_656 92.88(11)
C10 O5 C13 . . 118.23(15)
N1 C1 C2 . . 121.80(17)
N1 C1 H1 . . 119.1
C2 C1 H1 . . 119.1
C1 C2 C3 . . 119.11(18)
C1 C2 H2 . . 120.4
C3 C2 H2 . . 120.4
C2 C3 C4 . . 120.17(17)
C2 C3 H3 . . 119.9
C4 C3 H3 . . 119.9
C3 C4 C5 . . 116.90(16)
C3 C4 C6 . . 120.64(16)
C5 C4 C6 . . 122.45(17)
N1 C5 C4 . . 123.20(16)
N1 C5 H5 . . 118.4
C4 C5 H5 . . 118.4
C6 C6 C4 2_676 . 125.1(2)
C6 C6 H6 2_676 . 117.4
C4 C6 H6 . . 117.4
C8 C7 C12 . . 119.35(16)
C8 C7 C19 . . 120.32(17)
C12 C7 C19 . . 120.22(16)
C9 C8 C7 . . 120.57(18)
C9 C8 H8 . . 119.7
C7 C8 H8 . . 119.7
C10 C9 C8 . . 119.12(17)
C10 C9 H9 . . 120.4
C8 C9 H9 . . 120.4
C11 C10 O5 . . 115.34(17)
C11 C10 C9 . . 120.91(17)
O5 C10 C9 . . 123.70(17)
C12 C11 C10 . . 119.67(18)
C12 C11 H11 . . 120.2
C10 C11 H11 . . 120.2
C11 C12 C7 . . 120.37(17)
C11 C12 H12 . . 119.8
C7 C12 H12 . . 119.8
C14 C13 C18 . . 121.42(18)
C14 C13 O5 . . 119.7(2)
C18 C13 O5 . . 118.7(2)
C13 C14 C15 . . 119.1(2)
C13 C14 H14 . . 120.5
C15 C14 H14 . . 120.5
C16 C15 C14 . . 120.85(19)
C16 C15 H15 . . 119.6
C14 C15 H15 . . 119.6
C15 C16 C17 . . 118.86(17)
C15 C16 C20 . . 120.60(16)
C17 C16 C20 . . 120.51(17)
C18 C17 C16 . . 120.5(2)
C18 C17 H17 . . 119.7
C16 C17 H17 . . 119.7
C13 C18 C17 . . 119.2(2)
C13 C18 H18 . . 120.4
C17 C18 H18 . . 120.4
O1 C19 O2 . . 121.25(16)
O1 C19 C7 . . 119.80(16)
O2 C19 C7 . . 118.93(15)
O1 C19 Cd1 . . 58.70(9)
O2 C19 Cd1 . . 62.62(9)
C7 C19 Cd1 . . 178.09(12)
O4 C20 O3 . . 121.15(16)
O4 C20 C16 . . 119.20(16)
O3 C20 C16 . . 119.65(16)
O4 C20 Cd1 . 1_656 59.79(9)
O3 C20 Cd1 . 1_656 61.37(9)
C16 C20 Cd1 . 1_656 178.49(13)
loop_
_geom_bond_atom_site_label_1
_geom_bond_atom_site_label_2
_geom_bond_site_symmetry_2
_geom_bond_distance
_geom_bond_publ_flag
Cd1 O1 . 2.3271(15) y
Cd1 O2 . 2.4128(14) y
Cd1 O2 2_666 2.4436(14) y
Cd1 O3 1_454 2.3867(14) y
Cd1 O3 2_667 2.5366(15) y
Cd1 O4 1_454 2.3524(15) y
Cd1 N1 . 2.2872(14) y
Cd1 C19 . 2.7170(18) ?
Cd1 C20 1_454 2.7187(18) ?
N1 C5 . 1.337(2) ?
N1 C1 . 1.340(2) ?
O1 C19 . 1.251(2) ?
O2 C19 . 1.273(2) ?
O2 Cd1 2_666 2.4436(14) ?
O3 C20 . 1.261(2) ?
O3 Cd1 1_656 2.3867(14) ?
O3 Cd1 2_667 2.5366(15) ?
O4 C20 . 1.250(2) ?
O4 Cd1 1_656 2.3524(15) ?
O5 C10 . 1.381(2) ?
O5 C13 . 1.397(2) ?
C1 C2 . 1.378(3) ?
C1 H1 . 0.9400 ?
C2 C3 . 1.378(3) ?
C2 H2 . 0.9400 ?
C3 C4 . 1.384(3) ?
C3 H3 . 0.9400 ?
C4 C5 . 1.393(2) ?
C4 C6 . 1.470(2) ?
C5 H5 . 0.9400 ?
C6 C6 2_676 1.313(4) ?
C6 H6 . 0.9400 ?
C7 C8 . 1.388(2) ?
C7 C12 . 1.390(3) ?
C7 C19 . 1.493(2) ?
C8 C9 . 1.386(3) ?
C8 H8 . 0.9400 ?
C9 C10 . 1.383(3) ?
C9 H9 . 0.9400 ?
C10 C11 . 1.381(3) ?
C11 C12 . 1.379(3) ?
C11 H11 . 0.9400 ?
C12 H12 . 0.9400 ?
C13 C14 . 1.370(3) ?
C13 C18 . 1.372(4) ?
C14 C15 . 1.388(3) ?
C14 H14 . 0.9400 ?
C15 C16 . 1.382(3) ?
C15 H15 . 0.9400 ?
C16 C17 . 1.388(3) ?
C16 C20 . 1.499(2) ?
C17 C18 . 1.387(3) ?
C17 H17 . 0.9400 ?
C18 H18 . 0.9400 ?
C20 Cd1 1_656 2.7187(18) ?

_cod_database_fobs_code 2021331
