#------------------------------------------------------------------------------
#$Date: 2018-03-08 09:33:08 +0200 (Thu, 08 Mar 2018) $
#$Revision: 206836 $
#$URL: file:///home/coder/svn-repositories/cod/cif/2/02/10/2021049.cif $
#------------------------------------------------------------------------------
#
# This file is available in the Crystallography Open Database (COD),
# http://www.crystallography.net/. The original data for this entry
# were provided by IUCr Journals, http://journals.iucr.org/.
#
# The file may be used within the scientific community so long as
# proper attribution is given to the journal article from which the
# data were obtained.
#
data_2021049
loop_
_publ_author_name
'Kassim, Muhammad Arif'
'Yassin, Ubaidullah H. M.'
'Tan, Ai Ling'
'Usman, Anwar'
'Hamid, Malai Haniti S. A.'
_publ_section_title
;
 [1-(Pyrazin-2-yl)ethylidene]hydrazine: a new multitopic ligand for the
 design of hybrid molecular frameworks
;
_journal_coeditor_code           YO3048
_journal_issue                   4
_journal_name_full               'Acta Crystallographica Section C'
_journal_page_first
;
;
_journal_paper_doi               10.1107/S2053229618003273
_journal_volume                  74
_journal_year                    2018
_chemical_formula_iupac          'C6 H8 N4'
_chemical_formula_moiety         'C6 H8 N4'
_chemical_formula_sum            'C6 H8 N4'
_chemical_formula_weight         136.16
_chemical_name_systematic
;
[1-(Pyrazin-2-yl)ethylidene]hydrazine
;
_space_group_crystal_system      monoclinic
_space_group_IT_number           14
_space_group_name_Hall           '-P 2ybc'
_space_group_name_H-M_alt        'P 1 21/c 1'
_symmetry_space_group_name_Hall  '-P 2ybc'
_symmetry_space_group_name_H-M   'P 1 21/c 1'
_atom_sites_solution_hydrogens   mixed
_audit_creation_method           SHELXL-2014/7
_cell_angle_alpha                90
_cell_angle_beta                 114.0110(10)
_cell_angle_gamma                90
_cell_formula_units_Z            4
_cell_length_a                   6.9312(2)
_cell_length_b                   14.6542(5)
_cell_length_c                   7.1239(3)
_cell_measurement_reflns_used    4009
_cell_measurement_temperature    100(2)
_cell_measurement_theta_max      74.25
_cell_measurement_theta_min      6.80
_cell_volume                     660.97(4)
_computing_cell_refinement
;
APEX2 (Bruker, 2008)
;
_computing_data_collection
;
SAINT (Bruker, 2008)
;
_computing_data_reduction
;
SAINT (Bruker, 2008)
;
_computing_molecular_graphics
;
ORTEP-3 (Farrugia, 2012)
;
_computing_publication_material
;
SHELXTL (Bruker, 2008) and WinGX (Farrugia, 2012)
;
_computing_structure_refinement
;
SHELXL2014 (Sheldrick, 2015b)
;
_computing_structure_solution
;
SHELXT (Sheldrick, 2015a)
;
_diffrn_ambient_temperature      100(2)
_diffrn_measured_fraction_theta_full 0.983
_diffrn_measured_fraction_theta_max 0.979
_diffrn_measurement_device_type  'Bruker D8 Venture'
_diffrn_measurement_method       '\f and \w scans'
_diffrn_radiation_type           CuK\a
_diffrn_radiation_wavelength     1.54178
_diffrn_reflns_av_R_equivalents  0.0251
_diffrn_reflns_limit_h_max       8
_diffrn_reflns_limit_h_min       -7
_diffrn_reflns_limit_k_max       17
_diffrn_reflns_limit_k_min       -17
_diffrn_reflns_limit_l_max       4
_diffrn_reflns_limit_l_min       -8
_diffrn_reflns_number            4097
_diffrn_reflns_theta_full        67.679
_diffrn_reflns_theta_max         70.011
_diffrn_reflns_theta_min         6.039
_exptl_absorpt_coefficient_mu    0.748
_exptl_absorpt_correction_T_max  0.7538
_exptl_absorpt_correction_T_min  0.6374
_exptl_absorpt_correction_type   multi-scan
_exptl_absorpt_process_details
;
(SADABS; Bruker, 2008)
;
_exptl_crystal_colour            colourless
_exptl_crystal_density_diffrn    1.368
_exptl_crystal_density_method    'Not Measured'
_exptl_crystal_description       block
_exptl_crystal_F_000             288
_exptl_crystal_size_max          0.420
_exptl_crystal_size_mid          0.412
_exptl_crystal_size_min          0.260
_refine_diff_density_max         0.276
_refine_diff_density_min         -0.200
_refine_ls_extinction_coef       0.054(6)
_refine_ls_extinction_expression Fc^*^=kFc[1+0.001xFc^2^\l^3^/sin(2\q)]^-1/4^
_refine_ls_extinction_method
;
SHELXL2014 (Sheldrick, 2015b)
;
_refine_ls_goodness_of_fit_ref   1.073
_refine_ls_hydrogen_treatment    mixed
_refine_ls_matrix_type           full
_refine_ls_number_parameters     101
_refine_ls_number_reflns         1229
_refine_ls_number_restraints     0
_refine_ls_restrained_S_all      1.073
_refine_ls_R_factor_all          0.0383
_refine_ls_R_factor_gt           0.0380
_refine_ls_shift/su_max          0.000
_refine_ls_shift/su_mean         0.000
_refine_ls_structure_factor_coef Fsqd
_refine_ls_weighting_details
'w=1/[\s^2^(Fo^2^)+(0.0533P)^2^+0.2650P] where P=(Fo^2^+2Fc^2^)/3'
_refine_ls_weighting_scheme      calc
_refine_ls_wR_factor_gt          0.1023
_refine_ls_wR_factor_ref         0.1024
_reflns_number_gt                1214
_reflns_number_total             1229
_reflns_threshold_expression     'I > 2\s(I)'
_cod_data_source_file            yo3048sup1.cif
_cod_data_source_block           I
_cod_database_code               2021049
_shelx_space_group_comment
;
The symmetry employed for this shelxl refinement is uniquely defined
by the following loop, which should always be used as a source of
symmetry information in preference to the above space-group names.
They are only intended as comments.
;
_shelx_estimated_absorpt_t_min   0.744
_shelx_estimated_absorpt_t_max   0.829
_shelx_hkl_file
;
   1   0   0    4.31    0.22
  -1   0   0    4.66    0.23
   2   0   0   73.50    3.24
  -2   0   0   77.70    3.24
  -3   0   0  736.55   30.39
   3   0   0  702.09   30.39
   4   0   0    0.68    0.08
  -4   0   0    0.73    0.08
  -4   0   0    0.96    0.08
  -5   0   0   20.08    0.89
  -5   0   0   20.55    0.89
   5   0   0   20.53    0.90
   5   0   0   21.53    0.89
   6   0   0   68.50    2.88
  -6   0   0   67.72    2.88
   6   0   0   68.97    2.88
   7   0   0   34.85    1.48
  -7   0   0   35.29    1.49
   2  -1   0    0.28    0.08
  -2  -1   0    0.19    0.08
  -2   1   0    0.23    0.08
   2   1   0    0.20    0.07
   3  -1   0    1.99    0.11
   3  -1   0    2.35    0.25
   3   1   0    2.12    0.12
   3   1   0    1.96    0.21
  -3   1   0    1.85    0.13
  -3   1   0    2.17    0.23
  -4  -1   0   58.24    2.48
  -4  -1   0   58.97    2.49
   4  -1   0   59.93    2.49
   4  -1   0   58.89    2.79
   4  -1   0   60.26    2.49
  -4   1   0   58.53    2.49
  -4   1   0   58.73    2.49
   4   1   0   60.44    2.49
  -4   1   0   58.10    2.49
  -5  -1   0   39.41    1.66
  -5  -1   0   37.83    1.66
   5  -1   0   38.89    1.66
   5  -1   0   38.82    1.66
   5   1   0   39.41    1.65
   5   1   0   39.02    1.66
  -5   1   0   38.77    1.65
  -5   1   0   40.43    1.66
  -6  -1   0    9.35    0.43
   6  -1   0    9.46    0.42
   6  -1   0    9.30    0.44
   6   1   0    9.13    0.42
  -6   1   0    9.53    0.43
   6   1   0    9.49    0.43
  -6   1   0    9.28    0.42
  -7  -1   0   13.96    0.61
   7  -1   0   14.29    0.61
   7   1   0   13.72    0.61
  -7   1   0   14.49    0.62
   0  -2   0   37.08    1.61
   0   2   0   35.95    1.61
   1  -2   0  594.44   24.92
  -2  -2   0  252.84   11.05
   2  -2   0  262.39   11.10
  -2   2   0  259.00   11.05
   2   2   0  262.42   11.01
   3  -2   0   67.61    3.33
  -3  -2   0   76.47    3.26
   3  -2   0   75.14    3.10
  -3   2   0   80.50    3.25
   3   2   0   73.70    3.23
  -3   2   0   71.68    3.09
   3   2   0   71.67    3.09
   4  -2   0   42.69    1.82
   4  -2   0   44.95    1.83
  -4  -2   0   42.24    1.82
  -4  -2   0   42.59    1.82
   4  -2   0   42.32    2.18
  -4   2   0   42.03    1.83
  -4   2   0   44.25    1.83
  -4   2   0   43.53    2.11
   4   2   0   44.50    1.83
  -4   2   0   43.25    1.83
   5  -2   0    2.51    0.14
  -5  -2   0    2.69    0.15
   5  -2   0    2.77    0.17
  -5   2   0    2.80    0.16
  -5   2   0    2.72    0.15
   5   2   0    2.66    0.16
   6  -2   0    3.04    0.22
  -6  -2   0    3.86    0.19
   6  -2   0    3.42    0.18
  -6   2   0    3.44    0.19
   6   2   0    3.53    0.18
   6   2   0    3.57    0.19
  -6   2   0    3.45    0.18
   7  -2   0    0.08    0.03
  -7  -2   0    0.05    0.04
   7   2   0    0.11    0.08
   7   2   0    0.06    0.04
  -7   2   0    0.09    0.04
   0   3   0    0.02    0.02
  -1  -3   0  333.03   15.16
   1  -3   0  374.87   15.22
  -1   3   0  374.51   15.19
   1   3   0  358.26   15.14
   2  -3   0  347.96   14.86
  -3  -3   0   10.20    0.64
   3  -3   0   10.93    0.49
   3   3   0   11.32    0.49
  -3   3   0   11.71    0.64
  -3   3   0   11.29    0.49
   3   3   0   11.96    0.63
   4  -3   0    4.08    0.21
  -4  -3   0    4.36    0.20
   4  -3   0    4.63    0.22
   4   3   0    4.19    0.21
  -4   3   0    4.17    0.22
  -4   3   0    4.05    0.55
  -4   3   0    4.03    0.21
  -4   3   0    4.24    0.22
  -5  -3   0   76.71    3.27
   5  -3   0   77.15    3.27
   5  -3   0   78.79    3.28
   5   3   0   78.46    3.27
  -5   3   0   77.48    3.28
  -5   3   0   78.27    3.27
   6  -3   0   93.29    3.94
  -6  -3   0   92.52    3.94
   6   3   0   92.51    3.94
  -6   3   0   95.43    3.94
   6   3   0   95.15    3.95
  -6   3   0   94.60    3.95
   7  -3   0   16.79    0.72
  -7  -3   0   16.66    0.72
   7   3   0   15.77    0.72
  -7   3   0   16.80    0.72
   7   3   0   17.22    0.72
   0   4   0   96.97    4.29
   0   4   0  100.09    4.30
   1  -4   0    8.06    0.44
  -1   4   0    8.68    0.43
  -2  -4   0   36.09    1.71
   2  -4   0   37.41    1.74
   2   4   0   38.82    1.69
  -2   4   0   40.58    1.72
   3  -4   0   20.27    1.15
   3  -4   0   20.79    0.94
   3   4   0   22.84    1.08
  -3   4   0   23.13    0.94
   3   4   0   22.07    0.94
  -3   4   0   22.45    1.10
   4  -4   0   36.90    1.59
   4  -4   0   37.31    1.60
  -4  -4   0   38.07    1.59
   4   4   0   38.27    1.59
  -4   4   0   36.54    1.60
  -4   4   0   37.88    1.59
  -4   4   0   37.92    1.59
  -5  -4   0   56.37    2.41
   5  -4   0   56.38    2.42
  -5   4   0   59.22    2.43
   5   4   0   56.78    2.42
  -5   4   0   57.91    2.42
   6  -4   0   39.12    1.67
  -6  -4   0   39.12    1.66
   6   4   0   38.95    1.66
  -6   4   0   39.95    1.68
   6   4   0   39.65    1.67
  -6   4   0   39.09    1.66
  -7  -4   0   19.91    0.82
   7  -4   0   19.10    0.82
   7   4   0   19.95    0.83
   7   4   0   18.50    0.83
  -7   4   0   19.16    0.83
   1  -5   0  558.54   23.22
  -1   5   0  571.48   23.15
   1   5   0  517.14   23.08
   2  -5   0  104.29    4.72
  -2   5   0  108.89    4.56
  -2   5   0  110.58    4.68
   2   5   0  111.83    4.65
   3  -5   0   64.00    3.18
   3  -5   0   68.09    2.93
  -3  -5   0   69.02    2.92
   3   5   0   68.83    2.92
  -3   5   0   68.40    2.92
   3   5   0   75.73    3.10
  -3   5   0   70.53    2.93
  -3   5   0   72.62    3.13
  -4  -5   0  101.41    4.13
   4  -5   0   97.47    4.14
  -4   5   0   98.38    4.14
  -4   5   0   99.40    4.15
  -4   5   0   98.79    4.14
   4   5   0   97.25    4.14
  -5  -5   0   34.25    1.39
   5  -5   0   32.73    1.40
  -5   5   0   32.80    1.39
  -5   5   0   32.84    1.41
  -5   5   0   30.87    1.39
   5   5   0   32.69    1.39
   6  -5   0    2.54    0.18
  -6  -5   0    3.04    0.16
   6   5   0    3.05    0.16
   6   5   0    2.97    0.16
  -6   5   0    2.92    0.16
  -7  -5   0    3.29    0.15
   7  -5   0    3.16    0.17
   7  -5   0    3.06    0.17
   7   5   0    3.08    0.17
   7   5   0    3.21    0.15
   0   6   0   60.76    2.59
   0   6   0   57.69    2.58
  -1   6   0  564.13   23.52
   2  -6   0  369.73   15.64
  -3  -6   0    3.80    0.19
   3  -6   0    4.64    0.22
  -3   6   0    4.34    0.21
  -3   6   0    4.03    0.21
  -4  -6   0  218.19    8.83
   4  -6   0  200.45    8.85
  -4   6   0  207.34    8.85
  -4   6   0  216.37    8.85
   4   6   0  209.88    8.84
  -4   6   0  217.42    8.84
   5  -6   0  105.77    4.38
  -5  -6   0   99.30    4.37
  -5   6   0  105.39    4.38
   5   6   0  103.81    4.38
  -5   6   0  105.10    4.38
  -5   6   0  107.45    4.40
   6  -6   0    8.53    0.39
   6   6   0    8.81    0.39
  -6   6   0    8.32    0.41
   7  -6   0   -0.01    0.05
  -7  -6   0    0.06    0.02
   7   6   0    0.11    0.05
   0   7   0    0.01    0.06
  -1   7   0    7.54    0.51
   1   7   0    6.92    0.42
   1   7   0    7.14    0.33
  -1   7   0    7.66    0.33
  -1   7   0    7.38    0.45
   2   7   0    1.44    0.10
  -2   7   0    1.36    0.25
  -2   7   0    1.45    0.11
   3  -7   0    7.18    0.36
  -3  -7   0    7.73    0.34
  -3   7   0    7.70    0.35
   3   7   0    7.69    0.35
  -3   7   0    7.52    0.35
   4  -7   0    1.09    0.11
  -4   7   0    0.95    0.10
  -4   7   0    0.88    0.11
   4   7   0    0.94    0.10
  -5  -7   0   36.44    1.47
   5  -7   0   33.87    1.48
  -5   7   0   35.52    1.48
  -5   7   0   33.19    1.49
   6  -7   0    3.18    0.17
  -6  -7   0    3.59    0.16
   6   7   0    3.32    0.17
   6   7   0    3.30    0.18
  -6   7   0    3.32    0.17
   7  -7   0    0.51    0.08
   7   7   0    0.70    0.05
   0   8   0    4.97    0.23
   0   8   0    4.78    0.36
   1  -8   0    1.50    0.11
   1   8   0    1.68    0.23
   1   8   0    1.65    0.26
  -1   8   0    1.56    0.11
  -1   8   0    1.89    0.24
  -1   8   0    1.80    0.32
  -2  -8   0    9.78    0.43
   2  -8   0    9.41    0.44
  -2   8   0   10.26    0.44
  -2   8   0    9.49    0.44
   2   8   0    9.93    0.44
   3  -8   0    6.72    0.33
  -3   8   0    7.13    0.34
  -3   8   0    7.25    0.33
   3   8   0    7.14    0.33
  -4  -8   0   78.79    3.30
   4  -8   0   76.86    3.31
  -4   8   0   78.79    3.32
  -4   8   0   79.04    3.31
   4   8   0   80.25    3.31
   5  -8   0   23.98    1.08
  -5  -8   0   25.89    1.08
  -5   8   0   25.59    1.09
  -5   8   0   25.14    1.09
   5   8   0   25.96    1.09
   6  -8   0   14.80    0.65
  -6  -8   0   14.15    0.63
   6   8   0   15.19    0.64
  -6   8   0   15.01    0.64
   6   8   0   14.47    0.64
   7  -8   0   31.26    1.20
   7   8   0   25.73    1.20
   1  -9   0   18.59    0.83
  -1  -9   0   19.14    0.82
  -1   9   0   20.52    0.83
  -1   9   0   18.62    0.83
   1   9   0   19.69    0.83
   2  -9   0    4.64    0.23
  -2  -9   0    4.60    0.21
   2   9   0    4.41    0.22
  -2   9   0    4.45    0.23
  -2   9   0    4.44    0.23
   3  -9   0  115.56    4.85
  -3  -9   0  116.53    4.83
  -3   9   0  114.59    4.85
   3   9   0  113.91    4.85
  -3   9   0  117.68    4.85
   4  -9   0   40.44    1.73
  -4  -9   0   40.26    1.71
   4   9   0   41.08    1.73
  -4   9   0   40.19    1.73
  -4   9   0   41.23    1.73
   5  -9   0   81.52    3.36
  -5  -9   0   78.71    3.33
   5   9   0   80.11    3.35
  -5   9   0   79.95    3.35
  -5   9   0   77.79    3.34
  -6  -9   0    0.21    0.04
   6  -9   0    0.39    0.07
   6   9   0    0.26    0.04
   6   9   0    0.23    0.05
  -6   9   0    0.26    0.04
   0 -10   0    4.79    0.23
   0  10   0    5.00    0.24
   0  10   0    4.58    0.24
  -1 -10   0   21.78    0.93
   1 -10   0   21.44    0.94
   1  10   0   22.18    0.94
  -1  10   0   22.35    0.94
  -1  10   0   21.34    0.94
  -2 -10   0   12.01    0.53
   2 -10   0   11.81    0.53
  -2  10   0   12.53    0.54
  -2  10   0   11.77    0.54
   2  10   0   11.87    0.53
   3 -10   0    6.87    0.34
  -3 -10   0    7.09    0.31
  -3  10   0    7.29    0.34
   3  10   0    7.03    0.33
  -3  10   0    6.96    0.33
  -4 -10   0   18.50    0.77
   4 -10   0   17.46    0.80
  -4  10   0   18.45    0.79
  -5 -10   0   56.38    2.29
   5 -10   0   53.71    2.33
   5  10   0   55.13    2.31
  -5  10   0   53.54    2.30
   6 -10   0    0.56    0.06
  -6  10   0    0.56    0.05
   6  10   0    0.64    0.06
   6  10   0    0.62    0.07
   0  11   0    0.62    0.09
   0  11   0    0.55    0.09
   1 -11   0  228.35    9.87
   1  11   0  237.31    9.87
  -1  11   0  242.56    9.88
  -1  11   0  237.11    9.87
  -2 -11   0   96.78    3.97
   2 -11   0   91.48    3.99
  -2  11   0   98.76    4.00
   2  11   0   95.78    3.99
  -2  11   0   92.11    3.99
   3 -11   0    0.53    0.09
  -3 -11   0    0.45    0.06
   3  11   0    0.64    0.08
  -3  11   0    0.63    0.09
  -3  11   0    0.61    0.10
   4 -11   0    0.23    0.06
  -4  11   0    0.31    0.06
  -4  11   0    0.17    0.07
   4  11   0    0.11    0.05
   5 -11   0    0.18    0.04
  -5  11   0    0.21    0.04
  -5  11   0    0.05    0.09
   6 -11   0    0.75    0.06
   6  11   0    0.81    0.07
   6  11   0    1.03    0.06
  -6  11   0    0.86    0.06
   0 -12   0    3.15    0.16
   0  12   0    3.12    0.17
   0  12   0    2.92    0.16
   1 -12   0  223.02    9.62
   1  12   0  238.56    9.63
  -1  12   0  235.35    9.63
  -1  12   0  224.74    9.63
   2 -12   0   29.53    1.29
  -2 -12   0   31.21    1.27
   2  12   0   30.16    1.29
  -2  12   0   30.32    1.30
  -2  12   0   29.80    1.29
   3 -12   0    0.56    0.09
  -3 -12   0    0.61    0.06
   3  12   0    0.60    0.08
  -3  12   0    0.59    0.09
  -3  12   0    0.54    0.09
  -4 -12   0   28.60    1.20
   4  12   0   29.65    1.23
  -4  12   0   27.90    1.23
   5 -12   0    6.31    0.29
   5  12   0    6.40    0.29
  -5  12   0    6.32    0.29
   0 -13   0    0.02    0.04
   0  13   0    0.01    0.05
   0  13   0    0.04    0.05
  -1 -13   0   55.27    2.23
   1 -13   0   53.33    2.24
   1  13   0   52.33    2.25
  -1  13   0   52.65    2.26
  -1  13   0   52.55    2.25
   2 -13   0    0.94    0.09
  -2 -13   0    1.09    0.08
   2  13   0    1.29    0.11
  -2  13   0    1.03    0.10
  -2  13   0    1.38    0.11
   3 -13   0   12.42    0.55
   3  13   0   12.82    0.56
  -3  13   0   12.13    0.55
  -3  13   0   12.49    0.56
   4 -13   0    2.09    0.12
  -4  13   0    2.09    0.13
  -4  13   0    2.23    0.12
   4  13   0    2.23    0.13
   5 -13   0    0.71    0.06
  -5  13   0    0.64    0.05
   5  13   0    0.65    0.06
   0 -14   0    4.43    0.21
   0  14   0    4.40    0.23
   1 -14   0   37.64    1.61
  -1 -14   0   38.66    1.60
   1  14   0   38.20    1.62
  -1  14   0   37.47    1.62
  -1  14   0   38.39    1.63
   2 -14   0   99.10    4.32
   2  14   0  106.09    4.33
  -2  14   0  104.07    4.33
   4 -14   0    0.50    0.05
   4  14   0    0.38    0.08
  -4  14   0    0.63    0.08
  -4  14   0    0.50    0.06
   5 -14   0    9.76    0.36
  -5  14   0    7.36    0.37
   1 -15   0   66.90    2.77
  -1  15   0   64.75    2.79
   1  15   0   67.03    2.79
   2 -15   0   12.48    0.54
  -2  15   0   12.09    0.56
  -2  15   0   12.96    0.56
   2  15   0   13.00    0.56
   3 -15   0    3.13    0.15
  -3  15   0    3.13    0.16
   3  15   0    3.32    0.17
  -3  15   0    3.05    0.17
   4 -15   0    1.26    0.07
   4  15   0    1.13    0.08
  -4  15   0    1.14    0.07
   0  16   0   15.22    0.67
   1  16   0    0.13    0.05
   2  16   0    5.65    0.26
  -2  16   0    5.53    0.26
   3  16   0   22.89    0.96
  -3  16   0   22.32    0.96
   0  17   0    0.30    0.07
  -1  17   0    7.78    0.35
  -2  17   0    0.24    0.05
   2  17   0    0.23    0.05
   8   0  -1    0.21    0.03
   7   0  -1   -0.04    0.07
   7   0  -1    0.02    0.04
   6   0  -1    0.03    0.03
  -6   0   1    0.05    0.05
  -5   0   1    0.09    0.06
   5   0  -1    0.01    0.03
   5   0  -1    0.04    0.04
   4   0  -1   -0.02    0.03
   4   0  -1    0.11    0.05
   4   0  -1    0.05    0.17
  -4   0   1    0.01    0.04
  -4   0   1    0.03    0.14
  -3   0   1    0.03    0.06
   3   0  -1    0.02    0.04
   3   0  -1    0.05    0.07
  -2   0   1    0.04    0.03
   1   0  -1    0.01    0.02
   0   0   1    0.07    0.03
  -1   0  -1    0.01    0.04
   1   0   1    0.02    0.03
   2   0   1    0.03    0.06
  -2   0  -1    0.02    0.07
  -3   0  -1    0.09    0.14
   3   0   1    0.08    0.13
  -3   0  -1    0.02    0.05
  -4   0  -1    0.71    0.08
  -5   0  -1    0.09    0.05
  -5   0  -1    0.03    0.04
   5   0   1    0.07    0.04
  -6   0  -1    0.02    0.05
   7   0   1    0.14    0.04
   8  -1  -1    6.06    0.27
   8   1  -1    6.30    0.27
   7  -1  -1   32.42    1.35
   7  -1  -1   30.54    1.35
  -7  -1   1   31.51    1.35
   7   1  -1   32.76    1.35
  -7   1   1   32.05    1.35
   7   1  -1   31.34    1.36
   6  -1  -1   44.21    1.89
  -6  -1   1   44.66    1.89
   6  -1  -1   44.12    1.89
   6   1  -1   44.92    1.89
   6   1  -1   45.30    1.89
  -6   1   1   44.06    1.89
   5  -1  -1   54.38    2.23
  -5   1   1   51.74    2.22
   5   1  -1   51.82    2.22
   4  -1  -1    0.40    0.06
   4  -1  -1    0.41    0.21
   4   1  -1    0.43    0.06
   4   1  -1    0.40    0.19
  -4   1   1    0.35    0.07
   3   1  -1  305.09   12.73
   2  -1  -1    8.02    0.44
  -2   1   1    8.86    0.43
   2   1  -1    8.68    0.42
   1  -1  -1    2.45    0.16
  -1  -1   1    3.07    0.13
  -1   1   1    2.50    0.15
   1   1  -1    2.65    0.13
   0  -1  -1    0.52    0.07
   0  -1   1    0.60    0.05
   0   1  -1    0.61    0.05
   1  -1   1   10.05    0.48
  -1  -1  -1    9.36    0.49
  -1   1  -1   10.03    0.48
   1   1   1    9.98    0.48
   2  -1   1  111.61    4.72
  -2  -1  -1  108.73    4.73
   2   1   1  108.49    4.71
   2   1   1  106.49    4.60
  -2   1  -1  114.61    4.72
   3  -1   1  127.97    5.19
   3  -1   1  124.11    5.40
  -3  -1  -1  123.54    5.19
  -3   1  -1  126.93    5.20
  -3   1  -1  121.98    5.19
   3   1   1  121.38    5.38
   3   1   1  123.90    5.19
  -3   1  -1  123.38    5.40
  -4  -1  -1   53.96    2.25
  -4  -1  -1   52.05    2.24
   4  -1   1   53.58    2.24
   4  -1   1   53.95    2.25
   4   1   1   53.77    2.25
  -4   1  -1   52.47    2.24
  -4   1  -1   54.10    2.25
  -4   1  -1   52.35    2.25
   5  -1   1    1.78    0.16
  -5  -1  -1    2.20    0.13
   5  -1   1    2.15    0.13
  -5   1  -1    2.04    0.12
  -5   1  -1    2.10    0.14
   5   1   1    2.06    0.15
  -6   1  -1   69.83    2.93
   7  -1   1    9.97    0.47
  -7  -1  -1   11.37    0.48
  -7   1  -1   11.54    0.48
   7   1   1   11.08    0.47
   8  -2  -1    0.22    0.04
   8   2  -1    0.06    0.04
  -7  -2   1   12.55    0.56
   7  -2  -1   12.84    0.56
   7   2  -1   13.37    0.56
  -7   2   1   12.32    0.56
   7   2  -1   12.52    0.56
   6  -2  -1    4.18    0.27
   6  -2  -1    5.33    0.24
  -6  -2   1    5.29    0.24
  -6   2   1    5.02    0.24
  -6   2   1    4.82    0.24
   6   2  -1    4.51    0.26
   6   2  -1    5.12    0.24
   5  -2  -1    0.19    0.05
  -5  -2   1    0.16    0.04
   5  -2  -1    0.06    0.06
   4  -2  -1  149.33    6.46
  -4  -2   1  141.58    6.15
   4  -2  -1  155.25    6.17
   4  -2  -1  142.69    6.15
  -4   2   1  141.07    6.16
  -4   2   1  148.97    6.15
   4   2  -1  151.71    6.16
  -3  -2   1    3.86    0.30
  -3   2   1    4.74    0.31
   3   2  -1    4.37    0.29
   2  -2  -1   47.06    2.18
  -2  -2   1   52.28    2.14
   2   2  -1   50.70    2.14
  -2   2   1   49.21    2.16
   1  -2  -1  125.58    5.45
  -1  -2   1  125.01    5.27
   1   2  -1  128.24    5.27
  -1   2   1  124.49    5.42
  -1  -2  -1   18.08    0.89
   1  -2   1   19.20    0.87
   1   2   1   19.12    0.88
  -1   2  -1   20.13    0.87
   2  -2   1   23.87    1.33
  -2  -2  -1   27.67    1.32
  -2   2  -1   31.01    1.31
   2   2   1   29.50    1.29
   3  -2   1   54.88    2.21
  -3  -2  -1   49.77    2.44
  -3  -2  -1   57.19    2.22
   3  -2   1   51.88    2.21
   3  -2   1   50.05    2.42
  -3   2  -1   49.49    2.21
  -3   2  -1   53.33    2.42
   3   2   1   56.61    2.51
   3   2   1   51.73    2.21
  -3   2  -1   50.30    2.21
   4  -2   1   70.41    2.99
   4  -2   1   70.50    2.99
  -4  -2  -1   72.91    2.98
  -4  -2  -1   71.50    2.99
   4   2   1   70.26    2.99
  -4   2  -1   69.03    2.99
  -4   2  -1   73.12    2.99
  -4   2  -1   70.80    2.99
  -5  -2  -1    5.42    0.26
   5  -2   1    5.36    0.26
  -5  -2  -1    5.60    0.27
   5   2   1    5.36    0.27
   5   2   1    5.58    0.26
  -5   2  -1    5.39    0.26
  -5   2  -1    5.49    0.27
   6   2   1   30.33    1.34
  -6   2  -1   32.55    1.33
  -7  -2  -1    0.26    0.04
   7  -2   1    0.19    0.05
   7   2   1    0.30    0.05
   8  -3  -1    3.65    0.17
   8   3  -1    3.77    0.17
   7  -3  -1   25.62    1.10
  -7  -3   1   25.34    1.09
  -7   3   1   25.60    1.10
   7   3  -1   25.21    1.10
   7   3  -1   26.17    1.09
  -6  -3   1   79.91    3.44
   6  -3  -1   83.11    3.45
  -6   3   1   82.00    3.44
  -6   3   1   80.38    3.45
   6   3  -1   84.48    3.44
  -5  -3   1    0.30    0.06
   5  -3  -1    0.37    0.06
   5  -3  -1    0.40    0.08
  -5   3   1    0.38    0.07
  -5   3   1    0.37    0.07
   4  -3  -1    4.19    0.20
  -4  -3   1    3.91    0.18
   4  -3  -1    3.66    0.19
   4  -3  -1    3.51    0.45
  -4   3   1    4.07    0.19
  -4   3   1    3.57    0.20
  -3  -3   1   42.85    1.87
   3  -3  -1   41.55    1.76
   3  -3  -1   41.73    1.94
  -3   3   1   43.20    1.90
   3   3  -1   39.52    1.92
   2  -3  -1   67.06    3.03
  -2   3   1   72.28    3.01
  -1   3   1   20.14    0.91
   1   3  -1   20.37    0.83
  -1   3   1   18.20    0.89
   0  -3   1   26.28    1.18
   0  -3  -1   26.64    1.22
   0   3   1   27.92    1.22
   0   3  -1   28.60    1.17
   1  -3   1   11.64    0.57
  -1  -3  -1   10.93    0.59
   1   3   1   11.87    0.58
  -1   3  -1   12.25    0.56
  -2  -3  -1   80.73    3.62
   2  -3   1   80.69    3.60
  -2   3  -1   85.87    3.59
  -2   3  -1   82.95    3.47
   2   3   1   83.65    3.58
  -3  -3  -1    9.23    0.40
   3  -3   1    8.38    0.40
   3  -3   1    8.42    0.63
  -3  -3  -1    9.56    0.40
   3   3   1    8.77    0.60
  -3   3  -1    8.97    0.61
  -3   3  -1    9.07    0.40
  -3   3  -1    9.03    0.40
  -4  -3  -1    0.18    0.05
   4  -3   1    0.20    0.05
  -4   3  -1    0.12    0.07
  -4   3  -1    0.10    0.06
   4   3   1    0.23    0.06
  -5  -3  -1    3.65    0.19
   5  -3   1    3.75    0.19
  -5  -3  -1    3.38    0.19
   5   3   1    3.66    0.19
  -5   3  -1    3.46    0.20
  -5   3  -1    3.59    0.19
   6  -3   1   28.39    1.20
  -6   3  -1   28.84    1.21
   6   3   1   27.72    1.21
  -6   3  -1   28.00    1.20
  -7   3  -1   21.77    0.93
   7   3   1   21.03    0.91
   8   4  -1    0.73    0.05
   7  -4  -1    2.02    0.14
  -7  -4   1    1.95    0.11
   7  -4  -1    1.91    0.11
   7   4  -1    2.34    0.11
  -7   4   1    1.94    0.12
   7   4  -1    1.89    0.12
   6  -4  -1  171.08    7.08
   6  -4  -1  171.55    7.08
  -6  -4   1  168.87    7.07
  -6   4   1  168.71    7.09
   6   4  -1  161.00    7.08
   6   4  -1  170.59    7.07
  -6   4   1  172.92    7.07
   5  -4  -1   13.88    0.62
  -5  -4   1   13.46    0.60
   5  -4  -1   13.94    0.61
  -5   4   1   13.48    0.61
  -5   4   1   13.79    0.60
   5   4  -1   13.87    0.60
  -4  -4   1   21.68    0.92
   4  -4  -1   21.86    0.93
   4  -4  -1   19.14    1.31
   4  -4  -1   21.95    0.93
  -4   4   1   22.24    1.21
  -4   4   1   22.27    0.92
   4   4  -1   22.74    0.92
  -4   4   1   21.17    0.92
  -4   4   1   20.66    0.93
   3  -4  -1   38.00    1.62
   3  -4  -1   36.48    1.82
  -3  -4   1   39.69    1.74
   3   4  -1   38.55    1.62
  -3   4   1   38.44    1.62
   3   4  -1   39.23    1.72
   2  -4  -1   25.25    1.29
  -2  -4   1   27.12    1.22
  -2   4   1   28.75    1.29
   2   4  -1   30.24    1.22
   1  -4  -1  172.88    7.37
  -1   4   1  175.05    7.35
   1   4  -1  164.09    7.11
   1   4  -1  164.50    7.10
   0  -4   1  264.83   11.41
   0   4   1  275.24   11.56
   0   4  -1  275.42   11.38
   0   4   1  266.68   11.57
  -1  -4  -1    1.28    0.16
   1  -4   1    1.48    0.15
   1   4   1    1.40    0.15
  -1   4  -1    1.67    0.14
  -2  -4  -1    0.80    0.20
   2  -4   1    0.86    0.19
  -2   4  -1    0.89    0.07
   2   4   1    0.95    0.07
  -2   4  -1    1.10    0.17
   2   4   1    0.95    0.16
   3  -4   1   20.91    0.93
  -3  -4  -1   21.06    0.93
  -3  -4  -1   21.82    0.93
  -3   4  -1   22.29    0.94
  -3   4  -1   21.32    0.93
  -3   4  -1   21.96    1.17
   3   4   1   23.07    0.93
  -4  -4  -1   15.13    0.65
  -4  -4  -1   15.02    0.65
  -4   4  -1   15.42    0.66
   4   4   1   15.16    0.66
  -4   4  -1   14.71    0.66
  -4   4  -1   14.94    0.67
  -5  -4  -1  129.75    5.54
   5  -4   1  133.39    5.54
  -5   4  -1  133.39    5.54
   5   4   1  124.61    5.56
  -5   4  -1  136.79    5.54
  -5   4  -1  135.83    5.55
   6  -4   1   23.48    1.03
  -6  -4  -1   24.03    1.03
   6   4   1   23.06    1.03
  -6   4  -1   24.36    1.04
  -6   4  -1   24.95    1.03
   6   4   1   24.79    1.03
  -7  -5   1    0.13    0.03
   7  -5  -1    0.10    0.03
   7  -5  -1    0.20    0.07
   7   5  -1    0.10    0.05
   7   5  -1    0.16    0.03
   6  -5  -1   10.18    0.48
  -6  -5   1   10.27    0.47
  -6   5   1   10.71    0.47
   6   5  -1   11.82    0.48
  -6   5   1   10.02    0.49
   6   5  -1   10.22    0.47
   5  -5  -1  334.91   14.05
  -5   5   1  338.14   14.06
  -4  -5   1   11.85    0.50
   4  -5  -1   11.92    0.52
   4  -5  -1   11.38    0.52
  -4   5   1   11.64    0.51
  -4   5   1   11.92    0.52
   4   5  -1   11.78    0.51
  -4   5   1   10.85    0.52
   3  -5  -1   54.75    2.27
   3  -5  -1   49.20    2.49
   3   5  -1   55.56    2.37
   3   5  -1   50.77    2.26
  -3   5   1   55.53    2.26
  -3   5   1   57.06    2.45
  -2  -5   1  341.24   14.62
   2  -5  -1  341.15   14.93
   2   5  -1  345.81   14.55
  -2   5   1  354.47   14.82
  -1   5   1  140.12    6.13
  -1   5   1  148.07    6.16
   0  -5  -1   13.86    0.70
   0   5  -1   13.54    0.64
   0   5  -1   14.32    0.63
   0   5   1   12.95    0.68
  -1  -5  -1   43.10    2.05
   1   5   1   45.37    2.03
   1   5   1   45.74    1.92
  -1   5  -1   48.22    2.00
   2  -5   1  397.91   15.61
  -2  -5  -1  339.46   15.59
  -3  -5  -1    2.49    0.13
   3  -5   1    2.41    0.15
  -3  -5  -1    2.42    0.16
  -3   5  -1    2.45    0.14
  -3   5  -1    2.73    0.14
   3   5   1    2.41    0.14
   4  -5   1    8.29    0.38
  -4  -5  -1    8.38    0.38
   4   5   1    8.40    0.38
  -4   5  -1    8.65    0.39
  -4   5  -1    8.33    0.39
  -4   5  -1    8.18    0.41
   5  -5   1  311.24   12.73
  -5   5  -1  298.61   12.74
  -6  -5  -1   15.90    0.67
   6  -5   1   14.34    0.66
   6   5   1   15.47    0.67
   6   5   1   15.20    0.66
  -6   5  -1   15.89    0.66
  -6   5  -1   15.33    0.68
  -7  -5  -1    0.95    0.07
   7  -5   1    0.87    0.07
   7   5   1    1.18    0.07
   7  -6  -1   27.66    1.22
   7  -6  -1   28.48    1.23
  -7  -6   1   28.48    1.21
   7   6  -1   30.27    1.22
   7   6  -1   29.21    1.23
  -6  -6   1   10.31    0.45
   6  -6  -1   10.39    0.47
  -6   6   1   10.40    0.46
   6   6  -1   10.29    0.46
   6   6  -1   10.35    0.46
  -6   6   1   10.15    0.48
   5  -6  -1  105.35    4.39
  -5  -6   1  103.25    4.38
  -5   6   1  106.66    4.39
  -5   6   1  104.20    4.40
   5   6  -1  103.93    4.39
  -4  -6   1  124.88    5.22
   4  -6  -1  123.11    5.23
   4  -6  -1  123.85    5.23
   4   6  -1  126.90    5.23
  -4   6   1  126.35    5.23
  -4   6   1  124.00    5.24
  -4   6   1  125.33    5.23
   3  -6  -1    0.99    0.36
  -3  -6   1    1.30    0.09
   3  -6  -1    1.17    0.11
  -3   6   1    1.24    0.31
   3   6  -1    1.30    0.18
  -3   6   1    1.12    0.10
  -3   6   1    1.06    0.10
   3   6  -1    1.06    0.09
  -2   6   1   59.57    2.70
   2   6  -1   62.98    2.61
  -2   6   1   60.22    2.55
  -2   6   1   60.52    2.77
  -1   6   1   18.00    0.91
   1   6  -1   17.54    0.80
  -1   6   1   17.30    0.88
  -1   6   1   18.32    0.76
   1   6  -1   17.71    0.80
   0   6   1  188.01    7.74
   0   6   1  182.69    7.88
  -1  -6  -1   30.52    1.54
   1   6   1   32.74    1.52
   1   6   1   32.88    1.39
  -1   6  -1   34.27    1.49
  -1   6  -1   33.58    1.39
  -2  -6  -1    0.83    0.07
   2  -6   1    0.70    0.28
   2   6   1    0.80    0.23
  -2   6  -1    0.89    0.09
  -2   6  -1    0.71    0.20
   3  -6   1  113.17    4.88
  -3  -6  -1  114.97    4.87
   3   6   1  120.86    4.88
  -3   6  -1  117.17    4.88
  -3   6  -1  116.68    4.89
  -4  -6  -1    1.08    0.09
   4   6   1    1.23    0.10
  -4   6  -1    1.23    0.09
  -5  -6  -1   20.16    0.84
   5  -6   1   18.90    0.84
  -5   6  -1   19.93    0.85
  -5   6  -1   19.00    0.86
  -5   6  -1   19.01    0.85
   5   6   1   20.15    0.85
  -6  -6  -1    0.88    0.07
  -6   6  -1    1.09    0.10
   6   6   1    0.93    0.09
   7  -6   1    0.65    0.06
  -7  -6  -1    0.59    0.04
   7   6   1    0.48    0.04
   7  -7  -1    6.25    0.26
   7  -7  -1    5.64    0.25
   7   7  -1    4.90    0.28
   7   7  -1    5.51    0.25
   6   7  -1    5.35    0.26
   5  -7  -1    7.98    0.36
  -5  -7   1    7.32    0.34
  -5   7   1    6.99    0.37
  -5   7   1    7.46    0.36
  -5   7   1    7.78    0.36
   5   7  -1    8.24    0.36
  -4   7   1  210.58    8.66
   4   7  -1  209.53    8.66
  -4   7   1  208.09    8.66
  -4   7   1  200.92    8.67
  -3  -7   1   44.44    1.83
   3  -7  -1   41.64    1.84
  -3   7   1   45.02    1.84
   3   7  -1   42.61    1.83
  -3   7   1   43.72    1.84
  -2   7   1   63.13    2.62
  -2   7   1   62.30    2.89
  -2   7   1   61.75    2.81
   2   7  -1   62.06    2.68
  -1   7   1  151.25    6.76
  -1   7   1  164.88    6.60
  -1   7   1  157.75    6.80
   0   7   1    5.97    0.42
   0   7   1    6.19    0.42
   0   7   1    6.02    0.28
   0   7  -1    5.66    0.36
   0   7  -1    6.49    0.35
   1   7   1  115.12    4.85
  -1   7  -1  116.47    4.98
   1   7   1  113.93    5.03
  -1   7  -1  118.71    4.86
  -2  -7  -1   54.64    2.37
   2   7   1   57.79    2.38
  -2   7  -1   57.17    2.38
  -2   7  -1   56.27    2.38
  -3  -7  -1   21.66    0.92
  -3   7  -1   21.44    0.93
  -3   7  -1   21.10    0.93
   3   7   1   21.51    0.93
  -4   7  -1  278.21   11.61
  -4   7  -1  277.47   11.61
   4   7   1  278.38   11.61
  -5  -7  -1   14.11    0.61
  -5   7  -1   13.52    0.62
   5   7   1   14.46    0.62
  -5   7  -1   14.01    0.62
  -6  -7  -1   13.61    0.60
  -6   7  -1   14.04    0.60
   6   7   1   14.45    0.60
   6   7   1   13.32    0.61
   7  -8  -1    1.90    0.12
   7   8  -1    1.86    0.12
   7   8  -1    2.12    0.11
   6  -8  -1   48.13    2.00
  -6  -8   1   46.09    1.97
   6  -8  -1   47.09    1.98
   6   8  -1   46.49    1.99
   6   8  -1   48.06    1.98
  -6   8   1   46.32    1.98
   5  -8  -1  180.50    7.55
   5  -8  -1  178.97    7.53
  -5  -8   1  179.87    7.52
  -5   8   1  181.24    7.53
   4  -8  -1   55.47    2.42
  -4  -8   1   58.24    2.41
   4  -8  -1   56.97    2.43
  -4   8   1   58.49    2.42
  -4   8   1   57.64    2.42
   4   8  -1   57.45    2.42
   3  -8  -1   85.19    3.61
  -3  -8   1   87.93    3.60
   3  -8  -1   87.21    3.62
  -3   8   1   85.41    3.61
  -3   8   1   87.14    3.61
   3   8  -1   83.13    3.61
   2  -8  -1  167.87    7.37
   2  -8  -1  170.17    7.37
  -2   8   1  173.47    7.37
   2   8  -1  189.60    7.46
  -2   8   1  183.30    7.62
  -2   8   1  184.57    7.37
   2   8  -1  165.36    7.47
   1  -8  -1   76.47    3.26
  -1   8   1   80.24    3.52
  -1   8   1   80.41    3.26
   1   8  -1   77.32    3.34
  -1   8   1   76.39    3.46
   1   8  -1   75.74    3.34
   0  -8  -1   31.96    1.40
   0   8  -1   34.81    1.41
   0   8   1   34.56    1.40
   0   8  -1   35.28    1.51
   0   8  -1   31.20    1.52
   0   8   1   30.05    1.58
   0   8   1   34.11    1.62
   1  -8   1  216.00    9.39
  -1  -8  -1  227.14    9.39
  -1   8  -1  232.01    9.40
  -2  -8  -1    3.76    0.18
  -2   8  -1    4.08    0.21
  -2   8  -1    3.61    0.20
   2   8   1    3.88    0.19
  -3  -8  -1   58.04    2.47
   3   8   1   58.44    2.49
  -3   8  -1   60.34    2.49
  -3   8  -1   58.80    2.49
  -4  -8  -1  144.79    5.95
  -4   8  -1  139.61    5.96
  -4   8  -1  142.34    5.96
   5   8   1   12.07    0.52
  -5   8  -1   11.42    0.52
   6  -8   1   15.78    0.68
  -6  -8  -1   15.52    0.67
   6   8   1   16.26    0.67
  -6   8  -1   15.69    0.67
   6   8   1   15.08    0.67
   7  -9  -1    7.82    0.34
   7   9  -1    7.75    0.34
   6  -9  -1   -0.02    0.05
  -6   9   1    0.06    0.04
   6   9  -1    0.04    0.03
   6   9  -1    0.03    0.04
  -5  -9   1   17.59    0.73
   5  -9  -1   16.61    0.75
   5  -9  -1   17.02    0.76
  -5   9   1   16.58    0.75
   5   9  -1   17.40    0.75
  -5   9   1   17.64    0.75
   4  -9  -1    0.58    0.10
   4  -9  -1    0.73    0.09
  -4  -9   1    0.51    0.06
  -4   9   1    0.43    0.08
  -4   9   1    0.57    0.09
   3  -9  -1   20.00    0.85
  -3  -9   1   20.31    0.82
   3  -9  -1   19.23    0.84
   3   9  -1   18.84    0.84
  -3   9   1   18.83    0.84
  -3   9   1   19.38    0.84
   2  -9  -1   10.65    0.47
   2  -9  -1   10.44    0.47
  -2  -9   1   10.67    0.45
   2   9  -1   10.06    0.46
  -2   9   1   10.97    0.47
  -2   9   1    9.65    0.49
  -1  -9   1    1.04    0.08
   1  -9  -1    0.98    0.09
   1   9  -1    1.03    0.12
  -1   9   1    1.08    0.10
   0  -9   1    2.03    0.13
   0  -9  -1    2.07    0.12
   0   9   1    2.20    0.14
   0   9   1    2.19    0.12
   0   9  -1    2.26    0.14
  -1  -9  -1   25.44    1.09
   1  -9   1   25.77    1.09
  -1   9  -1   27.02    1.10
   1   9   1   25.87    1.10
  -1   9  -1   24.13    1.10
  -2  -9  -1    0.48    0.06
   2  -9   1    0.43    0.08
  -2   9  -1    0.41    0.09
   2   9   1    0.45    0.07
  -2   9  -1    0.43    0.07
  -3  -9  -1   24.66    1.05
  -3   9  -1   25.09    1.06
   3   9   1   25.36    1.07
  -3   9  -1   23.69    1.07
  -4  -9  -1    2.88    0.15
   4   9   1    2.93    0.16
  -4   9  -1    2.71    0.17
  -4   9  -1    2.68    0.17
  -5  -9  -1   22.76    0.99
   5  -9   1   23.58    1.00
  -5   9  -1   22.19    0.99
  -5   9  -1   24.07    1.00
   5   9   1   23.42    1.00
  -6  -9  -1    0.82    0.06
   6  -9   1    0.77    0.06
  -6   9  -1    0.82    0.06
   6   9   1    0.89    0.09
   6   9   1    1.01    0.06
   6 -10  -1   28.70    1.23
   6  10  -1   27.84    1.22
   6  10  -1   28.35    1.21
  -6  10   1   29.95    1.22
   5 -10  -1    4.92    0.25
   5  10  -1    4.78    0.24
  -5  10   1    4.45    0.25
  -5  10   1    5.14    0.24
   4 -10  -1   82.14    3.56
   4 -10  -1   86.28    3.58
  -4 -10   1   83.55    3.54
   4  10  -1   87.02    3.57
  -4  10   1   85.14    3.57
  -3 -10   1    0.88    0.07
   3 -10  -1    0.79    0.10
  -3  10   1    0.92    0.09
   3  10  -1    0.86    0.10
  -3  10   1    0.83    0.09
  -2 -10   1   65.49    2.70
  -2  10   1   65.49    2.72
  -2  10   1   64.14    2.72
   2  10  -1   63.05    2.71
   1 -10  -1   98.35    4.18
  -1 -10   1   98.78    4.17
  -1  10   1  102.16    4.19
  -1  10   1   99.91    4.18
   0 -10  -1   23.56    1.02
   0 -10   1   23.39    1.01
   0  10   1   23.92    1.02
   0  10   1   24.21    1.03
   0  10  -1   24.29    1.02
   1 -10   1  200.55    8.88
  -1 -10  -1  215.69    8.88
  -1  10  -1  207.66    8.89
   1  10   1  215.93    8.89
  -1  10  -1  223.77    8.89
  -2 -10  -1    9.76    0.43
   2 -10   1    9.43    0.44
  -2  10  -1   10.39    0.45
  -2  10  -1    9.48    0.44
   2  10   1    9.63    0.44
   3 -10   1   29.42    1.30
  -3 -10  -1   31.15    1.28
   3  10   1   30.66    1.30
  -3  10  -1   29.94    1.30
  -4 -10  -1   47.15    2.00
   4 -10   1   47.04    2.02
  -4  10  -1   47.63    2.02
  -4  10  -1   48.54    2.02
   4  10   1   47.82    2.02
   5 -10   1    1.29    0.09
  -5 -10  -1    1.23    0.07
   5  10   1    0.97    0.09
  -5  10  -1    1.20    0.14
  -5  10  -1    1.03    0.08
   6 -10   1   28.15    1.08
   6  10   1   25.18    1.08
  -6  10  -1   23.36    1.08
   6 -11  -1    1.62    0.10
   6  11  -1    1.70    0.10
   6  11  -1    1.50    0.09
   5 -11  -1    0.23    0.06
  -5  11   1    0.24    0.05
   5  11  -1    0.20    0.05
   4 -11  -1   15.26    0.70
  -4  11   1   15.67    0.69
   4  11  -1   16.11    0.69
  -4  11   1   15.94    0.69
   3 -11  -1   14.91    0.66
  -3  11   1   14.70    0.65
   3  11  -1   14.12    0.65
  -3  11   1   15.11    0.65
   2 -11  -1    4.21    0.22
  -2  11   1    4.27    0.22
   2  11  -1    3.97    0.21
  -2  11   1    4.66    0.22
  -1 -11   1  193.32    7.91
   1 -11  -1  186.04    7.92
   1  11  -1  190.99    7.92
  -1  11   1  187.42    7.93
  -1  11   1  190.09    7.93
   0 -11  -1   32.37    1.35
   0 -11   1   30.71    1.35
   0  11   1   31.57    1.36
   0  11  -1   32.46    1.36
  -1 -11  -1   89.02    3.84
   1 -11   1   88.52    3.84
   1  11   1   92.71    3.85
  -1  11  -1   96.18    3.85
  -2 -11  -1    6.83    0.30
   2 -11   1    6.41    0.31
  -2  11  -1    6.54    0.32
   2  11   1    6.32    0.32
  -2  11  -1    6.79    0.32
  -3 -11  -1    0.36    0.07
   3 -11   1    0.40    0.08
  -3  11  -1    0.33    0.06
   3  11   1    0.33    0.08
  -3  11  -1    0.63    0.12
  -4  11  -1   13.57    0.61
   4  11   1   13.78    0.60
   5 -11   1    0.48    0.06
  -5 -11  -1    0.37    0.04
  -5  11  -1    0.37    0.05
  -5  11  -1    0.39    0.07
   5  11   1    0.40    0.08
   6 -12  -1    0.42    0.04
  -6  12   1    0.33    0.04
   6  12  -1    0.37    0.06
   5 -12  -1   32.01    1.36
  -5  12   1   32.78    1.36
   5  12  -1   31.16    1.36
   4 -12  -1    8.93    0.43
  -4  12   1    9.53    0.43
   4  12  -1    9.72    0.43
  -4  12   1    9.52    0.43
   3 -12  -1   15.49    0.70
  -3  12   1   16.31    0.70
   2 -12  -1    0.32    0.06
  -2  12   1    0.44    0.07
   2  12  -1    0.53    0.08
   1 -12  -1    1.26    0.10
  -1 -12   1    1.28    0.08
  -1  12   1    1.26    0.09
  -1  12   1    1.26    0.11
   1  12  -1    1.33    0.12
   0 -12   1  176.99    7.52
   0 -12  -1  179.15    7.53
   0  12   1  181.83    7.54
   0  12  -1  182.79    7.54
  -1 -12  -1    9.57    0.42
   1 -12   1    8.95    0.42
  -1  12  -1    9.48    0.44
  -1  12  -1    9.42    0.43
   1  12   1    9.32    0.43
  -2 -12  -1    0.65    0.06
  -2  12  -1    0.53    0.09
  -3 -12  -1   51.93    2.17
   3 -12   1   50.05    2.18
   3  12   1   52.57    2.19
  -3  12  -1   51.46    2.19
  -3  12  -1   52.77    2.20
   4 -12   1    3.75    0.19
  -4 -12  -1    3.84    0.17
  -4  12  -1    3.70    0.19
   4  12   1    3.80    0.20
  -4  12  -1    3.70    0.20
   5 -12   1   19.10    0.80
  -5  12  -1   19.14    0.80
   5  12   1   18.26    0.80
   5 -13  -1   54.85    2.23
  -5  13   1   53.52    2.23
   5  13  -1   50.90    2.23
   4 -13  -1    8.17    0.37
  -4  13   1    8.04    0.37
   4  13  -1    8.36    0.37
  -4  13   1    7.97    0.38
   3 -13  -1    0.15    0.06
  -3  13   1    0.06    0.05
  -3  13   1    0.07    0.04
   3  13  -1    0.30    0.07
   2 -13  -1    2.03    0.13
  -2  13   1    1.54    0.15
   2  13  -1    1.98    0.13
  -2  13   1    2.02    0.12
   1 -13  -1  126.12    5.43
  -1  13   1  130.67    5.44
  -1  13   1  129.58    5.43
   1  13  -1  132.05    5.43
   0 -13   1   19.14    0.81
   0 -13  -1   18.86    0.83
   0  13   1   18.86    0.84
   0  13  -1   17.35    0.83
   0  13  -1   21.87    0.84
   1 -13   1   82.10    3.48
  -1 -13  -1   86.70    3.48
  -1  13  -1   80.61    3.49
   2 -13   1    0.05    0.05
  -2 -13  -1    0.06    0.03
  -2  13  -1    0.26    0.06
   2  13   1    0.12    0.05
  -3 -13  -1    1.54    0.08
   3 -13   1    1.44    0.11
  -3  13  -1    1.53    0.11
   3  13   1    1.54    0.11
  -3  13  -1    1.53    0.10
   4 -13   1    0.15    0.04
  -4  13  -1    0.17    0.06
  -4  13  -1    0.28    0.06
   4  13   1    0.20    0.04
  -5  13  -1   51.87    2.17
   5 -14  -1    3.82    0.17
   5  14  -1    3.55    0.18
  -5  14   1    3.74    0.17
   4 -14  -1    7.63    0.34
  -4  14   1    8.16    0.34
  -4  14   1    6.31    0.37
   4  14  -1    7.71    0.34
   3 -14  -1   12.88    0.56
   3  14  -1   12.33    0.56
  -3  14   1   13.16    0.57
  -3  14   1   12.82    0.57
   2 -14  -1   14.34    0.64
   2  14  -1   14.51    0.64
  -2  14   1   14.73    0.65
  -2  14   1   14.89    0.65
   1 -14  -1   26.59    1.14
   1  14  -1   27.07    1.15
  -1  14   1   26.85    1.16
   0 -14  -1  111.00    4.66
   0  14  -1  107.10    4.67
   0  14  -1  112.80    4.68
   0  14   1  114.84    4.68
  -1 -14  -1    0.21    0.04
   1  14   1    0.16    0.05
  -1  14  -1    0.06    0.06
  -2 -14  -1   12.71    0.52
   2 -14   1   11.78    0.52
   2  14   1   11.85    0.54
  -2  14  -1   11.83    0.54
  -2  14  -1   11.81    0.53
  -3 -14  -1    3.07    0.14
   3 -14   1    3.24    0.15
  -3  14  -1    3.00    0.17
  -3  14  -1    3.03    0.16
   3  14   1    3.18    0.16
   4  14   1   10.88    0.44
  -4  14  -1    9.14    0.44
  -4  14  -1   10.24    0.44
   4 -15  -1   31.90    1.33
  -4  15   1   32.28    1.34
   4  15  -1   30.64    1.34
   3 -15  -1    0.66    0.06
  -3  15   1    0.63    0.07
   3  15  -1    0.65    0.08
   2 -15  -1    0.31    0.06
   2  15  -1    0.25    0.05
  -2  15   1    0.30    0.06
   1 -15  -1    5.16    0.25
  -1  15   1    5.40    0.26
   1  15  -1    5.45    0.27
   0  15   1    1.88    0.13
   0  15  -1    1.86    0.13
   1  15   1    2.17    0.13
  -1  15  -1    2.23    0.13
  -1  15  -1    1.97    0.13
  -2  15  -1    0.06    0.05
  -2  15  -1    0.08    0.04
   2  15   1    0.05    0.04
  -3  15  -1    9.32    0.41
   3  15   1    8.89    0.41
  -3  15  -1    9.52    0.41
  -4  15  -1   21.88    0.92
   3 -16  -1    9.49    0.40
   3  16  -1    9.37    0.41
  -3  16   1    9.03    0.41
   2 -16  -1    1.32    0.07
  -2  16   1    1.31    0.10
  -1  16   1    0.03    0.05
   1  16  -1    0.00    0.04
   0 -16  -1   25.90    1.07
   0  16   1   25.39    1.10
   0  16  -1   25.42    1.10
   1  16   1    3.54    0.18
  -1  16  -1    3.61    0.19
  -2  16  -1    0.03    0.04
  -2  16  -1    0.02    0.04
  -3  16  -1   28.87    1.23
   3  16   1   29.68    1.24
  -2  17   1    1.82    0.12
   2  17  -1    1.70    0.11
  -1  17   1    0.55    0.06
   1  17  -1    0.77    0.08
   0  17   1    0.36    0.07
   0  17  -1    0.32    0.07
  -1  17  -1    0.43    0.07
  -2  17  -1    1.24    0.10
   8   0  -2   63.26    2.65
   7   0  -2    2.43    0.16
   6   0  -2   80.11    3.27
  -6   0   2   76.31    3.26
   6   0  -2   76.04    3.26
   5   0  -2    2.72    0.15
  -5   0   2    2.43    0.14
   5   0  -2    2.57    0.15
   4   0  -2   78.55    3.23
  -4   0   2   74.76    3.23
   4   0  -2   77.51    3.45
  -3   0   2  603.21   24.58
   3   0  -2  562.77   24.66
  -2   0   2   53.39    2.28
  -2   0   2   52.71    2.30
  -1   0  -2  301.15   13.41
   1   0   2  325.63   13.35
   2   0   2   97.04    4.19
  -2   0  -2   95.45    4.23
  -3   0  -2  198.30    8.24
  -3   0  -2  200.21    8.24
  -3   0  -2  193.75    8.23
   3   0   2  196.14    8.23
  -4   0  -2    2.00    0.15
  -4   0  -2    2.12    0.13
   4   0   2    2.27    0.13
  -4   0  -2    2.58    0.15
   5   0   2   34.02    1.42
  -5   0  -2   33.11    1.42
  -5   0  -2   33.37    1.43
  -6   0  -2   16.04    0.68
  -6   0  -2   15.05    0.66
   6   0   2   15.61    0.67
   8  -1  -2    1.20    0.08
   8   1  -2    1.16    0.11
   8   1  -2    1.21    0.07
   7  -1  -2   11.67    0.53
   7   1  -2   12.03    0.53
   6  -1  -2   24.14    1.05
  -6  -1   2   24.09    1.05
   6  -1  -2   24.94    1.06
   6   1  -2   25.24    1.06
  -6   1   2   23.92    1.05
   6   1  -2   23.90    1.05
  -5  -1   2   24.34    1.07
   5  -1  -2   25.85    1.07
   5  -1  -2   24.87    1.07
  -5   1   2   24.58    1.07
   5   1  -2   24.82    1.07
   5   1  -2   25.22    1.07
   4  -1  -2  159.35    6.75
  -4  -1   2  146.69    6.48
   4  -1  -2  161.58    6.49
  -4   1   2  147.45    6.49
   4   1  -2  158.11    6.48
   4   1  -2  158.08    6.70
   3  -1  -2   68.62    3.24
  -3  -1   2   80.93    3.20
   3  -1  -2   75.85    3.11
   3   1  -2   66.96    3.21
  -3   1   2   78.97    3.22
  -2  -1   2   46.35    2.11
  -2  -1   2   51.88    2.11
  -2   1   2   49.18    2.14
  -2   1   2   49.58    2.16
   0  -1  -2  876.91   39.44
   0   1   2 1000.00   39.34
  -1  -1  -2    0.72    0.12
  -1   1  -2    0.69    0.13
  -2  -1  -2   51.64    2.48
   2  -1   2   55.44    2.44
   2   1   2   53.91    2.44
   2   1   2   54.76    2.28
  -2   1  -2   55.08    2.46
  -3  -1  -2   61.40    3.15
  -3  -1  -2   64.96    2.78
  -3  -1  -2   69.08    2.79
   3  -1   2   67.95    2.78
  -3  -1  -2   67.38    2.79
   3   1   2   67.66    2.79
  -3   1  -2   67.53    2.79
  -3   1  -2   65.22    2.78
  -3   1  -2   65.45    2.79
  -4  -1  -2    0.23    0.05
  -4  -1  -2    0.14    0.05
   4  -1   2    0.23    0.05
   4   1   2    0.23    0.08
  -4   1  -2    0.18    0.05
  -4   1  -2    0.09    0.07
  -4   1  -2    0.28    0.07
  -5  -1  -2   24.28    1.07
   5  -1   2   24.57    1.06
  -5  -1  -2   24.66    1.06
   5   1   2   25.32    1.06
  -5   1  -2   25.39    1.07
  -5   1  -2   24.62    1.06
   6  -1   2    0.08    0.04
  -6  -1  -2    0.06    0.04
   6   1   2    0.16    0.04
  -6   1  -2    0.07    0.04
   8  -2  -2    0.71    0.06
   8   2  -2    0.49    0.08
   8   2  -2    0.58    0.05
   7  -2  -2    0.16    0.07
   7  -2  -2    0.22    0.05
   7   2  -2    0.18    0.05
   6  -2  -2   10.06    0.45
  -6  -2   2   10.02    0.44
   6  -2  -2   10.33    0.46
   6   2  -2   10.15    0.45
  -6   2   2    9.32    0.45
   6   2  -2    9.52    0.44
   5  -2  -2    2.68    0.16
   5  -2  -2    2.76    0.15
  -5  -2   2    2.68    0.15
   5   2  -2    2.87    0.15
  -5   2   2    2.83    0.17
   4  -2  -2    3.21    0.43
   4  -2  -2    3.11    0.18
  -4  -2   2    3.25    0.16
  -4   2   2    3.05    0.17
   4   2  -2    3.49    0.16
  -3  -2   2    2.12    0.17
   3  -2  -2    1.73    0.22
   3  -2  -2    1.91    0.11
  -3   2   2    1.97    0.21
  -2  -2   2   41.07    1.88
  -2  -2   2   47.90    1.87
  -2   2   2   45.08    1.97
  -2   2   2   42.65    1.94
  -1  -2   2  326.09   13.81
  -1   2   2  331.96   14.03
  -1   2   2  332.32   14.04
   0  -2   2    0.96    0.09
   0  -2  -2    0.72    0.13
   0   2  -2    0.92    0.10
  -1  -2  -2   34.21    1.38
   1  -2   2   29.26    1.46
  -1  -2  -2   31.75    1.52
  -1   2  -2   33.27    1.48
   1   2   2   34.64    1.49
   2  -2   2   16.23    0.88
  -2  -2  -2   15.92    0.93
  -2   2  -2   16.48    0.89
  -2   2  -2   17.13    0.72
   2   2   2   16.42    0.88
   2   2   2   17.72    0.72
  -3  -2  -2   23.06    0.98
   3  -2   2   23.29    0.98
  -3  -2  -2   23.59    0.98
  -3  -2  -2   22.62    0.98
  -3   2  -2   22.82    0.98
  -3   2  -2   22.38    1.00
   3   2   2   22.80    0.98
  -3   2  -2   23.05    0.99
  -4  -2  -2   28.51    1.22
   4  -2   2   28.91    1.23
  -4  -2  -2   29.54    1.23
  -4   2  -2   27.85    1.23
  -4   2  -2   28.88    1.23
  -4   2  -2   28.17    1.24
   4   2   2   29.43    1.23
  -5  -2  -2    3.22    0.17
   5  -2   2    3.57    0.18
   5   2   2    3.46    0.17
  -5   2  -2    3.41    0.18
  -5   2  -2    3.36    0.20
   6  -2   2    0.77    0.07
  -6  -2  -2    0.91    0.07
  -6   2  -2    0.87    0.08
   6   2   2    0.91    0.07
  -6   2  -2    0.94    0.07
   8   3  -2    0.26    0.06
   8   3  -2    0.19    0.04
   7  -3  -2   37.49    1.64
  -7  -3   2   37.88    1.63
   7   3  -2   39.58    1.63
   7   3  -2   38.94    1.64
  -6  -3   2  143.59    6.14
   6  -3  -2  149.43    6.15
   6  -3  -2  151.51    6.15
   6   3  -2  148.35    6.14
  -6   3   2  141.55    6.15
   6   3  -2  145.91    6.14
   5  -3  -2    8.06    0.38
   5  -3  -2    8.52    0.38
   5   3  -2    8.06    0.36
  -5   3   2    7.91    0.36
   5   3  -2    8.04    0.36
  -5   3   2    7.22    0.38
   4  -3  -2   51.65    2.13
   4  -3  -2   48.96    2.13
  -4  -3   2   52.26    2.12
  -4   3   2   50.06    2.13
   4   3  -2   52.76    2.12
  -4   3   2   47.21    2.13
   3  -3  -2   39.85    1.98
   3  -3  -2   41.85    1.82
  -3  -3   2   46.57    1.88
  -3   3   2   45.01    1.96
   3   3  -2   42.09    1.89
  -2   3   2  171.58    7.31
  -1   3   2  289.82   12.67
  -1   3   2  302.49   12.70
   0  -3  -2  253.30   11.05
   0  -3   2  250.90   10.82
   0   3  -2  252.12   10.83
   0   3   2  268.21   11.02
  -1  -3  -2   73.41    3.36
  -1   3  -2   77.86    3.31
   1   3   2   78.11    3.33
   2  -3   2  106.54    4.77
  -2  -3  -2  117.59    4.86
  -2  -3  -2  109.15    4.58
  -2  -3  -2  116.57    4.58
  -2   3  -2  105.95    4.58
  -2   3  -2  107.25    4.76
   2   3   2  105.25    4.76
   2   3   2  107.12    4.58
  -3  -3  -2   53.26    2.31
   3  -3   2   55.17    2.31
  -3  -3  -2   55.27    2.31
  -3  -3  -2   54.30    2.31
   3   3   2   56.28    2.31
  -3   3  -2   55.12    2.31
  -3   3  -2   54.97    2.32
  -4  -3  -2    0.09    0.05
   4   3   2    0.11    0.06
  -4   3  -2    0.12    0.07
  -4   3  -2    0.09    0.05
  -4   3  -2    0.16    0.08
   5  -3   2  128.19    5.37
  -5  -3  -2  130.61    5.37
  -5  -3  -2  125.51    5.36
  -5   3  -2  130.52    5.38
   5   3   2  129.11    5.37
  -5   3  -2  126.06    5.37
  -6  -3  -2   37.07    1.55
   6   3   2   36.47    1.55
  -6   3  -2   36.92    1.54
  -6   3  -2   36.15    1.56
   8  -4  -2   16.52    0.77
   8   4  -2   19.56    0.78
   7  -4  -2   21.20    0.90
  -7  -4   2   21.19    0.89
   7   4  -2   20.45    0.90
   7   4  -2   20.77    0.90
  -6  -4   2    7.76    0.35
   6  -4  -2    7.61    0.39
   6  -4  -2    7.81    0.37
  -6   4   2    7.49    0.35
   6   4  -2    7.74    0.35
  -6   4   2    7.61    0.37
   5  -4  -2   38.01    1.63
  -5  -4   2   38.90    1.61
   5  -4  -2   38.30    1.62
  -5   4   2   36.03    1.62
   5   4  -2   39.24    1.62
   4  -4  -2   62.75    2.61
   4  -4  -2   61.24    2.61
  -4  -4   2   61.55    2.59
  -4   4   2   59.75    2.61
   4   4  -2   63.52    2.60
  -4   4   2   62.60    2.60
  -3  -4   2  140.16    5.85
   3  -4  -2  139.67    5.82
   3   4  -2  135.66    5.88
  -3   4   2  142.51    5.99
  -3   4   2  137.35    6.05
  -1   4   2   26.32    1.29
  -1   4   2   29.23    1.31
   0  -4   2   11.17    0.52
   0  -4  -2   10.04    0.60
   0   4  -2   11.97    0.55
   0   4   2   11.04    0.48
   0   4   2   10.89    0.59
  -1   4  -2    0.41    0.07
   1   4   2    0.34    0.07
   1   4   2    0.32    0.15
  -1   4  -2    0.40    0.11
  -2  -4  -2   51.66    2.20
  -2  -4  -2   53.19    2.20
  -2  -4  -2   52.07    2.19
  -2  -4  -2   50.27    2.48
   2   4   2   52.17    2.41
  -2   4  -2   51.52    2.20
   2   4   2   54.15    2.20
  -2   4  -2   52.41    2.39
  -3  -4  -2   11.82    0.51
   3  -4   2   10.95    0.51
  -3  -4  -2   11.69    0.51
  -3   4  -2   11.61    0.51
   3   4   2   11.63    0.51
  -4  -4  -2    3.67    0.19
  -4  -4  -2    4.01    0.19
   4  -4   2    3.48    0.20
  -4   4  -2    3.48    0.23
  -4   4  -2    3.84    0.19
  -4   4  -2    3.73    0.20
   4   4   2    3.58    0.19
  -5  -4  -2    6.30    0.29
  -5   4  -2    6.14    0.29
   5   4   2    5.92    0.30
  -5   4  -2    5.59    0.30
   5   4   2    6.35    0.28
  -6  -4  -2   40.65    1.72
  -6   4  -2   40.68    1.73
   6   4   2   41.43    1.72
  -6   4  -2   40.46    1.72
   8  -5  -2    1.77    0.09
   8   5  -2    1.60    0.13
   8   5  -2    1.69    0.09
   7  -5  -2   10.57    0.49
   7  -5  -2   10.89    0.47
  -7  -5   2   10.44    0.45
   7   5  -2   10.55    0.47
   7   5  -2   10.45    0.47
  -6  -5   2   52.27    2.19
   6  -5  -2   53.71    2.22
   6  -5  -2   53.18    2.21
   6  -5  -2   48.41    2.21
   6   5  -2   53.15    2.22
   6   5  -2   50.79    2.20
  -6   5   2   53.05    2.19
  -5  -5   2    1.32    0.09
   5  -5  -2    1.28    0.13
   5  -5  -2    1.27    0.11
   5   5  -2    1.36    0.10
  -5   5   2    1.18    0.12
  -5   5   2    1.31    0.10
  -4  -5   2  111.60    4.71
   4  -5  -2  112.53    4.73
   4  -5  -2  113.99    4.73
  -4   5   2  110.51    4.73
  -4   5   2  113.71    4.72
  -4   5   2  110.61    4.72
   4   5  -2  116.60    4.72
   3  -5  -2  115.55    4.69
   3  -5  -2  105.80    4.69
  -3   5   2  114.59    4.89
  -3   5   2  109.09    4.97
   3   5  -2  106.32    4.73
  -3   5   2  120.31    4.70
  -3   5   2  112.38    4.68
  -2   5   2    0.84    0.20
  -1   5   2  389.40   16.88
  -1   5   2  397.71   16.92
   0  -5  -2  180.97    8.03
   0  -5  -2  197.91    7.86
   0   5   2  185.61    8.02
  -1  -5  -2   64.01    3.08
   1  -5   2   67.14    3.00
  -1   5  -2   70.40    2.99
   1   5   2   71.39    2.87
   1   5   2   69.32    3.05
  -2  -5  -2  169.14    7.22
  -2  -5  -2  167.05    7.22
  -2   5  -2  178.29    7.23
   2   5   2  182.62    7.49
  -2   5  -2  168.34    7.23
   2   5   2  172.04    7.23
  -3  -5  -2   36.24    1.55
  -3   5  -2   35.42    1.56
   3   5   2   36.54    1.56
  -3   5  -2   38.77    1.57
  -4  -5  -2   35.24    1.52
  -4  -5  -2   36.98    1.52
   4   5   2   35.67    1.53
  -4   5  -2   36.02    1.53
  -4   5  -2   35.57    1.53
  -5  -5  -2   48.68    2.06
  -5   5  -2   47.16    2.05
   5   5   2   47.96    2.05
  -5   5  -2   50.32    2.05
  -5   5  -2   48.18    2.06
  -6  -5  -2    3.25    0.15
  -6   5  -2    2.86    0.14
  -6   5  -2    2.77    0.19
   6   5   2    3.12    0.15
   8   6  -2    0.46    0.05
   7  -6  -2    1.41    0.12
   7  -6  -2    1.43    0.10
   7   6  -2    1.39    0.10
   6  -6  -2    0.46    0.09
  -6  -6   2    0.35    0.06
   6  -6  -2    0.52    0.09
  -6   6   2    0.53    0.08
   6   6  -2    0.61    0.09
   5  -6  -2  259.49   10.49
   5  -6  -2  249.71   10.50
   5  -6  -2  245.44   10.49
  -5   6   2  252.90   10.48
   5   6  -2  247.64   10.48
  -4  -6   2   96.21    4.13
   4  -6  -2   99.53    4.15
   4  -6  -2  101.13    4.16
   4  -6  -2   97.87    4.15
  -4   6   2   97.40    4.15
   4   6  -2   98.48    4.15
  -4   6   2  101.64    4.14
   3  -6  -2   39.73    1.79
   3  -6  -2   47.96    1.79
   3  -6  -2   42.91    1.78
  -3   6   2   41.44    1.78
  -3   6   2   41.48    2.00
  -3   6   2   42.59    1.78
  -3   6   2   38.33    2.11
  -2   6   2  470.91   19.91
  -1   6   2   36.86    1.47
  -1   6   2   34.95    1.66
  -1   6   2   32.40    1.63
   0  -6  -2    2.64    0.15
   0  -6  -2    2.55    0.31
   0   6   2    2.42    0.29
   0   6   2    2.64    0.14
   0   6  -2    2.82    0.18
  -1  -6  -2  362.08   16.97
   1  -6   2  385.45   16.88
   1   6   2  454.65   16.99
  -2  -6  -2   69.08    2.84
  -2  -6  -2   65.35    2.84
  -2   6  -2   66.78    2.84
  -2   6  -2   68.62    2.85
   2   6   2   68.36    2.85
  -3  -6  -2   42.75    1.82
   3   6   2   44.31    1.83
  -3   6  -2   43.28    1.83
  -3   6  -2   42.03    1.83
  -4  -6  -2  185.73    7.64
  -4   6  -2  184.74    7.64
   4   6   2  201.84    7.66
  -4   6  -2  158.71    7.66
  -5  -6  -2   12.13    0.49
   5   6   2   10.90    0.49
  -5   6  -2   10.32    0.49
  -6  -6  -2    2.80    0.14
   6   6   2    3.15    0.14
  -6   6  -2    3.02    0.14
   7  -7  -2    0.68    0.10
   7  -7  -2    0.62    0.07
   7   7  -2    0.64    0.07
   7   7  -2    0.65    0.07
   6  -7  -2    6.03    0.29
   6  -7  -2    5.39    0.31
  -6   7   2    6.17    0.28
   6   7  -2    6.24    0.28
  -5  -7   2   28.26    1.25
   5  -7  -2   29.64    1.28
   5  -7  -2   30.17    1.27
  -5   7   2   30.34    1.26
   5   7  -2   29.66    1.26
   4  -7  -2    6.43    0.34
   4  -7  -2    6.79    0.34
   4  -7  -2    7.14    0.34
  -4   7   2    7.72    0.34
   4   7  -2    6.61    0.32
  -4   7   2    6.82    0.32
   3  -7  -2    1.76    0.13
   3  -7  -2    1.59    0.13
   3  -7  -2    1.55    0.12
  -3   7   2    1.98    0.71
  -3   7   2    1.54    0.11
  -3   7   2    1.50    0.49
   2  -7  -2   13.54    0.59
   2  -7  -2   13.40    0.59
  -2   7   2   12.46    0.87
  -2   7   2   14.78    0.59
  -2   7   2   12.75    0.81
  -2   7   2   13.40    0.58
  -1   7   2    5.34    0.49
  -1   7   2    4.71    0.44
  -1   7   2    5.52    0.25
   0  -7  -2    0.19    0.19
   0   7  -2    0.30    0.11
   0   7  -2    0.19    0.09
   0   7   2    0.27    0.06
   0   7   2    0.16    0.18
  -1  -7  -2    2.98    0.16
  -1  -7  -2    2.80    0.16
   1   7   2    3.10    0.16
  -1   7  -2    3.19    0.17
  -2  -7  -2    0.45    0.07
  -2   7  -2    0.47    0.08
   2   7   2    0.49    0.07
  -2   7  -2    0.53    0.09
  -3  -7  -2   13.93    0.66
  -3  -7  -2   15.17    0.65
  -3   7  -2   15.12    0.66
   3   7   2   15.29    0.66
  -3   7  -2   14.92    0.65
  -4  -7  -2    5.58    0.26
  -4   7  -2    5.49    0.28
   4   7   2    5.52    0.27
  -4   7  -2    5.60    0.27
  -5  -7  -2   22.88    0.91
  -5   7  -2   21.50    0.91
   5   7   2   20.55    0.91
  -5   7  -2   20.18    0.91
   6  -7   2    0.35    0.04
  -6  -7  -2    0.44    0.05
  -6   7  -2    0.56    0.07
   6   7   2    0.42    0.05
   7  -8  -2   19.31    0.88
   7  -8  -2   19.86    0.87
   7   8  -2   22.16    0.88
   6  -8  -2   24.67    1.07
   6   8  -2   24.40    1.05
   6   8  -2   24.54    1.05
   5  -8  -2    0.21    0.05
   5  -8  -2    0.18    0.06
   5   8  -2    0.14    0.06
  -5   8   2    0.18    0.05
   4  -8  -2   89.30    3.67
   4  -8  -2   85.80    3.66
   4   8  -2   85.50    3.66
  -4   8   2   86.46    3.66
  -4   8   2   88.67    3.66
   3  -8  -2    1.37    0.11
   3  -8  -2    1.37    0.12
  -3   8   2    1.27    0.11
  -3   8   2    1.56    0.11
   2  -8  -2    6.07    0.29
   2  -8  -2    5.53    0.28
  -2   8   2    6.48    0.71
  -2   8   2    6.26    0.28
  -2   8   2    5.84    0.28
   1  -8  -2    6.26    0.30
   1  -8  -2    6.39    0.30
  -1   8   2    7.16    0.65
  -1   8   2    6.77    0.30
  -1   8   2    5.72    0.56
  -1   8   2    6.41    0.30
   0  -8  -2    0.11    0.05
   0  -8  -2    0.11    0.05
   0   8   2    0.12    0.05
   0   8  -2    0.11    0.09
  -1  -8  -2    1.94    0.12
  -1  -8  -2    1.93    0.12
  -1   8  -2    2.11    0.14
   1   8   2    1.92    0.13
  -2  -8  -2    1.67    0.10
  -2  -8  -2    1.48    0.13
  -2   8  -2    1.70    0.12
   2   8   2    1.51    0.11
  -2   8  -2    1.66    0.12
  -3  -8  -2   32.83    1.37
  -3   8  -2   32.09    1.37
  -3   8  -2   31.85    1.38
   3   8   2   31.85    1.37
  -4  -8  -2   21.50    0.90
  -4   8  -2   20.89    0.91
   4   8   2   21.42    0.91
  -4   8  -2   20.52    0.92
  -5  -8  -2   32.55    1.40
  -5   8  -2   33.89    1.40
   5   8   2   32.79    1.40
  -6  -8  -2   10.23    0.44
   6  -8   2   11.18    0.44
  -6   8  -2   10.36    0.44
   6   8   2    9.18    0.44
   7   9  -2    3.15    0.16
   6  -9  -2    1.13    0.11
   6  -9  -2    1.09    0.09
   6   9  -2    1.01    0.10
  -6   9   2    1.15    0.08
   5  -9  -2  159.63    6.67
   5  -9  -2  160.58    6.68
  -5   9   2  159.47    6.67
   5   9  -2  158.12    6.67
   4  -9  -2   15.85    0.70
   4  -9  -2   16.00    0.71
   4   9  -2   15.61    0.70
  -4   9   2   16.15    0.70
  -4   9   2   15.99    0.70
   3  -9  -2   61.64    2.62
  -3   9   2   62.57    2.61
  -3   9   2   61.57    2.61
   2  -9  -2    0.64    0.09
   2  -9  -2    0.55    0.09
  -2   9   2    0.72    0.08
  -2   9   2    0.70    0.08
   1  -9  -2   33.74    1.44
   1  -9  -2   32.88    1.44
  -1   9   2   34.52    1.44
  -1   9   2   34.45    1.44
   0  -9   2   39.73    1.80
   0  -9  -2   43.39    1.81
   0  -9  -2   42.34    1.80
   0   9   2   44.78    1.81
   0   9  -2   43.82    1.82
   1  -9   2    2.15    0.13
  -1  -9  -2    2.28    0.13
   1   9   2    2.36    0.15
  -1   9  -2    2.24    0.15
  -2  -9  -2   18.80    0.83
   2   9   2   19.98    0.84
  -2   9  -2   18.89    0.84
  -2   9  -2   19.85    0.85
  -3  -9  -2   43.25    1.84
  -3   9  -2   42.71    1.85
   3   9   2   44.75    1.85
  -3   9  -2   43.27    1.86
  -4  -9  -2  136.31    5.68
  -4   9  -2  135.65    5.69
   4   9   2  135.71    5.69
   5  -9   2    5.25    0.24
  -5  -9  -2    5.23    0.23
  -5   9  -2    4.89    0.25
   5   9   2    4.84    0.24
   7 -10  -2    4.29    0.20
   6 -10  -2    6.12    0.29
  -6  10   2    6.06    0.27
   6  10  -2    5.91    0.28
   5 -10  -2   22.98    1.03
   5  10  -2   23.91    1.02
  -5  10   2   24.02    1.02
   4 -10  -2   14.59    0.64
   4 -10  -2   14.59    0.65
  -4  10   2   14.68    0.64
   4  10  -2   14.16    0.64
  -4  10   2   14.24    0.64
   3 -10  -2    7.30    0.36
   3 -10  -2    7.54    0.35
  -3  10   2    7.70    0.35
  -3  10   2    7.58    0.35
   2 -10  -2    9.06    0.43
   2 -10  -2    9.47    0.42
  -2  10   2    9.51    0.43
  -2  10   2    9.31    0.42
   1 -10  -2    8.78    0.39
  -1  10   2    8.73    0.40
  -1  10   2    8.57    0.39
   0 -10  -2    0.08    0.05
   0  10  -2    0.09    0.07
   0  10   2    0.03    0.05
  -1 -10  -2    0.27    0.05
   1  10   2    0.40    0.08
  -1  10  -2    0.36    0.10
  -1  10  -2    0.35    0.07
   2 -10   2    0.64    0.08
  -2  10  -2    0.44    0.09
   2  10   2    0.61    0.09
  -2  10  -2    0.59    0.09
   3 -10   2    0.19    0.05
  -3  10  -2    0.22    0.06
  -3  10  -2    0.23    0.07
   3  10   2    0.20    0.07
   4 -10   2    0.05    0.04
  -4 -10  -2    0.05    0.04
   4  10   2    0.08    0.05
   5 -10   2   29.59    1.27
  -5 -10  -2   29.89    1.26
  -5  10  -2   30.52    1.27
   6 -11  -2    1.25    0.10
   6  11  -2    1.29    0.09
  -6  11   2    1.44    0.08
   5 -11  -2    3.76    0.21
   5  11  -2    3.96    0.20
  -5  11   2    3.88    0.19
   4 -11  -2    1.14    0.11
   4 -11  -2    0.99    0.11
   4  11  -2    1.26    0.13
  -4  11   2    1.22    0.12
  -4  11   2    1.05    0.10
   3 -11  -2    0.52    0.09
   3 -11  -2    0.41    0.07
  -3  11   2    0.36    0.07
  -3  11   2    0.50    0.08
  -2  11   2  323.26   13.41
  -2  11   2  319.04   13.41
   1 -11  -2   27.61    1.21
  -1  11   2   28.72    1.21
   0 -11  -2    7.92    0.36
   0  11  -2    7.88    0.38
   0  11   2    8.05    0.37
   1 -11   2  301.25   12.94
  -1  11  -2  328.13   12.96
  -1  11  -2  301.37   12.95
  -2 -11  -2    0.96    0.08
   2 -11   2    0.81    0.09
  -2  11  -2    0.89    0.10
  -3 -11  -2    5.50    0.26
   3 -11   2    5.38    0.26
  -3  11  -2    5.50    0.27
   3  11   2    5.58    0.27
  -3  11  -2    5.74    0.28
   4 -11   2    4.95    0.23
  -4 -11  -2    5.12    0.23
  -4  11  -2    5.00    0.24
  -4  11  -2    4.95    0.25
   4  11   2    4.86    0.24
   5 -11   2    0.36    0.04
  -5 -11  -2    0.28    0.03
  -5  11  -2    0.21    0.04
   6  12  -2    4.26    0.20
   5 -12  -2   14.46    0.63
   5  12  -2   14.37    0.63
   4 -12  -2   12.72    0.60
  -4  12   2   13.51    0.59
   4  12  -2   13.74    0.59
  -4  12   2   13.25    0.59
   3 -12  -2    7.76    0.38
  -3  12   2    8.10    0.37
   3  12  -2    8.23    0.38
  -3  12   2    7.69    0.37
   2 -12  -2    2.96    0.18
  -2  12   2    3.22    0.18
   2  12  -2    3.08    0.19
  -2  12   2    3.01    0.17
   1 -12  -2  144.30    6.18
   1  12  -2  147.62    6.18
  -1  12   2  150.74    6.18
   0 -12  -2   34.22    1.46
   0  12   2   33.55    1.46
   0  12  -2   34.94    1.46
  -1 -12  -2   88.71    3.64
   1 -12   2   85.43    3.62
  -1  12  -2   85.85    3.64
  -2 -12  -2   50.19    1.91
   2 -12   2   47.83    1.91
  -2  12  -2   40.79    1.92
  -2  12  -2   43.55    1.93
   2  12   2   44.31    1.92
   3 -12   2    2.92    0.15
  -3 -12  -2    2.98    0.15
  -3  12  -2    2.98    0.16
  -3  12  -2    2.90    0.17
   3  12   2    2.92    0.16
  -4 -12  -2   19.74    0.82
   4 -12   2   19.18    0.82
  -4  12  -2   19.56    0.85
  -4  12  -2   19.78    0.83
   4  12   2   18.53    0.83
   6 -13  -2    0.47    0.05
  -5  13   2    0.50    0.05
   5  13  -2    0.48    0.07
   4 -13  -2    6.32    0.29
   4  13  -2    5.88    0.28
  -4  13   2    5.40    0.29
  -4  13   2    6.02    0.28
   3 -13  -2   47.25    2.03
   3  13  -2   47.52    2.02
  -3  13   2   49.28    2.02
  -3  13   2   47.02    2.02
   2 -13  -2    1.15    0.10
  -2  13   2    1.24    0.11
  -2  13   2    1.29    0.09
   1 -13  -2  126.57    5.37
  -1  13   2  126.68    5.40
   1  13  -2  131.57    5.39
   0 -13  -2  105.92    4.54
   0  13   2  110.93    4.55
   0  13  -2  108.49    4.55
  -1 -13  -2    0.21    0.05
  -1  13  -2    0.23    0.07
  -1  13  -2    0.18    0.07
   1  13   2    0.31    0.07
   2 -13   2   21.32    0.94
  -2  13  -2   22.96    0.97
   2  13   2   22.70    0.96
  -2  13  -2   21.94    0.96
   3 -13   2    0.25    0.05
  -3  13  -2    0.17    0.05
  -3  13  -2    0.20    0.05
  -4  13  -2    0.21    0.04
  -4  13  -2    0.25    0.05
   5 -14  -2    3.20    0.16
   4 -14  -2    0.05    0.04
   4  14  -2    0.11    0.05
   3 -14  -2   20.56    0.86
   3  14  -2   19.25    0.85
  -3  14   2   19.42    0.85
   2 -14  -2   32.48    1.40
   2  14  -2   32.72    1.41
  -2  14   2   33.69    1.41
   1 -14  -2   30.61    1.28
  -1  14   2   30.56    1.29
   1  14  -2   29.26    1.29
   0  14  -2    0.13    0.06
   0  14   2    0.08    0.05
   1  14   2    0.37    0.07
  -1  14  -2    0.34    0.07
  -1  14  -2    0.30    0.06
  -2 -14  -2   60.53    2.50
  -2  14  -2   59.92    2.52
  -2  14  -2   58.63    2.51
  -3 -14  -2    2.24    0.10
  -3  14  -2    2.32    0.12
  -3  14  -2    1.95    0.13
   3  14   2    2.17    0.12
   4 -15  -2    0.54    0.06
   4  15  -2    0.50    0.09
   3 -15  -2    6.07    0.26
  -3  15   2    5.08    0.28
   3  15  -2    5.55    0.27
   2 -15  -2   84.95    3.68
  -2  15   2   89.06    3.69
   2  15  -2   89.68    3.69
   1 -15  -2    6.53    0.28
  -1  15   2    6.05    0.29
   1  15  -2    5.95    0.30
   0 -15  -2    2.13    0.12
   0  15  -2    2.43    0.14
   0  15   2    2.23    0.15
  -1 -15  -2   90.35    3.70
  -1  15  -2   87.20    3.71
   1  15   2   87.89    3.71
  -2 -15  -2    3.19    0.14
  -2  15  -2    3.07    0.16
  -3  15  -2    0.01    0.05
  -3  15  -2    0.07    0.03
   4 -16  -2    0.54    0.04
   3 -16  -2   49.33    2.07
   2 -16  -2    0.18    0.03
  -2  16   2    0.24    0.06
   2  16  -2    0.12    0.06
   1 -16  -2    3.12    0.15
  -1  16   2    2.89    0.17
   1  16  -2    3.27    0.17
   0 -16  -2    6.97    0.29
   0  16   2    6.31    0.31
  -1 -16  -2    0.05    0.02
   1  16   2    0.06    0.05
  -1  16  -2    0.05    0.03
   2  16   2   18.02    0.77
   2 -17  -2    1.16    0.06
   1 -17  -2    9.63    0.40
  -1  17   2    9.55    0.42
   1  17  -2    9.18    0.42
   0  17  -2    3.17    0.17
   0  17   2    3.12    0.16
   8   0  -3    0.04    0.05
   8   0  -3    0.01    0.03
   7   0  -3    0.27    0.07
   7   0  -3    0.03    0.06
  -6   0   3    0.08    0.05
   6   0  -3    0.04    0.03
   6   0  -3    0.06    0.05
  -5   0   3    0.07    0.04
   5   0  -3    0.10    0.05
   5   0  -3    0.18    0.05
   4   0  -3    0.25    0.05
  -4   0   3    0.15    0.05
   3   0  -3    0.37    0.07
  -3   0   3    0.23    0.12
  -2   0   3    0.61    0.12
   1   0  -3    0.06    0.07
   0   0  -3    0.08    0.08
   0   0   3    0.01    0.06
   0   0  -3    0.01    0.05
   1   0   3    0.02    0.11
  -1   0  -3    0.02    0.12
  -2   0  -3    0.29    0.05
  -3   0  -3    0.03    0.05
   4   0   3   -0.02    0.04
  -4   0  -3    0.02    0.04
  -4   0  -3    0.01    0.06
   5   0   3    0.25    0.06
  -5   0  -3    0.21    0.06
  -6   0  -3   -0.01    0.05
   8  -1  -3   25.79    1.09
   8  -1  -3   24.83    1.09
   8   1  -3   25.91    1.08
   7  -1  -3   45.84    1.92
   7  -1  -3   44.61    1.92
   7   1  -3   45.01    1.92
  -6  -1   3    2.59    0.15
   6  -1  -3    2.53    0.15
   6  -1  -3    2.63    0.16
  -6   1   3    2.53    0.15
   6   1  -3    2.61    0.15
   6   1  -3    2.67    0.17
   5  -1  -3   50.03    2.03
  -5  -1   3   45.87    2.02
   5  -1  -3   46.85    2.03
   5   1  -3   50.53    2.03
   5   1  -3   46.37    2.03
  -4  -1   3   42.79    1.91
   4  -1  -3   48.46    1.93
   4   1  -3   46.97    1.92
  -4   1   3   43.55    1.92
  -3  -1   3   74.00    3.32
  -3  -1   3   81.85    3.31
   3  -1  -3   78.39    3.23
  -3   1   3   74.13    3.39
  -2  -1   3   32.86    1.43
  -1  -1   3    2.87    0.21
   1   1  -3    2.36    0.20
   0  -1  -3    1.76    0.11
   0  -1  -3    1.88    0.22
   0   1  -3    1.56    0.19
  -1  -1  -3    0.25    0.05
  -1  -1  -3    0.17    0.15
  -1   1  -3    0.22    0.13
   1   1   3    0.24    0.13
  -1   1  -3    0.24    0.05
   2  -1   3   77.79    3.25
  -2  -1  -3   74.21    3.25
  -2  -1  -3   78.81    3.26
  -2   1  -3   79.68    3.26
  -3  -1  -3    1.71    0.11
  -3  -1  -3    1.50    0.13
  -3  -1  -3    1.20    0.12
   3  -1   3    1.43    0.10
  -3   1  -3    1.43    0.15
  -3   1  -3    1.58    0.11
  -3   1  -3    1.39    0.12
   4  -1   3   40.92    1.73
  -4  -1  -3   40.95    1.74
  -4  -1  -3   40.26    1.73
  -4   1  -3   39.76    1.74
  -4   1  -3   40.91    1.73
   4   1   3   42.69    1.73
  -5  -1  -3   22.94    0.98
  -5  -1  -3   23.06    0.99
   5   1   3   22.33    0.98
  -5   1  -3   23.44    0.98
  -5   1  -3   23.36    0.99
  -6  -1  -3   32.02    1.31
  -6   1  -3   30.22    1.32
   8  -2  -3    4.13    0.20
   8  -2  -3    3.83    0.22
   8   2  -3    4.39    0.20
   8   2  -3    4.26    0.21
   7  -2  -3   48.54    2.02
   7   2  -3   46.34    2.01
   6  -2  -3    2.32    0.16
   6  -2  -3    2.36    0.15
  -6  -2   3    2.29    0.13
   6   2  -3    2.09    0.14
   6   2  -3    2.38    0.15
   5  -2  -3   16.79    0.77
  -5  -2   3   17.53    0.76
   5  -2  -3   18.58    0.78
   5   2  -3   18.35    0.77
   5   2  -3   17.02    0.77
  -4  -2   3  103.96    4.71
   4  -2  -3  113.76    4.73
   4  -2  -3  114.31    4.73
   4   2  -3  119.04    4.72
   3  -2  -3    6.18    0.30
  -3  -2   3    7.10    0.33
  -3  -2   3    6.51    0.34
  -3   2   3    5.88    0.46
  -2  -2   3   36.28    1.42
   2  -2  -3   32.32    1.42
  -2   2   3   33.38    1.56
  -2   2   3   32.09    1.53
   1  -2  -3  236.57    9.87
   0  -2  -3  215.25    9.14
   0   2   3  222.79    9.30
  -1  -2  -3    5.93    0.26
  -1  -2  -3    5.13    0.48
   1  -2   3    5.68    0.40
  -1  -2  -3    5.76    0.26
   1   2   3    5.54    0.43
  -1   2  -3    5.15    0.42
  -1   2  -3    5.64    0.26
  -2  -2  -3    1.58    0.10
  -2  -2  -3    1.49    0.13
  -2   2  -3    1.96    0.11
  -3  -2  -3   59.20    2.50
  -3  -2  -3   59.33    2.49
  -3  -2  -3   58.78    2.50
  -3   2  -3   60.62    2.51
  -3   2  -3   58.39    2.50
  -4  -2  -3   13.88    0.59
   4  -2   3   12.21    0.59
  -4  -2  -3   13.91    0.59
  -4   2  -3   13.43    0.61
  -4   2  -3   12.24    0.59
  -4   2  -3   13.92    0.59
   4   2   3   14.05    0.59
  -5  -2  -3    1.56    0.10
  -5  -2  -3    1.57    0.10
   5   2   3    1.63    0.10
  -5   2  -3    1.58    0.10
  -5   2  -3    1.62    0.14
  -6  -2  -3   25.32    1.07
   8  -3  -3    3.68    0.18
   8   3  -3    3.68    0.19
   8   3  -3    3.78    0.18
   7  -3  -3    0.46    0.08
   7  -3  -3    0.59    0.09
   7   3  -3    0.44    0.08
   7   3  -3    0.48    0.08
   6  -3  -3   52.51    2.23
  -6  -3   3   50.87    2.21
   6  -3  -3   55.12    2.24
   6   3  -3   52.97    2.23
   6   3  -3   51.74    2.22
   5  -3  -3    6.69    0.33
   5  -3  -3    6.42    0.31
   5   3  -3    6.70    0.31
   4  -3  -3    9.89    0.43
   4  -3  -3    9.66    0.43
  -4  -3   3    8.89    0.41
   4   3  -3    9.27    0.43
   3  -3  -3   16.33    0.68
  -3   3   3   14.66    0.90
   2  -3  -3   14.52    0.63
  -2   3   3   14.36    0.76
  -2   3   3   14.47    0.79
   1  -3  -3   31.71    1.34
   1   3  -3   30.38    1.37
  -1   3   3   32.72    1.49
   0  -3   3   49.31    2.02
   0  -3  -3   47.15    1.94
   0  -3  -3   42.85    2.12
   0   3   3   47.30    2.10
   0   3  -3   43.09    2.03
  -1  -3  -3   32.22    1.37
  -1  -3  -3   33.85    1.37
  -1  -3  -3   29.70    1.63
  -1   3  -3   34.31    1.38
  -1   3  -3   30.92    1.54
   1   3   3   32.21    1.57
   1   3   3   33.59    1.37
  -2  -3  -3   24.25    1.06
  -2  -3  -3   26.57    1.05
  -2   3  -3   23.85    1.05
   2   3   3   24.33    1.06
  -2   3  -3   24.69    1.06
  -3  -3  -3    0.27    0.06
  -3  -3  -3    0.24    0.08
  -3   3  -3    0.28    0.06
   3   3   3    0.29    0.11
  -4  -3  -3    0.59    0.07
  -4  -3  -3    0.60    0.09
  -4   3  -3    0.62    0.08
  -4   3  -3    0.51    0.09
  -5  -3  -3   17.69    0.74
  -5  -3  -3   16.42    0.72
  -5   3  -3   16.31    0.75
   5   3   3   17.25    0.73
  -5   3  -3   17.34    0.73
  -6  -3  -3    0.05    0.03
  -6   3  -3    0.02    0.04
   8  -4  -3    2.75    0.13
   8   4  -3    2.50    0.14
   8   4  -3    2.38    0.13
   7  -4  -3    0.45    0.08
   7  -4  -3    0.46    0.09
   7   4  -3    0.40    0.07
   7   4  -3    0.43    0.07
   6  -4  -3  224.39    9.04
   6   4  -3  207.82    9.03
   5  -4  -3   10.58    0.49
   5  -4  -3   11.31    0.50
  -5   4   3   10.80    0.48
   5   4  -3   10.58    0.48
   4  -4  -3    2.65    0.16
   4  -4  -3    2.83    0.16
  -4   4   3    2.72    0.16
   3  -4  -3   11.22    0.50
   3  -4  -3   12.02    0.51
  -3   4   3   10.69    0.76
   2  -4  -3    4.15    0.20
  -2   4   3    3.79    0.37
  -2   4   3    3.86    0.35
   1  -4  -3  222.93    9.67
   1  -4  -3  225.74    9.46
  -1   4   3  231.12    9.66
   0  -4  -3  128.38    5.12
   0  -4   3  125.89    5.20
   0  -4  -3  116.99    5.35
   0   4  -3  120.87    5.22
   0   4   3  130.17    5.33
   0   4   3  112.53    5.12
  -1  -4  -3    9.37    0.41
  -1  -4  -3    9.24    0.41
  -1  -4  -3    8.33    0.72
  -1  -4  -3    9.15    0.42
  -1   4  -3    9.61    0.41
   1   4   3    9.54    0.41
   1   4   3    9.06    0.65
  -2  -4  -3   21.56    0.93
  -2  -4  -3   21.86    0.93
  -2  -4  -3   21.99    0.93
   2   4   3   21.04    0.93
  -2   4  -3   21.52    0.94
  -2   4  -3   22.01    0.93
  -3  -4  -3    2.83    0.15
  -3  -4  -3    2.75    0.15
  -3   4  -3    2.73    0.15
  -3   4  -3    2.60    0.16
   3   4   3    2.41    0.16
  -4  -4  -3    0.06    0.05
  -4  -4  -3    0.05    0.04
  -4   4  -3    0.15    0.06
  -4   4  -3    0.09    0.04
  -5  -4  -3  151.79    6.31
   5   4   3  150.19    6.31
  -6  -4  -3    1.24    0.07
   8  -5  -3    1.51    0.08
   8   5  -3    1.46    0.10
   8   5  -3    1.39    0.09
   7  -5  -3    7.07    0.36
   7  -5  -3    7.73    0.35
   7   5  -3    7.21    0.34
   7   5  -3    7.64    0.34
   6  -5  -3  171.88    7.65
   6  -5  -3  191.07    7.65
   6   5  -3  186.22    7.64
   6   5  -3  181.48    7.64
   5  -5  -3   77.79    3.34
   5  -5  -3   80.69    3.35
   5   5  -3   78.54    3.33
  -5   5   3   80.55    3.33
   4  -5  -3   17.87    0.77
   4  -5  -3   17.40    0.76
   4  -5  -3   16.33    0.78
  -4   5   3   17.97    0.75
   3  -5  -3  145.72    6.27
   3  -5  -3  157.82    6.28
  -3   5   3  146.33    6.27
   2  -5  -3    9.54    0.40
  -2   5   3    8.88    0.64
  -2   5   3    8.33    0.57
   1  -5  -3   26.89    1.11
  -1   5   3   27.53    1.11
  -1   5   3   26.27    1.33
  -1   5   3   23.71    1.32
   0  -5  -3   40.71    1.70
   0  -5  -3   42.33    1.70
   0  -5   3   37.38    1.75
   0  -5  -3   38.07    1.95
   0   5   3   40.14    1.93
   0   5   3   43.88    1.70
   0   5  -3   39.01    1.78
  -1  -5  -3   34.83    1.46
  -1  -5  -3   31.11    1.82
  -1  -5  -3   34.27    1.45
   1   5   3   34.58    1.76
   1   5   3   37.30    1.46
  -2  -5  -3  116.89    4.95
  -2  -5  -3  120.12    4.95
  -2  -5  -3  120.45    4.94
   2   5   3  116.98    4.95
  -2   5  -3  116.76    4.95
  -2   5  -3  117.76    4.95
  -3  -5  -3    0.55    0.08
  -3  -5  -3    0.83    0.08
   3   5   3    0.77    0.10
  -3   5  -3    0.61    0.09
  -3   5  -3    0.77    0.09
  -4  -5  -3   83.15    3.48
  -4  -5  -3   84.12    3.49
  -4   5  -3   83.70    3.49
  -4   5  -3   81.17    3.49
  -5  -5  -3   69.63    2.84
   5   5   3   64.08    2.83
  -5   5  -3   69.08    2.84
   8  -6  -3    4.79    0.21
   8   6  -3    4.45    0.22
   7  -6  -3   41.31    1.71
   7   6  -3   39.47    1.71
   7   6  -3   40.50    1.71
   6  -6  -3    9.35    0.41
   6  -6  -3    7.91    0.42
   6  -6  -3    8.45    0.41
   6   6  -3    8.62    0.39
   5  -6  -3   75.82    3.21
   5  -6  -3   79.33    3.21
   5  -6  -3   72.83    3.21
   5   6  -3   73.84    3.19
  -5   6   3   78.23    3.19
   4  -6  -3  180.60    7.44
   4  -6  -3  177.91    7.44
  -4   6   3  174.34    7.42
   3  -6  -3   29.09    1.27
   3  -6  -3   30.17    1.27
   3  -6  -3   28.62    1.28
  -3   6   3   29.89    1.26
  -3   6   3   30.93    1.26
   2  -6  -3  112.89    4.69
   2  -6  -3  107.16    4.69
  -2   6   3  109.63    4.95
  -2   6   3  114.28    4.69
  -2   6   3  115.55    4.69
  -2   6   3  112.71    5.01
   1  -6  -3   47.52    2.00
   1  -6  -3   49.61    2.01
  -1   6   3   47.40    2.28
  -1   6   3   50.81    2.00
  -1   6   3   42.28    2.24
   0  -6  -3   50.81    2.61
   0  -6  -3   54.91    2.30
   0  -6  -3   59.04    2.30
   0  -6  -3   52.65    2.30
   0   6   3   54.58    2.59
   0   6  -3   49.70    2.37
   0   6   3   60.49    2.30
  -1  -6  -3   73.34    3.08
  -1  -6  -3   73.41    3.08
  -2  -6  -3    4.52    0.20
  -2  -6  -3    3.82    0.19
   2   6   3    3.80    0.21
  -2   6  -3    3.60    0.21
  -3  -6  -3  125.61    5.11
  -3  -6  -3  118.04    5.10
  -3   6  -3  121.37    5.12
   3   6   3  120.94    5.10
  -3   6  -3  123.53    5.11
  -4  -6  -3   82.88    3.46
  -4   6  -3   81.47    3.47
  -4   6  -3   82.90    3.46
  -5  -6  -3    1.77    0.10
   5   6   3    1.60    0.09
  -5   6  -3    1.88    0.10
   7  -7  -3    6.91    0.31
   7  -7  -3    6.65    0.33
   7   7  -3    6.50    0.31
   6  -7  -3    4.09    0.21
   6   7  -3    4.30    0.22
   5  -7  -3  131.78    5.67
   5  -7  -3  132.95    5.66
   5  -7  -3  138.67    5.66
  -5   7   3  138.41    5.65
   5   7  -3  133.27    5.65
   4  -7  -3    8.47    0.41
   4  -7  -3    8.52    0.40
  -4   7   3    8.95    0.39
   3  -7  -3    0.13    0.05
   3  -7  -3    0.10    0.07
  -3   7   3    0.03    0.06
  -3   7   3    0.17    0.05
   2  -7  -3    5.31    0.23
   2  -7  -3    4.44    0.23
   2  -7  -3    4.17    0.24
  -2   7   3    4.59    0.59
  -2   7   3    4.38    0.22
  -2   7   3    3.95    0.23
   1  -7  -3   57.98    2.43
   1  -7  -3   58.62    2.44
   1  -7  -3   60.90    2.43
  -1   7   3   50.07    2.72
  -1   7   3   57.00    2.79
  -1   7   3   61.76    2.43
   0  -7  -3   46.55    1.99
   0  -7  -3   48.32    1.99
   0  -7  -3   46.18    1.98
   0   7   3   47.32    1.99
  -1  -7  -3    8.35    0.38
  -1  -7  -3    8.35    0.38
   1   7   3    8.14    0.39
  -1   7  -3    9.08    0.39
  -2  -7  -3    0.33    0.07
  -2   7  -3    0.37    0.06
   2   7   3    0.28    0.06
  -3  -7  -3   19.64    0.86
  -3  -7  -3   20.45    0.87
  -3   7  -3   20.54    0.88
  -4  -7  -3   99.27    4.08
  -4   7  -3   87.88    4.07
  -4   7  -3  104.25    4.10
  -5  -7  -3    8.17    0.36
  -5   7  -3    8.10    0.36
   5   7   3    8.45    0.36
   7  -8  -3    3.18    0.16
   7  -8  -3    3.43    0.24
   7   8  -3    3.26    0.17
   6  -8  -3    8.78    0.42
   6  -8  -3    9.23    0.42
   6   8  -3    8.83    0.41
  -6   8   3    8.95    0.40
   5  -8  -3  278.41   11.41
   5  -8  -3  273.46   11.40
  -5   8   3  267.01   11.39
   4  -8  -3    7.37    0.35
   4  -8  -3    7.24    0.36
   4  -8  -3    7.37    0.36
  -4   8   3    7.64    0.34
   3  -8  -3   16.89    0.75
   3  -8  -3   17.05    0.75
  -3   8   3   17.04    0.74
   2  -8  -3  208.77    8.33
   2  -8  -3  196.52    8.33
   2  -8  -3  196.34    8.33
  -2   8   3  198.14    8.33
  -2   8   3  196.92    8.33
   1  -8  -3   12.00    0.54
   1  -8  -3   11.23    0.53
   1  -8  -3   11.61    0.52
  -1   8   3   12.88    0.53
   0  -8  -3   29.86    1.27
   0  -8  -3   29.92    1.27
   0   8   3   29.68    1.27
  -1  -8  -3  170.30    7.15
  -1  -8  -3  162.45    7.16
  -1   8  -3  180.69    7.16
  -2  -8  -3   45.71    1.93
  -2  -8  -3   45.69    1.93
   2   8   3   46.06    1.94
  -2   8  -3   45.44    1.95
  -2   8  -3   45.98    1.94
  -3  -8  -3   19.86    0.86
  -3   8  -3   20.31    0.88
   3   8   3   20.18    0.87
  -3   8  -3   19.81    0.87
  -4  -8  -3  127.46    5.17
  -4   8  -3  118.36    5.17
  -4   8  -3  124.72    5.17
  -5  -8  -3   10.87    0.46
   5  -8   3   10.20    0.46
  -5   8  -3    9.65    0.46
   5   8   3   11.58    0.46
   7  -9  -3    1.51    0.09
   7  -9  -3    1.61    0.12
   7   9  -3    1.62    0.11
   6  -9  -3   10.79    0.48
   6  -9  -3   10.74    0.50
  -6   9   3   11.12    0.47
   6   9  -3   10.83    0.48
   5  -9  -3    0.19    0.06
   5  -9  -3    0.12    0.07
   5   9  -3    0.17    0.07
  -5   9   3    0.15    0.05
   4  -9  -3    5.35    0.26
   4  -9  -3    5.35    0.28
  -4   9   3    5.19    0.26
   3  -9  -3    0.64    0.07
   3  -9  -3    0.61    0.10
  -3   9   3    0.63    0.10
  -3   9   3    0.58    0.07
  -2   9   3   19.08    0.82
  -2   9   3   18.79    0.82
   1  -9  -3    7.47    0.35
   1  -9  -3    8.85    0.37
  -1   9   3    6.61    0.35
   0  -9  -3    3.87    0.20
   0   9   3    3.94    0.20
   0   9  -3    3.58    0.22
  -1  -9  -3   15.92    0.68
   1  -9   3   14.85    0.68
  -1  -9  -3   16.19    0.69
  -1   9  -3   16.08    0.70
   1   9   3   15.74    0.69
  -2  -9  -3    0.51    0.07
  -3  -9  -3    5.70    0.26
  -3   9  -3    5.60    0.27
   3   9   3    5.34    0.27
  -3   9  -3    5.58    0.28
  -4  -9  -3    0.32    0.05
  -4   9  -3    0.18    0.05
  -4   9  -3    0.29    0.05
   5  -9   3    4.83    0.19
  -5  -9  -3    4.06    0.20
  -5   9  -3    4.35    0.20
   6 -10  -3    3.68    0.18
   6 -10  -3    3.72    0.19
   6  10  -3    3.88    0.20
   5 -10  -3   31.62    1.44
   5  10  -3   34.45    1.43
  -5  10   3   34.94    1.43
   4 -10  -3   44.47    1.91
   4 -10  -3   45.85    1.90
  -4  10   3   44.39    1.90
   3 -10  -3    7.33    0.34
   3 -10  -3    7.23    0.35
  -3  10   3    7.53    0.34
  -3  10   3    7.30    0.35
   2 -10  -3   99.38    4.15
   2 -10  -3   94.58    4.16
  -2  10   3  102.98    4.16
   1 -10  -3    1.94    0.13
   1 -10  -3    2.01    0.13
  -1  10   3    1.96    0.14
   0 -10  -3   11.70    0.52
   0 -10  -3   11.63    0.51
   0  10  -3   11.52    0.53
   0  10   3   11.50    0.52
  -1 -10  -3  119.79    4.90
  -1 -10  -3  119.77    4.89
   1 -10   3  109.95    4.88
  -1  10  -3  116.12    4.90
   1  10   3  118.55    4.90
   2 -10   3    1.72    0.10
  -2 -10  -3    1.71    0.11
   2  10   3    1.60    0.12
  -2  10  -3    1.63    0.12
  -2  10  -3    1.79    0.15
   3 -10   3   49.31    2.07
  -3  10  -3   49.96    2.07
  -3  10  -3   48.58    2.08
   3  10   3   48.43    2.07
  -4 -10  -3    6.21    0.28
   4 -10   3    6.12    0.28
  -4  10  -3    6.36    0.28
   6 -11  -3    0.86    0.09
   6  11  -3    0.71    0.10
   5 -11  -3    4.26    0.23
   5 -11  -3    4.25    0.21
   5  11  -3    4.19    0.22
   4 -11  -3    5.01    0.26
   4 -11  -3    4.97    0.25
  -4  11   3    5.13    0.25
   3 -11  -3   16.78    0.75
   3 -11  -3   16.37    0.76
  -3  11   3   16.97    0.75
  -3  11   3   18.53    0.77
   2 -11  -3   10.98    0.50
   2 -11  -3   10.81    0.48
  -2  11   3   10.87    0.50
   1 -11  -3  124.84    5.00
   1 -11  -3  116.24    5.00
  -1  11   3  117.09    5.01
   0 -11  -3  132.66    5.67
   0  11   3  135.50    5.67
   0  11  -3  137.83    5.67
  -1 -11  -3    8.52    0.39
  -2 -11  -3    8.05    0.37
  -2  11  -3    8.17    0.38
   2  11   3    8.03    0.37
  -3 -11  -3    7.03    0.31
   3 -11   3    6.56    0.30
  -3  11  -3    6.77    0.32
  -3  11  -3    7.11    0.31
   3  11   3    6.32    0.31
  -4 -11  -3    3.83    0.17
  -4  11  -3    3.84    0.18
  -4  11  -3    3.87    0.19
   6 -12  -3    1.34    0.09
   5 -12  -3   14.09    0.62
   4 -12  -3   33.34    1.41
   3 -12  -3    0.07    0.06
   3 -12  -3    0.05    0.06
  -3  12   3    0.01    0.08
   2 -12  -3    7.96    0.37
   1 -12  -3   61.46    2.59
   0 -12  -3   81.55    3.48
   0  12   3   81.87    3.48
   0  12  -3   84.88    3.49
  -1 -12  -3    8.22    0.37
  -1  12  -3    8.27    0.39
   1  12   3    8.15    0.38
  -2 -12  -3    3.33    0.16
  -2  12  -3    3.34    0.18
   2  12   3    3.23    0.18
  -2  12  -3    3.43    0.19
  -3 -12  -3   30.68    1.27
   3  12   3   28.39    1.28
  -3  12  -3   30.59    1.28
  -3  12  -3   30.84    1.28
  -4 -12  -3   24.15    0.98
  -4  12  -3   22.63    0.99
   5 -13  -3   14.01    0.61
   4 -13  -3   11.54    0.52
  -3  13   3    2.15    0.16
   2 -13  -3   24.53    1.06
  -2  13   3   24.48    1.06
   1 -13  -3   68.07    2.76
   1  13  -3   63.49    2.77
  -1  13   3   64.61    2.76
   0 -13  -3   90.04    3.83
   0  13  -3   92.72    3.84
   0  13   3   91.39    3.84
  -1  13  -3   13.90    0.61
   1  13   3   13.71    0.61
  -2 -13  -3    0.34    0.04
  -2  13  -3    0.33    0.06
  -2  13  -3    0.24    0.06
  -3 -13  -3    3.81    0.18
  -3  13  -3    4.16    0.20
  -3  13  -3    3.94    0.21
   4 -14  -3    0.22    0.04
   3 -14  -3   16.79    0.73
   2 -14  -3    2.72    0.16
  -2  14   3    3.08    0.18
   1 -14  -3   71.28    2.91
  -1  14   3   68.03    2.91
   1  14  -3   68.16    2.91
   0 -14  -3   41.78    1.71
   0  14   3   39.68    1.72
   0  14  -3   40.22    1.72
  -1 -14  -3   13.08    0.52
   1  14   3   11.03    0.52
  -1  14  -3   11.46    0.53
  -2 -14  -3    4.62    0.20
  -2  14  -3    4.46    0.21
  -2  14  -3    4.31    0.21
   2  14   3    4.03    0.22
   4 -15  -3   16.32    0.70
   3 -15  -3    0.20    0.04
   2 -15  -3    0.78    0.06
  -2  15   3    0.84    0.12
   1 -15  -3    2.31    0.12
  -1  15   3    1.99    0.14
   1  15  -3    2.28    0.16
   0 -15  -3    5.77    0.24
   0  15   3    5.23    0.28
   0  15  -3    5.16    0.27
  -1 -15  -3    0.08    0.03
   1  15   3    0.10    0.06
  -1  15  -3    0.08    0.05
  -2 -15  -3    0.04    0.02
  -2  15  -3    0.09    0.03
   3 -16  -3    0.15    0.03
   2 -16  -3    1.48    0.08
   1 -16  -3    7.14    0.31
   0 -16  -3    3.85    0.17
   0  16  -3    3.58    0.19
  -1 -16  -3    2.66    0.12
   2 -17  -3    2.74    0.12
   1 -17  -3    5.27    0.23
   8   0  -4   51.18    2.43
   8   0  -4   63.64    2.42
   7   0  -4   63.12    2.61
   7   0  -4   59.89    2.60
   6   0  -4   24.87    1.06
   6   0  -4   23.92    1.05
   5   0  -4   20.83    0.81
   5   0  -4   16.16    0.82
   4   0  -4  286.81   11.72
   4   0  -4  274.50   11.74
   3   0  -4   64.41    2.71
   2   0  -4    6.48    0.32
  -2   0   4    7.27    0.45
   0   0  -4  228.38    9.53
  -1   0  -4   73.36    3.13
  -1   0  -4   75.35    3.12
  -2   0  -4  104.89    4.40
  -3   0  -4   22.04    0.95
  -4   0  -4    1.43    0.14
  -4   0  -4    1.29    0.09
  -5   0  -4   19.39    0.80
  -5   0  -4   18.38    0.81
   8  -1  -4    1.61    0.11
   8  -1  -4    1.49    0.09
   8   1  -4    1.67    0.12
   8   1  -4    1.55    0.09
   7  -1  -4    0.27    0.06
   7   1  -4    0.17    0.06
   7   1  -4    0.22    0.06
   6  -1  -4   26.24    1.16
   6  -1  -4   27.67    1.17
   6   1  -4   25.72    1.15
   6   1  -4   27.85    1.16
   4  -1  -4   46.35    2.03
   4  -1  -4   49.57    2.03
  -3  -1   4   53.91    2.36
   3  -1  -4   50.27    2.23
  -3  -1   4   58.45    2.37
   3   1  -4   49.30    2.23
   2  -1  -4    1.82    0.11
  -2  -1   4    1.89    0.21
   2   1  -4    1.44    0.14
  -2   1   4    1.68    0.30
  -1  -1   4  349.67   13.28
   1  -1  -4  286.67   13.34
   1   1  -4  302.26   13.14
   1   1  -4  294.73   13.30
  -1   1   4  340.93   13.34
  -1  -1  -4    9.62    0.42
  -1  -1  -4    9.32    0.43
  -1   1  -4    9.81    0.42
  -1   1  -4    9.37    0.43
  -2  -1  -4   20.29    0.88
  -2   1  -4   20.19    0.89
  -2   1  -4   20.75    0.88
  -3  -1  -4   45.84    1.89
  -3  -1  -4   44.16    1.89
   3   1   4   42.66    1.88
  -3   1  -4   45.76    1.89
  -4  -1  -4   11.49    0.50
  -4  -1  -4   10.87    0.48
  -4   1  -4   10.32    0.49
  -4   1  -4   11.38    0.49
  -5  -1  -4   11.54    0.52
  -5  -1  -4   13.52    0.52
  -5   1  -4   10.62    0.51
   8  -2  -4    2.31    0.14
   8  -2  -4    2.49    0.13
   8   2  -4    2.41    0.14
   8   2  -4    2.47    0.14
   7  -2  -4    0.67    0.09
   7   2  -4    0.54    0.08
   7   2  -4    0.50    0.09
   6  -2  -4    0.37    0.06
   6  -2  -4    0.41    0.11
   6   2  -4    0.37    0.09
   6   2  -4    0.61    0.10
   5  -2  -4    7.52    0.36
   5  -2  -4    7.61    0.36
   5   2  -4    7.53    0.35
   4  -2  -4    5.40    0.28
   4  -2  -4    5.81    0.28
   4   2  -4    5.62    0.27
   3  -2  -4   27.86    1.19
   2  -2  -4   75.98    3.19
   1  -2  -4    0.22    0.18
   1  -2  -4    0.35    0.07
  -1  -2   4    0.37    0.16
  -1  -2   4    0.39    0.17
   0  -2  -4   23.81    0.99
   0  -2  -4   22.91    0.99
   0   2  -4   22.77    0.99
  -1  -2  -4   11.69    0.52
  -1  -2  -4   11.99    0.52
  -1   2  -4   11.53    0.53
  -1   2  -4   11.91    0.52
  -2  -2  -4   18.65    0.80
  -2  -2  -4   17.98    0.79
  -2  -2  -4   17.84    0.78
  -2   2  -4   18.01    0.79
  -2   2  -4   18.29    0.79
  -3  -2  -4    2.33    0.13
  -3  -2  -4    2.40    0.16
  -3   2  -4    2.45    0.13
   3   2   4    2.36    0.13
  -4  -2  -4    6.24    0.28
  -4  -2  -4    6.42    0.29
  -4   2  -4    5.76    0.29
  -4   2  -4    6.20    0.28
   4   2   4    5.93    0.28
  -5  -2  -4    0.95    0.08
  -5   2  -4    1.02    0.06
   8  -3  -4    8.77    0.40
   8  -3  -4    8.56    0.39
   8   3  -4    9.08    0.39
   8   3  -4    9.06    0.40
   7  -3  -4   50.61    2.11
   7  -3  -4   49.29    2.11
   7   3  -4   51.16    2.10
   7   3  -4   47.90    2.11
   6  -3  -4  106.99    4.55
   6   3  -4  109.71    4.55
   5  -3  -4    0.56    0.07
   5   3  -4    0.51    0.10
   4  -3  -4   48.88    2.04
   4  -3  -4   47.37    2.04
   3  -3  -4  110.52    4.48
   3  -3  -4  102.99    4.47
   2  -3  -4   35.46    1.51
   1  -3  -4   24.87    1.03
   1  -3  -4   22.16    1.04
   1  -3  -4   22.13    1.28
  -1  -3   4   25.77    1.05
   1   3  -4   25.44    1.13
   0  -3  -4  126.28    5.30
   0  -3  -4  126.35    5.30
   0   3  -4  127.28    5.30
  -1  -3  -4   18.93    0.84
  -1  -3  -4   19.12    0.83
  -1  -3  -4   18.64    0.84
  -1   3  -4   20.77    0.83
  -1   3  -4   19.00    0.84
  -2  -3  -4    5.19    0.25
  -2  -3  -4    5.14    0.26
  -2  -3  -4    5.08    0.26
  -2   3  -4    5.58    0.26
  -2   3  -4    5.32    0.25
  -3  -3  -4   22.45    0.99
  -3  -3  -4   23.62    0.99
  -3   3  -4   23.03    0.99
  -3   3  -4   22.94    1.00
  -4  -3  -4    9.58    0.41
  -4  -3  -4    9.27    0.40
   4   3   4    8.61    0.40
  -4   3  -4    8.77    0.41
  -4   3  -4    9.15    0.41
  -5  -3  -4   80.93    3.29
  -5   3  -4   76.17    3.28
   8  -4  -4   16.25    0.64
   8   4  -4   15.38    0.65
   8   4  -4   13.06    0.64
   7  -4  -4   21.81    0.96
   7  -4  -4   21.75    0.95
   7   4  -4   22.50    0.95
   7   4  -4   22.16    0.95
   6  -4  -4    3.59    0.20
   6  -4  -4    3.92    0.23
   6   4  -4    3.74    0.20
   5  -4  -4    0.40    0.07
   5   4  -4    0.32    0.07
   4  -4  -4    0.78    0.10
   4  -4  -4    0.72    0.09
   3  -4  -4   59.33    2.54
   3  -4  -4   61.25    2.55
   2  -4  -4   25.66    1.07
   2  -4  -4   24.15    1.07
   1  -4  -4    8.94    0.41
   1  -4  -4    9.11    0.41
   0  -4  -4    4.28    0.25
   0  -4  -4    4.53    0.22
   0  -4  -4    4.44    0.22
  -1  -4  -4    0.64    0.10
  -1  -4  -4    0.40    0.07
  -1   4  -4    0.51    0.09
  -2  -4  -4   22.62    1.02
  -2  -4  -4   24.33    1.01
  -2  -4  -4   23.49    1.02
  -2   4  -4   23.27    1.02
  -2   4  -4   24.43    1.02
  -3  -4  -4   16.56    0.74
  -3  -4  -4   17.01    0.75
  -3   4  -4   17.44    0.75
  -3   4  -4   17.49    0.76
  -4  -4  -4   34.64    1.41
  -4  -4  -4   32.65    1.40
  -4   4  -4   33.95    1.41
  -4   4  -4   31.30    1.41
   4   4   4   33.34    1.40
   8  -5  -4    0.09    0.03
   8   5  -4    0.09    0.05
   7  -5  -4    1.17    0.13
   7  -5  -4    1.17    0.10
   7   5  -4    1.07    0.11
   6  -5  -4   75.82    3.22
   6   5  -4   76.78    3.21
   5  -5  -4   71.86    3.02
   5  -5  -4   73.30    3.03
   5   5  -4   69.62    3.01
   4  -5  -4   69.82    2.91
   4  -5  -4   68.00    2.91
   3  -5  -4   63.05    2.66
   3  -5  -4   63.03    2.66
   2  -5  -4   57.53    2.41
   2  -5  -4   56.64    2.41
   1  -5  -4   32.35    1.40
   1  -5  -4   32.34    1.39
   1  -5  -4   33.57    1.40
   0  -5  -4  144.28    6.10
   0  -5  -4  147.90    6.11
   0  -5  -4  146.03    6.11
   0   5  -4  145.64    6.11
  -1  -5  -4   13.11    0.59
  -1  -5  -4   13.21    0.58
  -1   5  -4   13.67    0.59
  -2  -5  -4   63.30    2.81
  -2  -5  -4   68.40    2.81
  -2  -5  -4   66.31    2.81
  -2   5  -4   68.37    2.82
  -2   5  -4   67.43    2.81
  -3  -5  -4   29.21    1.24
  -3  -5  -4   29.41    1.25
  -3   5  -4   29.18    1.25
  -3   5  -4   28.94    1.25
  -4  -5  -4    0.72    0.07
  -4  -5  -4    0.73    0.08
  -4   5  -4    0.74    0.09
  -4   5  -4    0.76    0.06
  -5   5  -4   16.23    0.69
   8  -6  -4    0.24    0.04
   7  -6  -4    5.94    0.28
   7   6  -4    5.96    0.28
   6  -6  -4   28.92    1.23
   6  -6  -4   29.05    1.24
   6   6  -4   27.99    1.22
   5  -6  -4  238.90   10.00
   5  -6  -4  239.35   10.00
   4  -6  -4    3.26    0.19
   4  -6  -4    3.23    0.18
   3  -6  -4   93.70    4.04
   3  -6  -4   96.96    4.05
   3  -6  -4   98.15    4.05
   2  -6  -4  197.52    8.33
   2  -6  -4  201.97    8.34
   2  -6  -4  198.69    8.34
   1  -6  -4    8.16    0.38
   1  -6  -4    8.20    0.39
   1  -6  -4    8.30    0.37
   0  -6  -4   41.24    1.76
   0  -6  -4   41.24    1.76
   0   6  -4   41.73    1.76
  -1  -6  -4  197.84    7.98
  -1  -6  -4  189.96    7.98
  -1  -6  -4  186.76    7.98
  -1   6  -4  189.19    7.99
  -1   6  -4  190.84    7.98
  -2  -6  -4    0.07    0.05
  -2  -6  -4    0.03    0.04
  -2   6  -4    0.03    0.05
  -3  -6  -4   44.92    2.06
  -3   6  -4   50.84    2.06
  -3   6  -4   50.15    2.06
  -4  -6  -4   92.30    3.74
  -4   6  -4   85.73    3.74
  -4   6  -4   92.37    3.74
   4   6   4   86.42    3.73
   7  -7  -4    0.60    0.07
   7   7  -4    0.62    0.13
   6  -7  -4   12.09    0.55
   6  -7  -4   12.18    0.56
   6   7  -4   12.58    0.55
   5  -7  -4   10.92    0.52
   5  -7  -4   10.98    0.50
   4  -7  -4    6.77    0.32
   4  -7  -4    6.24    0.34
   4  -7  -4    6.74    0.33
   3  -7  -4    3.61    0.22
   3  -7  -4    3.67    0.19
   3  -7  -4    3.26    0.19
   2  -7  -4    3.62    0.20
   2  -7  -4    3.67    0.21
   1  -7  -4   17.64    0.76
   1  -7  -4   17.10    0.76
   0  -7  -4    0.86    0.08
   0  -7  -4    0.85    0.10
   0  -7  -4    0.93    0.11
   0   7   4    0.91    0.11
   0   7  -4    1.04    0.13
  -1  -7  -4    0.03    0.05
  -1  -7  -4    0.03    0.04
  -1   7  -4   -0.01    0.05
  -1   7  -4   -0.02    0.07
   1   7   4    0.04    0.08
  -2  -7  -4    0.32    0.05
  -2  -7  -4    0.37    0.08
  -2   7  -4    0.38    0.08
  -3  -7  -4    7.72    0.35
  -3   7  -4    7.85    0.37
  -3   7  -4    8.27    0.37
  -4  -7  -4   18.03    0.74
  -4   7  -4   16.52    0.74
   4   7   4   16.43    0.73
  -4   7  -4   17.70    0.74
   7  -8  -4    8.65    0.37
   7   8  -4    8.00    0.38
   6  -8  -4   29.27    1.24
   6  -8  -4   28.62    1.25
   6   8  -4   28.91    1.24
   5  -8  -4   30.03    1.28
   5  -8  -4   30.08    1.28
   5  -8  -4   29.45    1.29
   4  -8  -4   37.27    1.59
   4  -8  -4   38.48    1.59
   4  -8  -4   35.73    1.59
   3  -8  -4    1.67    0.14
   3  -8  -4    1.51    0.14
   3  -8  -4    1.47    0.11
   2  -8  -4    1.42    0.12
   2  -8  -4    1.28    0.12
   2  -8  -4    1.27    0.09
   1  -8  -4    0.26    0.08
   1  -8  -4    0.12    0.04
   1  -8  -4    0.11    0.06
  -1   8   4    0.29    0.08
   0  -8  -4    1.28    0.09
   0  -8  -4    1.21    0.11
   0   8  -4    1.26    0.13
   0   8   4    1.10    0.12
  -1  -8  -4    7.85    0.35
  -1  -8  -4    7.85    0.36
   1   8   4    7.08    0.36
  -1   8  -4    8.12    0.37
  -1   8  -4    7.62    0.37
  -2  -8  -4    0.35    0.07
  -2   8  -4    0.43    0.09
  -2   8  -4    0.29    0.06
  -3  -8  -4   46.74    1.99
  -3   8  -4   46.95    2.00
  -3   8  -4   47.79    1.99
  -4  -8  -4    0.72    0.06
   4   8   4    0.84    0.05
  -4   8  -4    0.80    0.09
   7  -9  -4    3.40    0.17
   6  -9  -4   21.81    0.93
   6  -9  -4   20.82    0.91
   5  -9  -4   90.54    4.04
   5  -9  -4  101.74    4.06
   4  -9  -4   77.70    3.32
   4  -9  -4   80.15    3.33
   3  -9  -4    0.93    0.14
   3  -9  -4    0.88    0.10
   3  -9  -4    1.04    0.12
   2  -9  -4    1.26    0.12
   2  -9  -4    1.34    0.11
   1  -9  -4    1.91    0.12
   1  -9  -4    1.86    0.13
  -1   9   4    1.86    0.15
   0  -9  -4   19.50    0.82
   0  -9  -4   19.21    0.81
   0   9   4   17.89    0.82
   0   9  -4   18.76    0.83
  -1  -9  -4   12.72    0.57
  -1  -9  -4   13.24    0.57
  -2  -9  -4   18.43    0.77
  -2  -9  -4   16.66    0.77
  -2   9  -4   18.39    0.78
  -3  -9  -4    0.33    0.06
  -3   9  -4    0.39    0.07
  -3   9  -4    0.30    0.05
  -4  -9  -4   75.43    3.32
   4   9   4   83.34    3.32
   6 -10  -4   30.92    1.32
   6 -10  -4   31.39    1.33
   5 -10  -4    0.13    0.07
   5 -10  -4   -0.01    0.06
   4 -10  -4   -0.04    0.05
   4 -10  -4    0.08    0.05
   3 -10  -4    0.42    0.07
   3 -10  -4    0.35    0.06
   1 -10  -4    1.26    0.10
   1 -10  -4    1.20    0.11
  -1  10   4    1.41    0.13
   0 -10  -4    9.30    0.40
   0 -10  -4    8.82    0.41
  -1 -10  -4   10.88    0.49
  -1 -10  -4   11.24    0.48
  -1  10  -4   11.26    0.50
   1  10   4   10.36    0.49
  -2 -10  -4    3.17    0.17
  -2  10  -4    3.37    0.18
  -2  10  -4    3.10    0.17
  -3 -10  -4    9.45    0.41
  -3  10  -4    9.23    0.42
  -3  10  -4    9.17    0.41
  -4 -10  -4   17.13    0.72
  -4  10  -4   16.94    0.72
   6 -11  -4    3.57    0.19
   6 -11  -4    4.30    0.21
   5 -11  -4    8.83    0.41
   5 -11  -4    8.70    0.39
   3 -11  -4   23.55    1.01
   3 -11  -4   23.45    1.02
   2 -11  -4  267.96   11.43
   2 -11  -4  279.13   11.42
   1 -11  -4    4.99    0.25
   1 -11  -4    5.02    0.24
  -1  11   4    4.95    0.26
   0 -11  -4   44.49    1.87
   0 -11  -4   44.29    1.85
   0  11   4   41.76    1.86
   0  11  -4   45.58    1.87
  -1  11  -4  158.99    6.66
  -2 -11  -4    1.46    0.09
  -2  11  -4    1.43    0.11
  -2  11  -4    1.50    0.12
  -3 -11  -4    4.74    0.20
  -3  11  -4    4.22    0.21
   6 -12  -4    6.96    0.31
   5 -12  -4   24.72    1.06
   4 -12  -4    0.93    0.08
   4 -12  -4    0.85    0.08
   3 -12  -4   26.26    1.12
   2 -12  -4   82.69    3.48
   0  12   4   96.48    4.35
   0  12  -4  111.34    4.36
  -2 -12  -4   11.50    0.50
  -2  12  -4   11.70    0.51
  -3 -12  -4    9.13    0.46
  -3  12  -4   11.77    0.48
  -3  12  -4   11.27    0.48
   5 -13  -4    2.31    0.12
   4 -13  -4    0.02    0.04
   3 -13  -4   45.74    1.94
   2 -13  -4    0.51    0.08
   1 -13  -4   37.26    1.58
   0 -13  -4  100.68    4.28
   0  13  -4  103.76    4.29
  -1 -13  -4    8.02    0.36
  -2 -13  -4   25.80    1.08
  -2  13  -4   25.58    1.09
   5 -14  -4    0.63    0.05
   4 -14  -4    0.37    0.05
   3 -14  -4   63.85    2.68
   2 -14  -4    5.90    0.27
   1 -14  -4    0.06    0.03
   0 -14  -4    5.74    0.25
   0  14  -4    5.08    0.26
  -1 -14  -4   27.38    1.10
  -1  14  -4   24.60    1.11
  -2 -14  -4    4.82    0.21
   4 -15  -4    0.16    0.04
   3 -15  -4    0.28    0.05
   2 -15  -4   82.45    3.45
   1 -15  -4    3.60    0.17
   0 -15  -4   10.68    0.46
  -1 -15  -4   33.44    1.40
   3 -16  -4   23.91    1.01
   2 -16  -4    2.49    0.12
   1 -16  -4    6.50    0.28
   8   0  -5    0.06    0.07
   8   0  -5   -0.04    0.05
   7   0  -5    0.10    0.06
   7   0  -5    0.04    0.05
   6   0  -5    0.18    0.07
   6   0  -5    0.02    0.06
   5   0  -5    0.25    0.07
   5   0  -5    0.05    0.07
   4   0  -5    0.08    0.11
   4   0  -5    0.09    0.06
   3   0  -5    0.07    0.06
   2   0  -5    0.01    0.06
   2   0  -5    0.02    0.08
   1   0  -5    0.12    0.05
   1   0  -5    0.10    0.06
   0   0  -5    0.05    0.06
  -1   0  -5    0.04    0.05
  -1   0  -5    0.05    0.04
  -2   0  -5    0.61    0.09
  -3   0  -5   -0.08    0.05
  -4   0  -5    0.02    0.03
   8  -1  -5   25.23    0.99
   8  -1  -5   22.52    0.99
   8   1  -5   23.63    1.00
   8   1  -5   21.73    0.99
   7  -1  -5   31.38    1.39
   7  -1  -5   33.42    1.38
   7   1  -5   32.63    1.38
   7   1  -5   32.08    1.39
   6  -1  -5    5.81    0.30
   6  -1  -5    5.48    0.28
   6   1  -5    5.20    0.29
   6   1  -5    6.47    0.30
   5  -1  -5    4.94    0.26
   5  -1  -5    4.89    0.25
   5   1  -5    4.75    0.26
   4  -1  -5   51.27    2.14
   4  -1  -5   49.50    2.13
   4   1  -5   50.20    2.13
   3  -1  -5    1.47    0.11
   3  -1  -5    1.29    0.13
   3   1  -5    1.40    0.13
   2  -1  -5    7.54    0.35
   2  -1  -5    7.45    0.35
   2   1  -5    7.17    0.34
   1  -1  -5    6.52    0.31
   1  -1  -5    6.71    0.32
   1   1  -5    6.84    0.31
   1   1  -5    6.42    0.32
   0  -1  -5    0.22    0.06
   0   1  -5    0.21    0.05
  -1  -1  -5   10.02    0.45
  -1  -1  -5   10.11    0.46
  -1   1  -5   10.03    0.45
  -1   1  -5   10.11    0.46
  -2  -1  -5   22.54    1.00
  -2  -1  -5   23.40    0.99
  -2   1  -5   23.43    1.00
  -2   1  -5   22.79    0.99
  -3  -1  -5    7.98    0.39
  -3  -1  -5    8.46    0.37
  -3   1  -5    8.97    0.38
  -3   1  -5    8.10    0.38
  -4  -1  -5    3.53    0.18
  -4   1  -5    4.34    0.18
   8  -2  -5    0.18    0.06
   8  -2  -5    0.09    0.03
   8   2  -5    0.06    0.05
   8   2  -5    0.05    0.04
   7  -2  -5   32.41    1.39
   7  -2  -5   32.38    1.38
   7   2  -5   33.29    1.38
   7   2  -5   31.04    1.38
   6  -2  -5    4.84    0.26
   6  -2  -5    5.33    0.27
   6   2  -5    4.90    0.26
   5  -2  -5   41.80    1.77
   5  -2  -5   41.08    1.76
   5   2  -5   40.91    1.76
   4  -2  -5   29.10    1.25
   4  -2  -5   30.57    1.26
   4   2  -5   27.21    1.24
   3  -2  -5   13.92    0.61
   3  -2  -5   13.88    0.61
   3   2  -5   13.04    0.61
   2  -2  -5   16.96    0.75
   2  -2  -5   17.44    0.75
   2   2  -5   16.98    0.75
   1  -2  -5  171.91    7.14
   1  -2  -5  171.63    7.15
   1   2  -5  168.76    7.14
   0  -2  -5   19.49    0.89
   0  -2  -5   20.25    0.88
   0   2  -5   21.68    0.89
   0   2  -5   20.43    0.89
  -1  -2  -5    3.29    0.19
  -1  -2  -5    3.28    0.17
  -1   2  -5    2.93    0.18
  -1   2  -5    3.10    0.17
  -2  -2  -5    3.10    0.17
  -2  -2  -5    2.88    0.15
  -2   2  -5    2.98    0.18
  -2   2  -5    2.69    0.15
  -3  -2  -5   32.07    1.32
  -3   2  -5   31.16    1.32
  -3   2  -5   30.02    1.32
  -4  -2  -5    0.03    0.02
  -4   2  -5    0.04    0.03
   8  -3  -5   23.28    0.93
   8  -3  -5   21.42    0.93
   8   3  -5   20.76    0.93
   7  -3  -5   50.11    2.08
   7  -3  -5   48.87    2.09
   7   3  -5   48.71    2.09
   6  -3  -5    3.04    0.18
   6  -3  -5    2.75    0.16
   6   3  -5    3.06    0.19
   5  -3  -5    6.89    0.33
   5  -3  -5    6.96    0.34
   5   3  -5    6.85    0.34
   4  -3  -5   10.57    0.49
   4  -3  -5   10.50    0.48
   3  -3  -5    0.89    0.09
   3  -3  -5    0.94    0.11
   2  -3  -5    0.60    0.09
   2  -3  -5    0.49    0.07
   1  -3  -5    1.10    0.09
   1   3  -5    1.20    0.12
   0  -3  -5    3.89    0.21
   0   3  -5    3.91    0.20
  -1  -3  -5   23.47    1.02
  -1  -3  -5   23.31    1.01
  -1   3  -5   24.43    1.02
  -1   3  -5   22.81    1.01
  -2  -3  -5    3.67    0.19
  -2  -3  -5    3.62    0.22
  -2  -3  -5    3.79    0.20
  -2   3  -5    3.88    0.20
  -2   3  -5    3.69    0.19
  -3  -3  -5    2.39    0.16
  -3  -3  -5    2.42    0.13
  -3   3  -5    2.46    0.14
  -3   3  -5    2.49    0.14
  -4  -3  -5    1.67    0.11
  -4  -3  -5    1.72    0.09
  -4   3  -5    1.68    0.09
   8  -4  -5    1.19    0.08
   7  -4  -5   35.44    1.47
   7  -4  -5   33.61    1.47
   7   4  -5   34.41    1.47
   6  -4  -5   74.51    3.16
   6  -4  -5   75.28    3.15
   6   4  -5   74.59    3.15
   5  -4  -5   14.48    0.63
   5  -4  -5   13.76    0.61
   5   4  -5   12.88    0.61
   4  -4  -5    0.99    0.11
   4  -4  -5    1.00    0.10
   3  -4  -5    0.13    0.06
   3  -4  -5    0.15    0.07
   2  -4  -5   20.68    0.90
   1  -4  -5   83.65    3.40
   1  -4  -5   80.86    3.41
   1   4  -5   78.54    3.40
   0  -4  -5   17.98    0.78
   0  -4  -5   18.18    0.79
   0   4  -5   18.33    0.79
   0   4  -5   17.97    0.79
  -1  -4  -5    0.94    0.11
  -1  -4  -5    1.04    0.09
  -2  -4  -5   16.48    0.73
  -2  -4  -5   16.54    0.72
  -2  -4  -5   15.90    0.73
  -2   4  -5   17.59    0.74
  -2   4  -5   16.78    0.73
  -3  -4  -5    0.32    0.04
  -3  -4  -5    0.26    0.05
  -3   4  -5    0.21    0.05
  -3   4  -5    0.20    0.05
  -4  -4  -5   20.05    0.86
   8  -5  -5    1.21    0.07
   7  -5  -5    1.75    0.11
   7  -5  -5    1.64    0.13
   7   5  -5    1.74    0.12
   6  -5  -5  284.63   11.94
   6  -5  -5  284.91   11.94
   6   5  -5  287.68   11.93
   5  -5  -5    3.19    0.19
   4  -5  -5    4.40    0.22
   4  -5  -5    4.22    0.23
   3  -5  -5  108.00    4.61
   3  -5  -5  111.53    4.61
   2  -5  -5   16.91    0.74
   2  -5  -5   17.02    0.75
   1  -5  -5    1.01    0.09
   1   5  -5    0.82    0.13
   0  -5  -5   13.49    0.61
   0  -5  -5   13.39    0.61
   0  -5  -5   13.76    0.60
   0   5  -5   13.70    0.61
  -1  -5  -5   97.30    4.03
  -1  -5  -5   95.72    4.03
  -1   5  -5   95.19    4.03
  -2  -5  -5    2.50    0.15
  -2   5  -5    2.88    0.17
  -2   5  -5    2.67    0.16
  -3  -5  -5    1.83    0.12
  -3  -5  -5    1.97    0.11
  -3   5  -5    1.83    0.12
  -3   5  -5    1.83    0.11
  -4  -5  -5   99.17    4.30
  -4   5  -5  106.61    4.30
   7  -6  -5    2.64    0.15
   7  -6  -5    2.18    0.12
   7   6  -5    2.15    0.15
   6  -6  -5    5.49    0.28
   6   6  -5    5.47    0.28
   5  -6  -5    0.12    0.05
   5  -6  -5    0.02    0.07
   4  -6  -5   34.08    1.46
   4  -6  -5   34.05    1.46
   3  -6  -5    1.16    0.11
   3  -6  -5    1.23    0.13
   2  -6  -5   29.68    1.28
   2  -6  -5   29.79    1.27
   1  -6  -5   43.91    1.86
   1  -6  -5   44.03    1.86
   1  -6  -5   43.16    1.85
   0  -6  -5    1.58    0.14
   0  -6  -5    1.76    0.11
   0  -6  -5    1.59    0.14
   0   6  -5    1.64    0.13
  -1  -6  -5   24.57    1.02
  -1  -6  -5   23.19    1.02
  -1  -6  -5   23.47    1.02
  -1   6  -5   24.04    1.03
  -1   6  -5   23.19    1.02
  -2  -6  -5    3.68    0.19
  -2   6  -5    3.39    0.18
  -2   6  -5    3.78    0.20
  -3  -6  -5   19.20    0.81
  -3  -6  -5   18.71    0.81
  -3   6  -5   19.06    0.81
  -3   6  -5   18.90    0.82
  -4  -6  -5   46.34    1.94
   7  -7  -5   26.63    1.14
   7   7  -5   27.29    1.15
   6  -7  -5    8.86    0.40
   6  -7  -5    8.20    0.40
   5  -7  -5  188.50    7.86
   5  -7  -5  187.31    7.87
   4  -7  -5   13.73    0.74
   4  -7  -5   19.05    0.73
   3  -7  -5   21.39    0.92
   3  -7  -5   21.54    0.93
   3  -7  -5   20.61    0.93
   2  -7  -5   46.85    2.01
   2  -7  -5   45.82    2.00
   2  -7  -5   49.04    2.01
   1  -7  -5    4.58    0.23
   1  -7  -5    4.50    0.24
   1  -7  -5    4.61    0.24
   0  -7  -5   55.92    2.27
   0  -7  -5   55.11    2.28
   0  -7  -5   50.60    2.29
  -1  -7  -5    4.70    0.22
  -1  -7  -5    4.44    0.22
  -1   7  -5    4.37    0.23
  -1   7  -5    4.72    0.24
  -2  -7  -5    2.85    0.15
  -2  -7  -5    2.84    0.16
  -2   7  -5    2.79    0.16
  -2   7  -5    2.69    0.17
  -3  -7  -5   91.33    3.93
  -3   7  -5  104.20    3.96
  -3   7  -5   86.00    3.93
   7  -8  -5    8.70    0.38
   6  -8  -5   39.68    1.68
   5  -8  -5  119.64    5.17
   5  -8  -5  126.80    5.17
   4  -8  -5    2.87    0.19
   4  -8  -5    2.97    0.17
   4  -8  -5    2.89    0.21
   3  -8  -5   11.49    0.51
   3  -8  -5   10.86    0.50
   3  -8  -5   10.86    0.51
   2  -8  -5   59.68    2.56
   2  -8  -5   60.12    2.55
   2  -8  -5   61.61    2.55
   1  -8  -5    6.68    0.32
   1  -8  -5    6.56    0.31
   1  -8  -5    6.70    0.32
   0  -8  -5   40.35    1.72
   0  -8  -5   40.90    1.72
   0   8  -5   40.57    1.73
  -1  -8  -5   36.82    1.52
  -1   8  -5   35.18    1.53
  -1   8  -5   36.00    1.54
  -2  -8  -5   50.53    2.11
  -2  -8  -5   51.77    2.12
  -2   8  -5   48.11    2.12
  -2   8  -5   50.61    2.13
  -3  -8  -5   16.00    0.65
  -3   8  -5   14.57    0.65
  -3   8  -5   14.61    0.65
   7  -9  -5    0.07    0.02
   6  -9  -5   23.94    1.02
   5  -9  -5    4.91    0.27
   5  -9  -5    5.22    0.25
   4  -9  -5   15.48    0.65
   4  -9  -5   13.11    0.61
   4  -9  -5   12.87    0.62
   3  -9  -5    0.05    0.05
   3  -9  -5    0.12    0.10
   3  -9  -5    0.11    0.05
   2  -9  -5    8.10    0.38
   2  -9  -5    8.18    0.37
   1  -9  -5    2.45    0.15
   1  -9  -5    2.31    0.14
   0  -9  -5    0.21    0.05
   0  -9  -5    0.27    0.05
   0   9  -5    0.36    0.08
  -1  -9  -5    2.59    0.15
  -1  -9  -5    2.64    0.14
  -1   9  -5    2.55    0.16
  -2  -9  -5    4.01    0.19
  -2   9  -5    3.89    0.20
  -2   9  -5    3.96    0.20
  -3  -9  -5    0.03    0.02
  -3   9  -5    0.06    0.03
  -3   9  -5    0.02    0.05
   6 -10  -5    3.36    0.21
   6 -10  -5    3.96    0.17
   5 -10  -5   49.91    2.13
   5 -10  -5   51.09    2.14
   4 -10  -5    1.68    0.14
   3 -10  -5   12.29    0.55
   3 -10  -5   12.61    0.56
   2 -10  -5   68.50    2.84
   2 -10  -5   66.77    2.85
   1 -10  -5    4.37    0.21
   1 -10  -5    4.50    0.23
   0 -10  -5   67.89    3.10
   0  10  -5   80.10    3.12
  -1 -10  -5   14.00    0.59
  -1 -10  -5   13.32    0.59
  -1  10  -5   13.61    0.60
  -2 -10  -5    9.80    0.43
  -2  10  -5    9.96    0.44
  -2  10  -5   10.00    0.44
   6 -11  -5    0.76    0.09
   6 -11  -5    0.98    0.07
   5 -11  -5    9.58    0.41
   5 -11  -5    9.18    0.42
   4 -11  -5    0.27    0.05
   4 -11  -5    0.32    0.05
   3 -11  -5    6.42    0.31
   3 -11  -5    6.44    0.30
   1 -11  -5   10.37    0.46
   1 -11  -5   10.74    0.47
   0 -11  -5  104.86    4.43
   0 -11  -5  106.17    4.44
   0  11  -5  106.78    4.45
  -1 -11  -5    0.12    0.03
  -2 -11  -5    2.39    0.11
  -2  11  -5    2.16    0.12
   5 -12  -5    0.30    0.06
   5 -12  -5    0.36    0.06
   4 -12  -5   23.04    0.99
   4 -12  -5   23.36    0.98
   3 -12  -5    1.97    0.11
   3 -12  -5    2.10    0.13
   2 -12  -5    5.84    0.28
   2 -12  -5    6.13    0.27
   1 -12  -5  139.66    5.60
   1 -12  -5  127.86    5.60
   0 -12  -5    5.79    0.26
   0  12  -5    5.59    0.28
  -1 -12  -5    2.40    0.12
  -1  12  -5    2.52    0.14
  -2 -12  -5   18.92    0.80
   5 -13  -5    0.96    0.08
   4 -13  -5    1.65    0.11
   3 -13  -5    5.13    0.24
   2 -13  -5   47.56    2.00
   1 -13  -5    2.80    0.14
   0 -13  -5   79.74    3.34
  -1 -13  -5    0.15    0.03
   4 -14  -5    9.62    0.42
   3 -14  -5    9.70    0.42
   2 -14  -5    3.45    0.16
   1 -14  -5   60.70    2.54
   2 -15  -5    0.61    0.05
   8   0  -6    5.64    0.27
   7   0  -6   65.18    2.80
   7   0  -6   67.68    2.79
   6   0  -6    0.35    0.07
   6   0  -6    0.22    0.06
   5   0  -6    0.17    0.07
   5   0  -6    0.24    0.07
   4   0  -6  224.72    9.23
   4   0  -6  216.72    9.23
   3   0  -6    0.97    0.13
   3   0  -6    1.10    0.12
   2   0  -6   37.44    1.61
   2   0  -6   38.16    1.62
   0   0  -6   20.94    0.90
  -1   0  -6    7.67    0.35
  -2   0  -6   77.52    3.25
  -2   0  -6   77.11    3.24
   8  -1  -6    9.06    0.40
   8  -1  -6    9.15    0.41
   8   1  -6    9.48    0.42
   7  -1  -6    6.13    0.28
   7  -1  -6    6.04    0.29
   7   1  -6    5.84    0.29
   7   1  -6    5.95    0.29
   6  -1  -6   18.93    0.84
   6  -1  -6   19.29    0.84
   6   1  -6   19.48    0.84
   5  -1  -6   19.00    0.82
   5  -1  -6   17.56    0.81
   5   1  -6   18.94    0.82
   4  -1  -6    0.37    0.07
   4  -1  -6    0.41    0.07
   4   1  -6    0.36    0.07
   3  -1  -6    0.81    0.10
   3  -1  -6    0.74    0.10
   3   1  -6    0.71    0.12
   2  -1  -6   84.75    3.53
   2  -1  -6   84.18    3.52
   2   1  -6   83.33    3.52
   2   1  -6   82.50    3.51
   1  -1  -6    1.67    0.15
   1  -1  -6    1.68    0.12
   1   1  -6    1.41    0.12
   1   1  -6    1.52    0.13
   0  -1  -6   81.72    3.49
   0   1  -6   84.35    3.49
  -1   1  -6    0.28    0.05
  -2  -1  -6    0.44    0.06
  -2  -1  -6    0.50    0.08
  -2   1  -6    0.45    0.09
  -3  -1  -6    5.93    0.25
  -3   1  -6    5.18    0.25
   8  -2  -6    1.94    0.10
   7  -2  -6    0.94    0.09
   7  -2  -6    0.80    0.09
   7   2  -6    0.86    0.10
   6  -2  -6    1.13    0.11
   6  -2  -6    1.17    0.11
   6   2  -6    1.17    0.12
   5  -2  -6   11.92    0.57
   5  -2  -6   13.63    0.58
   5   2  -6   12.59    0.58
   4  -2  -6    5.52    0.28
   4  -2  -6    5.59    0.28
   4   2  -6    5.55    0.29
   3  -2  -6   12.14    0.54
   3  -2  -6   12.01    0.55
   3   2  -6   11.75    0.54
   2  -2  -6  100.54    4.32
   2  -2  -6  104.02    4.31
   2   2  -6  103.46    4.31
   1  -2  -6   21.67    0.95
   1  -2  -6   21.69    0.94
   1   2  -6   22.25    0.94
   1   2  -6   22.10    0.95
   0  -2  -6   29.61    1.25
   0   2  -6   29.13    1.28
   0   2  -6   29.44    1.25
  -1  -2  -6    7.94    0.37
  -1   2  -6    8.05    0.38
  -1   2  -6    8.48    0.38
  -2  -2  -6   20.19    0.83
  -2   2  -6   18.81    0.84
  -2   2  -6   19.31    0.83
   8  -3  -6   23.40    0.99
   7  -3  -6   51.89    2.19
   7  -3  -6   51.93    2.19
   6  -3  -6   38.15    1.61
   6  -3  -6   37.46    1.62
   6   3  -6   37.72    1.61
   5  -3  -6    3.11    0.19
   5  -3  -6    3.14    0.18
   5   3  -6    3.18    0.21
   4  -3  -6    1.08    0.11
   4  -3  -6    1.29    0.12
   4   3  -6    0.96    0.16
   3  -3  -6   59.03    2.45
   3  -3  -6   58.33    2.46
   3   3  -6   56.45    2.45
   2  -3  -6   16.33    0.70
   2  -3  -6   16.63    0.72
   2   3  -6   15.24    0.71
   1  -3  -6    6.53    0.33
   1  -3  -6    7.36    0.32
   1   3  -6    6.61    0.33
   0  -3  -6   22.91    1.01
   0  -3  -6   23.66    1.00
   0   3  -6   23.94    1.01
   0   3  -6   22.53    1.00
  -1  -3  -6   15.95    0.69
  -1  -3  -6   14.30    0.69
  -1   3  -6   16.66    0.69
  -2  -3  -6    5.03    0.23
  -2   3  -6    4.60    0.24
  -2   3  -6    4.82    0.23
  -3   3  -6    2.29    0.11
   7  -4  -6   15.67    0.68
   7  -4  -6   16.36    0.72
   7   4  -6   15.42    0.69
   6  -4  -6   18.79    0.84
   6  -4  -6   19.52    0.83
   6   4  -6   19.27    0.84
   5  -4  -6    5.33    0.25
   5  -4  -6    4.61    0.26
   5   4  -6    4.61    0.27
   4  -4  -6   21.55    0.94
   3  -4  -6    0.13    0.06
   3  -4  -6    0.21    0.05
   2  -4  -6   10.50    0.48
   2  -4  -6   10.63    0.47
   2   4  -6    9.92    0.48
   1  -4  -6    1.00    0.09
   0  -4  -6    3.26    0.19
   0  -4  -6    3.47    0.18
   0   4  -6    3.50    0.19
   0   4  -6    3.13    0.18
  -2  -4  -6    3.39    0.17
  -2   4  -6    3.39    0.18
  -2   4  -6    3.40    0.17
  -3  -4  -6    0.86    0.05
   7  -5  -6    7.58    0.34
   7  -5  -6    6.71    0.32
   7   5  -6    7.60    0.35
   6  -5  -6   15.42    0.66
   6  -5  -6   14.69    0.66
   6   5  -6   14.68    0.67
   5  -5  -6  101.40    4.27
   5  -5  -6  101.43    4.26
   4  -5  -6   22.20    0.96
   4  -5  -6   21.94    0.97
   3  -5  -6    6.69    0.32
   2  -5  -6   58.04    2.45
   1  -5  -6    4.17    0.23
   1  -5  -6    3.47    0.19
   1   5  -6    3.75    0.22
   0  -5  -6   42.61    1.79
   0  -5  -6   41.84    1.79
  -1  -5  -6   34.35    1.61
  -1  -5  -6   38.92    1.60
  -1   5  -6   39.33    1.61
  -1   5  -6   38.65    1.60
  -2  -5  -6   13.57    0.58
  -2   5  -6   13.34    0.59
  -2   5  -6   13.71    0.59
  -3   5  -6   15.65    0.66
   7  -6  -6    1.76    0.10
   6  -6  -6   99.28    4.08
   6  -6  -6   94.89    4.07
   5  -6  -6   84.03    3.54
   4  -6  -6    8.12    0.38
   4  -6  -6    8.20    0.39
   3  -6  -6   79.40    3.42
   3  -6  -6   83.15    3.43
   2  -6  -6   39.39    1.66
   2  -6  -6   38.17    1.65
   1  -6  -6    4.18    0.21
   1  -6  -6    4.15    0.22
   1   6  -6    4.09    0.23
   0  -6  -6   74.02    3.17
   0   6  -6   77.17    3.19
  -1  -6  -6   39.82    1.67
  -1   6  -6   39.84    1.68
  -1   6  -6   39.14    1.68
  -2  -6  -6    6.91    0.31
  -2  -6  -6    6.24    0.29
  -2   6  -6    6.37    0.30
  -2   6  -6    6.76    0.29
   7  -7  -6    0.15    0.03
   6  -7  -6   18.44    0.84
   6  -7  -6   19.55    0.82
   5  -7  -6    0.13    0.06
   5  -7  -6    0.07    0.06
   4  -7  -6    5.48    0.28
   4  -7  -6    5.78    0.28
   3  -7  -6    9.64    0.44
   3  -7  -6    9.08    0.43
   2  -7  -6    1.89    0.15
   2  -7  -6    1.78    0.11
   1  -7  -6    3.24    0.17
   1  -7  -6    3.41    0.20
   0  -7  -6    0.17    0.07
  -1  -7  -6    0.16    0.04
  -1  -7  -6    0.13    0.05
  -1   7  -6    0.06    0.05
  -1   7  -6    0.18    0.06
  -2  -7  -6    3.68    0.16
  -2  -7  -6    3.67    0.17
  -2   7  -6    3.24    0.17
  -2   7  -6    3.71    0.18
   7  -8  -6    4.87    0.22
   6  -8  -6   11.34    0.50
   5  -8  -6   56.76    2.42
   5  -8  -6   58.07    2.42
   4  -8  -6    4.44    0.24
   3  -8  -6    1.78    0.11
   3  -8  -6    1.79    0.15
   2  -8  -6    3.83    0.21
   2  -8  -6    3.87    0.20
   2  -8  -6    4.19    0.23
   1  -8  -6    1.98    0.15
   1   8  -6    1.92    0.16
   0  -8  -6    0.03    0.03
   0  -8  -6    0.00    0.06
   0   8  -6    0.04    0.05
  -1  -8  -6    5.75    0.25
  -1  -8  -6    5.48    0.26
  -1   8  -6    5.68    0.27
  -2  -8  -6    1.33    0.08
  -2   8  -6    1.57    0.10
   6  -9  -6   37.62    1.58
   5  -9  -6    5.96    0.28
   4  -9  -6   34.19    1.45
   3  -9  -6    2.25    0.13
   3  -9  -6    2.03    0.16
   2  -9  -6    1.15    0.10
   2  -9  -6    1.18    0.09
   1  -9  -6    6.01    0.29
   1  -9  -6    6.23    0.28
   0  -9  -6    0.43    0.05
   0   9  -6    0.42    0.09
  -1  -9  -6    4.78    0.21
  -1  -9  -6    3.72    0.19
  -1   9  -6    4.13    0.21
   6 -10  -6   26.63    1.12
   5 -10  -6    9.93    0.43
   4 -10  -6    3.03    0.17
   4 -10  -6    2.91    0.15
   3 -10  -6    7.87    0.37
   3 -10  -6    8.21    0.36
   2 -10  -6    7.19    0.32
   2 -10  -6    6.83    0.33
   1 -10  -6    1.86    0.11
   1 -10  -6    1.99    0.11
   0 -10  -6    8.62    0.37
   0 -10  -6    8.19    0.36
   0  10  -6    7.85    0.38
  -1 -10  -6   10.81    0.45
  -1  10  -6   10.03    0.46
   5 -11  -6    2.63    0.14
   4 -11  -6    2.96    0.17
   4 -11  -6    2.38    0.13
   3 -11  -6  102.52    4.29
   2 -11  -6   54.55    2.37
   2 -11  -6   58.41    2.37
   1 -11  -6    9.28    0.40
  -1 -11  -6   16.16    0.68
   3 -12  -6   14.28    0.58
   3 -12  -6   12.08    0.56
   2 -12  -6   86.23    3.62
   1 -12  -6    5.27    0.25
   0 -12  -6   64.52    2.70
   3 -13  -6    5.22    0.24
   2 -13  -6   12.21    0.52
   1 -13  -6    3.66    0.17
   7   0  -7    0.10    0.05
   6   0  -7   -0.07    0.05
   6   0  -7    0.05    0.05
   5   0  -7    0.06    0.06
   5   0  -7    0.02    0.05
   4   0  -7    0.22    0.06
   4   0  -7    0.05    0.06
   3   0  -7    0.09    0.07
   3   0  -7    0.09    0.06
   2   0  -7    0.09    0.07
   2   0  -7   -0.01    0.06
   1   0  -7    0.02    0.04
   1   0  -7    0.02    0.05
   0   0  -7    0.04    0.04
  -1   0  -7    0.01    0.03
  -2   0  -7    0.01    0.02
   7  -1  -7    9.57    0.42
   7  -1  -7    9.36    0.42
   7   1  -7    9.50    0.43
   6  -1  -7    8.94    0.40
   6  -1  -7    8.65    0.40
   6   1  -7    8.73    0.40
   5  -1  -7    3.19    0.17
   5  -1  -7    2.42    0.16
   5   1  -7    2.61    0.17
   4  -1  -7   20.89    0.91
   4   1  -7   20.86    0.91
   3  -1  -7    0.78    0.09
   3  -1  -7    0.67    0.10
   3   1  -7    0.85    0.12
   2  -1  -7    1.99    0.14
   2  -1  -7    1.85    0.12
   2   1  -7    1.83    0.13
   1  -1  -7    0.61    0.09
   1   1  -7    0.54    0.08
   1   1  -7    0.70    0.10
   0  -1  -7    4.90    0.24
   0   1  -7    5.54    0.25
  -1  -1  -7   11.51    0.55
  -1  -1  -7   12.81    0.54
  -1   1  -7   13.26    0.54
  -2  -1  -7    1.26    0.07
  -2   1  -7    1.23    0.07
   7  -2  -7    1.96    0.11
   7   2  -7    2.16    0.14
   6  -2  -7    0.19    0.06
   6  -2  -7    0.09    0.05
   6   2  -7    0.13    0.06
   5  -2  -7   26.00    1.10
   5  -2  -7   26.00    1.11
   5   2  -7   25.06    1.11
   4  -2  -7    2.58    0.16
   4   2  -7    2.60    0.16
   3  -2  -7   11.91    0.54
   3  -2  -7   12.29    0.55
   3   2  -7   12.00    0.55
   2  -2  -7   17.37    0.78
   2  -2  -7   18.69    0.80
   2   2  -7   18.22    0.79
   1  -2  -7   68.47    3.05
   1   2  -7   72.54    3.05
   1   2  -7   75.86    3.04
   0  -2  -7    0.80    0.06
   0   2  -7    0.79    0.08
  -1  -2  -7    0.51    0.09
  -1  -2  -7    0.56    0.05
  -1   2  -7    0.68    0.07
  -2  -2  -7    4.90    0.24
  -2   2  -7    6.01    0.24
   7  -3  -7   46.12    2.13
   7  -3  -7   55.33    2.14
   6  -3  -7    3.91    0.20
   6  -3  -7    3.81    0.19
   6   3  -7    3.69    0.21
   5  -3  -7    6.15    0.28
   5  -3  -7    5.72    0.29
   5   3  -7    5.94    0.30
   4  -3  -7    3.25    0.19
   4  -3  -7    3.54    0.20
   4   3  -7    3.41    0.21
   3  -3  -7    0.44    0.07
   3  -3  -7    0.53    0.09
   3   3  -7    0.60    0.12
   2  -3  -7    0.45    0.09
   2   3  -7    0.53    0.09
   1  -3  -7    2.06    0.12
   1  -3  -7    1.93    0.13
   1   3  -7    1.91    0.13
   1   3  -7    2.18    0.15
   0  -3  -7    2.50    0.13
   0   3  -7    2.57    0.15
   0   3  -7    2.52    0.14
  -1  -3  -7    7.33    0.31
  -1   3  -7    7.12    0.31
  -1   3  -7    6.61    0.32
   7  -4  -7   70.12    2.99
   7  -4  -7   72.04    2.98
   6  -4  -7    0.62    0.09
   6  -4  -7    0.69    0.07
   6   4  -7    0.76    0.15
   5  -4  -7    1.05    0.10
   5  -4  -7    1.18    0.10
   5   4  -7    1.30    0.18
   4  -4  -7    4.63    0.22
   4  -4  -7    4.45    0.24
   4   4  -7    4.48    0.25
   3  -4  -7    0.48    0.10
   3   4  -7    0.66    0.13
   2  -4  -7   33.44    1.45
   2   4  -7   34.36    1.45
   1  -4  -7   15.88    0.71
   1  -4  -7   15.93    0.70
   1   4  -7   16.71    0.71
   0  -4  -7    0.45    0.08
   0  -4  -7    0.54    0.05
   0   4  -7    0.52    0.08
  -1  -4  -7    3.06    0.14
  -1   4  -7    3.03    0.16
  -1   4  -7    3.01    0.15
   7  -5  -7   14.57    0.62
   6  -5  -7  115.22    4.69
   6  -5  -7  108.84    4.69
   5  -5  -7   17.30    0.75
   5  -5  -7   17.57    0.76
   4  -5  -7    4.56    0.23
   4  -5  -7    4.49    0.23
   3  -5  -7   24.71    1.08
   3  -5  -7   25.33    1.07
   3   5  -7   24.99    1.08
   2  -5  -7   10.38    0.45
   2  -5  -7    9.69    0.46
   2   5  -7   10.37    0.46
   1  -5  -7    3.26    0.18
   1  -5  -7    3.34    0.17
   0  -5  -7    0.29    0.04
   0   5  -7    0.23    0.05
  -1  -5  -7   41.42    1.77
  -1   5  -7   45.03    1.78
  -1   5  -7   40.37    1.77
   6  -6  -7   30.17    1.34
   6  -6  -7   33.08    1.34
   5  -6  -7   33.45    1.42
   5  -6  -7   33.74    1.43
   4  -6  -7    0.84    0.07
   4  -6  -7    0.85    0.10
   3  -6  -7   14.53    0.63
   3  -6  -7   14.45    0.64
   2  -6  -7    0.03    0.05
   2  -6  -7    0.04    0.04
   2   6  -7    0.28    0.09
   1  -6  -7   29.35    1.18
   1  -6  -7   24.45    1.20
   1   6  -7   29.66    1.19
   0  -6  -7    6.19    0.29
   0   6  -7    6.70    0.30
  -1  -6  -7    2.08    0.10
  -1   6  -7    1.91    0.11
   6  -7  -7    2.03    0.11
   5  -7  -7   72.85    3.10
   5  -7  -7   74.79    3.10
   4  -7  -7    8.21    0.38
   4  -7  -7    8.08    0.36
   3  -7  -7    7.41    0.34
   3  -7  -7    7.39    0.33
   2  -7  -7   36.53    1.42
   2  -7  -7   30.25    1.43
   1  -7  -7    2.10    0.11
   1   7  -7    1.96    0.15
   0  -7  -7   20.93    0.86
   0   7  -7   19.54    0.87
   4  -8  -7    2.48    0.13
   3  -8  -7   40.04    1.69
   2  -8  -7    8.93    0.39
   1  -8  -7    8.37    0.36
   1   8  -7    8.34    0.38
   0  -8  -7   25.66    1.09
   5  -9  -7    1.19    0.07
   4  -9  -7    5.51    0.25
   3  -9  -7    1.94    0.10
   2  -9  -7    0.34    0.05
   1  -9  -7    0.05    0.02
   5 -10  -7   25.01    1.05
   3 -10  -7    8.28    0.36
   2 -10  -7   16.01    0.69
   6   0  -8    1.89    0.12
   5   0  -8   34.59    1.47
   4   0  -8   57.83    2.44
   3   0  -8    6.09    0.30
   3   0  -8    6.61    0.29
   2   0  -8  164.40    6.81
   2   0  -8  161.12    6.80
   1   0  -8  236.98    9.89
   6  -1  -8    4.47    0.22
   6   1  -8    4.55    0.23
   5  -1  -8   21.48    0.93
   5  -1  -8   21.86    0.92
   5   1  -8   21.83    0.93
   4  -1  -8   13.04    0.60
   4  -1  -8   14.35    0.59
   3  -1  -8    1.02    0.08
   3  -1  -8    1.00    0.10
   3   1  -8    1.05    0.10
   2  -1  -8   87.06    3.48
   2  -1  -8   85.71    3.49
   2   1  -8   85.14    3.49
   2   1  -8   74.57    3.50
   1   1  -8   48.37    2.04
   0  -1  -8    1.00    0.06
   0   1  -8    1.11    0.07
   6  -2  -8    0.13    0.05
   5  -2  -8    3.77    0.18
   5   2  -8    3.47    0.19
   4  -2  -8    0.48    0.08
   4  -2  -8    0.59    0.07
   4   2  -8    0.41    0.07
   3  -2  -8    2.10    0.13
   3  -2  -8    2.14    0.11
   3   2  -8    2.42    0.19
   2  -2  -8   18.48    0.82
   2  -2  -8   19.31    0.81
   1  -2  -8    3.54    0.16
   1   2  -8    3.34    0.17
   1   2  -8    3.20    0.17
   0  -2  -8    5.94    0.26
   6  -3  -8    4.12    0.19
   6  -3  -8    4.13    0.21
   5  -3  -8    7.43    0.30
   5  -3  -8    6.02    0.31
   5   3  -8    6.74    0.32
   4  -3  -8   10.14    0.55
   4  -3  -8   12.67    0.50
   4   3  -8   11.89    0.51
   3  -3  -8   11.99    0.52
   3  -3  -8   11.91    0.53
   3   3  -8   11.99    0.53
   2  -3  -8    6.63    0.30
   2  -3  -8    7.70    0.36
   2   3  -8    6.12    0.31
   1  -3  -8   19.44    0.82
   1  -3  -8   19.01    0.83
   1   3  -8   19.67    0.83
   6  -4  -8   11.90    0.51
   5  -4  -8    1.42    0.10
   5  -4  -8    1.63    0.11
   4  -4  -8   18.99    0.78
   4  -4  -8   18.60    0.79
   4   4  -8   17.41    0.79
   3  -4  -8    8.12    0.35
   3  -4  -8    8.13    0.36
   3   4  -8    7.74    0.37
   2  -4  -8    1.40    0.10
   2  -4  -8    1.22    0.07
   1  -4  -8    2.06    0.11
   1   4  -8    2.19    0.13
   5  -5  -8   48.31    1.96
   5  -5  -8   44.72    1.96
   4  -5  -8    6.52    0.30
   4  -5  -8    6.31    0.28
   3  -5  -8    1.76    0.10
   3  -5  -8    1.90    0.12
   2  -5  -8   18.28    0.73
   2   5  -8   16.02    0.74
   1  -5  -8   10.92    0.48
   5  -6  -8    5.24    0.23
   4  -6  -8   15.50    0.66
   3  -6  -8   43.31    1.82
   2  -6  -8    1.99    0.10
   1  -6  -8    0.68    0.05
   4  -7  -8    4.25    0.19
   3  -7  -8    4.58    0.21
   2  -7  -8    7.67    0.33
   3  -8  -8    0.12    0.03
   0   0   0    0.00    0.00
;
_shelx_hkl_checksum              81461
_shelx_res_file
;
    H253.res created by SHELXL-2014/7
TITL H253.res in P2(1)/c
CELL  1.54178   6.9312  14.6542   7.1239   90.000  114.011   90.000
ZERR    4.000   0.0002   0.0005   0.0003    0.000    0.001    0.000
LATT  1
SYMM -X, 1/2+Y, 1/2-Z
SFAC C H N
UNIT 24 32 16
TEMP -173.150
L.S. 10
BOND $H
ACTA
LIST 4
HTAB
shel 9999 0.82
EQIV $1 x+1, y, z
EQIV $2 -x+1, y+1/2, -z+3/2
HTAB N1 N3_$1
HTAB N1 N4_$2
CONF
FMAP 2
PLAN 20
SIZE 0.260 0.412 0.420
WGHT    0.053300    0.265000
EXTI    0.053613
FVAR       0.59762
N1    3    0.764553    0.476518    0.816441    11.00000    0.01536    0.01227 =
         0.02941   -0.00103    0.00874   -0.00138
H1X   2    0.886139    0.458306    0.807707    11.00000    0.03557
H1Y   2    0.721101    0.535735    0.790558    11.00000    0.02999
N2    3    0.623168    0.407540    0.774713    11.00000    0.01591    0.01221 =
         0.01765   -0.00103    0.00646   -0.00153
N3    3    0.088915    0.361949    0.682716    11.00000    0.01563    0.01531 =
         0.01722   -0.00169    0.00649    0.00045
N4    3    0.245926    0.184099    0.703038    11.00000    0.01941    0.01415 =
         0.01910   -0.00045    0.00769   -0.00038
C1    1    0.341680    0.521870    0.717059    11.00000    0.01826    0.01217 =
         0.02048   -0.00009    0.00660    0.00114
AFIX 137
H1A   2    0.385907    0.557718    0.625293    11.00000   -1.50000
H1B   2    0.395482    0.550536    0.853079    11.00000   -1.50000
H1C   2    0.187099    0.519404    0.660744    11.00000   -1.50000
AFIX   0
C2    1    0.428231    0.426905    0.735519    11.00000    0.01563    0.01329 =
         0.01157   -0.00002    0.00525    0.00144
C3    1    0.290238    0.347082    0.711749    11.00000    0.01484    0.01451 =
         0.00979   -0.00084    0.00466    0.00097
C4    1    0.365860    0.256977    0.722169    11.00000    0.01538    0.01452 =
         0.01765    0.00006    0.00655    0.00069
AFIX  43
H4    2    0.509183    0.248146    0.743872    11.00000   -1.20000
AFIX   0
C5    1    0.044028    0.200209    0.671680    11.00000    0.01927    0.01612 =
         0.01960   -0.00263    0.00857   -0.00396
AFIX  43
H5    2   -0.048330    0.150110    0.655721    11.00000   -1.20000
AFIX   0
C6    1   -0.031814    0.287852    0.662193    11.00000    0.01500    0.01978 =
         0.01994   -0.00300    0.00744   -0.00159
AFIX  43
H6    2   -0.175368    0.296117    0.640236    11.00000   -1.20000
AFIX   0
HKLF 4
REM  H253.res in P2(1)/c
REM R1 =  0.0380 for    1214 Fo > 4sig(Fo)  and  0.0383 for all    1229 data
REM    101 parameters refined using      0 restraints
END
WGHT      0.0533      0.2650
REM Instructions for potential hydrogen bonds
HTAB N1 N3_$1
HTAB N1 N4_$2
EQIV $3 x-1, y, z
HTAB C6 N2_$3
REM Highest difference peak  0.276,  deepest hole -0.200,  1-sigma level  0.054
Q1    1   0.3544  0.3886  0.7029  11.00000  0.05    0.28
Q2    1   0.3200  0.3007  0.6718  11.00000  0.05    0.27
Q3    1   0.3788  0.4709  0.7330  11.00000  0.05    0.27
Q4    1   0.0043  0.2457  0.6168  11.00000  0.05    0.25
Q5    1   0.2877  0.1227  0.6778  11.00000  0.05    0.22
Q6    1   0.3350  0.3016  0.7602  11.00000  0.05    0.21
Q7    1   0.0357  0.3232  0.7132  11.00000  0.05    0.20
Q8    1   0.0224  0.2452  0.7108  11.00000  0.05    0.19
Q9    1   0.4185  0.5697  0.7534  11.00000  0.05    0.19
Q10   1  -0.0300  0.1469  0.5879  11.00000  0.05    0.17
Q11   1   0.2881  0.2243  0.6457  11.00000  0.05    0.16
Q12   1   0.0584  0.1791  0.4848  11.00000  0.05    0.16
Q13   1   0.6603  0.3509  0.7686  11.00000  0.05    0.15
Q14   1   0.3120  0.5824  0.9259  11.00000  0.05    0.15
Q15   1   0.0172  0.4199  0.6815  11.00000  0.05    0.14
Q16   1   0.6767  0.4611  0.6369  11.00000  0.05    0.14
Q17   1   0.0058  0.3382  0.4721  11.00000  0.05    0.14
Q18   1   0.6725  0.3740  0.6802  11.00000  0.05    0.14
Q19   1   0.0335  0.3312  0.8369  11.00000  0.05    0.13
Q20   1   0.2966  0.5407  0.8128  11.00000  0.05    0.13
;
_shelx_res_checksum              42230
loop_
_space_group_symop_operation_xyz
'x, y, z'
'-x, y+1/2, -z+1/2'
'-x, -y, -z'
'x, -y-1/2, z-1/2'
loop_
_atom_site_type_symbol
_atom_site_label
_atom_site_fract_x
_atom_site_fract_y
_atom_site_fract_z
_atom_site_U_iso_or_equiv
_atom_site_adp_type
_atom_site_calc_flag
_atom_site_occupancy
N N1 0.76455(16) 0.47652(7) 0.81644(16) 0.0191(3) Uani d 1
H H1X 0.886(3) 0.4583(12) 0.808(3) 0.036(4) Uiso d 1
H H1Y 0.721(3) 0.5357(13) 0.791(3) 0.030(4) Uiso d 1
N N2 0.62317(15) 0.40754(6) 0.77471(15) 0.0154(3) Uani d 1
N N3 0.08891(15) 0.36195(7) 0.68272(15) 0.0161(3) Uani d 1
N N4 0.24593(15) 0.18410(7) 0.70304(15) 0.0176(3) Uani d 1
C C1 0.34168(19) 0.52187(8) 0.71706(18) 0.0174(3) Uani d 1
H H1A 0.3859 0.5577 0.6253 0.026 Uiso calc 1
H H1B 0.3955 0.5505 0.8531 0.026 Uiso calc 1
H H1C 0.1871 0.5194 0.6607 0.026 Uiso calc 1
C C2 0.42823(18) 0.42691(7) 0.73552(17) 0.0136(3) Uani d 1
C C3 0.29024(17) 0.34708(7) 0.71175(16) 0.0132(3) Uani d 1
C C4 0.36586(18) 0.25698(8) 0.72217(18) 0.0159(3) Uani d 1
H H4 0.5092 0.2481 0.7439 0.019 Uiso calc 1
C C5 0.04403(19) 0.20021(8) 0.67168(18) 0.0181(3) Uani d 1
H H5 -0.0483 0.1501 0.6557 0.022 Uiso calc 1
C C6 -0.03181(19) 0.28785(8) 0.66219(19) 0.0181(3) Uani d 1
H H6 -0.1754 0.2961 0.6402 0.022 Uiso calc 1
loop_
_atom_site_aniso_label
_atom_site_aniso_U_11
_atom_site_aniso_U_22
_atom_site_aniso_U_33
_atom_site_aniso_U_12
_atom_site_aniso_U_13
_atom_site_aniso_U_23
N1 0.0154(5) 0.0123(6) 0.0294(6) -0.0014(4) 0.0087(4) -0.0010(4)
N2 0.0159(5) 0.0122(5) 0.0177(5) -0.0015(4) 0.0065(4) -0.0010(4)
N3 0.0156(5) 0.0153(5) 0.0172(5) 0.0005(4) 0.0065(4) -0.0017(4)
N4 0.0194(5) 0.0142(5) 0.0191(5) -0.0004(4) 0.0077(4) -0.0005(4)
C1 0.0183(6) 0.0122(6) 0.0205(6) 0.0011(4) 0.0066(5) -0.0001(4)
C2 0.0156(6) 0.0133(6) 0.0116(5) 0.0014(4) 0.0052(4) 0.0000(4)
C3 0.0148(6) 0.0145(6) 0.0098(5) 0.0010(4) 0.0047(4) -0.0008(4)
C4 0.0154(6) 0.0145(6) 0.0177(6) 0.0007(4) 0.0066(5) 0.0001(4)
C5 0.0193(6) 0.0161(6) 0.0196(6) -0.0040(5) 0.0086(5) -0.0026(5)
C6 0.0150(6) 0.0198(7) 0.0199(6) -0.0016(4) 0.0074(5) -0.0030(5)
loop_
_atom_type_symbol
_atom_type_description
_atom_type_scat_dispersion_real
_atom_type_scat_dispersion_imag
_atom_type_scat_source
C C 0.0181 0.0091 'International Tables Vol C Tables 4.2.6.8 and 6.1.1.4'
H H 0.0000 0.0000 'International Tables Vol C Tables 4.2.6.8 and 6.1.1.4'
N N 0.0311 0.0180 'International Tables Vol C Tables 4.2.6.8 and 6.1.1.4'
loop_
_geom_angle_atom_site_label_1
_geom_angle_atom_site_label_2
_geom_angle_atom_site_label_3
_geom_angle
_geom_angle_publ_flag
N2 N1 H1X 111.9(12) ?
N2 N1 H1Y 121.0(11) ?
H1X N1 H1Y 120.3(16) ?
C2 N2 N1 118.83(10) y
C6 N3 C3 116.64(10) y
C4 N4 C5 116.24(10) y
C2 C1 H1A 109.5 ?
C2 C1 H1B 109.5 ?
H1A C1 H1B 109.5 ?
C2 C1 H1C 109.5 ?
H1A C1 H1C 109.5 ?
H1B C1 H1C 109.5 ?
N2 C2 C3 114.93(10) y
N2 C2 C1 124.56(10) y
C3 C2 C1 120.51(10) y
N3 C3 C4 120.02(10) y
N3 C3 C2 118.25(10) y
C4 C3 C2 121.72(10) y
N4 C4 C3 122.97(10) y
N4 C4 H4 118.5 ?
C3 C4 H4 118.5 ?
N4 C5 C6 121.44(11) y
N4 C5 H5 119.3 ?
C6 C5 H5 119.3 ?
N3 C6 C5 122.68(11) y
N3 C6 H6 118.7 ?
C5 C6 H6 118.7 ?
loop_
_geom_bond_atom_site_label_1
_geom_bond_atom_site_label_2
_geom_bond_distance
_geom_bond_publ_flag
N1 N2 1.3540(14) y
N1 H1X 0.910(19) ?
N1 H1Y 0.912(19) ?
N2 C2 1.2950(15) y
N3 C6 1.3420(15) y
N3 C3 1.3426(15) y
N4 C4 1.3259(16) y
N4 C5 1.3452(15) y
C1 C2 1.4999(15) y
C1 H1A 0.9800 ?
C1 H1B 0.9800 ?
C1 H1C 0.9800 ?
C2 C3 1.4765(15) y
C3 C4 1.4114(16) y
C4 H4 0.9500 ?
C5 C6 1.3790(17) y
C5 H5 0.9500 ?
C6 H6 0.9500 ?
loop_
_geom_hbond_atom_site_label_D
_geom_hbond_atom_site_label_H
_geom_hbond_atom_site_label_A
_geom_hbond_site_symmetry_A
_geom_hbond_distance_DH
_geom_hbond_distance_HA
_geom_hbond_distance_DA
_geom_hbond_angle_DHA
N1 H1X N3 1_655 0.910(19) 2.404(19) 3.2440(14) 153.5(15)
N1 H1Y N4 2_656 0.912(19) 2.185(19) 3.0446(15) 156.8(15)
loop_
_geom_torsion_atom_site_label_1
_geom_torsion_atom_site_label_2
_geom_torsion_atom_site_label_3
_geom_torsion_atom_site_label_4
_geom_torsion
_geom_torsion_publ_flag
N1 N2 C2 C3 -174.34(9) y
N1 N2 C2 C1 4.82(17) y
C6 N3 C3 C4 -0.86(16) y
C6 N3 C3 C2 -179.85(9) y
N2 C2 C3 N3 176.22(9) y
C1 C2 C3 N3 -2.98(16) y
N2 C2 C3 C4 -2.75(16) y
C1 C2 C3 C4 178.05(10) y
C5 N4 C4 C3 0.27(17) y
N3 C3 C4 N4 0.48(18) y
C2 C3 C4 N4 179.43(10) y
C4 N4 C5 C6 -0.60(17) y
C3 N3 C6 C5 0.55(17) y
N4 C5 C6 N3 0.20(19) y

_cod_database_fobs_code 2021049
