#------------------------------------------------------------------------------
#$Date: 2019-12-26 21:46:41 +0200 (Thu, 26 Dec 2019) $
#$Revision: 246118 $
#$URL: file:///home/coder/svn-repositories/cod/cif/2/02/19/2021914.cif $
#------------------------------------------------------------------------------
#
# This file is available in the Crystallography Open Database (COD),
# http://www.crystallography.net/. The original data for this entry
# were provided by IUCr Journals, http://journals.iucr.org/.
#
# The file may be used within the scientific community so long as
# proper attribution is given to the journal article from which the
# data were obtained.
#
data_2021914
loop_
_publ_author_name
'Mishra, Risha'
'Pallepogu, Raghavaiah'
_publ_section_title
;
 Supramolecular heterosynthon assemblies of ortho-phenylenediamine with
 substituted aromatic carboxylic acids
;
_journal_coeditor_code           EB5067
_journal_issue                   1
_journal_name_full
'Acta Crystallographica Section B Structural Science, Crystal Engineering and Materials'
_journal_page_first              32
_journal_paper_doi               10.1107/S2052520617014299
_journal_volume                  74
_journal_year                    2018
_chemical_formula_moiety         'C6 H9 N2, C8 H5 O4'
_chemical_formula_sum            'C14 H14 N2 O4'
_chemical_formula_weight         274.27
_space_group_crystal_system      triclinic
_space_group_IT_number           2
_space_group_name_Hall           '-P 1'
_space_group_name_H-M_alt        'P -1'
_atom_sites_solution_hydrogens   mixed
_atom_sites_solution_primary     direct
_audit_creation_date             2017-04-20
_audit_creation_method
;
Olex2 1.2
(compiled 2017.03.28 svn.r3405 for OlexSys, GUI svn.r5335)
;
_cell_angle_alpha                93.491(9)
_cell_angle_beta                 97.769(10)
_cell_angle_gamma                90.280(10)
_cell_formula_units_Z            2
_cell_length_a                   4.101(2)
_cell_length_b                   11.892(7)
_cell_length_c                   13.092(8)
_cell_measurement_reflns_used    2931
_cell_measurement_temperature    298(2)
_cell_measurement_theta_max      27.28
_cell_measurement_theta_min      2.40
_cell_volume                     631.4(6)
_computing_cell_refinement       'Bruker SMART'
_computing_data_collection       'Bruker SMART'
_computing_data_reduction        'Bruker SAINT'
_computing_molecular_graphics    'Olex2 (Dolomanov et al., 2009)'
_computing_publication_material  'Olex2 (Dolomanov et al., 2009)'
_computing_structure_refinement  'ShelXL (Sheldrick, 2015)'
_computing_structure_solution    'ShelXS (Sheldrick, 2008)'
_diffrn_ambient_temperature      298.15
_diffrn_measured_fraction_theta_full 0.997
_diffrn_measured_fraction_theta_max 0.992
_diffrn_measurement_device_type  'CCD area detector'
_diffrn_measurement_method       'phi and omega scans'
_diffrn_radiation_type           MoK\a
_diffrn_radiation_wavelength     0.71073
_diffrn_reflns_av_R_equivalents  0.0222
_diffrn_reflns_av_unetI/netI     0.0216
_diffrn_reflns_Laue_measured_fraction_full 0.997
_diffrn_reflns_Laue_measured_fraction_max 0.992
_diffrn_reflns_limit_h_max       5
_diffrn_reflns_limit_h_min       -5
_diffrn_reflns_limit_k_max       14
_diffrn_reflns_limit_k_min       -14
_diffrn_reflns_limit_l_max       16
_diffrn_reflns_limit_l_min       -16
_diffrn_reflns_number            6461
_diffrn_reflns_point_group_measured_fraction_full 0.997
_diffrn_reflns_point_group_measured_fraction_max 0.992
_diffrn_reflns_theta_full        25.242
_diffrn_reflns_theta_max         25.998
_diffrn_reflns_theta_min         1.573
_exptl_absorpt_coefficient_mu    0.107
_exptl_absorpt_correction_T_max  0.965
_exptl_absorpt_correction_T_min  0.808
_exptl_absorpt_correction_type   multi-scan
_exptl_absorpt_process_details   sadabs
_exptl_crystal_colour            colorless
_exptl_crystal_density_diffrn    1.443
_exptl_crystal_description       plate
_exptl_crystal_F_000             288
_exptl_crystal_size_max          0.34
_exptl_crystal_size_mid          0.28
_exptl_crystal_size_min          0.22
_refine_diff_density_max         0.183
_refine_diff_density_min         -0.182
_refine_diff_density_rms         0.045
_refine_ls_extinction_method     none
_refine_ls_goodness_of_fit_ref   1.049
_refine_ls_hydrogen_treatment    mixed
_refine_ls_matrix_type           full
_refine_ls_number_parameters     205
_refine_ls_number_reflns         2454
_refine_ls_number_restraints     2
_refine_ls_restrained_S_all      1.051
_refine_ls_R_factor_all          0.0509
_refine_ls_R_factor_gt           0.0443
_refine_ls_shift/su_max          0.001
_refine_ls_shift/su_mean         0.000
_refine_ls_structure_factor_coef Fsqd
_refine_ls_weighting_details
;
 w=1/[\s^2^(Fo^2^)+(0.0614P)^2^+0.1570P]
 where P=(Fo^2^+2Fc^2^)/3
;
_refine_ls_weighting_scheme      calc
_refine_ls_wR_factor_gt          0.1155
_refine_ls_wR_factor_ref         0.1218
_reflns_Friedel_coverage         0.000
_reflns_number_gt                2083
_reflns_number_total             2454
_reflns_threshold_expression     'I > 2\s(I)'
_iucr_refine_instructions_details
;
TITL skd10 in P-1
CELL  0.71073   4.1011  11.8919  13.0922   93.491   97.769   90.280
ZERR     2.00   0.0024   0.0070   0.0077    0.009    0.010    0.010
LATT   1
SFAC  C    H    N    O
UNIT  28   28   4    8
MERG   2
OMIT    -1.00  52.00
FREE O2 H4
MORE -1
EQIV $1 -x+2, -y+1, -z+2
HTAB N1 O3_$1
HTAB N1 O4_$1
HTAB N1 O2
EQIV $2 x+1, y, z
HTAB N1 O1_$2
EQIV $3 -x+1, -y+1, -z+1
HTAB N2 O1_$3
HTAB O4 O2
DFIX     0.920   0.020 H4 O4
HTAB N1 O3_$1
HTAB N1 O4_$1
HTAB N1 O2
HTAB N1 O1_$2
HTAB N2 O1_$3
HTAB O4 O2
DFIX     0.920   0.020 N1 H1A
FMAP   2
PLAN   20
SIZE     0.220   0.280   0.340
ACTA
BOND
BOND   $H
CONF
L.S.   8
TEMP     0.00
WGHT    0.061400    0.157000
FVAR       1.04871
C1    1    0.767458    0.276217    0.674485    11.00000    0.04555    0.04088 =
         0.03539   -0.00241    0.00327    0.01046
C2    1    0.677362    0.307572    0.573792    11.00000    0.04651    0.04696 =
         0.03704   -0.00067    0.00326    0.01074
C3    1    0.473549    0.233092    0.506769    11.00000    0.05364    0.06454 =
         0.04260   -0.00858   -0.00345    0.00613
AFIX  43
H3    2    0.408871    0.251374    0.439016    11.00000   -1.20000
AFIX   0
C4    1    0.367359    0.133465    0.539297    11.00000    0.05564    0.06380 =
         0.07065   -0.01578    0.00331   -0.00367
AFIX  43
H4A   2    0.232213    0.085055    0.493361    11.00000   -1.20000
AFIX   0
C5    1    0.458524    0.104408    0.639044    11.00000    0.06578    0.04853 =
         0.07948    0.00106    0.01998   -0.00331
AFIX  43
H5    2    0.385007    0.036882    0.660733    11.00000   -1.20000
AFIX   0
C6    1    0.660889    0.176640    0.706936    11.00000    0.06245    0.04884 =
         0.04945    0.00708    0.01412    0.01221
AFIX  43
H6    2    0.724512    0.157621    0.774530    11.00000   -1.20000
AFIX   0
C7    1    0.365737    0.698807    0.819813    11.00000    0.04223    0.03995 =
         0.03345    0.00345    0.00369   -0.00225
C8    1    0.450862    0.752116    0.919337    11.00000    0.04359    0.03804 =
         0.03562    0.00331    0.00291    0.00043
C9    1    0.335378    0.860607    0.937831    11.00000    0.06073    0.04198 =
         0.04566   -0.00222    0.00170    0.00468
AFIX  43
H9    2    0.388934    0.896269    1.003215    11.00000   -1.20000
AFIX   0
C10   1    0.145448    0.916791    0.863086    11.00000    0.06381    0.04110 =
         0.06449    0.00516    0.00449    0.01166
AFIX  43
H10   2    0.076038    0.989643    0.877649    11.00000   -1.20000
AFIX   0
C11   1    0.059253    0.864577    0.766960    11.00000    0.05523    0.05625 =
         0.05290    0.01698   -0.00294    0.00879
AFIX  43
H11   2   -0.071261    0.901385    0.715976    11.00000   -1.20000
AFIX   0
C12   1    0.167417    0.757108    0.746397    11.00000    0.05094    0.05299 =
         0.03776    0.00622   -0.00170   -0.00067
AFIX  43
H12   2    0.105757    0.722184    0.681083    11.00000   -1.20000
AFIX   0
C13   1    0.463199    0.582543    0.780537    11.00000    0.05777    0.04242 =
         0.03507   -0.00080    0.00369   -0.00151
C14   1    0.657610    0.708104    1.012908    11.00000    0.05766    0.04650 =
         0.03350    0.00015    0.00017    0.00576
N1    3    0.985031    0.350761    0.746466    11.00000    0.05888    0.04663 =
         0.03425   -0.00129   -0.00240    0.01127
N2    3    0.795200    0.405499    0.540082    11.00000    0.07526    0.05235 =
         0.03854    0.00862   -0.00500   -0.00008
O1    4    0.352721    0.547496    0.691989    11.00000    0.10140    0.05806 =
         0.04028   -0.01118   -0.00943    0.00671
O2    4    0.654048    0.523368    0.838639    11.00000    0.10037    0.04948 =
         0.04645   -0.00739   -0.00676    0.02637
O3    4    0.695457    0.766616    1.093931    11.00000    0.10760    0.06697 =
         0.03659   -0.01109   -0.01335    0.02998
O4    4    0.796378    0.612152    1.008887    11.00000    0.09178    0.05349 =
         0.03890   -0.00280   -0.01087    0.02571
H1A   2    1.096972    0.309012    0.800930    11.00000    0.06945
H1B   2    0.883133    0.408535    0.778292    11.00000    0.07352
H1C   2    1.139334    0.393335    0.714526    11.00000    0.07681
H2A   2    0.714939    0.422225    0.472199    11.00000    0.07647
H2B   2    0.843520    0.460378    0.582422    11.00000    0.08162
H4    2    0.749968    0.573068    0.941671    11.00000    0.08599
HKLF 4
 
REM  skd10 in P-1
REM R1 =  0.0443 for    2083 Fo > 4sig(Fo)  and  0.0509 for all    2454 data
REM    205 parameters refined using      2 restraints
 
END  
     
WGHT      0.0612      0.1574 

REM Highest difference peak  0.183,  deepest hole -0.182,  1-sigma level  0.045
Q1    1   0.5340  0.7130  1.0935  11.00000  0.05    0.18
Q2    1   0.5475  0.6029  1.0245  11.00000  0.05    0.14
Q3    1   1.1020  0.1232  0.7271  11.00000  0.05    0.13
Q4    1   0.5103  0.7359  0.8628  11.00000  0.05    0.13
Q5    1   0.6900  0.3025  0.6267  11.00000  0.05    0.12
Q6    1   0.7662  0.2823  0.6182  11.00000  0.05    0.11
Q7    1   0.3517  0.8381  0.6550  11.00000  0.05    0.11
Q8    1   0.3039  0.6081  1.0415  11.00000  0.05    0.11
Q9    1   0.7058  0.8598  1.0623  11.00000  0.05    0.10
Q10   1   0.1146  0.5756  0.7045  11.00000  0.05    0.10
Q11   1   0.5027  0.8488  0.7251  11.00000  0.05    0.10
Q12   1   0.5234  0.4634  0.5260  11.00000  0.05    0.10
Q13   1   0.5517  0.3398  0.8068  11.00000  0.05    0.10
Q14   1   0.2916  0.0593  0.7404  11.00000  0.05    0.10
Q15   1   0.5218  0.6063  0.6786  11.00000  0.05    0.10
Q16   1   0.4655  0.0153  0.7007  11.00000  0.05    0.10
Q17   1   0.0489  0.6988  0.9098  11.00000  0.05    0.10
Q18   1   0.3680  0.7451  0.7746  11.00000  0.05    0.10
Q19   1   1.1213  0.7253  1.0737  11.00000  0.05    0.10
Q20   1   0.8578  0.5977  0.5806  11.00000  0.05    0.10
;
_cod_data_source_file            eb5067sup1.cif
_cod_data_source_block           OPDP
_cod_database_code               2021914
_shelxl_version_number           2012-9
_shelx_space_group_comment
;
The symmetry employed for this shelxl refinement is uniquely defined
by the following loop, which should always be used as a source of
symmetry information in preference to the above space-group names.
They are only intended as comments.
;
_shelx_estimated_absorpt_t_max   0.977
_shelx_estimated_absorpt_t_min   0.964
_olex2_refinement_description
;
1. Fixed Uiso
 At 1.2 times of:
  All C(H) groups
2. Restrained distances
 H4-O4
 0.92 with sigma of 0.02
 N1-H1A
 0.92 with sigma of 0.02
3.a Aromatic/amide H refined with riding coordinates:
 C3(H3), C4(H4A), C5(H5), C6(H6), C9(H9), C10(H10), C11(H11), C12(H12)
;
_olex2_submission_special_instructions 'No special instructions were received'
loop_
_space_group_symop_operation_xyz
'x, y, z'
'-x, -y, -z'
loop_
_atom_site_label
_atom_site_type_symbol
_atom_site_fract_x
_atom_site_fract_y
_atom_site_fract_z
_atom_site_U_iso_or_equiv
_atom_site_adp_type
_atom_site_occupancy
_atom_site_site_symmetry_order
_atom_site_calc_flag
_atom_site_refinement_flags_posn
C1 C 0.7675(4) 0.27622(13) 0.67449(11) 0.0410(4) Uani 1 1 d .
C2 C 0.6774(4) 0.30757(13) 0.57379(12) 0.0438(4) Uani 1 1 d .
C3 C 0.4735(4) 0.23309(16) 0.50677(13) 0.0550(4) Uani 1 1 d .
H3 H 0.4089 0.2514 0.4390 0.066 Uiso 1 1 calc R
C4 C 0.3674(5) 0.13347(18) 0.53930(16) 0.0647(5) Uani 1 1 d .
H4A H 0.2322 0.0851 0.4934 0.078 Uiso 1 1 calc R
C5 C 0.4585(5) 0.10441(16) 0.63904(17) 0.0638(5) Uani 1 1 d .
H5 H 0.3850 0.0369 0.6607 0.077 Uiso 1 1 calc R
C6 C 0.6609(4) 0.17664(15) 0.70694(14) 0.0528(4) Uani 1 1 d .
H6 H 0.7245 0.1576 0.7745 0.063 Uiso 1 1 calc R
C7 C 0.3657(4) 0.69881(12) 0.81981(11) 0.0386(3) Uani 1 1 d .
C8 C 0.4509(4) 0.75212(12) 0.91934(11) 0.0393(3) Uani 1 1 d .
C9 C 0.3354(4) 0.86061(14) 0.93783(13) 0.0502(4) Uani 1 1 d .
H9 H 0.3889 0.8963 1.0032 0.060 Uiso 1 1 calc R
C10 C 0.1454(5) 0.91679(15) 0.86309(15) 0.0567(5) Uani 1 1 d .
H10 H 0.0760 0.9896 0.8776 0.068 Uiso 1 1 calc R
C11 C 0.0593(4) 0.86458(16) 0.76696(14) 0.0552(4) Uani 1 1 d .
H11 H -0.0713 0.9014 0.7160 0.066 Uiso 1 1 calc R
C12 C 0.1674(4) 0.75711(14) 0.74640(12) 0.0478(4) Uani 1 1 d .
H12 H 0.1058 0.7222 0.6811 0.057 Uiso 1 1 calc R
C13 C 0.4632(4) 0.58254(13) 0.78054(12) 0.0455(4) Uani 1 1 d .
C14 C 0.6576(4) 0.70810(14) 1.01291(11) 0.0465(4) Uani 1 1 d .
N1 N 0.9850(4) 0.35076(13) 0.74647(11) 0.0475(4) Uani 1 1 d D
N2 N 0.7952(4) 0.40550(14) 0.54008(12) 0.0563(4) Uani 1 1 d .
O1 O 0.3527(4) 0.54750(11) 0.69199(9) 0.0689(4) Uani 1 1 d .
O2 O 0.6540(4) 0.52337(11) 0.83864(10) 0.0673(4) Uani 1 1 d .
O3 O 0.6955(4) 0.76662(12) 1.09393(9) 0.0730(5) Uani 1 1 d .
O4 O 0.7964(4) 0.61215(11) 1.00889(9) 0.0634(4) Uani 1 1 d D
H1A H 1.097(5) 0.3090(17) 0.8009(14) 0.069(6) Uiso 1 1 d D
H1B H 0.883(5) 0.409(2) 0.7783(17) 0.074(6) Uiso 1 1 d .
H1C H 1.139(6) 0.393(2) 0.7145(18) 0.077(7) Uiso 1 1 d .
H2A H 0.715(5) 0.4222(18) 0.4722(18) 0.076(6) Uiso 1 1 d .
H2B H 0.844(6) 0.460(2) 0.5824(19) 0.082(8) Uiso 1 1 d .
H4 H 0.750(6) 0.5731(18) 0.9417(14) 0.086(7) Uiso 1 1 d D
loop_
_atom_site_aniso_label
_atom_site_aniso_U_11
_atom_site_aniso_U_22
_atom_site_aniso_U_33
_atom_site_aniso_U_23
_atom_site_aniso_U_13
_atom_site_aniso_U_12
C1 0.0455(8) 0.0409(8) 0.0354(8) -0.0024(6) 0.0033(6) 0.0105(6)
C2 0.0465(8) 0.0470(9) 0.0370(8) -0.0007(6) 0.0033(6) 0.0107(7)
C3 0.0536(10) 0.0645(11) 0.0426(9) -0.0086(8) -0.0035(7) 0.0061(8)
C4 0.0556(11) 0.0638(12) 0.0707(13) -0.0158(10) 0.0033(9) -0.0037(9)
C5 0.0658(12) 0.0485(10) 0.0795(14) 0.0011(9) 0.0200(10) -0.0033(9)
C6 0.0625(10) 0.0488(9) 0.0494(10) 0.0071(7) 0.0141(8) 0.0122(8)
C7 0.0422(8) 0.0400(8) 0.0335(7) 0.0034(6) 0.0037(6) -0.0023(6)
C8 0.0436(8) 0.0380(8) 0.0356(8) 0.0033(6) 0.0029(6) 0.0004(6)
C9 0.0607(10) 0.0420(9) 0.0457(9) -0.0022(7) 0.0017(7) 0.0047(7)
C10 0.0638(11) 0.0411(9) 0.0645(11) 0.0052(8) 0.0045(9) 0.0117(8)
C11 0.0552(10) 0.0563(10) 0.0529(10) 0.0170(8) -0.0029(8) 0.0088(8)
C12 0.0509(9) 0.0530(10) 0.0378(8) 0.0062(7) -0.0017(7) -0.0007(7)
C13 0.0578(9) 0.0424(8) 0.0351(8) -0.0008(6) 0.0037(7) -0.0015(7)
C14 0.0577(10) 0.0465(9) 0.0335(8) 0.0001(6) 0.0002(7) 0.0058(7)
N1 0.0589(9) 0.0466(8) 0.0343(7) -0.0013(6) -0.0024(6) 0.0113(7)
N2 0.0753(11) 0.0523(9) 0.0385(8) 0.0086(7) -0.0050(7) -0.0001(7)
O1 0.1014(10) 0.0581(8) 0.0403(7) -0.0112(6) -0.0094(7) 0.0067(7)
O2 0.1004(10) 0.0495(7) 0.0465(7) -0.0074(5) -0.0068(7) 0.0264(7)
O3 0.1076(11) 0.0670(9) 0.0366(7) -0.0111(6) -0.0134(7) 0.0300(8)
O4 0.0918(10) 0.0535(7) 0.0389(7) -0.0028(5) -0.0109(6) 0.0257(7)
loop_
_atom_type_symbol
_atom_type_description
_atom_type_scat_dispersion_real
_atom_type_scat_dispersion_imag
_atom_type_scat_source
C C 0.0033 0.0016 'International Tables Vol C Tables 4.2.6.8 and 6.1.1.4'
H H 0.0000 0.0000 'International Tables Vol C Tables 4.2.6.8 and 6.1.1.4'
N N 0.0061 0.0033 'International Tables Vol C Tables 4.2.6.8 and 6.1.1.4'
O O 0.0106 0.0060 'International Tables Vol C Tables 4.2.6.8 and 6.1.1.4'
loop_
_geom_angle_atom_site_label_1
_geom_angle_atom_site_label_2
_geom_angle_atom_site_label_3
_geom_angle
C2 C1 N1 118.96(15)
C6 C1 C2 121.65(15)
C6 C1 N1 119.39(14)
C1 C2 C3 117.23(16)
N2 C2 C1 121.59(15)
N2 C2 C3 121.12(16)
C2 C3 H3 119.5
C4 C3 C2 121.07(17)
C4 C3 H3 119.5
C3 C4 H4A 119.6
C3 C4 C5 120.71(18)
C5 C4 H4A 119.6
C4 C5 H5 120.3
C4 C5 C6 119.36(18)
C6 C5 H5 120.3
C1 C6 C5 119.99(17)
C1 C6 H6 120.0
C5 C6 H6 120.0
C8 C7 C13 128.02(13)
C12 C7 C8 118.02(14)
C12 C7 C13 113.96(14)
C7 C8 C14 128.96(14)
C9 C8 C7 118.08(14)
C9 C8 C14 112.96(14)
C8 C9 H9 118.8
C10 C9 C8 122.50(16)
C10 C9 H9 118.8
C9 C10 H10 120.3
C11 C10 C9 119.45(17)
C11 C10 H10 120.3
C10 C11 H11 120.3
C10 C11 C12 119.49(15)
C12 C11 H11 120.3
C7 C12 H12 118.8
C11 C12 C7 122.45(15)
C11 C12 H12 118.8
O1 C13 C7 119.03(14)
O1 C13 O2 121.09(16)
O2 C13 C7 119.88(14)
O3 C14 C8 119.00(15)
O3 C14 O4 119.34(15)
O4 C14 C8 121.65(14)
C1 N1 H1A 110.3(13)
C1 N1 H1B 115.2(14)
C1 N1 H1C 114.3(14)
H1A N1 H1B 105.9(18)
H1A N1 H1C 110.8(18)
H1B N1 H1C 100(2)
C2 N2 H2A 116.3(14)
C2 N2 H2B 119.2(16)
H2A N2 H2B 117(2)
C13 O2 H4 114.8(9)
C14 O4 H4 112.5(14)
loop_
_geom_bond_atom_site_label_1
_geom_bond_atom_site_label_2
_geom_bond_distance
C1 C2 1.394(2)
C1 C6 1.371(2)
C1 N1 1.461(2)
C2 C3 1.397(2)
C2 N2 1.378(2)
C3 H3 0.9300
C3 C4 1.372(3)
C4 H4A 0.9300
C4 C5 1.374(3)
C5 H5 0.9300
C5 C6 1.385(3)
C6 H6 0.9300
C7 C8 1.413(2)
C7 C12 1.393(2)
C7 C13 1.520(2)
C8 C9 1.395(2)
C8 C14 1.515(2)
C9 H9 0.9300
C9 C10 1.375(2)
C10 H10 0.9300
C10 C11 1.370(3)
C11 H11 0.9300
C11 C12 1.378(3)
C12 H12 0.9300
C13 O1 1.233(2)
C13 O2 1.263(2)
C14 O3 1.224(2)
C14 O4 1.279(2)
N1 H1A 0.960(15)
N1 H1B 0.91(2)
N1 H1C 0.96(2)
N2 H2A 0.94(2)
N2 H2B 0.84(3)
O2 H4 1.442(17)
O4 H4 0.965(16)
loop_
_geom_hbond_atom_site_label_D
_geom_hbond_atom_site_label_H
_geom_hbond_atom_site_label_A
_geom_hbond_distance_DH
_geom_hbond_distance_HA
_geom_hbond_distance_DA
_geom_hbond_angle_DHA
_geom_hbond_site_symmetry_A
N1 H1A O3 0.960(15) 1.808(16) 2.768(2) 178(2) 2_767
N1 H1A O3 0.960(15) 1.808(16) 2.768(2) 178(2) 2_767
N1 H1A O4 0.960(15) 2.586(19) 3.210(3) 122.9(15) 2_767
N1 H1A O4 0.960(15) 2.586(19) 3.210(3) 122.9(15) 2_767
N1 H1B O2 0.91(2) 1.86(2) 2.771(2) 177(2) .
N1 H1B O2 0.91(2) 1.86(2) 2.771(2) 177(2) .
N1 H1C O1 0.96(2) 2.08(2) 2.952(3) 150(2) 1_655
N1 H1C O1 0.96(2) 2.08(2) 2.952(3) 150(2) 1_655
N2 H2A O1 0.94(2) 2.18(2) 3.102(3) 166.4(19) 2_666
N2 H2A O1 0.94(2) 2.18(2) 3.102(3) 166.4(19) 2_666
O4 H4 O2 0.965(16) 1.442(17) 2.404(2) 174(2) .
O4 H4 O2 0.965(16) 1.442(17) 2.404(2) 174(2) .
loop_
_geom_torsion_atom_site_label_1
_geom_torsion_atom_site_label_2
_geom_torsion_atom_site_label_3
_geom_torsion_atom_site_label_4
_geom_torsion
C1 C2 C3 C4 0.0(2)
C2 C1 C6 C5 0.0(2)
C2 C3 C4 C5 0.1(3)
C3 C4 C5 C6 -0.3(3)
C4 C5 C6 C1 0.2(3)
C6 C1 C2 C3 -0.1(2)
C6 C1 C2 N2 -177.36(16)
C7 C8 C9 C10 -0.4(3)
C7 C8 C14 O3 -177.89(17)
C7 C8 C14 O4 3.0(3)
C8 C7 C12 C11 1.4(2)
C8 C7 C13 O1 176.67(16)
C8 C7 C13 O2 -3.1(3)
C8 C9 C10 C11 1.2(3)
C9 C8 C14 O3 2.3(2)
C9 C8 C14 O4 -176.79(16)
C9 C10 C11 C12 -0.7(3)
C10 C11 C12 C7 -0.6(3)
C12 C7 C8 C9 -0.9(2)
C12 C7 C8 C14 179.32(15)
C12 C7 C13 O1 -3.1(2)
C12 C7 C13 O2 177.06(16)
C13 C7 C8 C9 179.28(15)
C13 C7 C8 C14 -0.5(3)
C13 C7 C12 C11 -178.75(15)
C14 C8 C9 C10 179.42(16)
N1 C1 C2 C3 178.92(14)
N1 C1 C2 N2 1.7(2)
N1 C1 C6 C5 -179.04(15)
N2 C2 C3 C4 177.31(17)
loop_
_refln_index_h
_refln_index_k
_refln_index_l
_refln_F_squared_meas
_refln_F_squared_sigma
-1 0 0 2080.51 43.15
-1 0 0 1925.4 42.57
-1 0 0 2061.19 40.8
-1 0 0 2071.68 41.37
-2 0 0 139.96 3.7
-2 0 0 141.73 3.73
-2 0 0 148 3.6
-3 0 0 52.35 2.11
3 0 0 50.28 2.1
-3 0 0 49.19 1.8
-3 0 0 51.23 2.06
-4 0 0 2.44 0.58
4 0 0 2.67 0.69
5 0 0 0.95 0.46
-5 0 0 0.37 0.27
5 -1 0 0.58 0.45
-4 1 0 4.04 0.8
-4 1 0 4.56 0.74
4 -1 0 6.2 0.94
3 -1 0 12.75 1.04
-3 1 0 17.19 1.13
-3 1 0 16.54 1.05
-3 1 0 14.11 0.88
-2 1 0 31.36 1.31
-2 1 0 30.35 1.11
-2 1 0 30.47 1.22
-1 1 0 449.37 9.43
-1 1 0 439.09 9.43
-1 1 0 460.42 9.96
0 -1 0 1048.64 23.62
0 1 0 1070.02 22.75
-1 -1 0 1050.18 22.67
-1 -1 0 1077.93 21.88
1 1 0 1061 21.64
-1 -1 0 1058.43 22.27
-2 -1 0 193.31 4.81
2 1 0 194.76 4.9
-2 -1 0 190.57 4.66
3 1 0 0.36 0.24
-3 -1 0 0.14 0.21
-3 -1 0 -0.19 0.2
3 1 0 0.61 0.33
4 1 0 2.02 0.63
-4 -1 0 1.3 0.48
5 1 0 0.41 0.53
-5 -1 0 1.33 0.47
-5 2 0 1.91 0.54
-4 2 0 10.51 1.14
4 -2 0 10.6 1.2
-4 2 0 10.16 0.92
-3 2 0 1.4 0.44
3 -2 0 0.85 0.29
3 -2 0 1.09 0.42
-3 2 0 1.21 0.37
-2 2 0 105.78 2.81
-2 2 0 102.23 2.97
2 -2 0 103.21 2.86
-1 2 0 134.21 3.28
1 -2 0 142.16 3.31
-1 2 0 136.55 3.11
0 2 0 1986.62 41.47
0 -2 0 2012.29 43.12
0 2 0 2006.62 40.15
0 -2 0 2012.2 41.69
1 2 0 138.56 3.31
-1 -2 0 133.74 3.32
-1 -2 0 141.36 3.1
-1 -2 0 135.29 3.32
-2 -2 0 207.12 5.06
-2 -2 0 207.89 5.16
2 2 0 204.36 5.17
3 2 0 15.34 0.93
-3 -2 0 13.65 1.05
-3 -2 0 16.02 0.96
3 2 0 16.49 1.2
4 2 0 4.02 0.85
-4 -2 0 5.74 0.84
5 2 0 0.25 0.41
-5 -2 0 0.57 0.41
-5 3 0 2.31 0.64
4 -3 0 0.48 0.43
-4 3 0 0.79 0.45
3 -3 0 27.21 1.66
-3 3 0 26.15 1.47
-3 3 0 26.61 1.3
2 -3 0 1.89 0.33
-2 3 0 2.16 0.33
2 -3 0 0.82 0.35
1 -3 0 543.88 11.55
1 -3 0 540.15 12.11
-1 3 0 523.37 11.28
-1 3 0 527.44 11.08
0 -3 0 277.75 6.27
0 -3 0 282.69 6.33
0 3 0 280.48 6.07
0 3 0 279.56 6.08
1 3 0 593.18 12.31
-1 -3 0 592.36 12.72
-1 -3 0 569.49 12.42
-2 -3 0 1.48 0.34
2 3 0 1.12 0.32
2 3 0 1.2 0.22
-2 -3 0 1.2 0.35
-3 -3 0 0.17 0.27
3 3 0 -0.06 0.24
-3 -3 0 0.75 0.29
-4 -3 0 15.9 1.31
4 3 0 16.75 1.4
-5 -3 0 1.43 0.5
5 3 0 1.63 0.64
5 -4 0 -0.1 0.45
-5 4 0 0.76 0.51
4 -4 0 0.34 0.43
-4 4 0 0.64 0.37
-3 4 0 2.67 0.58
3 -4 0 2.59 0.67
-2 4 0 85.59 2.32
2 -4 0 87.08 2.54
-2 4 0 83.48 2.69
2 -4 0 84.52 3.03
-1 4 0 759.99 15.17
1 -4 0 729.74 16.45
1 -4 0 727.52 15.78
-1 4 0 719.17 15.38
0 -4 0 26.97 1.01
0 4 0 28.62 0.98
0 -4 0 25.99 1.07
0 4 0 26.44 1.08
-1 -4 0 435.59 9.59
-1 -4 0 437.88 9.84
1 4 0 445.22 9.57
-2 -4 0 1.44 0.39
-2 -4 0 0.98 0.33
2 4 0 1.32 0.33
-3 -4 0 13.15 1
3 4 0 11.25 1
-3 -4 0 12.22 1.03
-4 -4 0 0.98 0.47
4 4 0 0.95 0.47
5 4 0 0.02 0.55
-5 -4 0 1.35 0.52
-5 5 0 -0.09 0.3
5 -5 0 -0.58 0.36
-4 5 0 133.96 4.5
4 -5 0 133.18 5.04
-3 5 0 79.4 2.94
3 -5 0 84.53 3.4
-2 5 0 92.03 2.94
2 -5 0 94.15 3.36
2 -5 0 90 2.73
-2 5 0 95.47 2.46
-1 5 0 67.71 1.73
1 -5 0 66.4 2.1
1 -5 0 70.44 2.43
-1 5 0 68.74 2.19
0 5 0 223.57 5.14
0 -5 0 226.19 5.37
0 5 0 221.79 5.25
0 -5 0 221.41 5.39
-1 -5 0 125.99 3.51
1 5 0 129.78 3.46
-1 -5 0 126.07 3.35
2 5 0 23.19 1.24
-2 -5 0 24.38 1.29
-2 -5 0 25.41 1.3
3 5 0 60.16 2.46
-3 -5 0 59.58 2.46
-3 -5 0 61.82 2.42
4 5 0 3.83 0.82
-4 -5 0 2.57 0.68
5 5 0 0.12 0.43
-4 6 0 2.33 0.61
4 -6 0 2.2 0.77
3 -6 0 197.5 6.26
-3 6 0 198.36 5.62
2 -6 0 6.29 0.65
-2 6 0 6.93 0.81
2 -6 0 5.91 0.87
-1 6 0 479.19 10.76
-1 6 0 479.97 10.2
1 -6 0 486.22 10.95
1 -6 0 497.47 11.52
0 6 0 600.52 13.12
0 6 0 617.67 13.06
0 -6 0 610.86 13.6
0 -6 0 609.05 13.53
1 6 0 27.85 1.37
2 6 0 0.4 0.32
-2 -6 0 0.54 0.34
-2 -6 0 0.92 0.41
-3 -6 0 258.2 6.83
3 6 0 247.89 6.71
-3 -6 0 254.06 6.86
-4 -6 0 14.12 1.4
4 6 0 14.91 1.32
-4 7 0 22.8 1.66
4 -7 0 21.42 1.91
3 -7 0 30.15 2.04
-3 7 0 29.5 1.76
2 -7 0 11.24 0.87
-2 7 0 11.03 0.98
2 -7 0 11.52 1.08
-1 7 0 258.98 6.53
1 -7 0 277.58 6.66
-1 7 0 269.69 5.91
1 -7 0 267.11 7.03
0 7 0 226.48 5.7
0 -7 0 233.11 5.86
0 7 0 231.17 5.51
0 -7 0 230.88 5.74
-1 -7 0 38.57 1.72
-2 -7 0 178.59 5.03
-2 -7 0 190.31 5.21
2 7 0 176.27 5.02
3 7 0 27.93 1.7
-3 -7 0 28.79 1.76
-3 -7 0 29.57 1.72
-4 -7 0 0.23 0.48
4 7 0 0.12 0.43
4 -8 0 3.46 0.94
-4 8 0 3.52 0.8
-3 8 0 8.02 1.06
3 -8 0 8.69 1.25
2 -8 0 93.58 3.04
2 -8 0 92.22 3.61
-2 8 0 93.61 3.32
-1 8 0 42.01 1.9
1 -8 0 40.11 1.94
1 -8 0 40.07 1.78
0 8 0 125.99 3.76
0 -8 0 121.96 3.77
0 -8 0 129.14 3.62
0 8 0 128.93 3.48
1 8 0 98.01 3.23
1 8 0 95.46 3.24
-1 -8 0 96.6 3.25
-2 -8 0 0.46 0.39
-2 -8 0 0.75 0.44
2 8 0 0.41 0.49
3 8 0 17.48 1.38
-3 -8 0 18.49 1.43
-3 -8 0 21.05 1.5
-4 -8 0 -0.02 0.41
4 8 0 0.48 0.48
-4 -8 0 0.49 0.5
-4 9 0 0.59 0.33
4 -9 0 0.42 0.5
3 -9 0 0.28 0.4
-3 9 0 0.09 0.31
2 -9 0 11.14 1.01
-2 9 0 11.28 1.18
2 -9 0 12.05 1.3
-1 9 0 21.32 1.39
1 -9 0 21.16 1.32
1 -9 0 21.73 1.42
0 -9 0 -0.21 0.28
0 9 0 0.28 0.25
0 9 0 -0.23 0.38
0 -9 0 -0.05 0.23
-1 -9 0 76.68 2.89
1 9 0 73.97 2.85
1 9 0 77.03 2.89
-2 -9 0 110.78 3.85
2 9 0 110.79 3.83
3 9 0 0.61 0.48
-3 -9 0 0.51 0.4
-3 -9 0 0.23 0.46
-4 -9 0 0.81 0.56
4 9 0 0.39 0.54
-4 -9 0 0.11 0.44
-3 10 0 8.37 1.13
3 -10 0 10.39 1.42
2 -10 0 17.65 1.5
2 -10 0 18.66 1.32
-2 10 0 18.72 1.47
-1 10 0 5.79 0.9
1 -10 0 4.16 0.76
1 -10 0 5.2 0.78
0 -10 0 0.17 0.41
0 10 0 0.14 0.44
-1 -10 0 2.86 0.66
1 10 0 2.84 0.76
1 10 0 3.94 0.69
-2 -10 0 11.58 1.2
2 10 0 11.4 1.26
2 10 0 11.05 1.24
3 10 0 0.15 0.23
-3 -10 0 -0.13 0.32
3 10 0 0.75 0.54
-4 -10 0 -0.15 0.49
3 -11 0 1.11 0.55
-3 11 0 1.69 0.59
-2 11 0 0.47 0.5
2 -11 0 0.32 0.37
-1 11 0 79.58 3.15
1 -11 0 77.52 3.05
1 -11 0 76.84 3.12
0 -11 0 12.47 1.15
0 11 0 13.51 1.31
-1 -11 0 4.1 0.77
1 11 0 4.22 0.86
2 11 0 0.14 0.25
2 11 0 0.12 0.46
-2 -11 0 0.4 0.42
3 11 0 3.88 0.9
-3 -11 0 1.74 0.65
3 11 0 2.29 0.8
-3 12 0 8.74 1.28
3 -12 0 11.09 1.56
2 -12 0 12.98 1.48
-2 12 0 13.78 1.47
1 -12 0 5.57 0.86
-1 12 0 3.61 0.85
0 12 0 0.01 0.49
0 -12 0 0.07 0.38
1 12 0 3.44 0.86
-1 -12 0 1.56 0.59
2 12 0 7.45 1.19
2 12 0 6.23 1.03
-2 -12 0 7.66 1.05
3 12 0 29.78 2.26
-3 -12 0 31.19 2.15
3 12 0 33.62 2.23
-2 13 0 19.8 1.73
2 -13 0 23.06 1.83
-1 13 0 1.97 0.71
1 -13 0 2.1 0.71
0 13 0 21.36 1.71
0 -13 0 18.23 1.52
1 13 0 0.69 0.6
-1 -13 0 0.49 0.45
2 13 0 4.14 1.05
-2 -13 0 5.86 0.99
3 13 0 0.52 0.48
3 13 0 0.86 0.77
2 -14 0 9.13 1.37
-2 14 0 8.99 1.45
1 -14 0 2.82 0.75
-1 14 0 2.63 0.84
0 14 0 0.33 0.49
0 -14 0 0.55 0.51
-1 -14 0 7.21 1.11
1 14 0 7.22 1.24
2 14 0 1.72 0.82
1 -15 0 6.87 1.12
-1 15 0 6.23 1.2
0 15 0 1.19 0.72
0 -15 0 1.8 0.73
1 15 0 4.99 1.09
1 15 -1 1.57 0.77
0 -15 1 0.59 0.48
0 15 -1 0.47 0.55
-1 15 -1 14.45 1.68
2 14 -1 -0.51 0.55
-1 -14 1 0.12 0.46
1 14 -1 0.83 0.57
0 14 -1 3.8 0.93
0 -14 1 5.4 0.95
-1 14 -1 5.16 1.05
1 -14 1 5.71 0.96
-2 14 -1 14.99 1.71
2 -14 1 14.2 1.68
3 13 -1 1.64 0.63
-2 -13 1 2.33 0.75
2 13 -1 4.2 1.04
-1 -13 1 9.02 1.17
1 13 -1 8.66 1.2
0 13 -1 13.93 1.42
0 -13 1 12.35 1.3
-1 13 -1 42.14 2.38
1 -13 1 43.1 2.29
2 -13 1 4.06 0.94
-2 13 -1 6.09 1.15
3 12 -1 4.64 1.05
-3 -12 1 4.93 0.94
2 12 -1 0.57 0.5
2 12 -1 -0.12 0.3
-2 -12 1 0.78 0.49
-1 -12 1 1.01 0.5
1 12 -1 1.09 0.64
0 12 -1 39.07 2.18
0 -12 1 42.6 2.23
-1 12 -1 11.98 1.31
1 -12 1 12.63 1.18
1 -12 1 13.49 1.25
2 -12 1 9.4 1.32
-2 12 -1 6.17 1.12
-3 12 -1 6.04 1.18
3 -12 1 4.1 1.02
3 11 -1 8.25 1.3
3 11 -1 8.11 1.2
-3 -11 1 10.7 1.26
2 11 -1 0.2 0.5
2 11 -1 0.26 0.27
-2 -11 1 -0.53 0.29
1 11 -1 2.67 0.76
-1 -11 1 2.29 0.65
1 11 -1 1.82 0.51
0 11 -1 0.01 0.4
0 -11 1 0.6 0.44
1 -11 1 17.4 1.37
-1 11 -1 19.49 1.47
1 -11 1 19.13 1.33
2 -11 1 1.34 0.67
-2 11 -1 0.45 0.49
-3 11 -1 7.33 1.18
3 -11 1 7.13 1.28
-4 -10 1 0.39 0.67
3 10 -1 0.87 0.44
3 10 -1 0.96 0.61
-3 -10 1 1 0.56
2 10 -1 4.15 0.88
-2 -10 1 8.23 1.04
2 10 -1 5.76 0.95
1 10 -1 57.09 2.52
1 10 -1 59.91 2.56
-1 -10 1 60.78 2.57
0 -10 1 1.13 0.5
0 10 -1 1.47 0.58
1 -10 1 24.8 1.55
1 -10 1 24.93 1.47
-1 10 -1 23.56 1.54
-2 10 -1 21.99 1.6
2 -10 1 22.28 1.67
3 -10 1 3 0.82
-3 10 -1 1.47 0.55
-4 -9 1 1.77 0.62
4 9 -1 1.8 0.64
3 9 -1 0.46 0.47
-3 -9 1 -0.1 0.43
3 9 -1 0.52 0.38
2 9 -1 41.02 2.27
2 9 -1 43.96 2.14
-2 -9 1 41.87 2.14
1 9 -1 1.47 0.46
1 9 -1 0.56 0.51
-1 -9 1 1.67 0.53
0 9 -1 1.73 0.6
0 -9 1 2.79 0.57
0 -9 1 2.59 0.49
-1 9 -1 38.17 1.9
1 -9 1 41.52 1.83
1 -9 1 38.95 1.94
-2 9 -1 13.4 1.2
2 -9 1 12.89 1.21
3 -9 1 0.62 0.41
-3 9 -1 1.31 0.5
4 -9 1 1.33 0.66
-4 9 -1 0.45 0.43
-4 -8 1 11.16 1.2
-3 -8 1 3.39 0.71
3 8 -1 4.5 0.82
2 8 -1 2.06 0.53
2 8 -1 3.08 0.68
1 8 -1 52.42 2.09
-1 -8 1 48.57 2.08
1 8 -1 47.16 2.12
0 8 -1 22.63 1.29
0 -8 1 21.32 1.14
0 -8 1 23.64 1.31
0 8 -1 22.98 1.17
-1 8 -1 63.52 2.45
1 -8 1 68.07 2.62
1 -8 1 67.79 2.38
2 -8 1 146.8 4.89
-2 8 -1 146.89 4.49
-3 8 -1 4.08 0.81
3 -8 1 3.84 0.91
4 -8 1 0.66 0.5
-4 8 -1 -0.11 0.27
4 7 -1 1.86 0.61
-4 -7 1 2.68 0.68
-4 -7 1 2 0.65
-3 -7 1 34.75 1.92
-3 -7 1 37.78 1.99
3 7 -1 34.89 1.87
-2 -7 1 269.73 7.07
2 7 -1 270.45 6.79
1 7 -1 121.63 3.74
1 7 -1 123.74 3.57
-1 -7 1 119.21 3.61
0 7 -1 20.08 1.04
0 -7 1 21.83 1.18
0 7 -1 18.83 1.1
0 -7 1 21.77 1.08
1 -7 1 140.04 3.83
-1 7 -1 141.01 3.45
1 -7 1 136.24 4.18
-1 7 -1 139.44 3.93
-2 7 -1 150.65 4.4
2 -7 1 146.48 4.02
2 -7 1 146.29 4.8
3 -7 1 254.31 7.63
-3 7 -1 252.21 6.91
-4 7 -1 8.61 1.18
4 -7 1 6.86 1.28
-4 -6 1 0.99 0.55
4 6 -1 2.49 0.66
-4 -6 1 2.24 0.62
3 6 -1 21.22 1.36
-3 -6 1 18.55 1.42
-3 -6 1 21.42 1.41
2 6 -1 35.53 1.64
-2 -6 1 38.74 1.72
-2 -6 1 37.81 1.75
-1 -6 1 67.13 1.75
1 6 -1 64.86 2.37
-1 -6 1 68.43 2.31
0 -6 1 532.85 11.93
0 -6 1 528.82 11.84
0 6 -1 539.82 11.5
0 6 -1 513.81 11.43
-1 6 -1 67.41 1.92
1 -6 1 66.59 2.47
-1 6 -1 69.76 2.31
1 -6 1 69.97 2.18
2 -6 1 55.74 2.5
-2 6 -1 58.29 2.28
2 -6 1 63.25 2.02
-3 6 -1 147.39 4.57
3 -6 1 149.16 5.12
4 -6 1 7.41 1.27
-4 6 -1 9.56 1.18
-4 -5 1 1.32 0.47
-4 -5 1 1.32 0.52
4 5 -1 1 0.56
-3 -5 1 18.79 1.31
3 5 -1 19.15 1.25
-3 -5 1 19.2 1.33
-2 -5 1 92.81 2.9
2 5 -1 81.16 2.67
-2 -5 1 90.06 2.88
-1 -5 1 277.59 6.84
-1 -5 1 292.3 6.36
1 5 -1 290.11 6.6
0 -5 1 737.42 16.24
0 -5 1 730.51 16
0 5 -1 757.45 15.62
0 5 -1 736.86 15.48
-1 5 -1 64.05 2.12
1 -5 1 65.39 2.32
-1 5 -1 63.4 1.79
1 -5 1 66.67 1.99
-2 5 -1 57.12 1.81
2 -5 1 57.02 2.43
2 -5 1 57.33 1.86
-2 5 -1 59.99 2.2
-3 5 -1 38.74 1.92
3 -5 1 33.91 2.03
4 -5 1 11.49 1.47
-4 5 -1 13.43 1.33
5 -5 1 0.35 0.47
-5 -4 1 4.27 0.94
4 4 -1 31.51 1.86
-4 -4 1 24.77 1.68
-3 -4 1 10.66 0.91
-3 -4 1 10.19 0.93
3 4 -1 9.43 0.94
2 4 -1 0.58 0.22
-2 -4 1 0.51 0.28
-2 -4 1 0.73 0.15
-2 -4 1 0.31 0.27
-1 -4 1 51.52 1.32
-1 -4 1 49.09 1.64
0 -4 1 85.06 2.31
0 4 -1 82.29 2.22
1 -4 1 231.15 5.91
-1 4 -1 236.18 5.22
-1 4 -1 238.18 5.51
1 -4 1 232.4 5.38
2 -4 1 65.33 2.47
-2 4 -1 60.11 1.89
-2 4 -1 55.55 2.1
2 -4 1 59.65 1.83
-3 4 -1 10.92 0.82
3 -4 1 11.79 1.11
-3 4 -1 9.71 1
4 -4 1 14.95 1.41
-4 4 -1 11.38 1.23
5 -4 1 0.52 0.48
-5 4 -1 1.08 0.54
-5 -3 1 0.22 0.38
-4 -3 1 11.69 1.18
4 3 -1 11.47 1.21
-3 -3 1 3.86 0.62
3 3 -1 4.39 0.66
1 3 -1 33.28 1.14
-1 -3 1 30.08 1.17
-1 -3 1 32.72 1.19
0 -3 1 564.5 12.35
0 -3 1 569.95 12.59
0 3 -1 578.27 11.93
0 3 -1 591.25 12.13
1 -3 1 109.67 3.15
1 -3 1 112.45 2.71
-1 3 -1 116.43 2.72
-1 3 -1 108.46 2.87
-2 3 -1 5.9 0.66
-2 3 -1 5.7 0.51
2 -3 1 5.79 0.73
2 -3 1 5.11 0.45
3 -3 1 0.84 0.42
-3 3 -1 0.72 0.3
-3 3 -1 1.37 0.36
4 -3 1 27.07 1.83
-4 3 -1 26.21 1.71
-5 3 -1 0.24 0.33
5 2 -1 3.65 0.85
-5 -2 1 5.31 0.93
-4 -2 1 1.25 0.46
4 2 -1 2 0.63
-3 -2 1 0.14 0.25
3 2 -1 0.49 0.26
-3 -2 1 0.33 0.27
-2 -2 1 0.32 0.16
-2 -2 1 0.24 0.22
2 2 -1 0.1 0.17
-2 -2 1 0.06 0.19
-1 -2 1 9457.37 200.93
-1 -2 1 9302.18 204.61
-1 -2 1 9773.3 196.47
1 2 -1 9999.42 193.47
0 -2 1 36.43 1.06
0 2 -1 36.23 1.01
0 -2 1 35.04 1.02
0 2 -1 36.51 1.05
1 -2 1 -0.48 0.11
1 -2 1 -0.5 0.14
-1 2 -1 -0.23 0.16
-1 2 -1 -0.3 0.17
-2 2 -1 72.46 2.34
2 -2 1 72.57 2.05
2 -2 1 71.9 2.5
-2 2 -1 71 2.18
3 -2 1 21.16 1.38
-3 2 -1 24.65 1.28
-3 2 -1 21.75 1.35
-4 2 -1 16.65 1.35
-4 2 -1 18.57 1.3
4 -2 1 17.86 1.42
-5 -1 1 0.06 0.28
5 1 -1 0.23 0.49
-4 -1 1 50.21 2.31
4 1 -1 52.79 2.54
-3 -1 1 11.36 0.91
-3 -1 1 10.63 0.79
3 1 -1 8.08 0.87
-2 -1 1 107.77 2.97
-2 -1 1 105.41 2.87
-2 -1 1 104.67 2.88
-2 -1 1 104.37 2.84
1 1 -1 402.43 8.46
-1 -1 1 396.66 8.75
-1 -1 1 404.97 8.56
0 -1 1 37.31 0.95
0 1 -1 37.88 1
0 -1 1 38.54 1.02
0 1 -1 40.51 0.93
-1 1 -1 2000.16 42.49
1 -1 1 2135.85 44.51
-1 1 -1 2136.04 42.01
-2 1 -1 214.76 4.97
-2 1 -1 226.9 5.36
2 -1 1 215.41 5.59
-2 1 -1 218.39 5.26
3 -1 1 230.68 6.3
-3 1 -1 240.63 6.14
-3 1 -1 227.28 5.98
4 -1 1 0.05 0.27
-4 1 -1 0.46 0.31
-4 1 -1 -0.13 0.3
5 -1 1 0.68 0.51
5 0 -1 -0.02 0.47
-4 0 1 1.13 0.38
-3 0 1 57.27 2.03
-3 0 1 60.05 2.22
-3 0 1 52.2 2.1
-2 0 1 21.37 1.01
-2 0 1 19.09 0.96
-2 0 1 20.21 0.97
-2 0 1 20.02 0.95
-1 0 1 197.51 4.46
-1 0 1 194.35 4.28
-1 0 1 194.58 4.33
-1 0 1 195.14 4.55
0 0 1 205.6 4.5
0 0 -1 198.65 4.31
-1 0 -1 469.56 10.01
-1 0 -1 470.46 10
-1 0 -1 468.05 9.88
1 0 1 474.59 10.38
2 0 1 49.3 1.77
-2 0 -1 49.28 1.77
-2 0 -1 50.18 1.84
-2 0 -1 51.88 1.54
-3 0 -1 175.79 4.89
3 0 1 175.55 4.98
-3 0 -1 184.03 5.01
-4 0 -1 24.35 1.56
4 0 1 24.15 1.75
-5 0 -1 0.45 0.37
5 0 1 0.13 0.45
5 -1 -1 3.95 0.93
4 -1 -1 37.71 2.1
-4 1 1 38.85 1.88
-4 1 1 35.42 1.91
-3 1 1 29.33 1.41
-3 1 1 29.36 1.48
-3 1 1 28.91 1.34
-2 1 1 178.54 4.52
-2 1 1 189.09 4.53
-2 1 1 188.46 4.46
-2 1 1 183.29 4.76
-1 1 1 908.75 18.58
-1 1 1 902.99 18.42
-1 1 1 899.5 19.55
0 1 1 1.49 0.18
0 1 1 1.96 0.22
0 -1 -1 1.61 0.16
0 -1 -1 1.22 0.23
1 1 1 1.89 0.21
-1 -1 -1 1.59 0.22
1 1 1 1.27 0.27
-1 -1 -1 1.58 0.27
2 1 1 56.18 1.82
-2 -1 -1 57.14 1.96
-2 -1 -1 55 1.7
3 1 1 244.08 6.72
-3 -1 -1 248.51 6.46
3 1 1 256.04 6.41
-3 -1 -1 253.18 6.1
4 1 1 2.32 0.67
-4 -1 -1 2 0.6
5 1 1 1.41 0.61
-5 -1 -1 2.02 0.6
-5 2 1 0.9 0.47
-4 2 1 0.32 0.3
4 -2 -1 0.36 0.35
3 -2 -1 0.23 0.24
-3 2 1 0.17 0.22
-3 2 1 0.13 0.22
-2 2 1 20.11 1.02
2 -2 -1 18.78 1.02
-2 2 1 19.71 0.88
-2 2 1 18.21 1.06
-1 2 1 6886.58 139.94
-1 2 1 6559.35 145.54
-1 2 1 6528.43 137.75
1 -2 -1 7449.2 143.87
0 -2 -1 45.59 1.32
0 -2 -1 45.62 1.13
0 2 1 45.19 1.29
1 2 1 2.45 0.36
-1 -2 -1 2.7 0.32
-1 -2 -1 1.56 0.3
1 2 1 2.58 0.19
2 2 1 20.69 0.87
-2 -2 -1 20.16 0.94
-2 -2 -1 21.74 1.12
2 2 1 21.06 1.15
3 2 1 28.1 1.68
-3 -2 -1 30.2 1.35
-3 -2 -1 29.54 1.59
-4 -2 -1 0.02 0.24
4 2 1 0.19 0.35
-5 -2 -1 0.98 0.43
5 2 1 1.02 0.59
-5 3 1 33.75 2.09
4 -3 -1 36.2 2.2
-4 3 1 33.89 1.89
3 -3 -1 48.36 1.97
-3 3 1 48.55 2.04
-3 3 1 48.17 1.79
-2 3 1 677.56 14.41
2 -3 -1 654.21 14.8
-2 3 1 669.6 15.27
-2 3 1 693.76 14.17
-1 3 1 1.76 0.32
-1 3 1 2.02 0.18
1 -3 -1 1.89 0.32
-1 3 1 2.17 0.37
0 3 1 255.84 5.54
0 -3 -1 246.33 5.68
0 3 1 255.14 5.63
0 -3 -1 242.83 5.32
-1 -3 -1 31.87 1.19
1 3 1 30.99 1.2
-1 -3 -1 29.4 1.14
-2 -3 -1 4.84 0.5
-2 -3 -1 3.93 0.57
2 3 1 4.34 0.31
2 3 1 4.99 0.62
-3 -3 -1 21.26 1.17
3 3 1 20.27 1.38
-3 -3 -1 20.52 1.32
-4 -3 -1 1.25 0.52
4 3 1 1.13 0.49
5 3 1 2.26 0.76
-5 -3 -1 2.61 0.7
-5 4 1 2.15 0.69
5 -4 -1 1.08 0.67
-4 4 1 26.21 1.64
4 -4 -1 25.11 1.88
3 -4 -1 47.6 2.4
-3 4 1 48.57 2.07
3 -4 -1 46.87 1.96
-2 4 1 0.3 0.27
-2 4 1 0.55 0.38
2 -4 -1 0.83 0.3
-2 4 1 0.53 0.17
-1 4 1 749.92 16.57
-1 4 1 739.8 15.64
1 -4 -1 754.11 16.19
0 4 1 668.89 14.24
0 4 1 645 13.72
0 -4 -1 665.24 13.56
0 -4 -1 640.57 14.18
1 4 1 48.29 1.7
-1 -4 -1 47.68 1.64
-1 -4 -1 45.94 1.59
-2 -4 -1 170.52 4.42
-2 -4 -1 168.74 4.49
2 4 1 157.98 4.42
-3 -4 -1 3 0.62
3 4 1 2.84 0.68
-3 -4 -1 2.07 0.49
-4 -4 -1 0.61 0.38
4 4 1 0.55 0.45
5 4 1 0.41 0.46
-5 5 1 15.42 1.58
5 -5 -1 12.24 1.71
4 -5 -1 57.47 3.06
-4 5 1 61.84 2.73
-3 5 1 -0.04 0.27
3 -5 -1 0.17 0.34
-2 5 1 190.29 4.99
2 -5 -1 190.74 4.96
1 -5 -1 467.72 10.55
-1 5 1 472.12 10.8
-1 5 1 464.07 10.28
0 5 1 779.92 16.44
0 -5 -1 790.24 17.05
0 5 1 786.94 16.47
1 5 1 40.35 1.62
-1 -5 -1 39.21 1.47
-1 -5 -1 40.03 1.56
-2 -5 -1 7.55 0.78
-2 -5 -1 8.12 0.74
2 5 1 7.25 0.79
3 5 1 4.29 0.78
-3 -5 -1 3.9 0.63
-3 -5 -1 3.61 0.73
-4 -5 -1 1.24 0.54
4 5 1 2.07 0.67
5 5 1 3.51 0.95
4 -6 -1 10.34 1.45
-4 6 1 9.15 1.15
3 -6 -1 100.12 4.01
-3 6 1 101.75 3.51
-2 6 1 1.58 0.48
2 -6 -1 3.01 0.66
2 -6 -1 2.92 0.5
1 -6 -1 343.26 8.56
-1 6 1 344.63 7.24
1 -6 -1 351.93 8.17
-1 6 1 341.35 8
0 -6 -1 381.21 8.84
0 6 1 384.92 8.42
0 -6 -1 382.81 8.88
0 6 1 376.61 8.64
-1 -6 -1 257.68 6.43
-1 -6 -1 259.73 6.14
1 6 1 259.92 6.34
-2 -6 -1 10.49 0.89
2 6 1 10.8 0.95
-2 -6 -1 10.15 0.89
-3 -6 -1 3.53 0.69
-3 -6 -1 2.76 0.69
3 6 1 1.84 0.6
-4 -6 -1 2.26 0.66
4 6 1 2.36 0.71
4 -7 -1 1.42 0.66
-4 7 1 2.2 0.7
3 -7 -1 2.11 0.69
-3 7 1 1.86 0.53
-2 7 1 38.27 1.87
2 -7 -1 41.34 1.77
2 -7 -1 40.06 2.14
-1 7 1 12.07 0.93
1 -7 -1 15.77 1.11
1 -7 -1 13.35 0.94
0 -7 -1 60.14 2.2
0 7 1 59.02 1.9
0 -7 -1 59.31 2.02
0 7 1 57.93 2.16
-1 -7 -1 16.24 1.07
1 7 1 14.94 1.11
-1 -7 -1 15.17 0.94
-2 -7 -1 85.4 2.95
-2 -7 -1 84.18 3.02
2 7 1 87.22 3.07
-3 -7 -1 0.43 0.42
3 7 1 0.87 0.45
-3 -7 -1 0.82 0.48
4 7 1 3.27 0.82
-4 -7 -1 2.06 0.75
4 -8 -1 17.4 1.91
-4 8 1 22.27 1.65
-3 8 1 0.48 0.37
3 -8 -1 0.07 0.31
2 -8 -1 118.55 4.32
2 -8 -1 120.75 3.76
-2 8 1 123.52 3.96
1 -8 -1 1.37 0.47
-1 8 1 1.27 0.5
1 -8 -1 1.05 0.41
0 8 1 102.59 2.99
0 -8 -1 105.8 3.39
0 -8 -1 111.69 3.22
0 8 1 103.24 3.36
1 8 1 6.83 0.92
-1 -8 -1 7.76 0.86
2 8 1 166.63 5
-2 -8 -1 169.81 5.04
-2 -8 -1 172.62 4.88
3 8 1 0.88 0.57
-3 -8 -1 1.27 0.49
-3 -8 -1 1.32 0.54
4 8 1 1.98 0.69
-4 -8 -1 1.93 0.71
4 -9 -1 0.42 0.5
-4 9 1 0.66 0.46
3 -9 -1 0.4 0.42
-3 9 1 0.57 0.34
2 -9 -1 80.29 3.4
-2 9 1 79.64 3.08
2 -9 -1 79.45 2.92
1 -9 -1 40.86 2.05
-1 9 1 46.61 2.1
1 -9 -1 42.15 2
0 -9 -1 72.83 2.76
0 9 1 73.34 2.76
0 -9 -1 72.38 2.5
-1 -9 -1 263.09 7.1
1 9 1 262.45 7.01
1 9 1 277.29 7.09
-2 -9 -1 31.99 1.71
-2 -9 -1 31.33 1.82
2 9 1 33.2 1.9
-3 -9 -1 0.24 0.39
-3 -9 -1 0.14 0.37
3 9 1 -0.12 0.37
-4 -9 -1 0.83 0.59
4 9 1 1.32 0.72
-4 10 1 2.48 0.69
-3 10 1 1.3 0.52
3 -10 -1 1.05 0.57
2 -10 -1 1.7 0.6
2 -10 -1 1.72 0.56
-2 10 1 2.25 0.6
1 -10 -1 1.32 0.56
1 -10 -1 1.39 0.5
-1 10 1 1.63 0.62
0 10 1 6.56 0.98
0 -10 -1 7.71 0.95
-1 -10 -1 1.1 0.53
1 10 1 1.18 0.41
1 10 1 0.24 0.55
2 10 1 23.64 1.7
2 10 1 25.39 1.78
-2 -10 -1 25.59 1.7
3 10 1 14.4 1.48
-3 -10 -1 11.76 1.24
-3 -10 -1 12.38 1.34
4 10 1 3.88 1.05
-3 11 1 46.16 2.56
3 -11 -1 48.88 2.95
-2 11 1 0.55 0.37
2 -11 -1 0.62 0.48
2 -11 -1 0.36 0.47
-1 11 1 71.62 3.02
1 -11 -1 71.87 3.01
1 -11 -1 70.92 2.94
0 11 1 0.02 0.46
0 -11 -1 0.47 0.46
1 11 1 52.92 2.55
-1 -11 -1 51.86 2.51
2 11 1 2.56 0.67
-2 -11 -1 2.12 0.63
2 11 1 0.52 0.61
3 11 1 18.63 1.66
3 11 1 19.28 1.76
-3 -11 -1 22.63 1.73
3 -12 -1 6.67 1.29
-3 12 1 3.4 0.81
2 -12 -1 0.21 0.35
-2 12 1 0.33 0.33
1 -12 -1 8.69 1.09
-1 12 1 6.17 1.07
0 -12 -1 40.8 2.25
0 12 1 36.97 2.2
-1 -12 -1 0.25 0.41
1 12 1 0.41 0.57
2 12 1 33.67 2.19
-2 -12 -1 34.86 2.17
3 12 1 0.79 0.42
-3 -12 -1 1.41 0.67
3 12 1 0.8 0.69
2 -13 -1 11.73 1.45
-2 13 1 11.22 1.44
1 -13 -1 2.22 0.65
-1 13 1 1.52 0.68
0 -13 -1 11.65 1.29
0 13 1 9.33 1.3
1 13 1 2.62 0.9
-1 -13 -1 1.86 0.69
2 13 1 1.62 0.77
-2 -13 -1 0.57 0.48
-2 14 1 -0.31 0.43
1 -14 -1 3.33 0.86
-1 14 1 3.63 0.98
0 14 1 0.29 0.57
0 -14 -1 0.83 0.55
1 14 1 3.82 1.01
-1 -14 -1 2.65 0.77
2 14 1 0.44 0.72
1 -15 -1 4.67 1
0 -15 -1 0.32 0.53
0 15 1 0.2 0.54
1 15 1 -0.01 0.62
1 15 -2 6.02 1.24
-1 -15 2 3.69 0.89
0 -15 2 4.28 0.91
0 15 -2 4.14 1.04
-1 15 -2 1.72 0.79
1 14 -2 20.07 1.73
-1 -14 2 21.91 1.75
0 14 -2 3.76 0.87
0 -14 2 4.02 0.83
-1 14 -2 6.91 1.21
2 -14 2 2.66 0.89
-2 14 -2 1.17 0.63
3 13 -2 3.75 0.98
2 13 -2 9.25 1.3
2 13 -2 9.11 1.29
-2 -13 2 6.44 1.06
-1 -13 2 6.9 0.99
1 13 -2 7.27 1.11
0 -13 2 49.9 2.5
0 13 -2 51.3 2.61
-1 13 -2 3.03 0.81
2 -13 2 3.32 0.9
-2 13 -2 4.19 0.94
-3 -12 2 3.52 0.86
3 12 -2 3.77 0.94
2 12 -2 5.05 0.98
-2 -12 2 4.41 0.88
2 12 -2 2.46 0.71
1 12 -2 1.5 0.62
-1 -12 2 0.27 0.44
0 12 -2 14.38 1.3
0 -12 2 17.59 1.39
1 -12 2 25.48 1.61
1 -12 2 26.58 1.74
-1 12 -2 26.35 1.78
-2 12 -2 0.23 0.4
2 -12 2 0.64 0.43
-3 12 -2 5.41 1.14
3 -12 2 4.09 1.08
-3 -11 2 1.49 0.63
3 11 -2 1.54 0.59
2 11 -2 0.21 0.27
-2 -11 2 0.19 0.39
2 11 -2 0.91 0.54
1 11 -2 3.91 0.83
1 11 -2 2.37 0.61
-1 -11 2 4.28 0.79
0 11 -2 16.25 1.29
0 -11 2 17.17 1.31
1 -11 2 1.16 0.46
-1 11 -2 1.11 0.56
1 -11 2 0.36 0.38
-2 11 -2 23.22 1.67
2 -11 2 21.23 1.71
-3 11 -2 -0.33 0.36
3 -11 2 0.74 0.44
-4 -10 2 0.64 0.52
3 10 -2 0.31 0.41
-3 -10 2 1.16 0.55
2 10 -2 1.32 0.48
2 10 -2 1.59 0.62
-2 -10 2 1.91 0.6
1 10 -2 20.54 1.43
-1 -10 2 19.78 1.42
1 10 -2 18.99 1.35
0 -10 2 8.17 0.94
0 10 -2 9.45 0.84
0 10 -2 8.32 0.97
0 -10 2 9.42 0.82
1 -10 2 32.51 1.84
-1 10 -2 32.15 1.79
1 -10 2 32.76 1.7
2 -10 2 1.79 0.62
-2 10 -2 2.48 0.71
-3 10 -2 9.81 1.31
3 -10 2 10.5 1.45
-4 -9 2 -0.01 0.38
4 9 -2 0.08 0.38
3 9 -2 2.55 0.72
3 9 -2 1.27 0.52
-3 -9 2 3.06 0.71
-2 -9 2 21.25 1.5
2 9 -2 19.59 1.54
2 9 -2 20.92 1.44
-1 -9 2 7.22 0.89
1 9 -2 8.52 0.95
1 9 -2 8.7 0.96
0 -9 2 50.85 2
0 9 -2 51.36 2.02
0 -9 2 53.48 2.18
0 9 -2 50.09 2.12
-1 9 -2 63.64 2.54
1 -9 2 67.91 2.43
1 -9 2 64.12 2.66
-2 9 -2 128.04 4.21
2 -9 2 126.98 4.52
3 -9 2 1.1 0.57
-3 9 -2 0.37 0.46
-4 9 -2 4.15 0.88
4 -9 2 5.54 1.21
4 8 -2 0.13 0.28
-4 -8 2 0.37 0.43
-3 -8 2 6.14 0.89
3 8 -2 7.02 0.99
3 8 -2 6.26 1.09
2 8 -2 5.58 0.82
2 8 -2 4.55 0.8
-2 -8 2 4.23 0.73
1 8 -2 177.01 5.08
1 8 -2 176.86 4.79
-1 -8 2 182.56 5.07
0 8 -2 165.94 4.57
0 -8 2 172.09 4.61
0 -8 2 167.64 4.66
0 8 -2 175.2 4.54
-1 8 -2 103.4 3.33
1 -8 2 103.65 3.15
1 -8 2 107.25 3.56
-1 8 -2 102.69 2.92
2 -8 2 55.49 2.6
-2 8 -2 53.67 2.37
3 -8 2 1.37 0.59
-3 8 -2 1.77 0.66
-4 8 -2 0.27 0.28
4 -8 2 0.3 0.4
-4 -7 2 17.44 1.45
4 7 -2 12.66 1.63
3 7 -2 81.53 3.67
-3 -7 2 87.96 3.31
3 7 -2 88.69 3.14
-2 -7 2 0.74 0.43
2 7 -2 0.99 0.41
2 7 -2 0.3 0.29
-1 -7 2 10.6 0.59
-1 -7 2 7.43 0.79
1 7 -2 9.31 0.85
1 7 -2 10.73 0.84
0 7 -2 1 0.37
0 -7 2 0.23 0.19
0 7 -2 0.36 0.21
0 -7 2 0.05 0.29
1 -7 2 9.16 0.86
1 -7 2 9.08 0.71
-1 7 -2 9.92 0.84
-1 7 -2 8.84 0.66
-2 7 -2 369.63 8.94
2 -7 2 369.71 9.62
3 -7 2 176.29 5.78
-3 7 -2 169.2 5.22
-4 7 -2 0.97 0.48
4 -7 2 1.75 0.62
-4 -6 2 4.32 0.88
-4 -6 2 4.99 0.82
3 6 -2 11.49 1
-3 -6 2 11.02 1.12
-3 -6 2 9.73 1.04
-2 -6 2 0.59 0.38
2 6 -2 0.31 0.3
2 6 -2 1.29 0.39
-1 -6 2 250.09 6.33
1 6 -2 258.89 6.06
-1 -6 2 250.43 5.85
1 6 -2 259.73 6.46
0 6 -2 1192.28 24.4
0 6 -2 1184 24.72
0 -6 2 1177.02 25.68
0 -6 2 1179.36 25.25
-1 6 -2 8.22 0.61
1 -6 2 7.88 0.82
1 -6 2 8.26 0.63
-1 6 -2 8.39 0.77
-2 6 -2 20.9 1.3
-2 6 -2 22.92 1.07
2 -6 2 21.12 1.41
3 -6 2 76.89 3.29
-3 6 -2 73.13 2.93
4 -6 2 -0.02 0.37
-4 6 -2 0.52 0.28
-4 -5 2 44.92 2.17
4 5 -2 43.72 2.17
-4 -5 2 41.23 2.24
-3 -5 2 80.01 2.95
3 5 -2 83.41 2.83
-3 -5 2 78.8 2.92
2 5 -2 20.69 1.08
-2 -5 2 18.36 1.13
1 5 -2 81.81 2.63
-1 -5 2 82.22 2.51
-1 -5 2 74.4 2.08
0 -5 2 37.18 1.39
0 5 -2 38.95 1.42
0 -5 2 38.61 1.42
0 5 -2 39.24 1.4
-1 5 -2 294.36 6.63
1 -5 2 290.11 7.32
1 -5 2 296.65 6.71
-1 5 -2 299.61 6.87
-2 5 -2 71.29 2.17
-2 5 -2 64.05 2.39
2 -5 2 65.23 2.63
3 -5 2 206.7 6.19
-3 5 -2 198.56 5.66
-4 5 -2 0.98 0.42
4 -5 2 0.21 0.42
5 -5 2 3.33 0.93
-5 -4 2 5.62 1
4 4 -2 16.85 1.31
-4 -4 2 19.75 1.38
-4 -4 2 16.55 1.36
-3 -4 2 12.47 1.04
-3 -4 2 10.08 0.91
3 4 -2 11.19 0.88
2 4 -2 368.49 8.42
-2 -4 2 377.48 8.88
-2 -4 2 381.53 8.44
-2 -4 2 382.29 8.73
1 4 -2 1.83 0.32
-1 -4 2 2.07 0.37
-1 -4 2 1.69 0.25
1 4 -2 2.37 0.42
0 -4 2 92.13 2.48
0 4 -2 96.11 2.43
0 -4 2 94.48 2.56
0 4 -2 91.36 2.51
-1 4 -2 21.93 0.93
-1 4 -2 21.74 1.03
1 -4 2 23.47 0.85
1 -4 2 20.97 1.13
2 -4 2 374.39 8.19
-2 4 -2 370.35 8.4
-2 4 -2 363.79 8.59
2 -4 2 379.36 9.3
-3 4 -2 1.46 0.41
-3 4 -2 0.63 0.33
3 -4 2 1.05 0.46
-4 4 -2 0.74 0.4
4 -4 2 -0.04 0.39
-5 -3 2 6.38 1.01
-4 -3 2 3.76 0.73
4 3 -2 4.81 0.82
-4 -3 2 4.61 0.73
-3 -3 2 40.39 1.87
3 3 -2 41.98 1.81
-3 -3 2 41.09 1.8
-2 -3 2 0.22 0.15
-2 -3 2 0.15 0.22
-2 -3 2 0.22 0.25
2 3 -2 0.14 0.18
-1 -3 2 34.23 1.27
-1 -3 2 32.83 1.1
0 3 -2 1046.65 21.33
0 3 -2 1072.46 21.79
0 -3 2 1047.14 22.14
0 -3 2 1048.05 22.63
-1 3 -2 11.5 0.66
-1 3 -2 10.86 0.67
1 -3 2 11.23 0.75
1 -3 2 11.28 0.5
2 -3 2 360.03 8.96
2 -3 2 367.25 7.98
-2 3 -2 365.46 8.28
-2 3 -2 366.17 8.44
-3 3 -2 11.15 0.99
3 -3 2 11.8 1.05
-3 3 -2 11.32 0.88
-4 3 -2 3.84 0.71
-4 3 -2 4.76 0.89
4 -3 2 4.33 0.89
-5 3 -2 0.6 0.43
-5 -2 2 4.27 0.84
-4 -2 2 5.08 0.81
4 2 -2 3.86 0.78
-4 -2 2 5.3 0.75
3 2 -2 5.48 0.7
-3 -2 2 5.42 0.65
-3 -2 2 6.27 0.74
-3 -2 2 5.79 0.6
-2 -2 2 994.74 21.27
2 2 -2 966.08 20.47
-2 -2 2 978.73 20.83
-2 -2 2 1013.29 21.41
-1 -2 2 3914.3 89.18
1 2 -2 4453.75 87.44
1 2 -2 4574.91 87.26
0 2 -2 0.39 0.22
0 -2 2 0.68 0.28
0 -2 2 0.72 0.24
0 2 -2 0.49 0.29
1 -2 2 53.95 1.83
1 -2 2 56.31 1.34
-1 2 -2 58.28 1.72
-1 2 -2 57.75 1.68
2 -2 2 567.47 13.22
2 -2 2 573.75 12.28
-2 2 -2 572.56 12.51
-2 2 -2 580.34 12.51
-3 2 -2 16.04 1.05
-3 2 -2 13.12 1.05
3 -2 2 13.44 1.07
4 -2 2 3.68 0.8
-4 2 -2 2.78 0.71
-4 2 -2 3.77 0.69
5 -2 2 2.02 0.78
-5 -1 2 4.7 0.86
4 1 -2 7.77 1.03
-4 -1 2 10.77 1.05
-3 -1 2 2.92 0.47
3 1 -2 2.29 0.48
-3 -1 2 2.77 0.49
-3 -1 2 3.15 0.54
-2 -1 2 257.92 6.16
-2 -1 2 256.4 6.03
-2 -1 2 250.51 5.83
-2 -1 2 265.66 6.18
-1 -1 2 7117.09 143.72
-1 -1 2 7011.94 146.76
1 1 -2 6298.95 139.55
1 1 -2 7070.86 138.47
0 -1 2 2793.67 58.49
0 -1 2 2603.45 56.95
0 1 -2 2586.71 55.16
0 1 -2 2889.34 56.11
1 -1 2 147.39 3.76
-1 1 -2 151.24 3.58
-1 1 -2 150.59 3.6
-2 1 -2 42.17 1.19
2 -1 2 41.6 1.65
-2 1 -2 40.56 1.58
-2 1 -2 41.94 1.66
-3 1 -2 89.14 3.02
-3 1 -2 89.62 3.15
3 -1 2 88.2 3.06
-4 1 -2 0.93 0.4
-4 1 -2 0.47 0.43
5 -1 2 1.99 0.69
-4 0 2 0.76 0.37
4 0 -2 1.73 0.55
-3 0 2 0.42 0.23
-3 0 2 0.89 0.31
-3 0 2 0.84 0.31
-3 0 2 1.05 0.4
-2 0 2 311.43 7.23
-2 0 2 300.06 6.78
-2 0 2 295.78 6.85
-2 0 2 303.47 7.08
1 0 -2 3667.48 73.37
-1 0 2 3557.22 76.06
-1 0 2 3451.88 71.51
-1 0 2 3546.53 74.64
0 0 2 43.51 1.24
0 0 -2 43.23 1.19
0 0 -2 42.1 1.21
0 0 2 42.16 1.09
-1 0 -2 32.33 1.14
-1 0 -2 31.77 0.86
1 0 2 32.66 1.11
-1 0 -2 33.19 1.17
2 0 2 148.96 3.95
-2 0 -2 149.82 3.95
-2 0 -2 142.5 3.48
-2 0 -2 150.73 3.98
-3 0 -2 18.87 1.22
3 0 2 22.67 1.26
-3 0 -2 23.94 1.46
-4 0 -2 -0.3 0.19
4 0 2 0.05 0.36
-5 0 -2 3.36 0.75
5 0 2 0.92 0.6
5 -1 -2 0.2 0.43
-4 1 2 3.14 0.65
4 -1 -2 2.46 0.65
-4 1 2 3.93 0.66
-3 1 2 64.47 2.32
-3 1 2 66.48 2.47
-3 1 2 68.96 2.39
-3 1 2 64.49 2.25
-2 1 2 56.88 1.71
-2 1 2 51.2 1.78
-2 1 2 59.28 1.98
-2 1 2 55.55 1.88
-1 1 2 470.93 9.93
-1 1 2 487.35 10.72
1 -1 -2 481.9 10.65
0 1 2 1323.9 27.22
0 -1 -2 1337.69 27.62
0 -1 -2 1376.22 28.33
0 1 2 1372.61 28.82
-1 -1 -2 688.34 14.22
1 1 2 669.8 14.56
-1 -1 -2 683.73 14.26
1 1 2 653.8 14.12
2 1 2 70.26 2.13
-2 -1 -2 71.27 2
-2 -1 -2 68.48 2.28
2 1 2 67.81 2.46
3 1 2 5.61 0.88
-3 -1 -2 6.32 0.79
3 1 2 6.11 0.67
4 1 2 4.25 0.95
-4 -1 -2 3.54 0.75
5 1 2 0.51 0.49
-5 -1 -2 -0.22 0.29
-5 2 2 5.61 0.97
-4 2 2 24.46 1.53
-3 2 2 3.38 0.48
-3 2 2 3.29 0.62
-3 2 2 3.08 0.58
3 -2 -2 2.57 0.5
2 -2 -2 1327.71 28.73
-2 2 2 1346.55 27.46
-2 2 2 1352.68 29.2
-2 2 2 1337.72 27.55
1 -2 -2 5259.19 111.17
-1 2 2 5634.54 116.81
1 -2 -2 5571.21 113.85
-1 2 2 5278.66 109.78
0 2 2 950.05 20.18
0 -2 -2 951.92 19.92
0 2 2 917.15 19.14
0 -2 -2 948.83 19.32
-1 -2 -2 14.03 0.68
1 2 2 14.43 0.78
-1 -2 -2 14.17 0.74
1 2 2 15.8 0.56
-2 -2 -2 27.27 1.12
2 2 2 28.59 1.06
2 2 2 27.47 1.41
-2 -2 -2 29.34 1.36
-3 -2 -2 6.55 0.81
3 2 2 4.99 0.82
4 2 2 3.75 0.88
-4 -2 -2 2.9 0.7
5 2 2 3.8 1
-5 -2 -2 4.4 0.9
-5 3 2 1.63 0.57
5 -3 -2 1.31 0.6
4 -3 -2 0.24 0.42
-4 3 2 0.11 0.28
-3 3 2 16.52 1.09
-3 3 2 14.34 1.13
3 -3 -2 16.05 1.13
-3 3 2 17.24 0.94
-2 3 2 1.09 0.35
2 -3 -2 1.51 0.39
-2 3 2 1.72 0.25
-2 3 2 0.89 0.36
1 -3 -2 1009.5 21.48
-1 3 2 1026.25 21.88
-1 3 2 975.96 20.53
0 3 2 96.09 2.41
0 -3 -2 91.24 2.51
0 3 2 91.3 2.45
0 -3 -2 94.55 2.21
1 3 2 361.18 7.9
1 3 2 368.68 8.09
-1 -3 -2 364.24 8.14
-1 -3 -2 357.12 8.03
-2 -3 -2 216.69 5.58
-2 -3 -2 219.49 5.35
2 3 2 219.16 5.64
2 3 2 219.63 5.03
-3 -3 -2 0.67 0.36
3 3 2 0.43 0.27
-3 -3 -2 0.76 0.29
-4 -3 -2 0.89 0.47
4 3 2 1.31 0.53
-5 -3 -2 5.45 1.04
5 3 2 4.34 1.04
-5 4 2 13.22 1.44
5 -4 -2 13.06 1.68
4 -4 -2 34.3 2.24
-4 4 2 33.53 1.84
-3 4 2 -0.48 0.27
-3 4 2 0.76 0.35
3 -4 -2 0.73 0.33
2 -4 -2 1340.82 28.53
-2 4 2 1348.68 29.2
-2 4 2 1308.71 27.42
-2 4 2 1316.2 27.13
-1 4 2 1.09 0.31
-1 4 2 1.1 0.32
1 -4 -2 1.24 0.33
0 4 2 478.41 10.32
0 4 2 461.91 10.05
0 -4 -2 468.5 9.78
0 -4 -2 454.82 10.37
-1 -4 -2 31.43 1.26
-1 -4 -2 29.64 1.21
1 4 2 30.14 1.32
-2 -4 -2 279.99 6.62
2 4 2 262.52 6.69
-2 -4 -2 271.43 6.72
-3 -4 -2 6.9 0.71
3 4 2 6.84 0.94
-3 -4 -2 6.61 0.86
4 4 2 4.85 0.99
-4 -4 -2 4.8 0.93
5 4 2 -0.61 0.41
-5 5 2 1.87 0.63
5 -5 -2 0.98 0.6
-4 5 2 0.22 0.32
4 -5 -2 1.24 0.55
3 -5 -2 7.09 0.79
-3 5 2 6.77 0.85
2 -5 -2 35.37 1.62
-2 5 2 37.23 1.77
-2 5 2 37.34 1.64
-1 5 2 160.38 4.33
-1 5 2 167.21 4.19
1 -5 -2 158.23 4.3
0 -5 -2 221.93 5.49
0 5 2 217.98 5.32
0 -5 -2 219.81 4.91
0 5 2 225.9 5.26
1 5 2 -0.07 0.2
-1 -5 -2 0.05 0.18
-1 -5 -2 -0.07 0.23
-2 -5 -2 52.56 2.1
-2 -5 -2 51.53 2
2 5 2 54.19 2.17
-3 -5 -2 19.1 1.24
-3 -5 -2 22.04 1.47
3 5 2 19.6 1.43
4 5 2 0.35 0.43
-4 -5 -2 0.03 0.33
-5 6 2 0.53 0.34
4 -6 -2 27.98 2.2
-4 6 2 29.97 1.84
3 -6 -2 3.62 0.87
3 -6 -2 4.72 0.71
-3 6 2 4.1 0.74
-2 6 2 0.7 0.35
2 -6 -2 0.65 0.34
-2 6 2 0.55 0.33
1 -6 -2 -0.08 0.24
0 6 2 30.11 1.4
0 -6 -2 30.56 1.06
0 -6 -2 29.69 1.41
0 6 2 28.56 1.15
-1 -6 -2 197.99 5.25
1 6 2 202.93 5.27
-1 -6 -2 204.85 5.01
-2 -6 -2 115.15 3.57
2 6 2 115.02 3.67
-2 -6 -2 115.25 3.6
3 6 2 7.33 1.01
-3 -6 -2 8.3 0.93
-3 -6 -2 7.27 0.99
-4 -6 -2 1.25 0.53
4 6 2 2.23 0.66
-4 7 2 0.69 0.37
4 -7 -2 0.92 0.61
-3 7 2 2.47 0.62
3 -7 -2 3.29 0.87
2 -7 -2 8.35 0.84
-2 7 2 7.24 0.87
1 -7 -2 29.87 1.51
-1 7 2 28.55 1.42
-1 7 2 30.08 1.49
0 -7 -2 5.57 0.71
0 7 2 6.5 0.77
0 7 2 5.55 0.5
1 7 2 73.78 2.71
-1 -7 -2 76.46 2.4
-1 -7 -2 73.17 2.63
2 7 2 6.67 0.9
-2 -7 -2 8.54 0.88
-2 -7 -2 6.64 0.81
-3 -7 -2 2.86 0.71
-3 -7 -2 1.95 0.53
3 7 2 2.25 0.67
-4 -7 -2 1.1 0.56
4 7 2 0.76 0.52
4 -8 -2 0.01 0.5
-4 8 2 1.05 0.4
-3 8 2 3.1 0.71
3 -8 -2 2.14 0.78
-2 8 2 0.18 0.33
2 -8 -2 0.6 0.41
2 -8 -2 -0.04 0.37
1 -8 -2 28.07 1.54
1 -8 -2 27.49 1.6
-1 8 2 29.74 1.56
0 -8 -2 17.94 1.07
0 -8 -2 17.6 1.23
0 8 2 20.56 1.01
0 8 2 19.21 1.29
-1 -8 -2 164.72 4.84
1 8 2 170.57 4.91
-1 -8 -2 166.76 4.43
-2 -8 -2 67.58 2.63
2 8 2 68.26 2.83
-2 -8 -2 70.84 2.74
3 8 2 13.54 1.39
-3 -8 -2 12.87 1.16
-3 -8 -2 11.21 1.23
4 8 2 2.54 0.86
-4 -8 -2 3.01 0.88
-4 9 2 2.62 0.68
4 -9 -2 2.29 0.83
-3 9 2 1.93 0.62
3 -9 -2 1.92 0.69
-2 9 2 11.78 1.18
2 -9 -2 9.76 1.05
2 -9 -2 7.17 1.09
1 -9 -2 1.17 0.46
1 -9 -2 0.89 0.5
-1 9 2 1.54 0.52
0 9 2 0.65 0.48
0 -9 -2 1.61 0.57
1 9 2 50.58 2.43
-1 -9 -2 56.17 2.1
-1 -9 -2 57.11 2.44
-2 -9 -2 21.84 1.39
-2 -9 -2 21.75 1.47
2 9 2 17.76 1.44
-3 -9 -2 0.05 0.35
3 9 2 0.38 0.5
-3 -9 -2 -0.28 0.31
4 9 2 0.3 0.51
-4 -9 -2 0.33 0.48
-4 10 2 1.69 0.6
-3 10 2 29.2 1.9
3 -10 -2 29 2.15
2 -10 -2 54.07 2.44
2 -10 -2 54.17 2.77
-2 10 2 46.73 2.4
1 -10 -2 1.64 0.57
1 -10 -2 0.74 0.43
-1 10 2 1.48 0.51
0 -10 -2 91.75 3.4
0 10 2 91.59 3.38
1 10 2 200.08 5.72
1 10 2 203.11 5.86
-1 -10 -2 190.46 5.77
-2 -10 -2 31.35 1.73
2 10 2 29.03 1.93
-2 -10 -2 30.17 1.85
3 10 2 8.33 1.24
-3 -10 -2 6.9 1.06
-3 -10 -2 8.65 1.07
3 -11 -2 25.24 2.07
-3 11 2 27.07 1.88
-2 11 2 0.7 0.36
2 -11 -2 1.01 0.54
2 -11 -2 0.45 0.38
1 -11 -2 58.31 2.7
1 -11 -2 62.36 2.77
-1 11 2 60.91 2.76
0 11 2 134.86 4.5
0 -11 -2 128.82 4.45
-1 -11 -2 1.34 0.58
1 11 2 2.5 0.81
-2 -11 -2 66.61 3.04
2 11 2 66.79 3.16
2 11 2 70.96 3.19
3 11 2 18.85 1.8
-3 -11 -2 16.31 1.46
-3 -11 -2 15.24 1.41
-3 12 2 0.5 0.38
3 -12 -2 0.07 0.44
2 -12 -2 2.24 0.7
-2 12 2 2.03 0.61
2 -12 -2 1.27 0.56
-1 12 2 -0.46 0.38
1 -12 -2 0.67 0.52
0 12 2 1.25 0.63
0 -12 -2 0.68 0.54
-1 -12 -2 0.19 0.44
1 12 2 0.04 0.53
2 12 2 0.01 0.58
-2 -12 -2 1.33 0.64
3 12 2 11.23 1.53
3 12 2 8.32 1.24
-3 -12 -2 11.53 1.36
2 -13 -2 1.55 0.66
-2 13 2 1.62 0.63
2 -13 -2 1.02 0.6
-1 13 2 4.22 0.97
1 -13 -2 3.7 0.82
0 -13 -2 2.9 0.79
0 13 2 3.42 0.93
1 13 2 18.5 1.77
-1 -13 -2 15.43 1.52
-2 -13 -2 3.43 0.88
2 13 2 4.21 1.08
-1 14 2 4.81 1.15
1 -14 -2 6.07 1.05
0 14 2 0.05 0.54
0 -14 -2 0.82 0.5
-1 -14 -2 5.26 0.99
1 14 2 4.05 1.06
1 -15 -2 0.6 0.65
0 15 2 -0.08 0.53
0 -15 -2 1.29 0.71
-1 -15 3 1.68 0.69
0 -15 3 0.64 0.53
0 15 -3 0.72 0.57
-1 15 -3 3.57 0.92
1 14 -3 6.03 1.09
-1 -14 3 4.77 0.95
0 14 -3 6.86 1.13
0 -14 3 5.4 0.93
-1 14 -3 20.43 1.72
2 -14 3 -0.41 0.44
-2 14 -3 0.6 0.61
2 13 -3 0.88 0.43
-2 -13 3 0.79 0.53
1 13 -3 0.41 0.53
-1 -13 3 0.28 0.46
0 13 -3 2.29 0.68
0 -13 3 3.41 0.71
-1 13 -3 0.25 0.46
2 -13 3 22.08 1.87
-2 13 -3 20.72 1.77
3 12 -3 -0.24 0.32
-3 -12 3 0.08 0.44
-2 -12 3 2.94 0.74
2 12 -3 4.25 0.93
1 12 -3 24.9 1.7
-1 -12 3 22.8 1.65
1 12 -3 23.16 1.65
0 12 -3 0.94 0.54
0 -12 3 1.13 0.56
-1 12 -3 0.37 0.51
1 -12 3 -0.17 0.27
2 -12 3 6.5 1.16
-2 12 -3 4.41 0.99
-3 12 -3 53.63 3
3 -12 3 57.09 3.26
3 11 -3 5.93 1.16
-3 -11 3 7.2 1.06
-2 -11 3 2.36 0.66
2 11 -3 3.37 0.82
2 11 -3 2.71 0.75
-1 -11 3 45.27 2.33
1 11 -3 50.55 2.31
1 11 -3 49.49 2.41
0 -11 3 14.73 1.2
0 11 -3 14.23 1.2
-1 11 -3 1.03 0.52
1 -11 3 1.36 0.48
1 -11 3 2.08 0.61
2 -11 3 -0.33 0.36
-2 11 -3 -0.09 0.38
-3 11 -3 -0.08 0.42
3 -11 3 0.12 0.43
-4 -10 3 2.48 0.78
3 10 -3 0.54 0.41
-3 -10 3 0.03 0.43
2 10 -3 1.82 0.65
-2 -10 3 0.87 0.48
2 10 -3 0.89 0.44
-1 -10 3 2.15 0.56
1 10 -3 1.45 0.57
1 10 -3 0.52 0.33
0 -10 3 108.72 3.44
0 10 -3 105.72 3.39
0 10 -3 103.46 3.47
0 -10 3 102.67 3.48
1 -10 3 0.41 0.36
-1 10 -3 0.14 0.38
1 -10 3 0.94 0.46
-2 10 -3 11.07 1.22
2 -10 3 9.59 1.25
-3 10 -3 5.49 1.04
3 -10 3 6.72 1.22
4 9 -3 2.66 0.83
-4 -9 3 0.38 0.51
3 9 -3 3.31 0.81
-3 -9 3 5 0.85
2 9 -3 -0.1 0.25
2 9 -3 0.49 0.48
-2 -9 3 0.62 0.43
1 9 -3 8.85 0.96
-1 -9 3 6.32 0.85
1 9 -3 9.4 0.96
0 9 -3 0.25 0.35
0 -9 3 0.45 0.26
0 9 -3 0.12 0.25
0 -9 3 0.62 0.36
1 -9 3 413 9.73
-1 9 -3 405.14 9.81
1 -9 3 417.62 10.39
2 -9 3 172.72 5.62
-2 9 -3 171.65 5.19
-3 9 -3 0.07 0.41
3 -9 3 0.65 0.47
-4 9 -3 -0.34 0.39
4 -9 3 -0.13 0.39
-4 -8 3 -0.09 0.42
4 8 -3 0.07 0.47
3 8 -3 16.33 1.66
-3 -8 3 13.86 1.3
2 8 -3 67.54 2.98
-2 -8 3 64.97 2.74
2 8 -3 69.02 2.54
1 8 -3 166.46 4.8
1 8 -3 163.3 4.4
-1 -8 3 157.34 4.67
0 -8 3 9.72 0.77
0 8 -3 7.99 0.79
0 -8 3 8.43 0.76
0 8 -3 8.86 0.78
-1 8 -3 128.94 3.86
1 -8 3 128.43 3.64
-1 8 -3 127.75 3.57
1 -8 3 131.87 4.15
-2 8 -3 476.35 11.25
2 -8 3 478.61 12.13
-3 8 -3 2.22 0.69
3 -8 3 1.03 0.67
4 -8 3 -0.08 0.37
-4 8 -3 0.31 0.38
-4 -7 3 1.04 0.45
4 7 -3 0.13 0.38
3 7 -3 -0.38 0.26
3 7 -3 0.15 0.36
-3 -7 3 0.66 0.47
2 7 -3 0.95 0.41
2 7 -3 0.79 0.36
-2 -7 3 1.11 0.47
1 7 -3 237.28 6.25
-1 -7 3 231.27 5.66
-1 -7 3 243.65 6.16
1 7 -3 236.46 5.73
0 7 -3 230.82 5.62
0 -7 3 234.29 5.8
0 -7 3 232.76 5.89
0 7 -3 230.69 5.77
-1 7 -3 211.1 5.5
1 -7 3 215.85 5.91
-1 7 -3 214.47 5.28
1 -7 3 216.58 5.3
2 -7 3 81.6 3.23
-2 7 -3 79.88 2.56
-2 7 -3 81.98 2.97
3 -7 3 3.27 0.86
-3 7 -3 2.97 0.71
4 -7 3 0.08 0.31
-4 7 -3 0.42 0.26
4 6 -3 0.75 0.47
-4 -6 3 0.27 0.52
3 6 -3 40.39 1.82
3 6 -3 40.21 2.4
-3 -6 3 38.66 2
-2 -6 3 4 0.63
2 6 -3 4.78 0.61
2 6 -3 3.66 0.71
1 6 -3 119.07 3.58
1 6 -3 115.97 3.13
-1 -6 3 113.4 3.4
-1 -6 3 111.84 3.02
0 6 -3 99.35 2.81
0 -6 3 101.87 2.97
0 6 -3 101.34 2.95
0 -6 3 99.91 2.89
1 -6 3 234.17 5.54
1 -6 3 233.43 6.2
-1 6 -3 235.52 5.76
-1 6 -3 233.17 5.6
2 -6 3 178.18 5.38
-2 6 -3 178.55 4.97
-2 6 -3 178.49 4.59
-3 6 -3 9.62 1.11
3 -6 3 9.61 1.24
4 -6 3 6.88 1.16
-4 6 -3 4.66 0.91
5 5 -3 2.86 1.01
4 5 -3 61.43 3.3
-4 -5 3 65.85 2.78
3 5 -3 2.34 0.49
3 5 -3 2.06 0.61
-3 -5 3 3.95 0.67
2 5 -3 14.94 0.9
-2 -5 3 15.11 1.03
-2 -5 3 16.04 0.76
2 5 -3 14.04 1.14
1 5 -3 58.66 2.15
-1 -5 3 55.71 1.73
-1 -5 3 57.32 1.99
0 5 -3 175.22 4.21
0 5 -3 176.87 4.4
0 -5 3 171.05 4.47
0 -5 3 178.45 4.36
1 -5 3 15.81 0.73
-1 5 -3 15.89 0.92
1 -5 3 14.7 1
-1 5 -3 16.33 0.89
-2 5 -3 6.96 0.79
2 -5 3 6.3 0.86
-2 5 -3 7.62 0.67
-3 5 -3 0.49 0.42
-3 5 -3 0.31 0.21
3 -5 3 -0.17 0.28
-4 5 -3 0.81 0.39
4 -5 3 0.26 0.33
5 4 -3 2.22 0.84
-4 -4 3 0.41 0.36
3 4 -3 89.96 2.87
-3 -4 3 88.46 3.09
-2 -4 3 211.7 5.61
2 4 -3 211.07 5.15
-2 -4 3 231.69 5.25
2 4 -3 217.41 5.93
1 4 -3 98.58 2.96
-1 -4 3 94.97 2.79
-1 -4 3 101.04 2.62
0 -4 3 0.42 0.2
0 4 -3 0.81 0.27
0 4 -3 0.23 0.18
0 -4 3 0.25 0.17
-1 4 -3 964.28 20.36
1 -4 3 957.99 21.49
-1 4 -3 976.16 20.15
1 -4 3 993.74 20.46
2 -4 3 220.15 6.06
-2 4 -3 220.89 5.64
-2 4 -3 222.22 5.49
-3 4 -3 1.68 0.52
-3 4 -3 1.91 0.43
3 -4 3 1.8 0.56
-4 4 -3 14.35 1.42
4 -4 3 16.69 1.47
5 3 -3 18.48 2.01
-4 -3 3 23.3 1.55
-4 -3 3 25.26 1.52
-3 -3 3 5.06 0.68
3 3 -3 4.73 0.61
-2 -3 3 1824.53 38.75
2 3 -3 1852.64 37.06
-2 -3 3 1821.48 39.14
1 3 -3 321.52 7.39
-1 -3 3 321.38 7.24
-1 -3 3 310.19 7.29
0 3 -3 47.32 1.3
0 -3 3 44.44 1.34
0 -3 3 45.05 1.5
0 3 -3 45.34 1.52
1 -3 3 262.28 6.4
-1 3 -3 261 5.93
-1 3 -3 260.7 5.98
1 -3 3 255.8 5.61
-2 3 -3 233.31 5.75
-2 3 -3 235.44 5.85
2 -3 3 233.51 6.22
3 -3 3 4.42 0.78
-3 3 -3 3.49 0.58
-3 3 -3 4.89 0.79
4 -3 3 50.66 2.57
-4 3 -3 51.85 2.37
-4 3 -3 51.5 2.58
4 2 -3 3.99 0.74
-4 -2 3 4.12 0.71
-4 -2 3 3.46 0.65
-3 -2 3 3.76 0.59
-3 -2 3 3.97 0.59
-3 -2 3 3.45 0.52
3 2 -3 3.59 0.56
-2 -2 3 448.41 11.75
2 2 -3 552.1 11.23
-2 -2 3 546.32 11.82
2 2 -3 558.35 12.04
1 2 -3 2.83 0.42
-1 -2 3 2.34 0.36
1 2 -3 2.63 0.23
0 -2 3 -0.12 0.11
0 2 -3 0.09 0.2
0 -2 3 0.18 0.16
0 2 -3 -0.08 0.12
-1 2 -3 3435.46 67.09
1 -2 3 3352.24 71.07
-1 2 -3 3268.48 68.03
-2 2 -3 208.13 5.18
2 -2 3 202.04 5.44
-2 2 -3 203.37 5.21
-3 2 -3 1.36 0.4
3 -2 3 1.52 0.48
-3 2 -3 1.05 0.43
4 -2 3 2.41 0.66
-4 2 -3 2.45 0.67
-4 2 -3 2.83 0.63
5 -2 3 1.63 0.59
4 1 -3 11.77 1.17
-4 -1 3 12.49 1.08
-4 -1 3 11.53 1.01
-3 -1 3 1.29 0.41
-3 -1 3 1.81 0.47
-3 -1 3 0.91 0.38
-2 -1 3 527.31 11.77
-2 -1 3 516.44 10.93
-2 -1 3 511.4 11.63
1 1 -3 1657.11 34.38
1 1 -3 1630.15 33.73
-1 -1 3 1739.98 35.13
0 1 -3 518.14 11.16
0 -1 3 541.85 11.26
0 -1 3 530.84 11.61
0 1 -3 522.01 10.79
1 -1 3 198.97 4.95
-1 1 -3 206.88 4.73
-1 1 -3 204.04 4.81
-2 1 -3 75.8 2.53
-2 1 -3 75.52 1.84
2 -1 3 78.85 2.55
-2 1 -3 78.35 2.51
-3 1 -3 13.89 1.04
-3 1 -3 13.73 1.11
3 -1 3 13.53 1.01
-4 1 -3 3.17 0.68
4 -1 3 3.69 0.85
5 -1 3 3.79 1.04
-5 1 -3 6.4 1.03
-4 0 3 1.71 0.53
-4 0 3 1.85 0.51
-4 0 3 2.58 0.61
-4 0 3 2.75 0.57
-3 0 3 0.25 0.26
-3 0 3 0.24 0.26
-3 0 3 -0.03 0.26
-3 0 3 -0.04 0.2
-2 0 3 10.57 0.65
-2 0 3 11.14 0.79
-2 0 3 12.99 0.82
-1 0 3 8.34 0.59
-1 0 3 8.16 0.38
1 0 -3 7.44 0.51
-1 0 3 7.82 0.56
0 0 -3 10.01 0.53
0 0 -3 10.36 0.57
0 0 3 10.4 0.44
0 0 3 10.95 0.58
-1 0 -3 65.77 1.94
1 0 3 62.76 1.85
-1 0 -3 63.5 1.52
-1 0 -3 58.75 1.83
-2 0 -3 431.72 9.3
2 0 3 420.82 9.97
-2 0 -3 446.43 9.79
-2 0 -3 425.62 9.82
3 0 3 5.28 0.65
-3 0 -3 5.02 0.71
3 0 3 2.77 0.68
4 0 3 2.81 0.78
-4 0 -3 2.64 0.66
-5 0 -3 0.14 0.34
5 0 3 0.29 0.59
-4 1 3 0.71 0.39
-4 1 3 0.92 0.37
-3 1 3 5.17 0.65
-3 1 3 4.96 0.69
-3 1 3 4.68 0.6
-3 1 3 4.8 0.63
-2 1 3 93.77 2.62
-2 1 3 96.84 2.87
-2 1 3 99.81 2.96
1 -1 -3 1931.81 39.09
-1 1 3 1892.91 38.45
-1 1 3 1885.2 40.9
1 -1 -3 1967.94 40.42
0 -1 -3 614.14 13.37
0 1 3 643.59 13.61
0 1 3 616.47 12.8
0 -1 -3 620.36 12.99
1 1 3 2.54 0.3
-1 -1 -3 2.75 0.38
1 1 3 1.91 0.35
-1 -1 -3 2.52 0.27
2 1 3 398.91 9.45
-2 -1 -3 402.94 9.3
2 1 3 399.9 9.24
-2 -1 -3 408.72 8.85
-3 -1 -3 0.29 0.28
3 1 3 0.53 0.23
3 1 3 0.17 0.34
-4 -1 -3 3.12 0.72
4 1 3 3.65 0.87
-5 -1 -3 -0.08 0.37
5 1 3 -0.77 0.35
-4 2 3 1 0.43
-3 2 3 9.19 0.86
-3 2 3 11.43 0.95
-3 2 3 8.85 0.71
3 -2 -3 10.1 0.99
-2 2 3 363.38 8.76
2 -2 -3 364.73 8.78
-2 2 3 361.76 8.07
-1 2 3 3.07 0.35
1 -2 -3 2.72 0.41
1 -2 -3 3.22 0.27
-1 2 3 4.72 0.51
0 2 3 278.45 6.22
0 2 3 276.23 5.97
0 -2 -3 267.89 5.88
0 -2 -3 265.27 6.21
1 2 3 306.99 6.88
1 2 3 317.05 6.99
-1 -2 -3 299.28 6.95
-1 -2 -3 302.69 6.85
2 2 3 777.59 16.81
-2 -2 -3 777.81 16.6
-2 -2 -3 761.97 16.74
2 2 3 770.8 16.85
3 2 3 0.61 0.4
-3 -2 -3 1.04 0.4
4 2 3 3.01 0.83
-4 -2 -3 2.94 0.72
5 2 3 4.94 1.09
-5 -2 -3 7.16 1.15
5 -3 -3 1.96 0.73
-4 3 3 1.38 0.44
3 -3 -3 108.78 3.67
-3 3 3 108.86 3.38
-3 3 3 113.49 3.76
-2 3 3 175.39 4.48
-2 3 3 179.53 4.92
2 -3 -3 190.23 4.28
2 -3 -3 172.07 4.89
-1 3 3 229.14 5.34
1 -3 -3 241.7 5.81
-1 3 3 234.68 5.78
0 3 3 119.2 3.05
0 3 3 121.43 3.02
0 -3 -3 116.79 3.14
0 -3 -3 119.81 2.81
-1 -3 -3 1038.32 22.45
1 3 3 1093.11 22.64
-1 -3 -3 1055.48 22.09
1 3 3 1044.01 21.93
2 3 3 16.75 1.12
2 3 3 17.62 0.75
-2 -3 -3 17.07 0.91
-2 -3 -3 16.49 1.07
-3 -3 -3 1.44 0.47
3 3 3 1.95 0.58
4 3 3 49.22 2.72
-4 -3 -3 49.21 2.52
-5 4 3 38.32 2.18
5 -4 -3 33.79 2.56
-4 4 3 0.8 0.42
-3 4 3 127.66 3.83
-3 4 3 129.12 4.24
3 -4 -3 125.27 4.04
2 -4 -3 718.74 16.27
-2 4 3 711.61 15.47
2 -4 -3 754.63 15.07
-2 4 3 710.51 16.54
-1 4 3 397.89 9.25
1 -4 -3 387.75 9.17
-1 4 3 399.76 8.7
0 4 3 363.5 8.14
0 4 3 381.36 8.35
0 -4 -3 359.3 7.83
0 -4 -3 360.05 8.41
-1 -4 -3 245.96 5.96
1 4 3 256.42 6.03
-1 -4 -3 248.36 5.87
1 4 3 244.06 5.56
2 4 3 56.47 2.24
-2 -4 -3 58.68 2.03
-2 -4 -3 55.29 2.19
3 4 3 0.3 0.39
-3 -4 -3 -0.06 0.28
-4 -4 -3 29.2 1.92
4 4 3 30.75 2.11
-5 5 3 0.3 0.42
5 -5 -3 0.16 0.48
-4 5 3 44.65 2.22
-3 5 3 105.11 3.45
-3 5 3 103.06 3.73
3 -5 -3 105.05 3.56
-2 5 3 17.94 1.19
-2 5 3 19.03 1.15
2 -5 -3 16.89 1.15
1 -5 -3 19.23 1.11
-1 5 3 18.34 1.03
-1 5 3 18.89 1.05
0 5 3 390.3 8.77
0 5 3 385.54 8.83
0 -5 -3 389.61 9.06
0 -5 -3 392.13 8.35
-1 -5 -3 273.31 6.43
-1 -5 -3 268.12 6.62
1 5 3 279.32 6.67
2 5 3 150.85 4.41
-2 -5 -3 151.43 4.14
-2 -5 -3 145.03 4.26
-3 -5 -3 13.69 1.19
3 5 3 13.35 1.3
4 5 3 0.67 0.44
-4 -5 -3 1.87 0.56
-5 6 3 0.28 0.41
-4 6 3 -0.11 0.29
4 -6 -3 0.8 0.52
3 -6 -3 100.49 3.48
-3 6 3 94.36 3.65
-3 6 3 99.04 3.4
2 -6 -3 18.2 1.21
-2 6 3 16.96 1.22
-2 6 3 16.87 1.13
1 -6 -3 141.09 4.13
-1 6 3 148.27 4.12
-1 6 3 147.57 4.02
0 6 3 108.73 3.22
0 6 3 105.64 2.94
0 -6 -3 105.85 3.27
0 -6 -3 110.39 2.71
1 6 3 77.56 2.68
-1 -6 -3 72.99 2.53
-1 -6 -3 74.57 2.37
-2 -6 -3 8.39 0.82
-2 -6 -3 10.04 0.95
2 6 3 8.56 0.99
-3 -6 -3 16.15 1.32
-3 -6 -3 17.4 1.21
3 6 3 16.32 1.39
4 6 3 1.65 0.65
-4 -6 -3 1.4 0.61
-4 7 3 0.46 0.4
4 -7 -3 0.75 0.64
3 -7 -3 5.65 0.84
-3 7 3 6.93 0.92
2 -7 -3 -0.04 0.31
-2 7 3 0.58 0.36
-2 7 3 0.13 0.31
1 -7 -3 180.09 4.97
-1 7 3 175.35 4.79
-1 7 3 172.31 4.86
0 -7 -3 0.36 0.19
0 -7 -3 0.06 0.31
0 7 3 0.37 0.4
0 7 3 0.3 0.17
-1 -7 -3 0.3 0.32
-1 -7 -3 0.09 0.21
1 7 3 -0.13 0.37
-2 -7 -3 7.21 0.86
2 7 3 7.31 0.97
-2 -7 -3 7.36 0.84
-3 -7 -3 0.33 0.33
-3 -7 -3 -0.02 0.35
3 7 3 -0.43 0.33
-4 -7 -3 -0.5 0.33
4 7 3 -0.54 0.33
-4 8 3 2.83 0.69
4 -8 -3 2.41 0.92
-3 8 3 13.37 1.19
3 -8 -3 15.93 1.25
3 -8 -3 12.06 1.53
-2 8 3 39.46 1.93
2 -8 -3 35.09 1.87
-2 8 3 38.82 2.01
1 -8 -3 111.87 3.69
-1 8 3 114.85 3.55
-1 8 3 108.88 3.54
0 -8 -3 6.44 0.83
0 8 3 5.85 0.82
0 8 3 5.53 0.58
-1 -8 -3 35.1 1.52
1 8 3 34.26 1.89
-1 -8 -3 35.67 1.79
-2 -8 -3 1.04 0.42
2 8 3 1.05 0.53
-2 -8 -3 1.47 0.51
-3 -8 -3 4.38 0.84
3 8 3 3.38 0.85
-3 -8 -3 5.62 0.81
-4 -8 -3 0.17 0.45
4 8 3 1.2 0.64
4 -9 -3 5.44 1.24
-4 9 3 6.28 1.09
3 -9 -3 9.04 1.37
-3 9 3 7.89 1.07
2 -9 -3 53.68 2.45
2 -9 -3 56.11 2.8
-2 9 3 54.24 2.46
-1 9 3 46.48 2.17
1 -9 -3 48.04 2.24
0 -9 -3 86.9 3.21
0 9 3 86.27 3.18
-1 -9 -3 203.18 5.29
1 9 3 207.87 5.93
-1 -9 -3 202.04 5.85
-2 -9 -3 35.95 1.85
2 9 3 35.86 2.08
-2 -9 -3 38.25 2
-3 -9 -3 2.78 0.65
3 9 3 1.48 0.68
-3 -9 -3 1.61 0.61
4 9 3 5.99 1.23
-4 10 3 6.2 1.09
-3 10 3 1.07 0.42
3 -10 -3 2.32 0.74
2 -10 -3 50.66 2.69
-2 10 3 46.55 2.34
2 -10 -3 46.7 2.35
1 -10 -3 8.21 1.03
1 -10 -3 4.64 0.81
-1 10 3 7.18 0.97
0 -10 -3 48.56 2.34
0 10 3 45.53 2.32
-1 -10 -3 23.38 1.61
1 10 3 20.26 1.59
-2 -10 -3 34.11 1.84
-2 -10 -3 37.05 2.06
2 10 3 38.13 2.24
-3 -10 -3 0.81 0.47
-3 -10 -3 0.78 0.52
3 10 3 -0.02 0.48
3 -11 -3 3.37 0.89
-3 11 3 2.75 0.71
2 -11 -3 4.89 1.03
-2 11 3 7.5 1.06
2 -11 -3 6.42 0.99
1 -11 -3 10.08 1.16
1 -11 -3 14.31 1.35
-1 11 3 14.33 1.36
0 -11 -3 194.2 5.93
0 11 3 191.29 5.82
-1 -11 -3 50.88 2.55
1 11 3 54.19 2.69
-2 -11 -3 26.71 1.8
-2 -11 -3 27.25 1.65
2 11 3 24.43 1.88
3 11 3 2.3 0.91
-3 -11 -3 2.74 0.79
-3 -11 -3 4.42 0.86
-3 12 3 0.97 0.5
3 -12 -3 1.1 0.58
2 -12 -3 -0.31 0.35
-2 12 3 0.89 0.39
2 -12 -3 0.71 0.52
1 -12 -3 28.84 1.9
-1 12 3 26.08 1.82
0 12 3 79.07 3.39
0 -12 -3 78.83 3.4
1 12 3 0.42 0.58
-1 -12 -3 0.34 0.45
-2 -12 -3 5.01 0.88
2 12 3 6.16 1.17
-3 -12 -3 0.84 0.54
2 -13 -3 0.13 0.49
-2 13 3 0.46 0.38
2 -13 -3 0.62 0.41
-1 13 3 4.13 0.9
1 -13 -3 4.56 0.89
0 -13 -3 5.52 0.99
0 13 3 6 1.13
1 13 3 0.18 0.61
-1 -13 -3 1.22 0.6
-2 -13 -3 3.5 0.82
2 13 3 2.32 0.96
2 -14 -3 20.34 1.76
-1 14 3 2.35 0.82
1 -14 -3 2.33 0.78
0 -14 -3 0.66 0.57
0 14 3 -0.3 0.52
1 14 3 -0.54 0.54
-1 -14 -3 0.65 0.57
-1 -15 4 0.18 0.52
0 15 -4 5.78 1.13
0 -15 4 4.03 0.91
-1 15 -4 10.01 1.42
-1 -14 4 1.48 0.68
0 -14 4 2.97 0.73
0 14 -4 3.82 0.92
-1 14 -4 1.04 0.58
-2 14 -4 12.78 1.58
2 -14 4 12.92 1.62
2 13 -4 1.03 0.46
-2 -13 4 1.21 0.68
-1 -13 4 0.17 0.39
0 -13 4 3.69 0.72
0 13 -4 2.18 0.68
1 -13 4 3.08 0.81
-1 13 -4 2.5 0.68
-2 13 -4 -0.21 0.43
2 -13 4 -0.35 0.38
-3 -12 4 0.26 0.51
3 12 -4 0 0.36
-2 -12 4 1.39 0.64
2 12 -4 1.39 0.5
1 12 -4 -0.4 0.39
1 12 -4 0.68 0.37
-1 -12 4 0.44 0.42
0 12 -4 9.9 1.13
0 -12 4 11.77 1.2
1 -12 4 -0.06 0.33
-1 12 -4 1 0.53
-2 12 -4 10.18 1.31
2 -12 4 10.98 1.4
-3 12 -4 0.38 0.43
3 11 -4 1.39 0.61
-3 -11 4 1.82 0.64
2 11 -4 2.04 0.64
-2 -11 4 1.69 0.64
-1 -11 4 15.75 1.31
1 11 -4 12.45 1.25
1 11 -4 13.29 1.17
0 11 -4 74.61 2.87
0 -11 4 75.83 2.95
1 -11 4 0.92 0.48
-1 11 -4 0.83 0.49
2 -11 4 0.62 0.47
-2 11 -4 0.43 0.44
3 -11 4 30.65 2.3
-3 11 -4 34.32 2.24
3 10 -4 9.83 1.39
-3 -10 4 11.96 1.35
2 10 -4 50.44 2.69
-2 -10 4 50.74 2.55
1 10 -4 2.02 0.57
-1 -10 4 1.27 0.51
1 10 -4 0.99 0.42
0 -10 4 19.8 1.28
0 -10 4 19.85 1.32
0 10 -4 16.82 1.22
0 10 -4 19.58 1.3
-1 10 -4 139.27 4.41
1 -10 4 142.68 4.66
2 -10 4 88.07 3.76
-2 10 -4 94.56 3.53
3 -10 4 0.23 0.38
-3 10 -4 -0.08 0.37
-4 -9 4 0 0.49
4 9 -4 0.12 0.33
3 9 -4 1.1 0.45
-3 -9 4 1.48 0.62
2 9 -4 118.94 4.42
-2 -9 4 120.46 4.18
-1 -9 4 12.47 1.1
1 9 -4 12.95 1.11
1 9 -4 12.16 0.97
0 -9 4 0.48 0.29
0 -9 4 1.89 0.48
0 9 -4 0.63 0.39
0 9 -4 0.64 0.36
1 -9 4 42.08 1.78
1 -9 4 43.79 2.15
-1 9 -4 44.19 1.87
-1 9 -4 42.52 2.03
-2 9 -4 5.85 0.93
2 -9 4 4.92 0.96
-3 9 -4 6.35 1.05
3 -9 4 5.74 1.08
4 8 -4 0.44 0.44
-4 -8 4 -0.49 0.38
-3 -8 4 5.1 0.9
3 8 -4 7.32 1.19
-2 -8 4 11.64 1.09
2 8 -4 14.11 1.06
2 8 -4 12.2 1.29
1 8 -4 7.19 0.86
-1 -8 4 8.89 0.92
1 8 -4 8.65 0.81
-1 -8 4 9.55 0.73
0 8 -4 25.35 1.39
0 -8 4 24.91 1.33
0 -8 4 24.71 1.3
0 8 -4 23.34 1.25
-1 8 -4 353.53 8.57
1 -8 4 356.88 9.17
-1 8 -4 360.43 8.47
1 -8 4 366.82 8.43
-2 8 -4 94.79 3.42
2 -8 4 97.7 3.73
-3 8 -4 2.45 0.7
3 -8 4 2.3 0.74
-4 8 -4 0.49 0.49
4 -8 4 1.57 0.64
4 7 -4 1.54 0.74
-4 -7 4 0.46 0.43
3 7 -4 0.73 0.4
-3 -7 4 1.03 0.5
-2 -7 4 21.12 1.39
2 7 -4 22.44 1.57
2 7 -4 24.25 1.29
1 7 -4 0.2 0.23
-1 -7 4 0.69 0.28
-1 -7 4 0.48 0.35
1 7 -4 0.64 0.35
0 -7 4 26.97 1.29
0 7 -4 25.95 1.22
0 7 -4 27.9 1.4
0 -7 4 27.13 1.35
1 -7 4 29.87 1.23
1 -7 4 28.21 1.55
-1 7 -4 29.96 1.42
-1 7 -4 30.4 1.48
-2 7 -4 8.58 0.8
-2 7 -4 6.48 0.89
2 -7 4 7.55 1.04
-3 7 -4 1.05 0.5
3 -7 4 0.55 0.43
4 -7 4 0.07 0.32
-4 7 -4 0.66 0.56
4 6 -4 2.18 0.74
-4 -6 4 2.13 0.61
-3 -6 4 0.55 0.44
3 6 -4 0.11 0.41
-2 -6 4 0.46 0.38
2 6 -4 1.94 0.44
2 6 -4 1.33 0.47
-1 -6 4 164.72 4.4
1 6 -4 174.42 4.82
1 6 -4 180.02 4.27
-1 -6 4 177.92 4.73
0 -6 4 19.99 1.09
0 -6 4 20.65 1.02
0 6 -4 20.5 1
0 6 -4 19.06 1.11
-1 6 -4 5.45 0.66
1 -6 4 5.69 0.48
1 -6 4 6.92 0.79
-1 6 -4 6.56 0.67
2 -6 4 100.6 3.64
-2 6 -4 103.55 3.35
-2 6 -4 102.61 3.13
-3 6 -4 0.71 0.48
3 -6 4 1.23 0.54
4 -6 4 0.32 0.41
-4 6 -4 0.14 0.41
5 5 -4 1.53 0.79
-4 -5 4 4.07 0.75
4 5 -4 4.68 1.02
-3 -5 4 89.98 3.25
3 5 -4 91.07 3.69
-2 -5 4 11.33 0.7
2 5 -4 12.17 0.78
2 5 -4 12.04 1.06
-2 -5 4 11.86 0.96
-1 -5 4 1.72 0.35
1 5 -4 1.56 0.42
-1 -5 4 1.29 0.36
1 5 -4 1.36 0.3
0 -5 4 390.17 9.13
0 5 -4 393.61 8.9
0 5 -4 387.41 8.42
0 -5 4 385.83 8.75
1 -5 4 15.66 0.69
1 -5 4 15.62 1.04
-1 5 -4 15.29 0.94
-1 5 -4 15.88 0.92
-2 5 -4 235.58 5.85
-2 5 -4 230.6 5.99
2 -5 4 232.15 6.47
-3 5 -4 58.61 2.56
3 -5 4 62.26 2.81
-3 5 -4 59.38 2.38
4 -5 4 0.09 0.38
-4 5 -4 0.19 0.26
5 4 -4 1.06 0.71
4 4 -4 2.49 0.81
-4 -4 4 1.64 0.56
-3 -4 4 91.54 3.22
3 4 -4 103.04 3.8
3 4 -4 96.12 2.92
2 4 -4 244.18 6.54
-2 -4 4 236.85 5.93
-2 -4 4 256.76 6.29
1 4 -4 885.23 18.94
-1 -4 4 862.36 19.09
-1 -4 4 895.73 19.27
1 4 -4 890.34 18
0 -4 4 1269.41 26.65
0 4 -4 1287.89 26.39
0 4 -4 1260.26 25.62
0 -4 4 1244.65 27.38
-1 4 -4 223.79 5.4
1 -4 4 220.6 5.76
1 -4 4 214.49 4.89
-1 4 -4 227.24 5.3
-2 4 -4 35.25 1.56
-2 4 -4 33.62 1.61
2 -4 4 37.29 1.79
-3 4 -4 0.6 0.37
-3 4 -4 0.61 0.3
3 -4 4 0.48 0.35
-4 4 -4 0.85 0.44
4 -4 4 1.61 0.6
5 3 -4 18.99 1.97
4 3 -4 2.15 0.7
-4 -3 4 1.31 0.54
3 3 -4 111.69 3.98
-3 -3 4 107.83 3.56
-3 -3 4 118.01 3.38
3 3 -4 112.01 3.27
2 3 -4 983.95 21.2
-2 -3 4 946.65 21.33
-2 -3 4 986.22 21.26
2 3 -4 992.09 20.04
-1 -3 4 33.14 1.26
-1 -3 4 32.12 1.3
1 3 -4 30.16 1.35
0 3 -4 495.25 10.2
0 -3 4 503.44 10.67
0 -3 4 479.96 11.07
0 3 -4 489.49 10.75
1 -3 4 5.92 0.64
-1 3 -4 5.3 0.57
-1 3 -4 6.52 0.55
1 -3 4 5.89 0.28
-2 3 -4 3.01 0.52
-2 3 -4 2.02 0.48
2 -3 4 2.74 0.56
-3 3 -4 4.33 0.66
-3 3 -4 3.65 0.75
3 -3 4 4 0.76
-4 3 -4 0.28 0.43
-4 3 -4 -0.24 0.21
4 -3 4 0.31 0.34
5 2 -4 1.51 0.68
-4 -2 4 0.88 0.46
4 2 -4 1.29 0.53
-3 -2 4 10.73 0.92
3 2 -4 9.65 1.06
3 2 -4 10.44 0.79
-3 -2 4 11.2 0.83
-2 -2 4 1.07 0.39
2 2 -4 0.5 0.17
2 2 -4 0.12 0.23
-2 -2 4 0.52 0.29
-1 -2 4 232.6 5.48
1 2 -4 228.48 5.5
0 -2 4 299.16 6.62
0 2 -4 302.49 6.77
0 -2 4 290.06 6.96
0 2 -4 305.89 6.32
-1 2 -4 43.62 1.58
1 -2 4 41.43 1.59
-1 2 -4 40.63 1.45
-2 2 -4 12.87 0.91
2 -2 4 12.77 0.92
-2 2 -4 12.59 0.92
-3 2 -4 5.71 0.76
-3 2 -4 4.6 0.83
3 -2 4 4.66 0.77
-4 2 -4 0.51 0.32
-4 2 -4 -0.29 0.3
4 -2 4 0.63 0.4
4 1 -4 -0.47 0.21
-4 -1 4 -0.46 0.31
-3 -1 4 27.04 1.4
3 1 -4 26.73 1.58
-3 -1 4 26.14 1.45
-2 -1 4 18.14 1
2 1 -4 18.26 1.07
-2 -1 4 17.01 1.04
-2 -1 4 17.38 0.77
-1 -1 4 221.55 5.23
1 1 -4 213.01 5.14
0 1 -4 780.02 16.6
0 -1 4 806 16.74
0 1 -4 792.64 16.05
0 -1 4 789.5 17.27
-1 1 -4 819.03 17.21
-1 1 -4 816.68 16.88
1 -1 4 803.07 17.88
-2 1 -4 5.01 0.64
-2 1 -4 5.43 0.68
2 -1 4 6.17 0.66
3 -1 4 9.75 0.89
-3 1 -4 9.93 1.07
-3 1 -4 12.06 1.02
4 -1 4 16.31 1.65
-4 1 -4 14.13 1.22
-5 1 -4 0.12 0.38
-4 0 4 0.06 0.36
-4 0 4 0.77 0.36
4 0 -4 -0.05 0.26
-3 0 4 3.49 0.6
3 0 -4 2.49 0.5
-3 0 4 3.34 0.58
-3 0 4 2.57 0.5
-2 0 4 182.32 4.8
-2 0 4 179.22 4.16
2 0 -4 174.81 4.57
-2 0 4 176.84 4.71
1 0 -4 81.6 2.23
-1 0 4 78.98 1.82
-1 0 4 78.43 2.31
0 0 4 1398.13 29.7
0 0 -4 1359.3 28.44
0 0 -4 1418.59 29.14
0 0 4 1365.99 27.89
1 0 4 1409.36 28.94
1 0 4 1397.96 30.33
-1 0 -4 1437.49 29.26
-1 0 -4 1403.66 29.47
2 0 4 28.34 1.28
2 0 4 27.55 1.49
-2 0 -4 26.05 1.35
3 0 4 4.53 0.84
-3 0 -4 5.89 0.8
3 0 4 5.08 0.67
-4 0 -4 4.95 0.87
4 0 4 4.69 1
-5 0 -4 1 0.51
4 -1 -4 0.2 0.36
-4 1 4 0.73 0.44
-4 1 4 0.08 0.3
3 -1 -4 47.65 2.07
-3 1 4 54.21 2.17
-3 1 4 53.76 1.98
-3 1 4 55.48 2.24
-2 1 4 190.92 4.47
-2 1 4 187.67 4.92
2 -1 -4 190.05 4.72
-2 1 4 191.62 5.07
1 -1 -4 324.17 7.09
-1 1 4 324.28 6.84
-1 1 4 326.09 7.62
0 -1 -4 220.46 5.28
0 -1 -4 218.32 5.08
0 1 4 231.2 4.97
0 1 4 230.25 5.36
-1 -1 -4 542.09 11.54
1 1 4 531.86 11.94
1 1 4 534.89 11.64
-1 -1 -4 546.26 11.74
2 1 4 8.35 0.89
-2 -1 -4 10.93 0.56
2 1 4 10.14 0.7
-2 -1 -4 10 0.84
3 1 4 43.16 2.28
-3 -1 -4 41.75 2.03
-4 -1 -4 1.58 0.48
4 1 4 0.55 0.46
-4 2 4 1.29 0.42
-4 2 4 1.86 0.57
4 -2 -4 0.13 0.41
3 -2 -4 1.16 0.48
-3 2 4 1.19 0.39
3 -2 -4 1.17 0.34
-3 2 4 2.39 0.61
-2 2 4 1.53 0.42
2 -2 -4 1.31 0.44
2 -2 -4 1.94 0.31
-2 2 4 2.13 0.37
1 -2 -4 142.05 3.27
-1 2 4 138.91 3.76
-1 2 4 142.77 3.34
1 -2 -4 140.46 3.89
0 2 4 189.44 4.37
0 -2 -4 186.76 4.31
0 2 4 184.71 4.57
0 -2 -4 191.24 4.61
1 2 4 536.86 11.79
-1 -2 -4 524.95 11.56
-1 -2 -4 537.07 11.63
1 2 4 532.44 11.56
2 2 4 106.97 2.89
2 2 4 104.76 3.39
-2 -2 -4 102.34 2.78
-2 -2 -4 100.24 3.22
3 2 4 6.9 1.01
-3 -2 -4 6.96 0.91
4 2 4 15.77 1.64
-4 -2 -4 15.81 1.38
5 -3 -4 10.68 1.58
4 -3 -4 2.33 0.65
-4 3 4 3.08 0.65
-4 3 4 2.43 0.68
-3 3 4 112.5 3.81
-3 3 4 113.52 3.43
3 -3 -4 117.33 3.97
2 -3 -4 540.94 12.61
-2 3 4 547.85 11.69
2 -3 -4 544.05 11.5
-2 3 4 528.12 12.62
-1 3 4 260.82 6.36
-1 3 4 252.14 5.79
1 -3 -4 248.55 6.35
1 -3 -4 260.73 5.48
0 3 4 29.77 1.18
0 3 4 29.87 1.12
0 -3 -4 28.28 1.01
0 -3 -4 28.1 1.22
1 3 4 76.08 2.13
-1 -3 -4 78.13 2.28
-1 -3 -4 79.42 2.38
1 3 4 75.13 2.42
-2 -3 -4 55.97 2.15
2 3 4 51.31 2.18
2 3 4 55.76 1.71
-2 -3 -4 53.38 1.82
-3 -3 -4 -0.22 0.2
3 3 4 0.15 0.32
4 3 4 7.8 1.25
-4 -3 -4 9.37 1.21
5 -4 -4 1.13 0.73
-4 4 4 2.13 0.57
-4 4 4 1.98 0.62
3 -4 -4 184.26 5.6
-3 4 4 197.39 5.18
-3 4 4 196.65 5.74
-2 4 4 43.07 1.93
-2 4 4 44.07 1.73
2 -4 -4 43.95 2.01
-1 4 4 9.01 0.71
1 -4 -4 9.69 0.8
-1 4 4 9 0.71
0 4 4 296.05 6.77
0 4 4 288.43 6.81
0 -4 -4 294.54 6.43
0 -4 -4 291.61 7
-1 -4 -4 355.6 8.24
1 4 4 350.92 8.23
-1 -4 -4 350.3 8.1
1 4 4 366.29 8
-2 -4 -4 25.48 1.42
2 4 4 28.98 1.55
-2 -4 -4 25.72 1.22
3 4 4 -0.11 0.3
-3 -4 -4 0.06 0.29
-4 -4 -4 5.74 1
4 4 4 6.37 1.16
5 -5 -4 2.22 0.97
-4 5 4 13.4 1.45
-4 5 4 16.82 1.27
-3 5 4 0.85 0.39
-3 5 4 0.89 0.46
3 -5 -4 1.5 0.54
2 -5 -4 221.2 6.09
-2 5 4 226.31 6.16
-2 5 4 229.71 5.71
-1 5 4 297.82 7.31
1 -5 -4 290.51 7.33
-1 5 4 301.15 6.94
0 5 4 700.73 15.1
0 -5 -4 672.55 14.26
0 5 4 675.06 14.63
0 -5 -4 674.52 15.15
1 5 4 19.07 1.14
-1 -5 -4 18.17 1.05
-1 -5 -4 17.82 0.98
1 5 4 17.12 0.71
-2 -5 -4 4.27 0.56
-2 -5 -4 4.69 0.7
2 5 4 3.91 0.74
3 5 4 50.94 2.51
-3 -5 -4 45.83 2.31
-4 -5 -4 2.63 0.69
4 5 4 0.92 0.58
-4 6 4 16.46 1.31
-3 6 4 134.69 4.6
3 -6 -4 130.32 4.39
-3 6 4 134.6 4.15
-2 6 4 10.64 0.92
2 -6 -4 11.13 1
-2 6 4 13.97 1.09
-1 6 4 11.19 0.89
1 -6 -4 10.08 0.89
-1 6 4 9.49 0.78
0 6 4 26.45 1.15
0 6 4 27.75 1.42
0 -6 -4 28.9 1.45
0 -6 -4 25.99 1.01
1 6 4 1.25 0.44
-1 -6 -4 0.09 0.33
-1 -6 -4 0.6 0.27
-2 -6 -4 3.07 0.61
2 6 4 1.92 0.56
-2 -6 -4 1.91 0.47
-3 -6 -4 21.54 1.54
3 6 4 19.67 1.56
4 6 4 0.45 0.46
-4 -6 -4 0.65 0.53
-4 7 4 22.97 1.62
-3 7 4 1.84 0.61
-3 7 4 3.42 0.7
3 -7 -4 2.91 0.66
-2 7 4 4.69 0.81
-2 7 4 3.91 0.69
2 -7 -4 5.09 0.77
1 -7 -4 57.09 2.31
-1 7 4 51.84 2.14
-1 7 4 56.32 2.18
0 7 4 55.58 2.25
0 -7 -4 55.63 1.7
0 -7 -4 54.06 2.25
0 7 4 57.88 1.93
-1 -7 -4 54.28 2.2
-1 -7 -4 48.93 1.91
1 7 4 56.3 2.33
-2 -7 -4 0.15 0.32
2 7 4 0.39 0.44
-2 -7 -4 -0.05 0.28
3 7 4 0.27 0.4
-3 -7 -4 0.39 0.38
4 7 4 2.26 0.79
-4 -7 -4 1.58 0.74
-4 8 4 8.44 1.16
4 -8 -4 7.27 1.34
-3 8 4 42.76 2.37
-3 8 4 43.12 2.18
3 -8 -4 37.22 2.08
-2 8 4 1.93 0.56
-2 8 4 2.76 0.63
2 -8 -4 2.09 0.56
-1 8 4 82.29 3.01
-1 8 4 88.8 3
1 -8 -4 87.79 3.18
0 8 4 11.55 0.77
0 -8 -4 11.04 1.08
0 8 4 12.59 1.15
1 8 4 7.93 1.06
-1 -8 -4 8.15 0.94
-1 -8 -4 7.47 0.74
-2 -8 -4 6.34 0.84
2 8 4 5.25 0.96
-2 -8 -4 6.34 0.85
3 8 4 1.07 0.6
-3 -8 -4 0.2 0.39
-3 -8 -4 0.65 0.43
-4 -8 -4 6.95 1.2
4 8 4 5.3 1.21
4 -9 -4 -0.64 0.45
-4 9 4 1.05 0.51
3 -9 -4 2.01 0.59
-3 9 4 1.03 0.4
2 -9 -4 6 0.91
-2 9 4 6.78 0.91
-2 9 4 7.85 1.01
-1 9 4 3.08 0.71
1 -9 -4 2.66 0.64
-1 9 4 2.53 0.57
0 9 4 69.47 2.82
0 -9 -4 69.85 2.87
1 9 4 285.7 7.66
-1 -9 -4 285.9 6.98
-1 -9 -4 285.25 7.65
-2 -9 -4 0.11 0.33
2 9 4 0.27 0.44
-2 -9 -4 0.14 0.39
3 9 4 2.03 0.79
-3 -9 -4 2.14 0.66
-3 -9 -4 0.72 0.48
-4 10 4 0.57 0.4
3 -10 -4 -0.42 0.37
3 -10 -4 0.54 0.48
-3 10 4 0.17 0.24
-2 10 4 51.3 2.47
2 -10 -4 55.63 2.64
1 -10 -4 7.07 1
-1 10 4 6.82 0.88
-1 10 4 5.62 0.92
0 -10 -4 86.7 3.39
0 10 4 86.97 3.35
1 10 4 0.12 0.53
-1 -10 -4 0.61 0.48
-2 -10 -4 43.08 2.31
2 10 4 48.16 2.59
-2 -10 -4 47.05 2.2
-3 -10 -4 13.53 1.32
-3 -10 -4 12.14 1.34
3 10 4 10.13 1.44
3 -11 -4 0.43 0.5
-3 11 4 0.14 0.35
2 -11 -4 -0.54 0.4
-2 11 4 -0.07 0.29
2 -11 -4 0.4 0.48
-1 11 4 28.9 1.85
1 -11 -4 31.04 1.98
0 -11 -4 -0.13 0.47
0 11 4 1.09 0.55
-1 -11 -4 49.17 2.58
1 11 4 59.37 2.85
2 11 4 3.83 0.96
-2 -11 -4 5.06 0.85
-3 -11 -4 27.6 1.94
-3 -11 -4 32.36 2.08
3 11 4 32.05 2.31
3 -12 -4 1.52 0.62
-3 12 4 2.94 0.7
2 -12 -4 0.81 0.51
2 -12 -4 1.84 0.67
-2 12 4 1.98 0.65
1 -12 -4 0.39 0.57
-1 12 4 -0.14 0.28
0 12 4 0.83 0.53
0 -12 -4 0.5 0.61
-1 -12 -4 1.9 0.65
1 12 4 1.82 0.74
2 12 4 1.28 0.77
-2 -12 -4 2.49 0.72
-2 13 4 5.82 1.05
2 -13 -4 8.04 1.21
1 -13 -4 94.13 4.03
-1 13 4 103.9 4.08
0 13 4 -0.27 0.47
0 -13 -4 0.65 0.51
1 13 4 7.68 1.35
-1 -13 -4 9.07 1.2
-2 -13 -4 12.17 1.39
2 13 4 10.33 1.52
2 -14 -4 9.51 1.32
-1 14 4 3.78 0.94
1 -14 -4 3.95 0.97
0 14 4 0.42 0.62
0 -14 -4 0.76 0.6
1 14 4 15.78 1.8
-1 -15 5 1.86 0.74
-1 15 -5 0.98 0.62
2 14 -5 3.02 0.75
-1 -14 5 1.72 0.7
-1 14 -5 2.37 0.79
2 -14 5 3.51 0.98
2 13 -5 -0.49 0.3
-2 -13 5 0.07 0.43
-1 -13 5 1.4 0.57
0 -13 5 0.97 0.48
0 13 -5 0.09 0.45
1 -13 5 -0.62 0.26
-1 13 -5 0 0.45
2 -13 5 -0.05 0.4
-2 13 -5 0.84 0.6
3 12 -5 5.27 1.11
-3 -12 5 5.76 1.1
2 12 -5 2.81 0.79
-2 -12 5 3.46 0.87
-1 -12 5 10.88 1.2
1 12 -5 9.61 1.17
0 -12 5 2.71 0.67
0 12 -5 3.09 0.73
1 -12 5 11.23 1.32
-1 12 -5 15.41 1.35
-2 12 -5 37.53 2.26
2 -12 5 37.81 2.41
3 11 -5 3.18 0.83
-3 -11 5 5.7 1.02
-2 -11 5 0.61 0.55
2 11 -5 0.52 0.32
1 11 -5 14.97 1.28
-1 -11 5 14.65 1.26
0 -11 5 65.02 2.68
0 11 -5 63.52 2.7
0 -11 5 67.1 2.72
0 11 -5 66.06 2.63
1 -11 5 11.63 1.27
-1 11 -5 12.75 1.27
2 -11 5 13.35 1.53
-2 11 -5 14.44 1.44
-3 11 -5 40.51 2.46
3 -11 5 41.77 2.71
3 10 -5 6.71 1.23
-3 -10 5 6.71 1.04
-2 -10 5 0.19 0.45
2 10 -5 0.83 0.42
-1 -10 5 26.78 1.65
1 10 -5 27.45 1.51
1 10 -5 26.39 1.69
0 -10 5 296.78 7.68
0 -10 5 301.03 7.87
0 10 -5 302.08 7.75
0 10 -5 297.34 7.43
-1 10 -5 510.83 11.98
1 -10 5 513.05 12.76
2 -10 5 11.2 1.38
-2 10 -5 13.53 1.39
-3 10 -5 1.6 0.69
3 -10 5 1.77 0.67
-4 -9 5 -0.21 0.59
4 9 -5 0.4 0.46
-3 -9 5 5.09 0.91
3 9 -5 3.63 0.87
2 9 -5 1.22 0.48
-2 -9 5 1.53 0.58
1 9 -5 10.98 1.13
1 9 -5 11.58 0.91
-1 -9 5 11.41 1.05
0 9 -5 1.1 0.43
0 -9 5 0.46 0.36
0 9 -5 0.02 0.29
0 -9 5 0.52 0.35
-1 9 -5 15.72 1.23
-1 9 -5 17.31 1.19
1 -9 5 15.77 1.27
2 -9 5 25.57 1.79
-2 9 -5 26.15 1.7
3 -9 5 0.6 0.48
-3 9 -5 0.32 0.41
-4 -8 5 0.18 0.43
4 8 -5 0.4 0.44
-3 -8 5 7.49 1.03
3 8 -5 6.32 1.14
-2 -8 5 0.67 0.44
2 8 -5 0.82 0.41
-1 -8 5 27.03 1.31
1 8 -5 26.61 1.59
-1 -8 5 27.57 1.55
1 8 -5 27.01 1.3
0 -8 5 1.66 0.44
0 8 -5 0.82 0.33
0 -8 5 0.91 0.37
0 8 -5 0.9 0.43
-1 8 -5 642.59 14.32
-1 8 -5 647.85 14.21
1 -8 5 633.68 15.21
-2 8 -5 1.43 0.53
2 -8 5 1.35 0.54
3 -8 5 0.27 0.36
-3 8 -5 0.4 0.43
-4 8 -5 1.64 0.69
4 -8 5 2.68 0.85
-4 -7 5 8.17 1.06
4 7 -5 7.68 1.34
-3 -7 5 4.56 0.8
3 7 -5 3.79 0.94
-2 -7 5 9.11 0.99
2 7 -5 6.63 0.97
-1 -7 5 1.62 0.45
1 7 -5 1.7 0.5
-1 -7 5 2.1 0.43
1 7 -5 1.49 0.39
0 7 -5 24.67 1.16
0 -7 5 21.54 1.25
0 -7 5 23.09 1.17
0 7 -5 22.63 1.31
-1 7 -5 24.87 1.33
1 -7 5 23.73 1.45
-1 7 -5 25.57 1.38
-2 7 -5 6.03 0.7
2 -7 5 6.4 0.96
-2 7 -5 5.21 0.82
3 -7 5 3.53 0.85
-3 7 -5 4.29 0.89
4 -7 5 11.34 1.52
-4 7 -5 10.3 1.38
4 6 -5 9.01 1.38
-4 -6 5 14.15 1.36
3 6 -5 0.7 0.45
-3 -6 5 0.17 0.37
2 6 -5 68.29 2.9
-2 -6 5 73.74 2.72
-1 -6 5 79.35 2.59
1 6 -5 85.3 2.35
1 6 -5 86.79 2.99
-1 -6 5 84.95 2.76
0 -6 5 45.48 1.82
0 6 -5 44.93 1.86
0 -6 5 43.59 1.64
0 6 -5 45.54 1.59
-1 6 -5 118.37 3.38
1 -6 5 116.35 3.75
1 -6 5 117.64 3.03
-1 6 -5 118.24 3.48
-2 6 -5 2.33 0.52
2 -6 5 2.97 0.68
-2 6 -5 2.65 0.61
-3 6 -5 9.64 1.12
3 -6 5 10.19 1.25
-3 6 -5 11.45 0.96
4 -6 5 6.92 1.17
-4 6 -5 5.44 1.08
5 5 -5 1.28 0.7
-5 -5 5 2.26 0.72
4 5 -5 13.8 1.59
-4 -5 5 15.91 1.34
3 5 -5 132.88 4.76
-3 -5 5 136.01 4.26
-2 -5 5 9.48 0.89
2 5 -5 12.9 1.13
2 5 -5 11.66 0.73
-1 -5 5 138.13 3.82
-1 -5 5 133.62 3.68
1 5 -5 133.5 3.97
1 5 -5 133.1 3.2
0 5 -5 51.6 1.63
0 -5 5 50.28 1.69
0 5 -5 51.58 1.96
0 -5 5 52.91 1.93
1 -5 5 102.63 3.34
-1 5 -5 103.8 2.99
-1 5 -5 101.48 3.12
1 -5 5 105.63 2.6
-2 5 -5 7.49 0.81
-2 5 -5 6.7 0.82
2 -5 5 6.53 0.88
3 -5 5 27.39 1.81
-3 5 -5 26.1 1.68
-3 5 -5 30.99 1.65
-4 5 -5 7.57 1.21
4 -5 5 7.72 1.19
5 4 -5 3.16 0.95
-4 -4 5 21.95 1.5
4 4 -5 17.44 1.74
3 4 -5 12.96 1.33
-3 -4 5 12.66 1.09
2 4 -5 378.59 9.19
-2 -4 5 366.63 8.94
-2 -4 5 372.82 8.78
1 4 -5 0.46 0.27
-1 -4 5 -0.07 0.23
-1 -4 5 -0.09 0.2
1 4 -5 0.39 0.17
0 4 -5 615.13 13.48
0 4 -5 631.79 12.82
0 -4 5 607.92 13.36
0 -4 5 613.51 13.93
-1 4 -5 6.91 0.64
1 -4 5 6.63 0.74
1 -4 5 6.05 0.35
-1 4 -5 5.32 0.64
2 -4 5 14.78 1.15
-2 4 -5 17.92 1.13
-2 4 -5 16.9 1.12
-3 4 -5 1.09 0.41
-3 4 -5 0.73 0.45
3 -4 5 1.16 0.48
4 -4 5 52.04 2.67
-4 4 -5 49.22 2.41
-4 4 -5 43.64 2.54
5 3 -5 2.71 0.91
-4 -3 5 0.34 0.43
4 3 -5 0.08 0.44
3 3 -5 267.88 7.31
-3 -3 5 272.13 6.78
-3 -3 5 250.19 6.85
-2 -3 5 0.62 0.34
-2 -3 5 0.7 0.29
2 3 -5 0.23 0.14
2 3 -5 0.34 0.29
1 3 -5 623.03 12.82
-1 -3 5 642.29 14.12
1 3 -5 646.25 13.86
-1 -3 5 610.54 13.83
0 3 -5 54.38 1.47
0 3 -5 49.74 1.83
0 -3 5 54.43 1.88
0 -3 5 52.25 1.58
-1 3 -5 630.03 13.27
-1 3 -5 623.21 13.61
1 -3 5 615.31 14.21
2 -3 5 22.56 1.34
-2 3 -5 22.07 1.27
-2 3 -5 22.67 1.27
-3 3 -5 13.73 1.29
-3 3 -5 14.99 1.15
3 -3 5 17.17 1.29
-4 3 -5 20.79 1.7
4 -3 5 25.59 1.78
-4 3 -5 24.44 1.65
5 2 -5 1.15 0.68
-4 -2 5 1.95 0.57
4 2 -5 1.47 0.61
-3 -2 5 30.57 1.5
-3 -2 5 25.21 1.51
3 2 -5 27.69 1.69
2 2 -5 421.65 9.64
-2 -2 5 398.53 9.6
-2 -2 5 402.51 9.57
2 2 -5 413.59 8.64
-1 -2 5 222.41 5.19
-1 -2 5 187.32 5.25
1 2 -5 222.02 5.26
0 -2 5 1907.77 39.38
0 2 -5 1915.2 38.83
0 -2 5 1873.95 40.41
0 2 -5 1855 37.81
1 -2 5 359.29 8.55
-1 2 -5 357.03 7.93
-1 2 -5 355.51 8.22
-2 2 -5 80.57 2.78
2 -2 5 84.25 2.86
-2 2 -5 84.15 2.81
3 -2 5 6.48 0.87
-3 2 -5 7.25 0.99
-3 2 -5 7.9 0.92
-4 2 -5 89.51 3.55
-4 -1 5 5.95 0.85
4 1 -5 3.03 0.73
3 1 -5 20.6 1.36
-3 -1 5 22.57 1.41
-3 -1 5 24.26 1.34
-2 -1 5 2.94 0.53
-2 -1 5 3.13 0.32
2 1 -5 3.39 0.53
-2 -1 5 3.13 0.52
1 1 -5 45.53 1.63
-1 -1 5 45.4 1.63
0 -1 5 585.59 13.29
0 -1 5 598.77 12.78
0 -1 5 593.09 12.27
0 1 -5 602.53 12.82
1 -1 5 62.08 2.07
-1 1 -5 60.6 1.93
-1 1 -5 60.89 1.5
-1 1 -5 61.38 2.08
2 -1 5 91.48 2.95
-2 1 -5 88.72 2.97
-2 1 -5 91.59 2.96
-3 1 -5 67.41 2.73
3 -1 5 67.74 2.64
-4 1 -5 4.15 0.82
4 -1 5 3.57 0.94
-4 0 5 0.81 0.42
4 0 -5 1.51 0.53
-4 0 5 2.19 0.6
-3 0 5 0.47 0.27
-3 0 5 -0.17 0.32
-3 0 5 0.29 0.35
3 0 -5 0.35 0.21
-2 0 5 60.45 2.22
-2 0 5 62.01 1.73
2 0 -5 60.22 2.11
-2 0 5 62.61 2.24
-1 0 5 2.05 0.39
-1 0 5 2.96 0.23
1 0 -5 2.69 0.37
-1 0 5 1.78 0.42
0 0 5 254.01 6.25
0 0 -5 265.78 6.14
0 0 5 268.79 5.7
0 0 -5 258.19 6.01
1 0 5 268 6.52
1 0 5 272.47 6.42
-1 0 -5 268.24 5.96
-1 0 -5 277.52 6.46
-2 0 -5 19.57 1.21
2 0 5 18.66 1.07
2 0 5 17.9 1.23
-3 0 -5 3.68 0.69
3 0 5 2.92 0.75
3 0 5 4.49 0.67
4 0 5 3.21 0.88
-4 0 -5 2.6 0.7
-4 1 5 23.42 1.56
4 -1 -5 23.55 1.84
-3 1 5 57.29 1.98
-3 1 5 53.83 2.31
3 -1 -5 53.36 2.16
2 -1 -5 2.31 0.39
-2 1 5 5.93 0.72
-2 1 5 2.44 0.34
2 -1 -5 1.81 0.47
-1 1 5 153.35 3.46
-1 1 5 151.67 4.09
1 -1 -5 154.76 3.74
-1 1 5 152.13 4.1
1 -1 -5 157.16 4.31
0 -1 -5 43.3 1.56
0 -1 -5 44.79 1.49
0 1 5 45.08 1.58
0 1 5 44.04 1.38
-1 -1 -5 0.31 0.17
-1 -1 -5 0.18 0.21
1 1 5 -0.06 0.18
1 1 5 0.18 0.15
-2 -1 -5 2.63 0.54
2 1 5 5.99 0.61
2 1 5 4.81 0.74
3 1 5 79.45 3.36
-3 -1 -5 82.61 3.13
-4 -1 -5 9.93 1.19
4 1 5 6.83 1.2
4 -2 -5 -0.09 0.32
-4 2 5 -0.3 0.29
-3 2 5 90.18 2.82
3 -2 -5 95.33 3.59
-3 2 5 87.41 3.24
2 -2 -5 17.54 0.85
2 -2 -5 19.04 1.29
-2 2 5 17.76 0.89
-2 2 5 13.79 1.01
-1 2 5 282.49 6.35
-1 2 5 295.77 7.09
1 -2 -5 295.53 7.21
1 -2 -5 291.67 6.42
0 -2 -5 210.09 5.23
0 2 5 213.76 4.94
0 -2 -5 213.63 4.96
0 2 5 211.4 5.22
1 2 5 112.95 3.24
-1 -2 -5 110.46 2.98
-1 -2 -5 120.97 3.28
1 2 5 114.72 3.1
2 2 5 2.07 0.38
-2 -2 -5 1.94 0.51
2 2 5 1.61 0.47
3 2 5 123.23 4.39
-3 -2 -5 123.11 4.14
4 2 5 25.47 1.99
-4 -2 -5 25.73 1.83
-4 3 5 0.09 0.44
4 -3 -5 0.52 0.46
3 -3 -5 6.65 0.97
-3 3 5 6.18 0.89
-3 3 5 7.83 0.79
-2 3 5 688.19 14.56
-2 3 5 681.63 15.81
2 -3 -5 699.79 14.46
2 -3 -5 675.17 15.79
-1 3 5 648.22 14.82
1 -3 -5 659.58 14.83
-1 3 5 661.23 13.8
1 -3 -5 661.28 13.69
0 -3 -5 1518.47 32.79
0 3 5 1543.64 31.53
0 3 5 1579.85 33.27
0 -3 -5 1549.93 31.77
1 3 5 794.87 16.91
1 3 5 793.51 17.34
-1 -3 -5 800.96 17.02
-1 -3 -5 783.03 17.15
2 3 5 14.5 1.13
2 3 5 16.84 0.88
-2 -3 -5 17.94 0.92
-2 -3 -5 15.98 1.14
-3 -3 -5 0.52 0.4
3 3 5 0.06 0.36
4 3 5 38.57 2.51
-4 -3 -5 34.97 2.18
5 -4 -5 -0.21 0.49
-4 4 5 13.58 1.1
-4 4 5 13.91 1.48
4 -4 -5 14.41 1.4
-3 4 5 107.99 3.86
3 -4 -5 106.04 3.88
-3 4 5 112.76 3.43
-2 4 5 41.24 1.92
-2 4 5 43.77 1.71
2 -4 -5 44.5 2.09
-1 4 5 36.69 1.62
-1 4 5 33.99 1.4
1 -4 -5 35.56 1.68
1 -4 -5 37.51 1.04
0 -4 -5 322.02 7.15
0 -4 -5 328.13 7.72
0 4 5 313.02 7.55
0 4 5 327.83 7.45
1 4 5 579.65 12.92
-1 -4 -5 581.01 13.06
1 4 5 590.86 12.98
-1 -4 -5 593.97 12.89
2 4 5 0.53 0.29
-2 -4 -5 0.38 0.26
-2 -4 -5 0 0.25
-3 -4 -5 29.19 1.81
3 4 5 26.91 1.84
-4 -4 -5 29.65 2.04
4 4 5 33.12 2.31
4 -5 -5 1.31 0.63
-4 5 5 1.55 0.63
-4 5 5 2.28 0.58
-3 5 5 49.79 2.37
3 -5 -5 45.95 2.39
-3 5 5 46.33 2.03
-2 5 5 16.45 1.2
-2 5 5 16.3 1.09
2 -5 -5 17.43 1.26
-1 5 5 117.14 3.31
-1 5 5 118.89 3.54
1 -5 -5 115.52 3.65
0 -5 -5 192.57 5.16
0 5 5 192.28 4.9
0 5 5 196.65 5.03
0 -5 -5 196.55 4.57
1 5 5 0.61 0.21
-1 -5 -5 0.75 0.28
1 5 5 0.68 0.33
-1 -5 -5 0.86 0.34
-2 -5 -5 -0.13 0.25
2 5 5 0.09 0.23
-2 -5 -5 0.03 0.24
-3 -5 -5 6.49 0.95
3 5 5 7.1 1.08
-4 -5 -5 0.27 0.45
4 5 5 -0.51 0.39
-4 6 5 12.74 1.46
-4 6 5 9.74 1.13
-3 6 5 15.16 1.33
3 -6 -5 15.76 1.34
-3 6 5 14.27 1.12
-2 6 5 40.39 1.98
2 -6 -5 39.23 2
-2 6 5 41.69 1.83
-1 6 5 2.23 0.48
-1 6 5 1.94 0.51
1 -6 -5 1.72 0.51
0 -6 -5 125.13 3.18
0 6 5 125.4 3.74
0 6 5 126.99 3.51
0 -6 -5 125.36 3.83
1 6 5 104.18 3.46
-1 -6 -5 105.27 3.13
-1 -6 -5 104.7 3.32
2 6 5 7.17 0.97
-2 -6 -5 6.26 0.83
-2 -6 -5 7.82 0.83
-3 -6 -5 11.2 1.25
3 6 5 11.11 1.35
4 6 5 16.74 1.8
-4 -6 -5 13.47 1.56
-4 7 5 0.65 0.53
-4 7 5 1.35 0.42
-3 7 5 9.76 1.23
3 -7 -5 10.89 1.18
-3 7 5 11.5 1.12
-2 7 5 1.78 0.55
2 -7 -5 2.19 0.6
-2 7 5 1.61 0.52
-1 7 5 128.84 3.88
1 -7 -5 130.55 4.09
-1 7 5 119.85 3.75
0 7 5 319.31 7.9
0 -7 -5 326.17 8.16
0 7 5 322.53 7.74
-1 -7 -5 54.16 2.01
-1 -7 -5 50.31 2.2
1 7 5 53.25 2.34
-2 -7 -5 76.66 2.84
-2 -7 -5 72.91 2.86
2 7 5 80.72 3.17
3 7 5 5.18 1.04
-3 -7 -5 4.86 0.9
-4 -7 -5 1.52 0.74
4 7 5 1.37 0.77
-4 8 5 3.78 0.79
-3 8 5 57.89 2.61
-3 8 5 55.58 2.81
3 -8 -5 64.3 2.85
-2 8 5 -0.17 0.26
2 -8 -5 -0.3 0.34
-2 8 5 0.05 0.26
1 -8 -5 5.89 0.87
-1 8 5 6.34 0.81
-1 8 5 5.57 0.83
0 8 5 111.6 3.68
0 8 5 109.57 3.24
0 -8 -5 109.11 3.77
-1 -8 -5 97.21 2.96
1 8 5 85.84 3.35
-1 -8 -5 92.2 3.32
2 8 5 48.12 2.48
-2 -8 -5 50.5 2.25
-2 -8 -5 49.95 2.28
-3 -8 -5 4.42 0.89
3 8 5 2.83 0.85
4 -9 -5 2.18 0.85
-4 9 5 2.02 0.57
-3 9 5 1.92 0.63
-3 9 5 2.53 0.63
3 -9 -5 1.81 0.67
2 -9 -5 0.49 0.49
-2 9 5 0.67 0.43
-2 9 5 0.62 0.35
-1 9 5 8.13 1
-1 9 5 7.92 0.9
1 -9 -5 7.15 0.99
0 -9 -5 109.29 3.92
0 9 5 115.1 3.89
1 9 5 1.16 0.53
-1 -9 -5 0.87 0.5
-2 -9 -5 61.43 2.68
-2 -9 -5 60.89 2.56
2 9 5 58.69 2.87
3 9 5 0.19 0.51
-3 -9 -5 -0.18 0.37
-4 10 5 -0.08 0.42
3 -10 -5 8.14 1.12
-3 10 5 6.95 0.98
2 -10 -5 -0.03 0.41
-2 10 5 0.09 0.36
-2 10 5 0.43 0.35
-1 10 5 95.02 3.38
-1 10 5 97.94 3.6
1 -10 -5 95.84 3.7
0 10 5 51.43 2.51
0 -10 -5 51.34 2.54
1 10 5 23.01 1.73
-1 -10 -5 25.02 1.72
-2 -10 -5 6.84 0.9
-2 -10 -5 4.61 0.85
2 10 5 7.77 1.23
-3 -10 -5 1.29 0.55
3 10 5 0.92 0.67
3 -11 -5 1.53 0.63
-3 11 5 2.73 0.7
3 -11 -5 3.87 0.93
-2 11 5 3.21 0.74
2 -11 -5 2.64 0.81
1 -11 -5 1.23 0.65
-1 11 5 0.46 0.5
0 11 5 1.6 0.67
0 -11 -5 2.09 0.73
1 11 5 31.36 2.08
-1 -11 -5 32.78 2.02
2 11 5 -0.28 0.51
-2 -11 -5 0.23 0.4
-3 -11 -5 5.5 0.99
-3 12 5 0.84 0.43
3 -12 -5 -0.23 0.5
2 -12 -5 5.81 1.04
-2 12 5 4.95 0.91
2 -12 -5 2.25 0.79
1 -12 -5 75.86 3.47
-1 12 5 81.56 3.44
0 12 5 35.6 2.21
0 -12 -5 35.88 2.24
1 12 5 1.28 0.68
-1 -12 -5 0.28 0.46
2 12 5 13.87 1.7
-2 -12 -5 11.28 1.31
-2 13 5 26.77 1.92
2 -13 -5 27.5 2.09
1 -13 -5 21.08 1.77
-1 13 5 20.2 1.63
0 13 5 0.83 0.52
0 -13 -5 0.24 0.57
-1 -13 -5 4.64 0.91
1 13 5 3.77 1.07
-1 14 5 27.1 2.03
1 -14 -5 23.85 1.98
0 -14 -5 5.96 1.09
0 14 5 3.37 0.93
2 14 -6 2.29 0.74
-1 -14 6 1.07 0.68
-1 14 -6 5.53 1.04
2 13 -6 1.75 0.7
-2 -13 6 3.64 0.9
-1 -13 6 1.26 0.63
1 13 -6 1.04 0.53
1 -13 6 0.28 0.36
-1 13 -6 -0.46 0.37
2 -13 6 -0.16 0.45
-2 13 -6 0.14 0.49
3 12 -6 0.31 0.38
2 12 -6 1.32 0.57
-2 -12 6 1.14 0.58
-1 -12 6 54.47 2.69
1 12 -6 51.65 2.66
1 -12 6 0.1 0.38
-1 12 -6 0.9 0.54
2 -12 6 0.75 0.44
-2 12 -6 0.75 0.54
-3 -11 6 3 0.83
3 11 -6 2.95 0.87
2 11 -6 2.17 0.62
-2 -11 6 3.3 0.78
-1 -11 6 4.99 0.86
1 11 -6 5.05 0.86
0 -11 6 24.27 1.53
0 -11 6 21.87 1.46
0 11 -6 19.74 1.44
0 11 -6 21.22 1.43
-1 11 -6 1.54 0.58
1 -11 6 2.62 0.65
-2 11 -6 49.38 2.55
2 -11 6 45.44 2.64
-3 11 -6 6.58 1.2
3 10 -6 1.98 0.71
-3 -10 6 2.34 0.7
2 10 -6 9.99 1.29
-2 -10 6 10.61 1.21
-1 -10 6 27.61 1.68
1 10 -6 23.03 1.64
0 10 -6 295.31 7.43
0 -10 6 295.97 7.67
0 -10 6 302.47 7.94
0 10 -6 301.57 7.87
-1 10 -6 24.49 1.54
-1 10 -6 23.08 1.46
1 -10 6 22.85 1.61
-2 10 -6 -0.13 0.37
2 -10 6 0.34 0.45
-3 10 -6 0.3 0.52
3 -10 6 0.3 0.42
4 9 -6 1.12 0.75
-4 -9 6 0.3 0.57
-3 -9 6 12.49 1.35
3 9 -6 12.6 1.56
2 9 -6 1.53 0.58
-2 -9 6 2.53 0.68
-1 -9 6 0.74 0.43
1 9 -6 0.75 0.35
0 9 -6 71.52 2.81
0 -9 6 72.19 2.64
0 -9 6 68.15 2.7
0 9 -6 72.07 2.52
-1 9 -6 6.28 0.88
1 -9 6 5.82 0.92
-1 9 -6 4.27 0.72
2 -9 6 98.27 3.97
-2 9 -6 101.6 3.64
3 -9 6 13.76 1.59
-3 9 -6 15.13 1.54
4 8 -6 0.56 0.61
-4 -8 6 0.09 0.42
-3 -8 6 2.81 0.7
3 8 -6 3.03 0.86
2 8 -6 16.4 1.38
-2 -8 6 17.04 1.36
-1 -8 6 14.09 1
-1 -8 6 14.79 1.12
1 8 -6 14.39 1.18
0 -8 6 26.24 1.4
0 8 -6 31.14 1.41
0 -8 6 30.22 1.57
0 8 -6 29.72 1.64
1 -8 6 5.29 0.86
-1 8 -6 3.92 0.68
-1 8 -6 6.88 0.82
2 -8 6 0.09 0.32
-2 8 -6 0.07 0.33
-2 8 -6 -0.23 0.2
3 -8 6 6.86 1.15
-3 8 -6 8.62 1.17
4 7 -6 10.7 1.57
-4 -7 6 11.09 1.25
3 7 -6 23.67 1.9
-3 -7 6 23.91 1.65
2 7 -6 1.35 0.53
-2 -7 6 1.16 0.46
-1 -7 6 6.58 0.79
-1 -7 6 7.75 0.79
1 7 -6 7.37 0.88
0 -7 6 0.53 0.28
0 7 -6 0.3 0.34
0 -7 6 0.72 0.31
0 7 -6 0.74 0.32
-1 7 -6 68.31 2.53
1 -7 6 67.73 2.73
-1 7 -6 67.27 2.42
-2 7 -6 19.26 1.32
2 -7 6 17.3 1.4
-2 7 -6 18.92 1.23
3 -7 6 0.79 0.46
-3 7 -6 0.07 0.35
4 -7 6 18.38 1.7
-4 7 -6 19.33 1.73
4 6 -6 0.35 0.42
-4 -6 6 0.22 0.47
3 6 -6 8.26 1.22
-3 -6 6 7.97 0.96
-2 -6 6 4.25 0.69
-2 -6 6 2.98 0.51
2 6 -6 3.31 0.71
-1 -6 6 132.27 3.8
-1 -6 6 132.12 3.88
1 6 -6 130.68 4.07
1 6 -6 134.6 3.26
0 -6 6 0.72 0.32
0 -6 6 1.39 0.34
0 6 -6 3 0.57
0 6 -6 0.54 0.25
-1 6 -6 51.65 2.13
-1 6 -6 52.56 1.95
1 -6 6 53.55 2.3
-2 6 -6 6.43 0.76
-2 6 -6 6.85 0.89
2 -6 6 7.43 1.02
3 -6 6 2.29 0.7
-3 6 -6 2.06 0.5
-3 6 -6 2.87 0.74
4 -6 6 10.5 1.43
-4 6 -6 10.01 1.4
-5 -5 6 -0.02 0.51
-4 -5 6 63.18 2.86
4 5 -6 57.66 3.19
-3 -5 6 41.51 2.06
3 5 -6 42.56 2.4
2 5 -6 0.14 0.3
-2 -5 6 -0.03 0.27
-2 -5 6 -0.06 0.21
1 5 -6 88.22 2.17
-1 -5 6 84.9 2.75
-1 -5 6 84.12 2.74
1 5 -6 90.75 3.01
0 -5 6 458.44 10.87
0 5 -6 465.6 10.6
0 5 -6 458.64 9.82
0 -5 6 461.14 10.29
1 -5 6 8.07 0.88
-1 5 -6 7.36 0.7
-1 5 -6 8.56 0.85
-2 5 -6 17.17 1.19
-2 5 -6 17.04 1.16
2 -5 6 16.88 1.29
-3 5 -6 28.08 1.76
-3 5 -6 25.56 1.58
3 -5 6 31.47 1.94
-4 5 -6 2.38 0.8
4 -5 6 3.38 0.85
5 4 -6 3.46 1.04
-5 -4 6 1.5 0.7
-4 -4 6 2.9 0.72
4 4 -6 1.87 0.64
3 4 -6 106.7 4.01
-3 -4 6 106.39 3.63
-2 -4 6 37.22 1.71
-2 -4 6 37.93 1.66
2 4 -6 41.99 1.98
-1 -4 6 104.91 3.21
-1 -4 6 112.33 3.21
1 4 -6 109.15 3.38
0 -4 6 60.68 2.19
0 -4 6 60.31 1.86
0 4 -6 59.93 1.71
0 4 -6 58.52 2.17
1 -4 6 50.57 2.1
-1 4 -6 49.19 1.98
-1 4 -6 48.84 1.77
2 -4 6 0.34 0.29
-2 4 -6 1.11 0.4
-2 4 -6 0.62 0.39
3 -4 6 75.64 3.14
-3 4 -6 72.47 2.99
-3 4 -6 74.38 2.92
4 -4 6 10.29 1.31
-4 4 -6 12.64 1.47
-4 4 -6 13.67 1.23
5 3 -6 0.24 0.53
-5 -3 6 0.75 0.56
-4 -3 6 3 0.69
4 3 -6 3.4 0.84
-3 -3 6 4.13 0.66
3 3 -6 2.63 0.71
-3 -3 6 3.18 0.64
-2 -3 6 4.73 0.64
2 3 -6 5.39 0.73
-2 -3 6 7.16 0.73
-1 -3 6 44.96 1.75
1 3 -6 43.98 1.82
-1 -3 6 43.52 1.67
0 -3 6 14.28 0.93
0 3 -6 11.63 0.88
0 3 -6 13.69 0.61
0 -3 6 13.58 0.72
-1 3 -6 297.45 6.84
-1 3 -6 295.96 7.18
1 -3 6 298.09 7.5
-2 3 -6 38.42 1.8
2 -3 6 40.55 1.93
-2 3 -6 43.45 1.9
3 -3 6 57.64 2.54
-3 3 -6 49.69 2.35
-3 3 -6 53.93 2.52
4 -3 6 0.77 0.49
-4 3 -6 0.74 0.35
-4 3 -6 0.12 0.4
-4 -2 6 1.71 0.6
4 2 -6 0.68 0.5
-3 -2 6 72.68 2.76
3 2 -6 70.57 2.92
-3 -2 6 74.17 2.81
-2 -2 6 47.72 1.99
2 2 -6 48.47 2.02
-2 -2 6 54.3 2.01
1 2 -6 40.56 1.68
-1 -2 6 44.68 1.76
-1 -2 6 44.79 1.67
0 2 -6 484.79 10.1
0 -2 6 480.58 11.21
0 2 -6 487.36 10.87
0 -2 6 494.73 10.68
1 -2 6 235.53 6.3
-1 2 -6 251.49 5.87
-1 2 -6 256.27 6.23
-1 2 -6 256.13 5.49
2 -2 6 20.38 1.27
-2 2 -6 18.33 1.2
-2 2 -6 18.78 1.22
-3 2 -6 113.66 3.96
-3 2 -6 124.36 4.11
3 -2 6 118.02 3.99
-4 2 -6 21.97 1.61
4 -2 6 19.5 1.73
-4 -1 6 0.27 0.35
4 1 -6 -0.22 0.28
-4 -1 6 0.05 0.36
-3 -1 6 17.27 1.19
3 1 -6 14.4 1.17
-3 -1 6 17.74 1.29
-2 -1 6 119.27 3.65
-2 -1 6 128.3 3.71
2 1 -6 114.92 3.5
-1 -1 6 20.89 1.13
-1 -1 6 21.52 1.1
1 1 -6 21.56 1.1
0 1 -6 7.31 0.6
0 -1 6 6.74 0.43
0 -1 6 6.87 0.64
0 1 -6 5.81 0.63
1 -1 6 0.06 0.11
-1 1 -6 -0.02 0.11
-1 1 -6 -0.08 0.2
1 -1 6 0.01 0.18
2 -1 6 10.81 0.88
-2 1 -6 11.74 0.96
-3 1 -6 43.85 2.2
3 -1 6 44.91 2.09
3 -1 6 42.2 2.34
-4 1 -6 7.68 1.06
4 -1 6 5.9 1.14
-4 0 6 2.36 0.63
-4 0 6 2.28 0.62
3 0 -6 9.48 0.85
-3 0 6 7.53 0.92
-3 0 6 6.73 0.87
2 0 -6 12.38 0.86
-2 0 6 14.72 0.65
-2 0 6 14.73 1.06
-2 0 6 15.64 1.05
-1 0 6 696.33 13.89
1 0 -6 671.17 14.64
0 0 -6 45.05 1.63
0 0 6 44.38 1.37
0 0 6 42.07 1.66
0 0 -6 43.93 1.63
1 0 6 22.15 1.16
1 0 6 22.08 1.14
-1 0 -6 23.61 1.22
-1 0 -6 24.4 0.86
2 0 6 118.81 3.85
-2 0 -6 117.55 3.7
2 0 6 114.07 3.5
3 0 6 6.03 0.82
3 0 6 6.14 1.03
-3 0 -6 5.46 0.86
4 0 6 0.1 0.39
-4 0 -6 1.79 0.59
-4 1 6 0.53 0.44
4 -1 -6 0.57 0.42
3 -1 -6 12.96 1.32
-3 1 6 12.22 1.04
-3 1 6 12.24 1.04
3 -1 -6 11.89 0.92
-2 1 6 269.58 6.89
2 -1 -6 261.69 6.32
-2 1 6 263.18 5.88
1 -1 -6 616.93 13.23
-1 1 6 626.56 12.72
1 -1 -6 610.88 14.08
0 -1 -6 1097.69 23.25
0 1 6 1110.82 22.75
0 1 6 1113.31 24.31
0 -1 -6 1135.45 23.9
-1 -1 -6 0.78 0.32
1 1 6 4.99 0.59
1 1 6 0.75 0.31
2 1 6 19.5 1.33
2 1 6 21.95 1.16
-2 -1 -6 21.85 1.37
3 1 6 107.33 4.08
-3 -1 -6 108.32 3.85
-4 -1 -6 21.27 1.64
4 1 6 21.07 1.86
-5 2 6 0.26 0.42
-4 2 6 8.97 1.14
4 -2 -6 10.8 1.3
-3 2 6 14.3 1.17
3 -2 -6 14.12 1.38
-2 2 6 34.8 1.74
2 -2 -6 36.3 1.38
2 -2 -6 36.77 1.93
-2 2 6 35.15 1.31
1 -2 -6 5.54 0.49
-1 2 6 4.31 0.58
-1 2 6 4.6 0.44
0 -2 -6 390.87 9.22
0 -2 -6 403.25 8.88
0 2 6 400.43 9.32
0 2 6 401.87 8.74
1 2 6 1 0.35
-1 -2 -6 0.64 0.28
1 2 6 0.94 0.31
2 2 6 26.42 1.57
-2 -2 -6 27.74 1.56
2 2 6 26.85 1.28
3 2 6 69.71 3.12
-3 -2 -6 67.25 2.88
4 2 6 1.13 0.61
-4 -2 -6 1.06 0.52
-5 3 6 1.31 0.63
-4 3 6 -0.09 0.32
4 -3 -6 -0.17 0.38
3 -3 -6 26.75 1.81
-3 3 6 27.32 1.68
-3 3 6 27.87 1.37
-2 3 6 37.49 1.45
-2 3 6 33.9 1.73
2 -3 -6 33.79 1.87
2 -3 -6 32.52 1.24
1 -3 -6 7.19 0.78
-1 3 6 6.73 0.73
-1 3 6 7.69 0.63
1 -3 -6 6.42 0.5
0 -3 -6 41.42 1.49
0 3 6 41.93 1.64
0 3 6 43.59 1.6
0 -3 -6 42.89 1.71
-1 -3 -6 11.66 0.78
1 3 6 9.45 0.78
1 3 6 10.08 0.73
-1 -3 -6 9.73 0.78
2 3 6 81.13 3.06
-2 -3 -6 87.61 3.05
3 3 6 3.92 0.86
-3 -3 -6 4.81 0.87
-4 -3 -6 16.98 1.49
4 3 6 12.8 1.6
4 -4 -6 10.88 1.28
-4 4 6 9.41 1.24
3 -4 -6 18.71 1.48
-3 4 6 16.98 1.36
-3 4 6 18.87 1.16
2 -4 -6 11.21 1.13
-2 4 6 11.61 1
-2 4 6 10.97 0.84
-1 4 6 15.07 0.99
1 -4 -6 13.32 1.03
1 -4 -6 16.1 0.68
-1 4 6 15.68 0.93
0 4 6 172.85 4.47
0 -4 -6 168.38 4.66
0 -4 -6 175.63 4.23
0 4 6 168.85 4.48
1 4 6 16.61 1.08
-1 -4 -6 17.64 1.04
1 4 6 18.41 0.93
-1 -4 -6 17.7 1.07
2 4 6 63.74 2.64
-2 -4 -6 67.32 2.6
3 4 6 16.11 1.56
-3 -4 -6 19.3 1.48
4 4 6 0.5 0.48
-4 -4 -6 0.27 0.41
-4 5 6 14.7 1.57
4 -5 -6 13.37 1.47
-3 5 6 51.38 2.52
-3 5 6 51.99 2.15
3 -5 -6 53.86 2.67
-2 5 6 29.21 1.65
-2 5 6 31.35 1.48
2 -5 -6 28.77 1.72
-1 5 6 14.19 1
1 -5 -6 13.38 1.05
-1 5 6 13.31 0.95
0 5 6 0.33 0.24
0 -5 -6 0.62 0.2
0 5 6 1.09 0.42
0 -5 -6 1.09 0.38
-1 -5 -6 153.34 4.21
1 5 6 154.31 3.99
-1 -5 -6 153.38 4.32
1 5 6 152.96 4.43
2 5 6 7.67 0.99
-2 -5 -6 6.78 0.89
-2 -5 -6 8.03 0.77
3 5 6 -0.3 0.31
-3 -5 -6 0.26 0.39
-4 -5 -6 0.37 0.39
4 5 6 0.52 0.54
4 -6 -6 92.12 3.83
-4 6 6 89.27 3.93
-3 6 6 2.9 0.58
3 -6 -6 1.72 0.63
-3 6 6 2.23 0.66
-2 6 6 25.98 1.63
-2 6 6 30.4 1.52
2 -6 -6 31.16 1.81
-1 6 6 70.72 2.47
-1 6 6 69.14 2.56
1 -6 -6 71.21 2.75
0 6 6 11.11 0.99
0 6 6 9.53 0.72
0 -6 -6 9.76 0.97
0 -6 -6 9.48 0.63
1 6 6 0.55 0.41
-1 -6 -6 0.66 0.4
-1 -6 -6 0.34 0.26
2 6 6 27.49 1.71
-2 -6 -6 27.92 1.48
-2 -6 -6 28.38 1.63
3 6 6 -0.14 0.33
-3 -6 -6 0.69 0.45
4 6 6 3.59 0.98
-4 -6 -6 4.32 1.05
-4 7 6 25.8 1.95
-3 7 6 0.38 0.36
3 -7 -6 -0.01 0.41
-3 7 6 0.52 0.38
-2 7 6 34.94 1.91
-2 7 6 35 1.75
2 -7 -6 35.22 1.98
-1 7 6 9.52 0.93
-1 7 6 7.22 0.85
1 -7 -6 9.45 1.03
0 7 6 37.85 1.88
0 7 6 37.93 1.59
0 -7 -6 35.39 1.88
-1 -7 -6 32.49 1.76
1 7 6 35.04 1.9
-1 -7 -6 35.37 1.61
-2 -7 -6 1.07 0.42
-2 -7 -6 1.2 0.46
2 7 6 1.07 0.48
3 7 6 27.42 1.97
-3 -7 -6 24.99 1.79
-4 8 6 13.93 1.65
-3 8 6 -0.21 0.38
-3 8 6 1.57 0.5
3 -8 -6 0.66 0.56
-2 8 6 21.86 1.4
-2 8 6 22.77 1.56
2 -8 -6 23.28 1.63
-1 8 6 24.93 1.46
-1 8 6 26.51 1.58
1 -8 -6 24.25 1.64
0 8 6 277.41 7.34
0 -8 -6 284.42 7.58
1 8 6 2.3 0.74
-1 -8 -6 1.68 0.58
-1 -8 -6 2.39 0.51
-2 -8 -6 11.46 1.1
-2 -8 -6 8.61 0.99
2 8 6 7.44 1.13
-3 -8 -6 1.96 0.7
3 8 6 2.3 0.83
-4 9 6 -0.34 0.33
-3 9 6 0.04 0.3
-3 9 6 0.42 0.35
3 -9 -6 0.15 0.44
-2 9 6 5.65 0.92
-2 9 6 5.02 0.83
2 -9 -6 5.65 0.94
1 -9 -6 14.71 1.33
-1 9 6 16.42 1.29
-1 9 6 15.44 1.17
0 9 6 66.87 2.79
0 -9 -6 62.25 2.84
1 9 6 171.45 5.45
-1 -9 -6 176.49 5.4
-2 -9 -6 18.9 1.37
2 9 6 16.83 1.51
-2 -9 -6 17.17 1.36
-3 -9 -6 13.09 1.41
3 9 6 13.65 1.66
-3 10 6 0.8 0.35
3 -10 -6 1.2 0.6
-3 10 6 1.64 0.61
-2 10 6 28.13 1.77
-2 10 6 30.33 1.9
2 -10 -6 30.32 1.97
-1 10 6 8.21 1.07
1 -10 -6 7.27 1.04
-1 10 6 6.75 0.91
0 -10 -6 8.3 1.14
0 10 6 11.12 1.29
-1 -10 -6 46.35 2.39
1 10 6 37.51 2.31
-2 -10 -6 10.06 1.15
2 10 6 8.89 1.32
3 10 6 -0.31 0.5
-3 -10 -6 -0.04 0.41
-3 11 6 -0.01 0.32
3 -11 -6 1.01 0.61
-2 11 6 9.09 1.13
-2 11 6 8.83 1.14
2 -11 -6 9.03 1.22
-1 11 6 1.5 0.59
1 -11 -6 0.89 0.6
0 11 6 53.58 2.69
0 -11 -6 55.25 2.78
1 11 6 37.94 2.32
-1 -11 -6 39.41 2.3
2 11 6 2.05 0.89
-2 -11 -6 3.59 0.8
3 -12 -6 0.87 0.71
-3 12 6 1.64 0.54
2 -12 -6 9.98 1.4
2 -12 -6 11.08 1.4
-2 12 6 10.64 1.27
1 -12 -6 9.09 1.27
-1 12 6 12.57 1.38
0 12 6 4.19 0.93
0 -12 -6 6.08 1
-1 -12 -6 21.03 1.71
1 12 6 19 1.71
-2 -12 -6 3.93 0.87
2 12 6 2.49 0.96
2 -13 -6 6.53 1.2
-2 13 6 5.98 1.09
1 -13 -6 9.03 1.3
-1 13 6 9.81 1.33
0 -13 -6 5.36 1.05
0 13 6 3.8 0.95
1 13 6 3.36 0.92
-1 -13 -6 4.77 0.98
-1 -14 7 0.23 0.53
2 13 -7 1.96 0.74
-2 -13 7 2.03 0.75
-1 -13 7 0.58 0.53
1 13 -7 0.32 0.38
1 -13 7 0.46 0.39
-2 13 -7 4.52 0.98
2 12 -7 4.97 1.03
-2 -12 7 7.38 1.13
1 12 -7 141.12 4.98
-1 -12 7 141.06 4.85
0 12 -7 3.14 0.68
1 -12 7 1 0.55
2 -12 7 18.74 1.72
-2 12 -7 19.88 1.61
-3 -11 7 0.58 0.54
3 11 -7 -0.34 0.28
-2 -11 7 6.5 1.04
2 11 -7 3.94 0.91
1 11 -7 34.33 2.07
-1 -11 7 34.32 1.98
0 -11 7 48.04 2.34
0 11 -7 47.59 2.39
1 -11 7 -0.24 0.32
-1 11 -7 0.14 0.35
-2 11 -7 16.01 1.53
2 -11 7 16.88 1.57
-3 11 -7 -0.01 0.5
-3 -10 7 0.82 0.53
3 10 -7 1.49 0.55
2 10 -7 7.37 1.12
-2 -10 7 9.37 1.15
-1 -10 7 1.77 0.55
1 10 -7 1.94 0.61
0 -10 7 35.27 1.79
0 -10 7 32.43 1.86
0 10 -7 35.83 1.97
-1 10 -7 1.13 0.47
1 -10 7 0.98 0.49
-1 10 -7 1.78 0.61
-2 10 -7 23.8 1.66
2 -10 7 20.65 1.69
3 -10 7 15.18 1.73
-3 10 -7 15.33 1.6
3 9 -7 0.44 0.44
-3 -9 7 0.68 0.48
-2 -9 7 -0.19 0.35
2 9 -7 0.84 0.44
-1 -9 7 5.12 0.71
-1 -9 7 4.58 0.74
1 9 -7 3.85 0.75
0 -9 7 25.43 1.57
0 -9 7 26.89 1.47
0 9 -7 27.16 1.65
-1 9 -7 84.77 3.03
1 -9 7 82.66 3.4
-1 9 -7 85.89 3.15
-2 9 -7 1.92 0.59
2 -9 7 1.73 0.62
-3 9 -7 9.6 1.29
3 -9 7 9.44 1.4
-4 -8 7 0 0.4
4 8 -7 0.5 0.62
3 8 -7 7.65 1.26
-3 -8 7 10.42 1.21
-2 -8 7 1.44 0.52
2 8 -7 0.24 0.33
1 8 -7 7.46 0.95
-1 -8 7 8.03 0.89
-1 -8 7 8.12 0.87
0 8 -7 460.64 10.09
0 -8 7 448.35 11.08
0 8 -7 443.91 10.82
0 -8 7 446.13 10.49
1 -8 7 12.7 1.17
-1 8 -7 14.48 1.14
-1 8 -7 14.28 1.09
-2 8 -7 11.77 1.03
-2 8 -7 13.81 1.19
2 -8 7 12.34 1.35
3 -8 7 31 2.19
-3 8 -7 33.19 2.04
4 7 -7 0.2 0.51
-4 -7 7 0.5 0.5
-3 -7 7 0.07 0.37
3 7 -7 1.06 0.57
2 7 -7 0.81 0.44
-2 -7 7 0.89 0.48
1 7 -7 9.8 1.03
-1 -7 7 8.77 0.89
-1 -7 7 9.23 0.85
0 7 -7 109.95 3.01
0 -7 7 104.49 3.16
0 7 -7 102.96 3.52
0 -7 7 102.96 3.49
1 -7 7 19.72 1.41
-1 7 -7 18.68 1.31
-1 7 -7 21.68 1.22
-2 7 -7 80.94 3.05
2 -7 7 86.78 3.5
-2 7 -7 85.86 3.13
3 -7 7 1.63 0.65
-3 7 -7 1.56 0.6
4 6 -7 34.74 2.54
-4 -6 7 40.48 2.29
-3 -6 7 1.99 0.6
3 6 -7 1.73 0.66
-2 -6 7 12.17 0.95
-2 -6 7 12.68 1.07
2 6 -7 9.17 1.12
1 6 -7 170.01 4.93
-1 -6 7 166.71 4.62
-1 -6 7 161.76 4.65
0 6 -7 32.37 1.65
0 6 -7 28.59 1.19
0 -6 7 27.38 1.26
0 -6 7 28.42 1.54
-1 6 -7 0.53 0.28
-1 6 -7 1 0.38
1 -6 7 0.38 0.25
-2 6 -7 112.1 3.7
2 -6 7 117.1 4.13
-2 6 -7 113.73 3.69
-3 6 -7 0.65 0.43
3 -6 7 0.35 0.43
-3 6 -7 0.87 0.34
-4 6 -7 0.33 0.54
4 -6 7 0.86 0.53
4 5 -7 -0.21 0.34
-4 -5 7 0.78 0.52
3 5 -7 8.3 1.17
-3 -5 7 5.86 0.85
2 5 -7 7.39 0.97
-2 -5 7 7.19 0.82
-2 -5 7 6.42 0.76
-1 -5 7 76.26 2.58
-1 -5 7 78.21 2.66
1 5 -7 79.43 2.85
0 -5 7 24.22 1.34
0 5 -7 20.89 1.32
0 -5 7 23.6 1.08
0 5 -7 22.24 0.95
-1 5 -7 88.21 3.02
-1 5 -7 89.29 2.73
1 -5 7 84.73 3.14
-2 5 -7 10.58 1.04
2 -5 7 10.51 1.16
-2 5 -7 10.78 1.04
-3 5 -7 2.57 0.6
3 -5 7 1.88 0.7
-3 5 -7 2.53 0.68
-4 5 -7 5.88 1.16
4 -5 7 5.05 1.06
5 4 -7 0.68 0.57
-5 -4 7 1.02 0.57
4 4 -7 7.18 1.16
-4 -4 7 9.01 1.1
-3 -4 7 17.11 1.17
-3 -4 7 14.8 1.21
3 4 -7 14.39 1.41
2 4 -7 24.25 1.52
-2 -4 7 16.43 1.13
-2 -4 7 27.92 1.46
1 4 -7 139.28 4.02
-1 -4 7 133.09 3.93
-1 -4 7 131.82 3.77
0 -4 7 0.19 0.25
0 4 -7 0.26 0.17
0 -4 7 0.11 0.17
0 4 -7 0.15 0.3
1 -4 7 70.96 2.67
-1 4 -7 69.86 2.26
-1 4 -7 71.3 2.59
2 -4 7 27.01 1.66
-2 4 -7 26.76 1.49
-2 4 -7 26.67 1.53
-3 4 -7 22.35 1.51
-3 4 -7 20.68 1.55
3 -4 7 23.39 1.66
4 -4 7 -0.6 0.39
-4 4 -7 0.74 0.4
-4 4 -7 -0.52 0.43
-5 -3 7 0.87 0.51
4 3 -7 1.09 0.55
-4 -3 7 1.21 0.53
3 3 -7 3.59 0.78
-3 -3 7 2.53 0.63
-3 -3 7 5.1 0.74
2 3 -7 4.36 0.69
-2 -3 7 5.12 0.69
-2 -3 7 6.97 0.77
1 3 -7 54.2 2.09
-1 -3 7 52.11 1.9
-1 -3 7 49.71 1.99
0 3 -7 94.56 2.37
0 -3 7 96.58 2.64
0 -3 7 92.23 3.02
0 3 -7 92.8 3.02
1 -3 7 79.18 2.8
-1 3 -7 82.12 2.78
-1 3 -7 78.6 2.45
2 -3 7 5.45 0.79
-2 3 -7 4.59 0.74
-2 3 -7 4.91 0.75
-3 3 -7 -0.43 0.37
-3 3 -7 0.09 0.24
3 -3 7 -0.13 0.4
-4 3 -7 14.91 1.35
4 -3 7 15 1.42
4 -3 7 15.94 1.7
-5 -2 7 0.69 0.6
4 2 -7 1.78 0.62
-4 -2 7 1.62 0.61
3 2 -7 29.28 1.76
-3 -2 7 31.15 1.76
-3 -2 7 30.93 1.69
-2 -2 7 68.52 2.55
2 2 -7 67.73 2.57
-2 -2 7 72.55 2.57
-1 -2 7 12.88 0.88
1 2 -7 13.72 0.97
-1 -2 7 12.19 0.94
0 -2 7 9.19 0.82
0 -2 7 9.82 0.56
0 -2 7 10.45 0.67
0 2 -7 10.66 0.88
-1 2 -7 30.59 1.32
-1 2 -7 30.19 1.53
1 -2 7 30.71 1.51
-2 2 -7 22.14 1.4
2 -2 7 23.02 1.43
-2 2 -7 22.79 1.37
-3 2 -7 125.61 4.25
3 -2 7 120.41 4.2
4 -2 7 13.59 1.64
-4 2 -7 18.37 1.5
-4 -1 7 2.09 0.6
-4 -1 7 1.24 0.62
4 1 -7 0.81 0.51
-3 -1 7 20.15 1.36
-3 -1 7 18.05 1.33
3 1 -7 16.72 1.25
-2 -1 7 68.09 2.55
2 1 -7 67.64 2.46
-2 -1 7 70.91 2.58
-1 -1 7 4.33 0.62
-1 -1 7 4.91 0.6
1 1 -7 4.43 0.6
0 -1 7 505.34 11.76
0 -1 7 513.64 10.67
0 1 -7 493.74 11.31
0 1 -7 512.23 11.48
1 -1 7 2.22 0.49
1 -1 7 1.45 0.36
-1 1 -7 2.18 0.51
-2 1 -7 73.8 2.78
2 -1 7 74.94 2.7
2 -1 7 69.85 2.84
-3 1 -7 12.08 1.21
3 -1 7 12.07 1.09
3 -1 7 10 1.28
4 -1 7 4.3 0.98
-4 1 -7 6.49 1.05
5 0 -7 4.34 1.05
-4 0 7 59.3 2.73
-3 0 7 8.31 0.98
-3 0 7 7.71 0.95
3 0 -7 7.01 0.8
-2 0 7 34.03 1.7
-2 0 7 36.21 1.73
2 0 -7 32.14 1.51
-1 0 7 341.96 8.45
-1 0 7 340.38 7.12
1 0 -7 348.56 7.95
0 0 -7 48.07 1.81
0 0 7 46.08 1.85
0 0 -7 47.54 1.78
0 0 7 47.16 1.49
1 0 7 1.44 0.43
-1 0 -7 2.28 0.29
1 0 7 0.92 0.28
-1 0 -7 2.01 0.47
-2 0 -7 523.87 12.29
2 0 7 530.66 12.38
2 0 7 525.8 12.39
-3 0 -7 75.14 3.12
3 0 7 77.84 3.4
-4 0 -7 0.92 0.43
4 0 7 1.36 0.57
4 -1 -7 0.55 0.51
-4 1 7 0.44 0.3
-3 1 7 50.57 2.37
3 -1 -7 53.92 2.12
3 -1 -7 55.07 2.79
-2 1 7 8.03 0.87
2 -1 -7 7.86 0.68
2 -1 -7 7.1 0.95
-1 1 7 16.29 1.08
-1 1 7 20.06 0.77
1 -1 -7 19.89 1.28
1 -1 -7 20.5 1.04
0 1 7 113.53 2.94
0 -1 -7 112.16 3.18
0 1 7 108.94 3.32
0 -1 -7 112.74 3.29
1 1 7 21.55 1.2
1 1 7 23.48 1.23
-1 -1 -7 23.3 1.27
-1 -1 -7 25.24 1.03
2 1 7 1.04 0.4
2 1 7 1.21 0.48
-2 -1 -7 0.74 0.43
3 1 7 191.03 6.08
-3 -1 -7 190.75 5.81
-4 -1 -7 0.42 0.32
4 1 7 0.11 0.32
-5 2 7 -0.26 0.44
4 -2 -7 20.37 1.77
-4 2 7 18.07 1.49
-3 2 7 19.09 1.42
3 -2 -7 19.54 1.59
-2 2 7 29.69 1.61
-2 2 7 29.98 1.17
2 -2 -7 26.37 1.73
2 -2 -7 28.47 1.26
-1 2 7 213.14 4.86
-1 2 7 210.2 5.63
1 -2 -7 212.99 5.81
1 -2 -7 211.93 5.11
0 -2 -7 489.62 10.87
0 2 7 487.11 10.62
0 -2 -7 489.71 11.26
0 2 7 494.4 11.41
1 2 7 69.35 2.33
1 2 7 65.03 2.34
-1 -2 -7 68.71 2.43
-1 -2 -7 69.51 2.16
-2 -2 -7 155.87 4.69
2 2 7 153.29 4.75
2 2 7 157.49 4.38
3 2 7 0.69 0.45
-3 -2 -7 0.78 0.42
-4 -2 -7 21.07 1.67
4 2 7 18.51 1.91
-5 3 7 0.18 0.43
4 -3 -7 0.42 0.57
-4 3 7 0.63 0.37
-3 3 7 9.1 1.09
3 -3 -7 8.06 1.13
-2 3 7 0.61 0.41
2 -3 -7 0.05 0.4
-2 3 7 0.68 0.32
-1 3 7 10.74 0.88
-1 3 7 11.08 0.75
1 -3 -7 12.09 1.02
1 -3 -7 12.88 0.74
0 -3 -7 35.56 1.62
0 3 7 39.71 1.66
0 3 7 36.78 1.51
0 -3 -7 37.1 1.46
-1 -3 -7 4.93 0.58
1 3 7 3.95 0.62
1 3 7 4.68 0.6
-1 -3 -7 4.28 0.61
-2 -3 -7 4.53 0.75
2 3 7 3.52 0.74
-3 -3 -7 16.83 1.43
3 3 7 16.23 1.58
-4 -3 -7 0.09 0.32
4 3 7 0.45 0.52
-4 4 7 0.03 0.37
4 -4 -7 0.44 0.41
3 -4 -7 5.54 0.91
-3 4 7 6.08 0.98
2 -4 -7 75.81 3.15
-2 4 7 79.82 2.49
-2 4 7 76.17 2.96
-1 4 7 5.54 0.71
-1 4 7 4.69 0.58
1 -4 -7 6.74 0.81
1 -4 -7 6.47 0.5
0 4 7 5.93 0.7
0 -4 -7 6.28 0.72
0 -4 -7 5.85 0.58
0 4 7 7.02 0.69
-1 -4 -7 164.64 4.52
1 4 7 165.58 4.67
1 4 7 165.96 4.44
-1 -4 -7 169.15 4.59
-2 -4 -7 1.66 0.56
2 4 7 2.07 0.57
-3 -4 -7 45.1 2.42
3 4 7 44.23 2.5
-4 -4 -7 0.91 0.6
4 4 7 0.76 0.57
-4 5 7 9.45 1.33
4 -5 -7 14.77 1.57
3 -5 -7 15.15 1.5
-3 5 7 14.26 1.31
-2 5 7 24.12 1.55
-2 5 7 27.78 1.39
2 -5 -7 26.56 1.72
1 -5 -7 151.7 4.73
-1 5 7 161.35 4.64
-1 5 7 162.68 4.28
0 5 7 55.13 2.16
0 -5 -7 54.69 2.24
0 -5 -7 56.23 1.89
0 5 7 54.87 2.04
-1 -5 -7 149.79 4.23
1 5 7 152.92 4.07
1 5 7 148.19 4.42
-1 -5 -7 145.79 4.28
-2 -5 -7 50.26 2.27
2 5 7 49.33 2.36
3 5 7 38.95 2.33
-3 -5 -7 36.87 2.18
4 5 7 5.8 1.27
-4 -5 -7 6.58 1.23
4 -6 -7 0.99 0.55
-4 6 7 1.07 0.5
3 -6 -7 -0.62 0.34
-3 6 7 0.74 0.33
-3 6 7 0.32 0.38
-2 6 7 26.71 1.65
2 -6 -7 25.47 1.73
-2 6 7 28.95 1.49
-1 6 7 806.08 17.98
-1 6 7 775.12 16.87
1 -6 -7 763.54 17.87
0 6 7 147.62 4.35
0 -6 -7 151.28 3.86
0 6 7 148.1 4.17
0 -6 -7 145.87 4.48
-1 -6 -7 54.43 2.1
-1 -6 -7 51.67 2.24
1 6 7 53.49 2.38
2 6 7 3.59 0.8
-2 -6 -7 4.1 0.74
-3 -6 -7 0.18 0.36
3 6 7 0.2 0.31
-4 7 7 1.88 0.7
4 -7 -7 2.44 0.86
-3 7 7 0.92 0.37
-3 7 7 1.17 0.5
3 -7 -7 0.99 0.64
-2 7 7 88.06 3.07
2 -7 -7 89.3 3.55
-2 7 7 92.38 3.47
1 -7 -7 124.02 4.15
-1 7 7 123.23 3.77
-1 7 7 116.71 3.86
0 7 7 221.65 6.05
0 -7 -7 222.35 6.28
0 7 7 226.91 5.93
-1 -7 -7 35.07 1.64
1 7 7 35.61 1.95
-1 -7 -7 32.16 1.81
-2 -7 -7 49.43 2.2
2 7 7 48.31 2.48
-2 -7 -7 47.34 2.29
-3 -7 -7 9.05 1.2
3 7 7 11.58 1.45
-4 8 7 1.03 0.61
4 -8 -7 1.76 0.73
-3 8 7 1.91 0.52
3 -8 -7 1.35 0.64
-3 8 7 1.45 0.58
-2 8 7 21.06 1.52
2 -8 -7 23.33 1.69
-2 8 7 20.54 1.37
-1 8 7 254.57 6.91
1 -8 -7 253.98 7.17
-1 8 7 260.41 6.73
0 -8 -7 17.1 1.36
0 8 7 14.6 1.29
1 8 7 19.84 1.54
-1 -8 -7 20.87 1.51
2 8 7 -0.05 0.39
-2 -8 -7 0.32 0.38
-2 -8 -7 -0.02 0.29
-3 -8 -7 3.3 0.82
3 8 7 2.96 0.86
3 -9 -7 0.27 0.5
-3 9 7 0.68 0.41
-3 9 7 0.21 0.26
2 -9 -7 0.35 0.49
-2 9 7 0.25 0.3
-2 9 7 0.94 0.37
-1 9 7 29.42 1.65
-1 9 7 30.01 1.76
1 -9 -7 28.63 1.89
0 -9 -7 72.45 3.12
0 9 7 72.47 3.01
1 9 7 -0.05 0.52
-1 -9 -7 0.61 0.51
-2 -9 -7 1.8 0.54
2 9 7 1.13 0.51
-2 -9 -7 1.89 0.57
-3 -9 -7 0.08 0.44
3 9 7 0.33 0.62
-3 10 7 6.77 1.16
3 -10 -7 6.3 1.05
-3 10 7 5.74 0.96
-2 10 7 3.54 0.73
2 -10 -7 2.95 0.82
-2 10 7 3.25 0.78
1 -10 -7 16.36 1.49
-1 10 7 15.05 1.19
-1 10 7 14.93 1.32
0 -10 -7 28.76 1.96
0 10 7 28.11 1.89
-1 -10 -7 0.29 0.46
1 10 7 0.33 0.48
-2 -10 -7 1.73 0.58
2 10 7 1.57 0.64
-3 -10 -7 -0.56 0.33
-3 11 7 0.78 0.5
3 -11 -7 1.38 0.69
-3 11 7 0.85 0.4
-2 11 7 0.26 0.27
2 -11 -7 0.08 0.55
-2 11 7 0.02 0.33
1 -11 -7 13.61 1.46
-1 11 7 12.7 1.35
0 -11 -7 25.5 1.88
0 11 7 24.91 1.82
-1 -11 -7 2.82 0.75
1 11 7 2.16 0.73
2 11 7 4.17 0.99
-2 -11 -7 3.36 0.78
-2 12 7 29.67 1.95
2 -12 -7 28 2.09
-2 12 7 26.12 1.86
-1 12 7 11.16 1.33
1 -12 -7 9.08 1.29
0 -12 -7 9.27 1.27
0 12 7 7.21 1.15
1 12 7 1.38 0.59
-1 -12 -7 1.69 0.58
-2 -12 -7 5.91 0.98
1 -13 -7 8.32 1.32
-1 13 7 8.81 1.27
0 -13 -7 15.11 1.63
0 13 7 16.11 1.72
2 13 -8 1.85 0.65
-2 -13 8 1.68 0.72
-1 -13 8 26.36 1.88
1 13 -8 19.31 1.67
1 -13 8 0.8 0.51
-2 -12 8 19.65 1.7
1 12 -8 4.31 0.9
-1 -12 8 5.83 0.98
0 12 -8 0.25 0.3
1 -12 8 -0.2 0.41
-2 12 -8 22.25 1.72
2 -12 8 21.28 1.87
-3 -11 8 0.56 0.55
3 11 -8 0.02 0.45
-2 -11 8 3.4 0.8
2 11 -8 2.72 0.71
1 11 -8 62.57 3.11
-1 -11 8 77.21 3.2
0 -11 8 9.11 1.12
0 11 -8 11.51 1.24
1 -11 8 9.31 1.26
2 -11 8 6.92 1.23
-2 11 -8 6.77 1.06
-3 -10 8 0.04 0.42
3 10 -8 -0.42 0.28
2 10 -8 0.91 0.45
-2 -10 8 1.18 0.55
-1 -10 8 30.15 1.8
1 10 -8 28.67 1.89
0 -10 8 1.8 0.56
0 10 -8 1.77 0.6
-1 10 -8 7.44 0.98
1 -10 8 7.89 1.15
-2 10 -8 18.8 1.48
2 -10 8 16.42 1.56
-3 10 -8 1.5 0.59
3 9 -8 0.1 0.38
-3 -9 8 0.92 0.53
-2 -9 8 0.07 0.43
2 9 -8 -0.1 0.29
-1 -9 8 5.54 0.82
-1 -9 8 5.54 0.79
1 9 -8 5.64 0.93
0 -9 8 17.06 1.31
0 9 -8 17.69 1.37
-1 9 -8 154.42 4.81
-1 9 -8 149.81 4.41
1 -9 8 143.84 5.03
-2 9 -8 0.18 0.44
-2 9 -8 0.7 0.39
2 -9 8 -0.4 0.28
-3 9 -8 10.45 1.32
3 -9 8 10.64 1.5
-4 -8 8 1.36 0.69
4 8 -8 1.41 0.72
-3 -8 8 11.59 1.24
3 8 -8 9.28 1.36
2 8 -8 15.32 1.39
-2 -8 8 16.64 1.34
-1 -8 8 1.42 0.47
-1 -8 8 0.17 0.34
1 8 -8 1 0.46
0 8 -8 2.21 0.59
1 -8 8 131.68 4.51
-1 8 -8 125.69 4.19
-1 8 -8 123.38 3.8
2 -8 8 0.82 0.4
-2 8 -8 0.75 0.36
-2 8 -8 2.52 0.67
-3 8 -8 28.26 1.93
3 -8 8 29.22 2.14
4 7 -8 0.9 0.63
-4 -7 8 2.03 0.67
3 7 -8 0.27 0.42
-3 -7 8 0.52 0.41
2 7 -8 64.16 2.94
-2 -7 8 66.14 2.73
-1 -7 8 35.82 1.73
1 7 -8 34.87 1.92
-1 -7 8 34.19 1.73
0 7 -8 201.79 5.87
0 -7 8 206.7 5.34
0 -7 8 212.24 5.95
1 -7 8 19.66 1.43
-1 7 -8 17.71 1.33
-1 7 -8 17.16 1.13
-2 7 -8 0.26 0.25
2 -7 8 0.41 0.42
-2 7 -8 0.71 0.4
-3 7 -8 4.64 0.96
3 -7 8 4.26 0.99
-3 7 -8 4.31 0.75
-4 -6 8 21.39 1.65
4 6 -8 23.05 2.01
-3 -6 8 1.23 0.54
3 6 -8 1.81 0.68
2 6 -8 0.16 0.39
-2 -6 8 0.01 0.31
-2 -6 8 0.74 0.44
1 6 -8 347.87 8.79
-1 -6 8 341.31 8.42
-1 -6 8 350.6 8.7
0 6 -8 57.91 2.44
0 -6 8 52.7 2.32
0 -6 8 55.12 1.92
-1 6 -8 12.23 1.09
1 -6 8 13.79 1.15
-1 6 -8 13.86 0.95
2 -6 8 52.46 2.63
-2 6 -8 49 2.2
-2 6 -8 51.17 2.31
-3 6 -8 10.56 1.26
-3 6 -8 12.19 1.22
3 -6 8 8.89 1.26
4 -6 8 0.75 0.6
-4 -5 8 -0.04 0.37
4 5 -8 0.39 0.47
3 5 -8 3.81 0.84
-3 -5 8 4 0.74
-2 -5 8 65.63 2.56
-2 -5 8 65.25 2.53
2 5 -8 60.04 2.7
-1 -5 8 5.01 0.64
-1 -5 8 7.18 0.84
1 5 -8 6.11 0.87
0 -5 8 212.21 5.32
0 -5 8 219.96 6
0 5 -8 216.02 5.88
-1 5 -8 5.65 0.64
-1 5 -8 4.09 0.73
1 -5 8 4.82 0.79
-2 5 -8 40.37 1.95
-2 5 -8 44.32 2.12
2 -5 8 45 2.31
-3 5 -8 23.94 1.67
3 -5 8 21.86 1.72
-3 5 -8 22.05 1.57
4 -5 8 0.23 0.53
-4 5 -8 0.84 0.64
-4 5 -8 0.47 0.31
4 4 -8 9.53 1.31
-4 -4 8 7.77 1.04
-3 -4 8 14.83 1.13
3 4 -8 11 1.21
-3 -4 8 10.71 1.16
2 4 -8 13.76 1.19
-2 -4 8 18.77 1.25
-2 -4 8 17.88 1.23
-1 -4 8 1.06 0.36
-1 -4 8 0.36 0.34
1 4 -8 0.4 0.39
0 -4 8 78.9 2.43
0 4 -8 83.91 2.2
0 4 -8 81.76 2.93
0 -4 8 79.4 2.88
1 -4 8 103.58 3.53
-1 4 -8 101.96 2.99
-1 4 -8 98.25 3.36
-2 4 -8 0.43 0.33
-2 4 -8 -0.01 0.34
2 -4 8 0.56 0.42
-3 4 -8 7.1 0.96
3 -4 8 4.65 0.95
-3 4 -8 5.35 0.97
4 -4 8 0.83 0.58
-4 4 -8 1.24 0.49
-4 -3 8 0.86 0.49
4 3 -8 0.4 0.48
3 3 -8 13.27 1.21
-3 -3 8 16.41 1.23
-3 -3 8 15.8 1.27
2 3 -8 -0.19 0.24
-2 -3 8 -0.53 0.26
-2 -3 8 0.03 0.29
1 3 -8 142.85 4.22
-1 -3 8 145.22 4.25
-1 -3 8 141.69 4.03
0 3 -8 57.29 1.66
0 -3 8 57.9 2.29
0 3 -8 58.78 2.32
0 -3 8 56.04 1.87
-1 3 -8 141.17 4.24
-1 3 -8 142.85 3.81
1 -3 8 140.76 4.35
-2 3 -8 1.73 0.56
2 -3 8 1.95 0.6
-2 3 -8 2.5 0.58
-3 3 -8 2.33 0.72
-3 3 -8 2.21 0.62
3 -3 8 2.76 0.75
-4 3 -8 6.75 1.04
4 -3 8 4.28 1.03
-5 -2 8 1.41 0.68
4 2 -8 0.03 0.37
-4 -2 8 0.63 0.48
-3 -2 8 1.91 0.56
3 2 -8 1.11 0.47
-3 -2 8 1.57 0.56
-2 -2 8 9.24 0.95
2 2 -8 6.76 0.82
-2 -2 8 10.45 0.95
-1 -2 8 1.47 0.5
1 2 -8 2.46 0.54
-1 -2 8 1.1 0.39
0 -2 8 8.5 0.86
0 -2 8 8.09 0.52
0 2 -8 8.13 0.85
-1 2 -8 225.44 5.95
1 -2 8 216.74 6
1 -2 8 225.47 5.68
2 -2 8 4.69 0.77
3 -2 8 0.47 0.44
3 -2 8 0.62 0.44
-3 2 -8 0.72 0.4
-4 2 -8 0.26 0.34
4 -2 8 0.34 0.41
5 1 -8 0.83 0.68
-4 -1 8 0.24 0.49
-4 -1 8 0.31 0.33
-3 -1 8 13.7 1.15
-3 -1 8 12.72 1.18
3 1 -8 11.08 1.1
-2 -1 8 82.06 2.98
-2 -1 8 84.09 2.99
2 1 -8 79.69 2.83
-1 -1 8 208.39 5.59
1 1 -8 196.29 5.26
-1 -1 8 203.44 5.32
0 1 -8 107.63 3.35
0 1 -8 107.98 3.28
0 -1 8 113.44 2.86
0 -1 8 114.6 3.49
-1 1 -8 28.76 1.55
1 -1 8 29.24 1.53
1 -1 8 29.7 1.44
2 -1 8 393.07 9.66
2 -1 8 390.66 9.69
-2 1 -8 377.39 9.56
3 -1 8 2.25 0.65
3 -1 8 1.84 0.64
-3 1 -8 1.35 0.5
-4 1 -8 1.32 0.57
4 -1 8 0.05 0.34
5 0 -8 1.81 0.82
-4 0 8 10.76 1.24
4 0 -8 10.98 1.4
3 0 -8 1.62 0.5
-3 0 8 1.9 0.6
2 0 -8 10.21 1.15
-2 0 8 12.26 1.05
2 0 -8 12.05 0.91
1 0 -8 454.71 10.31
1 0 -8 448.95 11.03
-1 0 8 452.58 10.92
0 0 -8 2.54 0.51
0 0 8 3.71 0.61
1 0 8 118.9 3.48
-1 0 -8 116.92 3.63
1 0 8 117.31 3.64
-2 0 -8 354.68 8.81
2 0 8 342.46 8.73
2 0 8 344.36 8.79
3 0 8 148.16 5.12
-3 0 -8 140.05 4.84
4 0 8 0.43 0.43
-4 0 -8 0.83 0.51
5 -1 -8 1.62 0.8
-4 1 8 0.29 0.4
4 -1 -8 -0.04 0.42
-3 1 8 -0.05 0.33
3 -1 -8 0.37 0.45
-2 1 8 42.36 2.05
2 -1 -8 40.59 2.24
2 -1 -8 43.05 1.77
1 -1 -8 192.9 5.56
1 -1 -8 197.38 4.99
-1 1 8 191.56 4.38
-1 1 8 197.25 5.43
0 -1 -8 9.63 0.8
0 -1 -8 9.75 0.8
0 1 8 10.67 0.88
0 1 8 9.28 0.66
1 1 8 440.5 10.32
-1 -1 -8 433.75 10.1
-1 -1 -8 428.75 9.66
1 1 8 418.87 9.83
-2 -1 -8 212.22 6
2 1 8 208.54 6.01
2 1 8 214.9 5.81
-3 -1 -8 2.21 0.68
3 1 8 0.76 0.49
4 1 8 1.03 0.51
-4 -1 -8 1.02 0.57
5 -2 -8 1.06 0.65
-5 2 8 1.73 0.66
4 -2 -8 0.22 0.52
-4 2 8 0.63 0.44
-3 2 8 7.02 0.99
3 -2 -8 7.14 1.09
2 -2 -8 56.82 2.74
2 -2 -8 63.47 2.15
-2 2 8 61.97 2.56
-1 2 8 75.01 2.68
-1 2 8 72.64 2.06
1 -2 -8 72.49 2.33
1 -2 -8 68.97 2.74
0 -2 -8 42.42 1.75
0 2 8 45.28 1.89
0 -2 -8 45.29 1.88
0 2 8 43.38 1.64
1 2 8 315.72 7.91
1 2 8 317.5 7.66
-1 -2 -8 312.86 7.48
-1 -2 -8 327.2 7.87
-2 -2 -8 5.32 0.85
2 2 8 7.06 0.83
2 2 8 5.39 0.87
-3 -2 -8 0.4 0.42
3 2 8 0.27 0.47
-4 -2 -8 1.1 0.49
4 2 8 0.34 0.39
-4 3 8 0.11 0.32
4 -3 -8 0.1 0.46
3 -3 -8 -0.01 0.38
-3 3 8 0.53 0.45
2 -3 -8 62.53 2.88
-2 3 8 64.61 2.68
1 -3 -8 58.32 2.49
1 -3 -8 60.03 1.97
-1 3 8 56.44 2.31
-1 3 8 58.87 1.91
0 3 8 64.18 2.39
0 -3 -8 60.57 2.33
0 3 8 61.37 2.13
0 -3 -8 59.62 2.12
1 3 8 99.79 3.16
-1 -3 -8 96.33 3.22
-1 -3 -8 101.56 3.06
1 3 8 101.69 3.23
-2 -3 -8 46.65 2.26
2 3 8 47.33 2.28
3 3 8 30.49 2.06
-3 -3 -8 30.84 1.99
4 3 8 8.33 1.41
-4 -3 -8 6.27 1.13
4 -4 -8 4.78 0.96
-4 4 8 4.23 0.95
3 -4 -8 0.08 0.44
-3 4 8 0.48 0.42
-2 4 8 93.14 3.49
-2 4 8 95.72 2.85
2 -4 -8 89.84 3.65
-1 4 8 2.29 0.57
-1 4 8 2.92 0.5
1 -4 -8 3.05 0.62
0 -4 -8 41.43 1.88
0 4 8 38.65 1.75
0 -4 -8 41.04 1.64
0 4 8 40.79 1.77
1 4 8 95.16 2.95
-1 -4 -8 86.43 2.9
1 4 8 90.98 3.12
-1 -4 -8 85.28 3
-2 -4 -8 5.95 0.88
2 4 8 5.41 0.9
-3 -4 -8 10.18 1.27
3 4 8 8.54 1.22
4 -5 -8 0.08 0.42
-4 5 8 -0.19 0.38
-3 5 8 0.13 0.42
3 -5 -8 1.38 0.62
-2 5 8 8.28 0.81
-2 5 8 5.42 0.87
2 -5 -8 5.88 0.95
-1 5 8 31.06 1.69
-1 5 8 36.2 1.6
1 -5 -8 33.32 1.84
0 -5 -8 8.82 0.91
0 -5 -8 6.85 0.63
0 5 8 7.64 0.72
0 5 8 7.24 0.85
1 5 8 6.61 0.88
-1 -5 -8 7.57 0.85
-1 -5 -8 7.2 0.86
2 5 8 40.03 2.13
-2 -5 -8 33.85 1.9
-3 -5 -8 5.86 1.02
3 5 8 5.97 1.11
4 -6 -8 6.63 1.15
-3 6 8 1.75 0.59
3 -6 -8 2.01 0.74
-2 6 8 141.9 4.08
2 -6 -8 139.62 4.84
-2 6 8 137.49 4.63
-1 6 8 -0.05 0.37
1 -6 -8 1 0.53
-1 6 8 0.15 0.27
-1 -6 -8 9.44 0.94
1 6 8 10.07 1.12
-1 -6 -8 10.01 1.01
-2 -6 -8 35.6 1.99
2 6 8 36.03 2.11
3 6 8 11.94 1.48
-3 -6 -8 7.73 1.17
-4 7 8 2.62 0.78
4 -7 -8 3.12 0.93
-3 7 8 9.05 1.27
3 -7 -8 9.21 1.26
-2 7 8 6 0.77
2 -7 -8 5.64 0.98
-2 7 8 3.43 0.78
-1 7 8 0.01 0.29
1 -7 -8 0.52 0.47
-1 7 8 0.37 0.35
0 7 8 101.59 3.31
0 7 8 102.63 3.52
0 -7 -8 101.27 3.64
-1 -7 -8 14.83 1.22
-1 -7 -8 12.09 1.01
1 7 8 12.84 1.29
-2 -7 -8 1.77 0.57
2 7 8 1.38 0.58
3 7 8 6.75 1.23
-3 -7 -8 7.54 1.13
4 -8 -8 0.82 0.66
-3 8 8 4.95 1.01
3 -8 -8 5 0.99
-2 8 8 2.61 0.61
2 -8 -8 1.53 0.69
-2 8 8 2.96 0.75
1 -8 -8 18.43 1.52
-1 8 8 19.1 1.33
-1 8 8 17.28 1.27
0 8 8 176.59 5.36
0 -8 -8 182.99 5.57
-1 -8 -8 128.47 4.31
1 8 8 123.62 4.39
2 8 8 4.77 0.99
-2 -8 -8 8.05 1.03
-3 -8 -8 0.16 0.41
3 8 8 0.35 0.48
-3 9 8 19.76 1.67
3 -9 -8 26.19 2
-2 9 8 27.75 1.83
2 -9 -8 28.13 1.97
-2 9 8 29.53 1.71
-1 9 8 50.06 2.36
1 -9 -8 51.31 2.64
-1 9 8 49.43 2.31
0 9 8 9.42 1.19
0 -9 -8 11.44 1.27
-1 -9 -8 14.45 1.3
1 9 8 12.63 1.41
2 9 8 5.14 1.05
-3 -9 -8 3.96 0.88
-3 10 8 0.58 0.53
-3 10 8 0.86 0.38
3 -10 -8 2.47 0.85
-2 10 8 1.35 0.53
-2 10 8 1.17 0.45
2 -10 -8 0.06 0.54
1 -10 -8 67.95 3.17
-1 10 8 63.33 2.87
0 -10 -8 2.64 0.73
0 10 8 2.22 0.71
-1 -10 -8 0.71 0.54
1 10 8 -0.02 0.38
-2 -10 -8 2.44 0.61
2 10 8 0.04 0.46
-3 11 8 0.97 0.54
2 -11 -8 0.13 0.54
-2 11 8 0.86 0.44
-2 11 8 0.5 0.25
-1 11 8 19.31 1.51
1 -11 -8 19.03 1.7
0 11 8 3.63 0.91
0 -11 -8 3.04 0.83
-1 -11 -8 2.76 0.76
1 11 8 1.82 0.64
-2 -11 -8 12.35 1.36
-2 12 8 7.79 1.13
2 -12 -8 9.19 1.37
1 -12 -8 3.02 0.86
-1 12 8 2.8 0.78
0 -12 -8 21.36 1.82
0 12 8 22.63 1.81
1 12 8 1.62 0.74
-1 -12 -8 0.99 0.6
-1 13 8 4.24 0.98
1 13 -9 5.07 1.04
1 -13 9 0.82 0.48
2 12 -9 1.72 0.66
-2 -12 9 2.43 0.79
1 12 -9 3.42 0.87
-1 -12 9 1.54 0.64
0 12 -9 3.14 0.79
1 -12 9 7.83 1.2
-2 -11 9 5.15 0.93
2 11 -9 2.25 0.71
1 11 -9 6.58 1.09
-1 -11 9 9.71 1.11
0 11 -9 6.64 1.03
0 -11 9 8.27 1.09
-1 11 -9 0.95 0.43
1 -11 9 -0.11 0.33
2 -11 9 2.91 0.84
-3 -10 9 0.39 0.48
3 10 -9 0.22 0.41
2 10 -9 3.19 0.81
-2 -10 9 2.3 0.67
-1 -10 9 0.33 0.42
1 10 -9 0.82 0.42
0 10 -9 4.76 0.88
0 -10 9 6.07 0.97
1 -10 9 7.78 1.13
-1 10 -9 7.2 0.99
2 -10 9 32.94 2.28
3 9 -9 0 0.35
-3 -9 9 0.45 0.45
2 9 -9 4.49 0.89
-1 -9 9 3.03 0.66
-1 -9 9 3.19 0.66
1 9 -9 2.74 0.7
0 -9 9 12.96 1.18
0 9 -9 10.4 1.17
1 -9 9 5.24 0.95
-1 9 -9 6.3 0.94
-2 9 -9 5.52 0.93
-2 9 -9 5.16 0.88
2 -9 9 4.36 0.96
-3 9 -9 2.02 0.7
3 8 -9 0.96 0.62
-3 -8 9 1.09 0.6
-2 -8 9 15.65 1.27
2 8 -9 14.26 1.48
-1 -8 9 2.86 0.59
1 8 -9 2.54 0.68
-1 -8 9 2.57 0.63
0 -8 9 1.84 0.62
0 8 -9 1.91 0.58
1 -8 9 15.87 1.36
-1 8 -9 16.11 1.34
-2 8 -9 4.92 0.83
2 -8 9 5.26 0.98
-2 8 -9 3.33 0.75
-3 8 -9 5.75 1.07
3 -8 9 6.27 1.2
4 7 -9 0.27 0.52
-4 -7 9 2.12 0.68
-3 -7 9 3.92 0.77
3 7 -9 3.64 0.95
2 7 -9 23.15 1.72
-2 -7 9 19.71 1.33
-2 -7 9 21.23 1.44
-1 -7 9 28.52 1.53
-1 -7 9 28.05 1.62
1 7 -9 25.89 1.7
0 -7 9 92.88 3.51
0 7 -9 98.75 3.57
1 -7 9 32.89 1.95
-1 7 -9 29.75 1.81
2 -7 9 0.83 0.56
-2 7 -9 1.61 0.52
-2 7 -9 0.74 0.49
-3 7 -9 1.55 0.6
-3 7 -9 0.31 0.31
3 -7 9 0.77 0.58
4 6 -9 5.79 1.19
-4 -6 9 5.32 0.95
3 6 -9 3.76 0.93
-3 -6 9 4.4 0.79
-2 -6 9 4.88 0.75
2 6 -9 5.35 0.95
-2 -6 9 6.01 0.81
1 6 -9 45.07 2.24
-1 -6 9 46.53 2
-1 -6 9 49.03 2.16
0 6 -9 40.46 2.12
0 -6 9 43.23 2.12
1 -6 9 0.34 0.37
-1 6 -9 0.74 0.3
-1 6 -9 0.19 0.3
2 -6 9 0.2 0.46
-2 6 -9 0.72 0.41
-2 6 -9 0.02 0.24
-3 6 -9 1.83 0.62
3 -6 9 1.21 0.62
-3 6 -9 0.85 0.56
4 5 -9 2.65 0.82
-4 -5 9 0.97 0.54
3 5 -9 4.77 0.96
-3 -5 9 4.91 0.83
-2 -5 9 21.58 1.41
-2 -5 9 23.42 1.46
2 5 -9 21.87 1.6
-1 -5 9 210.35 5.75
1 5 -9 197.64 5.74
-1 -5 9 192.78 5.34
0 -5 9 51.22 2.28
0 -5 9 48.97 1.83
0 5 -9 51.22 2.34
-1 5 -9 8.05 0.98
-1 5 -9 8.44 0.73
1 -5 9 8.96 1.07
-2 5 -9 1.79 0.56
-2 5 -9 2.16 0.6
2 -5 9 2.04 0.7
-3 5 -9 0.05 0.21
3 -5 9 -0.3 0.4
-3 5 -9 -0.02 0.44
-4 5 -9 0.35 0.35
-4 -4 9 1.87 0.64
4 4 -9 0.36 0.4
-3 -4 9 0.42 0.45
-3 -4 9 1.62 0.55
3 4 -9 0.57 0.46
-2 -4 9 83 3.05
-2 -4 9 84.13 3.14
2 4 -9 81.38 3.2
-1 -4 9 11.07 0.9
1 4 -9 8.75 1
-1 -4 9 8.43 0.94
0 -4 9 50.31 2.23
0 4 -9 52.3 2.31
0 -4 9 48.04 1.78
1 -4 9 3.43 0.74
-1 4 -9 4.53 0.6
-1 4 -9 3.58 0.71
2 -4 9 8.46 1.09
-2 4 -9 6.25 0.92
-2 4 -9 6.6 0.9
3 -4 9 0.78 0.58
-3 4 -9 0.99 0.42
-3 4 -9 0.84 0.53
4 -4 9 0.44 0.53
-4 4 -9 1.49 0.47
4 3 -9 0.91 0.53
-4 -3 9 -0.1 0.38
3 3 -9 30.29 1.91
-3 -3 9 33.77 1.89
-3 -3 9 31.52 1.89
-2 -3 9 -0.18 0.28
-2 -3 9 0.14 0.41
2 3 -9 -0.05 0.26
-1 -3 9 17.07 1.21
-1 -3 9 17.77 1.13
1 3 -9 17.03 1.25
0 -3 9 8.37 0.95
0 -3 9 9.44 0.72
1 -3 9 25.91 1.58
-1 3 -9 25.19 1.55
2 -3 9 0.39 0.38
-2 3 -9 0.39 0.34
3 -3 9 20.94 1.67
-3 3 -9 21.4 1.59
3 -3 9 20.52 1.58
-4 3 -9 1.46 0.49
4 2 -9 0.25 0.43
-4 -2 9 0.14 0.48
-3 -2 9 9.91 1.13
-3 -2 9 12.79 1.24
3 2 -9 10.38 1.13
2 2 -9 76.77 2.87
-2 -2 9 81.52 2.96
-2 -2 9 76.95 2.98
1 2 -9 54.88 2.27
-1 -2 9 53.5 2.15
-1 -2 9 58.74 2.45
0 2 -9 103.89 3.37
0 -2 9 99.24 3.39
0 2 -9 99.02 3.22
1 -2 9 12.4 0.92
1 -2 9 13.23 1.11
-1 2 -9 12.85 1.13
2 -2 9 0.46 0.34
-2 2 -9 0.97 0.45
2 -2 9 0.7 0.48
3 -2 9 7.59 1.16
-3 2 -9 4.18 0.83
3 -2 9 6.81 1.01
4 -2 9 -0.13 0.32
-4 2 -9 0.25 0.4
-4 -1 9 5.25 0.9
-4 -1 9 6.88 1.02
3 1 -9 4.75 0.8
-3 -1 9 4.55 0.83
-3 -1 9 3.5 0.77
-2 -1 9 1.92 0.58
2 1 -9 1.81 0.53
-2 -1 9 2.33 0.61
1 1 -9 6.58 0.85
-1 -1 9 6.06 0.82
1 1 -9 6.45 0.78
0 -1 9 85.11 2.34
0 1 -9 82.86 2.9
0 1 -9 85.85 2.82
0 -1 9 78.39 2.91
-1 1 -9 302.28 7.83
1 -1 9 316.77 8.07
1 -1 9 316.18 7.55
2 -1 9 116.37 3.9
-2 1 -9 109.76 3.92
2 -1 9 120.25 4.05
3 -1 9 24.79 1.68
-3 1 -9 25.33 1.77
3 -1 9 26.29 1.91
-4 1 -9 -0.31 0.29
4 -1 9 0.93 0.47
4 0 -9 2.26 0.82
-4 0 9 1.87 0.56
-3 0 9 4.55 0.83
3 0 -9 3.56 0.68
3 0 -9 3.09 0.85
-2 0 9 82.9 3.09
2 0 -9 75.92 3.35
2 0 -9 78.95 2.78
-1 0 9 4.34 0.74
1 0 -9 3.54 0.66
1 0 -9 3.7 0.64
0 0 9 104.1 2.76
0 0 9 93.55 3.28
0 0 -9 100.66 3.23
0 0 -9 102.55 3.21
-1 0 -9 28.65 1.62
1 0 9 32.19 1.54
1 0 9 30.75 1.66
-2 0 -9 0.21 0.37
2 0 9 0.63 0.42
2 0 9 0.67 0.46
3 0 9 6.84 1.16
-3 0 -9 7.36 1.08
-4 0 -9 1.31 0.57
4 0 9 3.08 0.85
4 -1 -9 3.06 0.87
-4 1 9 3.02 0.81
-3 1 9 0.84 0.54
3 -1 -9 1.17 0.65
2 -1 -9 34.77 1.64
-2 1 9 36.46 1.93
2 -1 -9 34.55 2.11
1 -1 -9 53.21 2.05
1 -1 -9 52.22 2.38
-1 1 9 52.38 2.28
0 1 9 3.44 0.46
0 -1 -9 1.82 0.44
0 -1 -9 3.82 0.57
0 1 9 3.7 0.66
1 1 9 4.2 0.64
-1 -1 -9 3.88 0.71
1 1 9 4 0.71
2 1 9 154.61 4.65
2 1 9 151.45 4.83
-2 -1 -9 152.71 4.85
3 1 9 31.6 2.12
-3 -1 -9 32.8 2.04
-4 2 9 1.52 0.63
4 -2 -9 0.65 0.52
-3 2 9 55.07 2.7
3 -2 -9 52.47 2.94
-2 2 9 0.64 0.44
2 -2 -9 0.9 0.46
1 -2 -9 0.3 0.31
-1 2 9 0.34 0.37
1 -2 -9 0.56 0.37
0 -2 -9 224.97 5.82
0 2 9 232.01 5.57
0 2 9 226.04 6.13
0 -2 -9 225.35 6.02
1 2 9 234.84 6.27
-1 -2 -9 227.82 6.2
1 2 9 236.13 6.05
-2 -2 -9 132 4.36
2 2 9 125.97 4.29
3 2 9 4.4 0.89
-3 -2 -9 3.28 0.83
-4 3 9 0.3 0.41
4 -3 -9 -0.47 0.31
3 -3 -9 3 0.82
-3 3 9 1.45 0.56
2 -3 -9 35.65 2.13
-2 3 9 36.36 1.98
1 -3 -9 102.57 3.71
-1 3 9 104.98 2.96
1 -3 -9 109.35 3.12
-1 3 9 105.88 3.55
0 -3 -9 440.26 10.91
0 3 9 476.96 11.2
0 -3 -9 465.43 10.54
0 3 9 455.34 10.32
-1 -3 -9 3.99 0.7
-1 -3 -9 3.33 0.58
1 3 9 3.63 0.66
1 3 9 4.4 0.71
-2 -3 -9 225.22 6.41
2 3 9 222.06 6.37
3 3 9 0.86 0.48
-3 -3 -9 0.84 0.58
-4 4 9 1.27 0.55
4 -4 -9 1.47 0.73
-3 4 9 157.12 5.39
3 -4 -9 162.62 5.78
2 -4 -9 58.14 2.84
-2 4 9 55.83 2.62
-1 4 9 42.91 1.7
-1 4 9 40.8 1.99
1 -4 -9 40.56 2.12
0 4 9 70.4 2.61
0 -4 -9 66.24 2.36
0 -4 -9 68.79 2.64
0 4 9 63.98 2.41
-1 -4 -9 1.24 0.42
1 4 9 0.77 0.37
1 4 9 0.53 0.41
-1 -4 -9 -0.22 0.28
-2 -4 -9 39.76 2.15
2 4 9 44.84 2.3
3 4 9 0.7 0.33
-3 -4 -9 0.31 0.41
-4 5 9 0.34 0.44
4 -5 -9 -0.36 0.47
3 -5 -9 2.27 0.83
-3 5 9 2.94 0.78
-2 5 9 35.16 2.04
2 -5 -9 31.94 2.08
1 -5 -9 90.39 3.43
-1 5 9 93.52 2.91
-1 5 9 85.98 3.21
0 -5 -9 2.61 0.62
0 5 9 3 0.64
0 5 9 2.56 0.58
0 -5 -9 2.3 0.44
1 5 9 37.81 1.97
-1 -5 -9 40.77 1.92
-1 -5 -9 39.39 1.9
-2 -5 -9 1.85 0.58
2 5 9 1.48 0.56
-3 -5 -9 0.88 0.47
3 5 9 0.39 0.39
4 -6 -9 1.32 0.76
-4 6 9 1.4 0.63
-3 6 9 25.58 1.87
3 -6 -9 25.68 2.02
-2 6 9 146.98 4.96
2 -6 -9 153.26 5.26
1 -6 -9 133.55 4.52
-1 6 9 131.86 3.94
-1 6 9 133.93 4.33
0 -6 -9 144.9 4.63
0 6 9 148.26 4.47
0 6 9 147.67 4.43
-1 -6 -9 49.29 2.18
1 6 9 45.63 2.3
-1 -6 -9 54.37 2.35
-2 -6 -9 5.21 0.87
2 6 9 3.97 0.85
3 6 9 0.84 0.46
-3 -6 -9 1.03 0.55
4 -7 -9 1.98 0.87
3 -7 -9 1.11 0.69
-3 7 9 1.79 0.67
2 -7 -9 6.34 1.06
-2 7 9 6.8 1.02
-1 7 9 1.04 0.46
1 -7 -9 1.24 0.61
-1 7 9 1.65 0.52
0 7 9 24.09 1.42
0 7 9 28.14 1.67
0 -7 -9 24.87 1.68
-1 -7 -9 14.81 1.14
-1 -7 -9 16.52 1.34
1 7 9 16.56 1.37
-2 -7 -9 2.8 0.67
2 7 9 3.25 0.79
3 7 9 0.61 0.53
-3 -7 -9 0.95 0.58
3 -8 -9 0.74 0.63
-3 8 9 0.85 0.5
2 -8 -9 161.99 5.52
-2 8 9 154.82 4.72
-2 8 9 155.01 5.23
-1 8 9 21.39 1.44
-1 8 9 19.19 1.36
1 -8 -9 20.26 1.64
0 8 9 0.29 0.39
0 -8 -9 0.7 0.56
1 8 9 1.44 0.62
-1 -8 -9 0.81 0.55
2 8 9 0.27 0.39
-2 -8 -9 0.34 0.4
-3 -8 -9 0.31 0.45
3 -9 -9 4.8 1.08
-3 9 9 3.6 0.89
2 -9 -9 4.63 0.96
-2 9 9 3.73 0.83
-2 9 9 4.82 0.82
-1 9 9 6.06 0.92
1 -9 -9 4.73 0.95
-1 9 9 4.63 0.81
0 9 9 0.39 0.47
0 -9 -9 0.02 0.44
1 9 9 21.19 1.69
-1 -9 -9 18.22 1.52
2 9 9 11.31 1.44
-3 10 9 13.97 1.65
3 -10 -9 14.3 1.65
2 -10 -9 1.78 0.73
-2 10 9 2.6 0.64
-2 10 9 1.71 0.61
1 -10 -9 6.84 1.08
-1 10 9 8.32 1.11
0 -10 -9 22.93 1.77
0 10 9 18.75 1.58
1 10 9 0.23 0.55
-1 -10 -9 1.56 0.65
2 10 9 2.83 0.92
2 -11 -9 8.63 1.34
-2 11 9 8.63 1.11
-2 11 9 10.52 1.29
1 -11 -9 1.31 0.68
-1 11 9 2.12 0.6
0 11 9 -0.93 0.3
0 -11 -9 0.06 0.55
1 11 9 0.52 0.64
-1 -11 -9 0.63 0.56
-2 12 9 0.38 0.32
-1 12 9 2.97 0.79
1 -12 -9 3.1 0.92
0 -12 -9 1.44 0.66
0 12 9 2.18 0.76
1 13 -10 0.21 0.43
-2 -12 10 6.27 1.04
1 12 -10 7.34 1.19
0 12 -10 -0.06 0.34
0 -12 10 1.25 0.54
1 -12 10 31.77 2.23
-2 -11 10 5.01 0.94
2 11 -10 4.97 1.02
1 11 -10 0.25 0.34
0 -11 10 1.96 0.62
0 11 -10 3.64 0.87
-1 11 -10 2.81 0.68
1 -11 10 1.41 0.61
-3 -10 10 0.53 0.55
-2 -10 10 0.19 0.35
2 10 -10 0.18 0.31
-1 -10 10 0.61 0.41
1 10 -10 0.25 0.39
0 10 -10 20.57 1.66
0 -10 10 23.43 1.72
-1 10 -10 31.93 2.02
1 -10 10 26.7 1.94
2 -10 10 1.11 0.56
-3 -9 10 4.86 0.94
3 9 -10 6.77 1.24
2 9 -10 4.97 0.94
-2 -9 10 4.49 0.83
-1 -9 10 4.17 0.67
-1 -9 10 3.44 0.72
1 9 -10 1.39 0.57
0 -9 10 7.66 1.08
0 9 -10 4.99 0.93
-1 9 -10 2.58 0.71
1 -9 10 2.69 0.75
2 -9 10 0.29 0.4
-2 9 -10 1.02 0.44
-3 -8 10 3.97 0.85
3 8 -10 2.84 0.92
2 8 -10 5.8 1.01
-2 -8 10 6.33 0.9
1 8 -10 0.77 0.46
-1 -8 10 0.46 0.41
-1 -8 10 0.69 0.41
0 -8 10 50.9 2.54
0 8 -10 53.9 2.65
1 -8 10 5.03 0.96
-1 8 -10 5.98 0.99
-2 8 -10 4.86 0.86
2 -8 10 3.2 0.86
-3 8 -10 21.12 1.76
4 7 -10 0.47 0.59
3 7 -10 5.68 1.11
-3 -7 10 6.67 0.98
-2 -7 10 0.16 0.35
2 7 -10 0.5 0.46
-2 -7 10 0.78 0.41
-1 -7 10 154.57 4.6
1 7 -10 153.31 5.07
-1 -7 10 156.23 4.87
0 7 -10 1.97 0.64
0 -7 10 1.76 0.56
-1 7 -10 76.9 3.19
1 -7 10 72.86 3.25
-2 7 -10 7.72 1
-2 7 -10 7.14 1.01
2 -7 10 6.19 1.11
-3 7 -10 0.99 0.57
-3 7 -10 2.15 0.6
3 -7 10 1.23 0.62
-4 -6 10 0 0.44
4 6 -10 0.19 0.51
3 6 -10 0.1 0.38
-3 -6 10 -0.1 0.34
-2 -6 10 44.86 2.17
2 6 -10 44.74 2.38
-2 -6 10 42.53 2.13
-1 -6 10 19.92 1.4
1 6 -10 18.08 1.44
-1 -6 10 16.1 1.15
0 -6 10 10.13 1.12
0 6 -10 8.17 1.09
1 -6 10 7.54 1.07
-1 6 -10 8.06 1.04
-2 6 -10 58.03 2.51
-2 6 -10 55.1 2.64
2 -6 10 58.81 2.9
-3 6 -10 0.1 0.31
3 -6 10 -0.41 0.38
-3 6 -10 0.04 0.41
4 5 -10 0.34 0.51
-4 -5 10 1.65 0.63
3 5 -10 0.84 0.53
-3 -5 10 0.71 0.49
2 5 -10 4.83 0.91
-2 -5 10 6.66 0.85
-2 -5 10 7.94 0.99
1 5 -10 96.48 3.58
-1 -5 10 97.41 3.52
-1 -5 10 99.38 3.26
0 -5 10 15.93 1.28
0 5 -10 11.95 1.26
-1 5 -10 0.27 0.29
1 -5 10 0.39 0.42
-2 5 -10 5.04 0.88
-2 5 -10 3.4 0.71
2 -5 10 3.31 0.84
-3 5 -10 9.37 1.16
3 -5 10 8.97 1.3
-3 5 -10 7.07 1.13
-4 -4 10 2.23 0.66
4 4 -10 0.94 0.66
-3 -4 10 1.97 0.6
3 4 -10 1.37 0.58
-3 -4 10 1.79 0.58
-2 -4 10 139.99 4.38
-2 -4 10 133.78 4.48
2 4 -10 137.31 4.49
-1 -4 10 25.88 1.46
-1 -4 10 27.29 1.63
1 4 -10 27.82 1.72
0 4 -10 1.78 0.65
0 -4 10 3.33 0.72
-1 4 -10 0.88 0.43
1 -4 10 0.73 0.48
2 -4 10 1.79 0.65
-2 4 -10 1.73 0.58
-2 4 -10 1.46 0.57
3 -4 10 2.97 0.84
-3 4 -10 4.48 0.87
3 -4 10 3.66 0.8
-4 -3 10 0.35 0.4
4 3 -10 -0.59 0.33
-3 -3 10 1.04 0.5
3 3 -10 0.85 0.5
-3 -3 10 0.6 0.5
-2 -3 10 46.63 2.26
-2 -3 10 52.32 2.39
2 3 -10 49.83 2.36
1 3 -10 1.98 0.64
-1 -3 10 3.34 0.72
-1 -3 10 2.31 0.54
0 3 -10 164.03 4.93
0 -3 10 160.17 4.94
1 -3 10 92.85 3.5
1 -3 10 98.36 3.17
-1 3 -10 90.06 3.41
-2 3 -10 41.45 2.2
2 -3 10 42.51 2.28
2 -3 10 41.62 2.19
-3 3 -10 9.09 1.18
3 -3 10 9.14 1.25
3 -3 10 6.6 1.15
-4 -2 10 0.18 0.36
-4 -2 10 -0.24 0.36
3 2 -10 -0.02 0.37
-3 -2 10 -0.26 0.34
-3 -2 10 -0.04 0.38
2 2 -10 5.74 0.9
-2 -2 10 6.1 0.87
-2 -2 10 7.09 0.95
1 2 -10 1.66 0.55
-1 -2 10 4.21 0.78
0 2 -10 0.41 0.44
0 -2 10 0 0.39
0 2 -10 0.16 0.28
1 -2 10 222.61 5.79
1 -2 10 215.1 6.27
-1 2 -10 224.74 6.24
2 -2 10 53.35 2.52
-2 2 -10 53.49 2.56
2 -2 10 56.36 2.57
3 -2 10 5.7 1.03
-3 2 -10 5.74 0.99
3 -2 10 5.93 1.01
-4 -1 10 0.02 0.35
4 1 -10 0.4 0.55
3 1 -10 0.48 0.38
-3 -1 10 0.48 0.42
-2 -1 10 14.17 1.2
2 1 -10 14.68 1.19
1 1 -10 12.6 1.15
1 1 -10 14.78 1.17
-1 -1 10 13.29 1.13
0 1 -10 91.21 3.03
0 -1 10 83.49 3.15
0 1 -10 85.6 3.09
-1 1 -10 100.88 3.61
1 -1 10 106.67 3.71
1 -1 10 107.83 3.34
2 -1 10 175.71 5.41
-2 1 -10 169.45 5.39
2 -1 10 179.84 5.4
-3 1 -10 4.55 0.91
3 -1 10 3.77 0.83
4 0 -10 0.69 0.57
-4 0 10 1.42 0.55
-3 0 10 0.34 0.34
3 0 -10 0.07 0.38
-2 0 10 53.82 2.45
2 0 -10 48.05 2.16
2 0 -10 51.75 2.72
1 0 -10 85.75 2.97
-1 0 10 82.72 3.16
1 0 -10 81.95 3.24
0 0 -10 4.48 0.72
0 0 10 4.44 0.78
0 0 -10 4.09 0.65
1 0 10 126.69 4.09
1 0 10 127.41 3.78
-1 0 -10 119.19 4.01
2 0 10 6.98 1.01
-2 0 -10 8 1.08
2 0 10 8.63 1.05
-3 0 -10 0.24 0.28
3 0 10 0.41 0.43
4 -1 -10 0.4 0.53
-4 1 10 1.51 0.53
3 -1 -10 3.76 0.91
-3 1 10 4.47 0.91
2 -1 -10 22.69 1.75
2 -1 -10 25.35 1.43
-2 1 10 24.91 1.65
-1 1 10 132.65 4.31
1 -1 -10 129.77 3.9
1 -1 -10 129.02 4.38
0 -1 -10 1.66 0.46
0 -1 -10 2.3 0.6
0 1 10 1.17 0.53
1 1 10 177.54 4.88
-1 -1 -10 177.09 5.18
1 1 10 177.52 5.24
2 1 10 12.92 1.18
-2 -1 -10 12.73 1.31
2 1 10 12.95 1.29
-3 -1 -10 12.18 1.44
3 1 10 10.2 1.36
-4 2 10 11.31 1.41
4 -2 -10 11.21 1.56
-3 2 10 13.77 1.45
3 -2 -10 7.44 1.2
2 -2 -10 48.58 2.62
-2 2 10 46.98 2.38
1 -2 -10 41.86 2.22
1 -2 -10 46.67 1.94
-1 2 10 47.35 2.24
0 2 10 171.14 5.13
0 2 10 173.65 4.59
0 -2 -10 176.35 5.05
0 -2 -10 180.02 4.92
1 2 10 336.59 8.66
1 2 10 335.27 8.28
-1 -2 -10 346.6 8.61
2 2 10 0.44 0.34
-2 -2 -10 -0.5 0.26
-3 -2 -10 14.98 1.53
3 2 10 16.56 1.68
-4 3 10 -0.23 0.31
4 -3 -10 0.29 0.53
-3 3 10 0.29 0.43
3 -3 -10 0.08 0.52
2 -3 -10 4.98 0.87
-2 3 10 3.84 0.78
1 -3 -10 4.49 0.63
1 -3 -10 3.64 0.71
-1 3 10 3.96 0.74
0 -3 -10 114.38 3.67
0 3 10 108.94 3.71
0 -3 -10 105.49 3.41
0 3 10 104.55 3.27
1 3 10 3.64 0.79
1 3 10 2.68 0.64
-1 -3 -10 3.11 0.68
2 3 10 43.87 2.29
-2 -3 -10 44.58 2.33
-3 -3 -10 2.09 0.74
3 3 10 2.09 0.69
4 -4 -10 0.06 0.54
-4 4 10 0 0.4
3 -4 -10 42.41 2.74
-3 4 10 44.4 2.52
2 -4 -10 4.8 0.92
-2 4 10 4.67 0.9
1 -4 -10 10.11 1.13
-1 4 10 9.99 1.08
0 4 10 329.27 7.86
0 -4 -10 320.88 7.85
0 -4 -10 317.7 8.27
0 4 10 315.67 8.31
1 4 10 176.73 5.23
-1 -4 -10 176.79 5.23
1 4 10 187.21 5.28
2 4 10 1.61 0.56
-2 -4 -10 1.35 0.56
3 4 10 18.39 1.63
-3 -4 -10 17.49 1.58
-4 5 10 -0.04 0.47
4 -5 -10 -0.02 0.56
3 -5 -10 -0.24 0.43
-3 5 10 -0.09 0.31
-2 5 10 24.15 1.73
2 -5 -10 23.54 1.81
-1 5 10 34.54 1.88
1 -5 -10 33.57 1.98
0 5 10 54.76 2.3
0 5 10 52.83 2.28
0 -5 -10 53.92 2.44
1 5 10 6.6 0.94
-1 -5 -10 5.28 0.8
2 5 10 3.24 0.82
-2 -5 -10 2.34 0.7
3 5 10 -0.04 0.36
-3 -5 -10 0.25 0.48
4 -6 -10 2 0.83
-3 6 10 26.43 1.96
3 -6 -10 33.35 2.37
-2 6 10 -0.04 0.36
2 -6 -10 0.5 0.52
-1 6 10 145.98 4.24
-1 6 10 144.45 4.7
1 -6 -10 145.13 4.91
0 6 10 113.83 3.82
0 -6 -10 114.31 4
0 6 10 117.77 3.85
-1 -6 -10 0.58 0.44
1 6 10 0.3 0.37
-1 -6 -10 0.47 0.36
2 6 10 1.55 0.55
-2 -6 -10 0.95 0.49
-3 -6 -10 17.78 1.75
3 6 10 15.98 1.75
-3 7 10 4.35 0.96
3 -7 -10 5.1 1.13
-2 7 10 2.55 0.71
2 -7 -10 3.04 0.86
-1 7 10 26.47 1.56
-1 7 10 27.97 1.74
1 -7 -10 26.7 1.86
0 -7 -10 16.1 1.42
0 7 10 15.81 1.3
-1 -7 -10 21.09 1.52
1 7 10 18.96 1.49
-2 -7 -10 2.3 0.7
2 7 10 2.64 0.79
-3 -7 -10 5.21 1.08
-3 8 10 2.99 0.83
3 -8 -10 3.46 1.03
-2 8 10 28.25 1.9
2 -8 -10 29.47 2.11
-1 8 10 16.33 1.27
1 -8 -10 18.1 1.55
-1 8 10 15.58 1.3
0 -8 -10 0.66 0.52
0 8 10 -0.2 0.35
1 8 10 6.95 1.14
-1 -8 -10 7.27 1.03
2 8 10 0.39 0.52
3 -9 -10 5.3 1.2
-3 9 10 7.07 1.28
-2 9 10 0.27 0.4
2 -9 -10 0.42 0.63
1 -9 -10 6.53 1.08
-1 9 10 5.95 0.9
-1 9 10 6.58 0.93
0 9 10 0.37 0.49
0 -9 -10 0.65 0.53
1 9 10 12.09 1.44
-1 -9 -10 15.75 1.5
2 9 10 -0.56 0.31
2 -10 -10 4.98 1.05
-2 10 10 6.37 1.1
1 -10 -10 22.82 1.87
-1 10 10 28.96 1.84
0 10 10 5.36 1.04
0 -10 -10 5.99 1.07
1 10 10 7.64 1.25
-1 -10 -10 7.52 1.12
-2 11 10 2.17 0.66
1 -11 -10 11.75 1.46
-1 11 10 17.12 1.44
0 -11 -10 19.61 1.78
0 11 10 16.71 1.7
1 11 10 1.06 0.69
-1 -11 -10 1.36 0.81
-1 12 10 6.94 1.18
1 12 -11 10.22 1.42
0 -12 11 13.01 1.49
0 12 -11 10.74 1.4
-2 -11 11 1.36 0.69
2 11 -11 0.29 0.44
1 11 -11 8.26 1.24
0 11 -11 2.76 0.76
0 -11 11 3.8 0.88
-1 11 -11 0.66 0.42
1 -11 11 0.02 0.41
-2 -10 11 0.91 0.53
2 10 -11 0.82 0.49
1 10 -11 7.46 1.13
0 -10 11 16.09 1.44
0 10 -11 13.48 1.49
-1 10 -11 1.2 0.4
1 -10 11 1.43 0.67
-3 -9 11 0.75 0.59
3 9 -11 0.11 0.52
-2 -9 11 1.62 0.65
2 9 -11 2.07 0.68
1 9 -11 2.12 0.69
-1 -9 11 1.97 0.64
0 -9 11 24.59 1.77
0 9 -11 23.47 1.79
-1 9 -11 13.37 1.43
1 -9 11 12.75 1.47
2 -9 11 1.14 0.6
-2 9 -11 1.67 0.62
-3 -8 11 10.08 1.22
3 8 -11 8.54 1.4
-2 -8 11 -0.06 0.3
2 8 -11 0.03 0.39
-1 -8 11 -0.26 0.28
-1 -8 11 0.06 0.27
1 8 -11 -0.45 0.26
0 -8 11 -0.01 0.31
0 8 -11 0.26 0.34
-1 8 -11 22.99 1.74
1 -8 11 27.29 1.92
2 -8 11 0.31 0.5
-2 8 -11 1.28 0.47
3 7 -11 0.6 0.58
-3 -7 11 0.36 0.5
2 7 -11 0.39 0.46
-2 -7 11 0.23 0.38
-2 -7 11 -0.41 0.3
-1 -7 11 -0.19 0.3
1 7 -11 0.4 0.38
-1 -7 11 0.72 0.41
0 7 -11 1.32 0.59
0 -7 11 2.06 0.71
-1 7 -11 -0.08 0.3
1 -7 11 0.28 0.37
-2 7 -11 3.34 0.73
2 -7 11 3.05 0.89
-3 7 -11 8.11 1.16
-3 7 -11 8.32 1.23
4 6 -11 0.4 0.52
3 6 -11 5.04 1.05
-3 -6 11 4.2 0.83
-2 -6 11 2.16 0.62
2 6 -11 0.99 0.55
-2 -6 11 1.38 0.53
1 6 -11 4.86 0.93
-1 -6 11 4.35 0.68
-1 -6 11 6.52 0.95
0 -6 11 2.15 0.62
0 6 -11 1.97 0.67
-1 6 -11 1.69 0.59
1 -6 11 2.51 0.74
2 -6 11 46.42 2.63
-2 6 -11 45.32 2.44
-3 6 -11 5.7 1.09
-3 6 -11 4.19 0.88
3 -6 11 4.11 1.05
-4 -5 11 0.88 0.56
4 5 -11 0.39 0.49
-3 -5 11 0.57 0.46
3 5 -11 0.68 0.47
-2 -5 11 96.14 3.66
-2 -5 11 99.49 3.57
2 5 -11 96.86 3.82
1 5 -11 65.52 2.9
-1 -5 11 62.62 2.77
-1 -5 11 65.72 2.55
0 5 -11 1.09 0.54
0 -5 11 0.85 0.43
1 -5 11 6.34 1.04
-1 5 -11 4.53 0.87
-2 5 -11 35.16 2.11
2 -5 11 35.42 2.24
-3 5 -11 6.17 1.03
3 -5 11 5.72 1.16
3 -5 11 4.04 0.88
-4 -4 11 6.13 1.03
4 4 -11 4.83 1.05
-3 -4 11 34.8 2.03
3 4 -11 33.24 2.11
-3 -4 11 29.67 1.95
2 4 -11 -0.07 0.43
-2 -4 11 0.35 0.43
-2 -4 11 1.08 0.5
-1 -4 11 4.07 0.65
1 4 -11 4.05 0.84
-1 -4 11 3.4 0.78
0 -4 11 30.89 1.84
0 4 -11 31.3 1.9
-1 4 -11 5.8 0.94
1 -4 11 5.34 0.98
2 -4 11 0.19 0.42
2 -4 11 -0.07 0.26
-2 4 -11 -0.43 0.22
-3 4 -11 3.55 0.82
3 -4 11 3.17 0.88
3 -4 11 2.38 0.72
4 3 -11 1.3 0.57
-4 -3 11 2.31 0.74
-3 -3 11 29.09 1.87
-3 -3 11 27.91 1.88
3 3 -11 27.05 1.85
2 3 -11 58.93 2.66
-2 -3 11 59.48 2.7
-2 -3 11 57.38 2.58
-1 -3 11 60.03 2.42
1 3 -11 54.93 2.55
-1 -3 11 60.9 2.66
0 3 -11 67.83 2.87
0 -3 11 67.32 2.86
-1 3 -11 5.83 0.95
1 -3 11 5.82 0.98
2 -3 11 16.76 1.36
-2 3 -11 14.44 1.3
2 -3 11 16.35 1.45
3 -3 11 22.35 1.82
-3 3 -11 18.98 1.61
3 -3 11 19.31 1.68
-4 -2 11 9.7 1.27
3 2 -11 92.3 3.53
-3 -2 11 88.52 3.63
-3 -2 11 83.43 3.52
-2 -2 11 9.59 1.12
-2 -2 11 5.55 0.84
2 2 -11 8.1 1.05
-1 -2 11 0.87 0.54
1 2 -11 0.6 0.47
1 2 -11 1.1 0.45
0 -2 11 165.86 5.15
0 2 -11 161.16 5.01
-1 2 -11 58.54 2.71
1 -2 11 66.14 2.84
2 -2 11 4.49 0.84
2 -2 11 3.65 0.85
-2 2 -11 3.35 0.77
3 -2 11 5.33 1.02
3 -2 11 5.55 1.08
-3 2 -11 6.44 1.07
4 1 -11 4.11 1.12
-4 -1 11 4.11 0.91
3 1 -11 12.32 1.26
-3 -1 11 12.89 1.38
3 1 -11 12.51 1.49
2 1 -11 0.97 0.51
2 1 -11 0.47 0.4
-2 -1 11 0.66 0.43
-1 -1 11 0.83 0.5
1 1 -11 1.79 0.6
1 1 -11 1.42 0.46
0 1 -11 100.3 3.58
0 -1 11 105.24 3.72
-1 1 -11 5.95 0.94
1 -1 11 6.08 0.95
-2 1 -11 57.31 2.79
2 -1 11 56.5 2.65
2 -1 11 63.11 2.81
3 -1 11 -0.18 0.34
-3 1 -11 0.76 0.38
-4 0 11 9.6 1.34
4 0 -11 6.83 1.28
3 0 -11 8.82 1.27
-3 0 11 7.13 1.1
-2 0 11 0.77 0.49
2 0 -11 1.1 0.5
2 0 -11 0.16 0.36
1 0 -11 49.68 2.24
1 0 -11 50.57 2.48
-1 0 11 51.72 2.45
0 0 -11 25.24 1.58
0 0 -11 26.09 1.53
0 0 11 27.72 1.68
1 0 11 9.67 1.12
-1 0 -11 10.94 1.18
1 0 11 9.71 0.96
2 0 11 81.33 3.27
2 0 11 80.94 3.27
-2 0 -11 77.09 3.33
-3 0 -11 0.86 0.39
3 0 11 1.03 0.49
-4 1 11 1.37 0.58
4 -1 -11 0.76 0.58
3 -1 -11 1.62 0.64
-3 1 11 3.81 0.87
2 -1 -11 9.58 1.23
2 -1 -11 9.75 0.99
-2 1 11 8.25 1.1
1 -1 -11 15.86 1.32
-1 1 11 15.46 1.3
1 -1 -11 17.3 1.26
0 -1 -11 28.08 1.65
0 -1 -11 29.97 1.63
0 1 11 28.9 1.84
1 1 11 589.02 14.29
1 1 11 599.59 13.4
-1 -1 -11 590.2 13.88
2 1 11 20.57 1.52
-2 -1 -11 21.83 1.64
2 1 11 17.21 1.4
3 1 11 0.11 0.37
-3 -1 -11 0.04 0.37
4 -2 -11 14.68 1.85
-4 2 11 16.48 1.56
-3 2 11 4.3 0.95
3 -2 -11 3.56 0.94
-2 2 11 9.04 1.18
2 -2 -11 6.65 1.03
1 -2 -11 1.43 0.5
1 -2 -11 2.23 0.61
-1 2 11 1.85 0.63
0 -2 -11 0.58 0.4
0 -2 -11 0.09 0.34
0 2 11 0.53 0.45
-1 -2 -11 15.73 1.31
1 2 11 16.19 1.28
1 2 11 15.21 1.16
2 2 11 2.44 0.71
-2 -2 -11 2.43 0.71
3 2 11 0.36 0.42
-3 -2 -11 0.87 0.56
-4 3 11 14.5 1.68
4 -3 -11 17.19 1.95
-3 3 11 67.38 3.35
3 -3 -11 70.82 3.64
2 -3 -11 16.63 1.62
-2 3 11 16.75 1.4
-1 3 11 1.27 0.52
1 -3 -11 0.92 0.45
0 3 11 1.57 0.61
0 -3 -11 0.77 0.41
0 -3 -11 0.11 0.32
-1 -3 -11 25.14 1.63
1 3 11 24.76 1.54
1 3 11 27.59 1.75
2 3 11 1.17 0.48
-2 -3 -11 0.49 0.46
-3 -3 -11 6.07 1.14
3 3 11 6.59 1.14
-4 4 11 16.15 1.8
4 -4 -11 15.24 1.88
-3 4 11 0.66 0.47
3 -4 -11 1.7 0.76
-2 4 11 123.93 4.47
2 -4 -11 117.8 4.68
-1 4 11 19.38 1.45
1 -4 -11 20.19 1.56
0 -4 -11 35.38 1.78
0 4 11 35.68 1.93
0 -4 -11 34.44 1.91
-1 -4 -11 0.92 0.46
1 4 11 0.44 0.38
-2 -4 -11 15.12 1.49
2 4 11 18.21 1.49
3 4 11 0.88 0.53
-3 -4 -11 1.53 0.66
3 -5 -11 20.34 1.99
-3 5 11 14.92 1.61
-2 5 11 55.58 2.83
2 -5 -11 57.29 3.02
-1 5 11 229.78 6.77
1 -5 -11 236.81 6.96
0 5 11 11.13 1.1
0 5 11 9.49 1.04
0 -5 -11 11.53 1.15
-1 -5 -11 2.99 0.7
1 5 11 1.86 0.63
2 5 11 0.31 0.43
-2 -5 -11 0.66 0.46
3 5 11 -0.63 0.38
-3 -5 -11 0.18 0.43
-3 6 11 16.43 1.56
3 -6 -11 17.44 1.92
-2 6 11 0.48 0.45
2 -6 -11 0.81 0.64
1 -6 -11 20.73 1.63
-1 6 11 19.47 1.5
0 -6 -11 0.31 0.44
0 6 11 -0.05 0.4
0 6 11 0 0.26
1 6 11 2.16 0.64
-1 -6 -11 3.05 0.68
2 6 11 1.29 0.52
-2 -6 -11 1.12 0.5
-3 7 11 4.65 0.98
3 -7 -11 3.19 0.99
2 -7 -11 0.71 0.54
-2 7 11 1.11 0.53
-1 7 11 13.81 1.28
1 -7 -11 13.06 1.4
0 -7 -11 41.24 2.3
0 7 11 38.41 2.09
1 7 11 1.01 0.58
2 7 11 0.31 0.44
-2 -7 -11 -0.25 0.35
-3 8 11 1.52 0.63
3 -8 -11 1.34 0.85
2 -8 -11 0.35 0.53
-2 8 11 0.66 0.42
-1 8 11 2.57 0.73
1 -8 -11 2.66 0.76
0 -8 -11 32.25 2.08
0 8 11 31.84 1.95
1 8 11 -0.16 0.44
2 8 11 -1.19 0.3
-2 9 11 1.62 0.56
2 -9 -11 0.14 0.58
1 -9 -11 -0.04 0.44
0 9 11 8.28 1.18
0 -9 -11 11.46 1.34
1 9 11 17.47 1.54
-1 -9 -11 20.45 1.65
-2 10 11 3.46 0.84
1 -10 -11 6.29 1.13
0 -10 -11 1.3 0.66
0 10 11 2.57 0.73
-1 -10 -11 11.57 1.39
1 10 11 8.68 1.36
-1 11 11 1.49 0.46
0 11 11 0.17 0.5
-2 -11 12 0.36 0.51
1 11 -12 -0.16 0.31
0 11 -12 0.88 0.47
0 -11 12 0.77 0.54
-1 11 -12 6.69 1.14
-2 -10 12 0.68 0.56
2 10 -12 0.29 0.45
1 10 -12 1.28 0.52
0 10 -12 14.33 1.57
0 -10 12 14.96 1.58
1 -10 12 0.11 0.37
-1 10 -12 0.61 0.49
2 9 -12 1.93 0.72
-2 -9 12 2.14 0.66
1 9 -12 12.24 1.42
-1 -9 12 11.59 1.29
0 -9 12 0.1 0.34
0 9 -12 0.44 0.32
1 -9 12 15.71 1.7
-1 9 -12 18.8 1.62
-2 9 -12 0.79 0.51
-3 -8 12 2.87 0.8
3 8 -12 1.5 0.77
2 8 -12 1.04 0.62
-2 -8 12 0.99 0.49
-1 -8 12 0.21 0.38
1 8 -12 -0.02 0.28
0 8 -12 37.94 2.33
0 -8 12 35.79 2.23
-1 8 -12 2.43 0.68
1 -8 12 1.48 0.61
-2 8 -12 3.72 0.85
2 -8 12 3.23 0.99
3 7 -12 -0.41 0.44
-3 -7 12 0.29 0.59
2 7 -12 -0.45 0.31
-2 -7 12 0.45 0.43
-2 -7 12 0 0.35
1 7 -12 0.06 0.35
-1 -7 12 0.6 0.39
0 7 -12 1.55 0.61
0 -7 12 1.96 0.68
-1 7 -12 0.7 0.35
1 -7 12 0.78 0.42
-2 7 -12 2.99 0.75
2 -7 12 3.02 0.91
3 6 -12 0.12 0.44
-3 -6 12 1.11 0.59
-2 -6 12 6.19 0.87
2 6 -12 5.87 1.08
-2 -6 12 6.63 1
-1 -6 12 1.51 0.58
1 6 -12 1.19 0.6
-1 -6 12 0.64 0.44
0 -6 12 6.93 1.08
0 6 -12 6.65 1.04
-1 6 -12 7.6 1.11
1 -6 12 7.99 1.17
-2 6 -12 4.15 0.85
2 -6 12 3.88 0.95
4 5 -12 2.21 0.87
-3 -5 12 1.52 0.66
3 5 -12 2.01 0.8
-3 -5 12 2.9 0.71
-2 -5 12 0.04 0.37
-2 -5 12 0.37 0.4
2 5 -12 0.35 0.46
-1 -5 12 26.88 1.55
1 5 -12 27.43 1.87
-1 -5 12 25.76 1.73
0 5 -12 23.2 1.73
0 -5 12 23.07 1.68
-1 5 -12 46.08 2.49
1 -5 12 46.41 2.55
-2 5 -12 10.87 1.3
2 -5 12 10.15 1.37
3 -5 12 11.09 1.54
4 4 -12 1.15 0.74
-3 -4 12 4.44 0.87
-3 -4 12 4.25 0.85
3 4 -12 3.46 0.89
2 4 -12 12.82 1.4
-2 -4 12 14.65 1.28
-2 -4 12 14.83 1.37
-1 -4 12 36.54 2.07
-1 -4 12 35.63 1.84
1 4 -12 34.91 2.07
0 -4 12 150.9 5.08
0 4 -12 155.37 5.08
1 -4 12 117.92 4.4
-1 4 -12 117.48 4.34
-2 4 -12 0.18 0.31
2 -4 12 0.37 0.43
-3 4 -12 0.2 0.34
3 -4 12 -0.12 0.41
3 -4 12 0.16 0.5
-4 -3 12 0.3 0.55
-3 -3 12 22.08 1.73
-3 -3 12 23.98 1.74
3 3 -12 25.17 1.83
-2 -3 12 7.25 1
-2 -3 12 6.72 1.02
2 3 -12 5.17 0.96
1 3 -12 86.63 3.43
1 3 -12 83.9 3.54
-1 -3 12 87.1 3.55
0 3 -12 4.37 0.91
0 -3 12 4.09 0.89
-1 3 -12 113.12 4.23
1 -3 12 120.42 4.38
2 -3 12 -0.22 0.46
-2 3 -12 0.1 0.26
3 -3 12 26.25 1.96
-3 3 -12 24.99 1.9
3 -3 12 23.04 1.87
4 2 -12 4.63 1.17
-4 -2 12 6.26 1.11
-3 -2 12 4.63 0.97
3 2 -12 5.51 1.02
2 2 -12 1.03 0.55
2 2 -12 2.35 0.69
-2 -2 12 1.93 0.66
1 2 -12 45.06 2.34
-1 -2 12 50.74 2.52
1 2 -12 48.16 2.52
0 2 -12 112.75 4
0 -2 12 110.28 4.06
1 -2 12 46.55 2.44
-1 2 -12 46.19 2.42
2 -2 12 -0.13 0.4
-2 2 -12 1.11 0.4
-3 2 -12 1.52 0.62
3 -2 12 2.25 0.68
4 1 -12 0.12 0.62
-4 -1 12 0.7 0.53
3 1 -12 12.77 1.56
-3 -1 12 13.38 1.46
-2 -1 12 8.16 1.12
2 1 -12 10.37 1.15
2 1 -12 9.34 1.24
1 1 -12 5.12 0.87
1 1 -12 6.74 0.94
-1 -1 12 4.94 0.9
0 1 -12 137.83 4.48
0 -1 12 134.96 4.58
1 -1 12 0.72 0.57
-1 1 -12 0.55 0.45
-2 1 -12 2.11 0.69
2 -1 12 1.31 0.5
2 -1 12 1.5 0.68
-3 1 -12 36.48 2.38
3 -1 12 37.66 2.41
-4 0 12 4.82 1.04
4 0 -12 4.09 1.1
-3 0 12 8.05 1.2
3 0 -12 6.12 1.11
2 0 -12 -0.36 0.36
2 0 -12 0.04 0.37
-2 0 12 0.38 0.4
-1 0 12 5.53 0.96
1 0 -12 3.84 0.77
1 0 -12 5.2 0.84
0 0 -12 141.1 4.48
0 0 12 132.26 4.57
-1 0 -12 2.45 0.72
1 0 12 3.31 0.82
2 0 12 0.17 0.32
-2 0 -12 0.42 0.47
2 0 12 0.35 0.5
-3 0 -12 0.49 0.55
3 0 12 1.2 0.55
-4 1 12 6.79 1.23
4 -1 -12 3.26 1.04
-3 1 12 3.54 0.85
3 -1 -12 3.81 0.91
-2 1 12 2.51 0.78
2 -1 -12 2.05 0.71
1 -1 -12 0.44 0.35
1 -1 -12 1.28 0.52
-1 1 12 1.34 0.62
0 1 12 8.81 1.13
0 -1 -12 7.97 1.01
-1 -1 -12 12.39 1.29
1 1 12 12.72 1.21
-2 -1 -12 0.93 0.5
2 1 12 0.05 0.28
3 1 12 2.61 0.8
-3 -1 -12 2.02 0.81
-4 2 12 0.36 0.45
4 -2 -12 0.38 0.63
-3 2 12 3.22 0.84
3 -2 -12 0.84 0.47
2 -2 -12 3.69 0.85
-2 2 12 3 0.8
1 -2 -12 48.51 2.17
1 -2 -12 49.86 2.56
-1 2 12 45.18 2.39
0 -2 -12 168.49 5.02
0 -2 -12 164.74 4.91
0 2 12 154.41 5.12
1 2 12 3.5 0.76
-1 -2 -12 2.89 0.75
2 2 12 7.85 1.1
-2 -2 -12 7.15 1.11
3 2 12 3.01 0.94
3 -3 -12 0.28 0.42
-3 3 12 0.68 0.47
-2 3 12 15.78 1.43
2 -3 -12 17.09 1.7
1 -3 -12 0.86 0.51
-1 3 12 0.57 0.47
0 3 12 154.75 5.09
0 -3 -12 154.61 4.73
0 -3 -12 159.83 4.92
1 3 12 9.17 1.12
-1 -3 -12 7.42 1.03
2 3 12 11.82 1.32
-2 -3 -12 9.55 1.24
3 3 12 6.79 1.23
3 -4 -12 2.03 0.9
-3 4 12 1.89 0.69
-2 4 12 11.64 1.36
2 -4 -12 11.51 1.38
1 -4 -12 215.61 6.69
-1 4 12 221.27 6.6
0 -4 -12 42.64 2.24
0 4 12 47.43 2.34
0 -4 -12 43.94 2.13
1 4 12 18.8 1.4
-1 -4 -12 18.1 1.44
2 4 12 26.84 1.83
-2 -4 -12 24.26 1.83
3 -5 -12 0.04 0.56
-3 5 12 0.49 0.47
2 -5 -12 8.25 1.21
-2 5 12 12.36 1.42
-1 5 12 0.23 0.39
1 -5 -12 1.69 0.63
0 5 12 7.58 1
0 -5 -12 6.79 1
-1 -5 -12 2.8 0.68
1 5 12 2.8 0.72
2 5 12 36.75 2.25
-2 -5 -12 33.03 2.15
3 -6 -12 5.79 1.28
-3 6 12 6.85 1.21
-2 6 12 0.52 0.46
2 -6 -12 -0.35 0.38
-1 6 12 104.92 4.02
1 -6 -12 105.94 4.19
0 -6 -12 13.58 1.35
0 6 12 12.22 1.16
1 6 12 -0.31 0.28
2 6 12 0.77 0.51
-2 -6 -12 -0.09 0.36
-3 7 12 7.16 1.28
3 -7 -12 9.12 1.46
2 -7 -12 48.8 2.86
-2 7 12 42.99 2.54
-1 7 12 4.53 0.92
1 -7 -12 4.62 0.93
0 -7 -12 20.55 1.61
1 7 12 0.24 0.44
2 7 12 -0.26 0.38
2 -8 -12 6.95 1.2
-2 8 12 5.05 1
1 -8 -12 9.21 1.27
-1 8 12 12.96 1.38
0 -8 -12 11.68 1.37
1 8 12 2.63 0.83
-2 9 12 1.29 0.65
1 -9 -12 5.44 1.08
0 9 12 1.79 0.59
0 -9 -12 0.51 0.43
1 9 12 0.31 0.49
0 -10 -12 1.16 0.73
0 10 12 1.61 0.66
-2 -10 13 -0.05 0.43
1 10 -13 11.36 1.48
0 -10 13 0.2 0.44
0 10 -13 0.49 0.41
2 9 -13 3.26 1.03
-2 -9 13 3.7 0.81
1 9 -13 1.06 0.51
-1 -9 13 1.21 0.55
0 9 -13 4.55 0.99
0 -9 13 5.74 1.11
1 -9 13 -0.62 0.36
-1 9 -13 0.36 0.37
-2 -8 13 0.39 0.42
2 8 -13 0.2 0.51
1 8 -13 9.76 1.3
-1 -8 13 8.44 1.18
0 -8 13 2.31 0.69
0 8 -13 3.8 0.92
1 -8 13 0.4 0.5
-1 8 -13 1.56 0.55
3 7 -13 0.74 0.71
-3 -7 13 1.73 0.66
-2 -7 13 2.02 0.61
-2 -7 13 1.12 0.57
2 7 -13 0.61 0.58
1 7 -13 8.59 1.26
-1 -7 13 7.95 1.14
0 7 -13 40.5 2.43
0 -7 13 38.64 2.36
1 -7 13 0.05 0.37
-1 7 -13 -0.54 0.23
-2 7 -13 9.08 1.27
3 6 -13 0.09 0.49
-3 -6 13 0.1 0.5
-2 -6 13 10.79 1.26
-2 -6 13 9.2 1.13
2 6 -13 7.44 1.22
-1 -6 13 2.17 0.62
1 6 -13 1.81 0.73
0 6 -13 21.25 1.68
0 -6 13 19.75 1.64
-1 6 -13 2.82 0.73
1 -6 13 1.41 0.66
2 -6 13 2.77 0.92
-2 6 -13 2.92 0.78
3 5 -13 3.17 0.95
-3 -5 13 3.8 0.82
-3 -5 13 4.08 0.87
-2 -5 13 19.4 1.47
-2 -5 13 21.83 1.66
2 5 -13 15.06 1.6
-1 -5 13 0.7 0.41
1 5 -13 -0.03 0.5
0 -5 13 11.12 1.33
0 5 -13 9.87 1.32
-1 5 -13 12.38 1.4
1 -5 13 10.97 1.44
2 -5 13 11.16 1.51
-2 5 -13 12.33 1.45
3 4 -13 7.85 1.27
-3 -4 13 8.34 1.16
-3 -4 13 8.21 1.15
-2 -4 13 55.83 2.63
-2 -4 13 49.85 2.68
2 4 -13 51.22 2.68
-1 -4 13 132 4.7
1 4 -13 123.1 4.58
0 -4 13 15.93 1.43
0 4 -13 17.8 1.57
-1 4 -13 0.61 0.37
1 -4 13 0.25 0.49
2 -4 13 7.05 1.21
-2 4 -13 6.88 1.1
-3 -3 13 10.99 1.34
3 3 -13 9.58 1.29
-3 -3 13 12.68 1.37
-2 -3 13 0.84 0.46
2 3 -13 1.86 0.68
-1 -3 13 2.85 0.83
1 3 -13 2.19 0.75
1 3 -13 1.8 0.61
0 -3 13 48.2 2.55
0 3 -13 44.5 2.46
-1 3 -13 1.87 0.71
1 -3 13 0.3 0.55
-2 3 -13 14.16 1.51
2 -3 13 19.45 1.68
-4 -2 13 6.93 1.21
-3 -2 13 9.68 1.3
3 2 -13 8.93 1.22
3 2 -13 7.7 1.22
-2 -2 13 9.41 1.22
2 2 -13 10.58 1.25
2 2 -13 8.55 1.21
1 2 -13 35.32 2.13
-1 -2 13 33.51 2.06
1 2 -13 30.59 1.97
0 2 -13 57.95 2.77
0 -2 13 57.09 2.78
1 -2 13 55.73 2.8
-1 2 -13 53.4 2.75
2 -2 13 21.33 1.73
-2 2 -13 17.61 1.71
-4 -1 13 20.06 1.83
3 1 -13 4.27 0.96
-3 -1 13 6.77 1.18
2 1 -13 8.87 1.23
-2 -1 13 11.01 1.3
2 1 -13 13.14 1.32
-1 -1 13 3.51 0.88
1 1 -13 2.07 0.6
1 1 -13 3.52 0.82
0 1 -13 87.99 3.47
0 -1 13 84.35 3.5
-1 1 -13 5.84 0.99
1 -1 13 6.66 1.08
-2 1 -13 1.6 0.71
2 -1 13 2.92 0.85
-4 0 13 1.28 0.58
-3 0 13 0.48 0.38
3 0 -13 0.36 0.41
2 0 -13 0.88 0.51
2 0 -13 0.82 0.54
-2 0 13 1.46 0.6
1 0 -13 33.29 2.1
-1 0 13 35.91 2.17
1 0 -13 37.92 2.09
0 0 13 105.71 4.06
0 0 -13 95.54 3.72
-1 0 -13 3.99 0.87
1 0 13 6.23 1.05
-2 0 -13 12.45 1.47
2 0 13 13.27 1.45
3 0 13 0.14 0.37
-3 1 13 1.25 0.61
3 -1 -13 -0.07 0.37
2 -1 -13 0.16 0.39
-2 1 13 -0.3 0.38
1 -1 -13 29.18 1.97
1 -1 -13 29.11 1.82
-1 1 13 28.64 1.92
0 -1 -13 0.48 0.49
0 1 13 0.52 0.42
1 1 13 0.51 0.46
-1 -1 -13 0.59 0.47
-2 -1 -13 0.78 0.57
-3 2 13 9.16 1.33
3 -2 -13 7.81 1.26
-2 2 13 45.62 2.58
2 -2 -13 48.79 2.84
-1 2 13 1.24 0.59
1 -2 -13 1.52 0.55
0 2 13 3.7 0.82
0 -2 -13 3.79 0.77
-1 -2 -13 53.66 2.65
1 2 13 53.05 2.71
-2 -2 -13 1.01 0.58
3 -3 -13 24.64 2.16
-3 3 13 24.12 2.01
2 -3 -13 22.82 1.92
-2 3 13 25.42 1.9
1 -3 -13 -0.18 0.35
-1 3 13 0.08 0.38
0 3 13 25 1.75
0 -3 -13 24.99 1.66
1 3 13 69.58 3.05
-1 -3 -13 66.7 3.01
-2 -3 -13 1.42 0.62
2 3 13 0.75 0.47
-3 4 13 -0.11 0.42
3 -4 -13 1.38 0.59
-2 4 13 2.17 0.7
2 -4 -13 2.61 0.73
-1 4 13 12.44 1.36
1 -4 -13 13.54 1.41
0 4 13 1.56 0.59
-1 -4 -13 0.1 0.35
-2 -4 -13 1.26 0.62
2 4 13 0.5 0.49
-3 5 13 0.07 0.43
3 -5 -13 -0.6 0.41
2 -5 -13 5.36 1.09
-2 5 13 6.68 1.13
1 -5 -13 60.46 3.03
-1 5 13 59.04 2.91
0 5 13 5.48 0.9
0 -5 -13 6.6 0.97
-1 -5 -13 3.04 0.73
2 5 13 10.58 1.36
-2 -5 -13 5.69 1.05
2 -6 -13 25.33 2.06
-2 6 13 24.16 1.92
-1 6 13 0.65 0.4
1 -6 -13 0.98 0.56
0 -6 -13 0.51 0.47
2 6 13 -0.67 0.43
-2 -6 -13 0.65 0.47
-2 7 13 2.88 0.83
2 -7 -13 3.84 0.98
-1 7 13 10.45 1.29
1 -7 -13 8.79 1.25
0 -7 -13 0.59 0.53
-2 8 13 36.77 2.41
1 -8 -13 5.69 1.05
0 -8 -13 16.95 1.64
1 8 13 10.1 1.35
0 -9 -13 0.04 0.52
-1 -9 14 0.34 0.45
0 9 -14 6.92 1.18
0 -9 14 8.06 1.28
-2 -8 14 0.77 0.55
1 8 -14 5.07 1.08
-1 -8 14 5.34 1.03
0 8 -14 8.89 1.29
0 -8 14 7.34 1.22
-2 -7 14 0.78 0.55
2 7 -14 0.68 0.65
-2 -7 14 1.66 0.63
-1 -7 14 7.73 1.16
1 7 -14 6.8 1.26
0 -7 14 1.29 0.57
0 7 -14 1.61 0.61
1 -7 14 0.43 0.5
-1 7 -14 -0.45 0.28
3 6 -14 3.91 1.09
-2 -6 14 68.08 3.02
2 6 -14 63.01 3.26
-2 -6 14 59.97 3.07
1 6 -14 5.41 1.12
-1 -6 14 3.03 0.8
0 -6 14 7.29 1.17
0 6 -14 7.78 1.27
-1 6 -14 3.51 0.82
1 -6 14 3.07 0.93
-3 -5 14 2.15 0.67
3 5 -14 1.02 0.72
-3 -5 14 1.18 0.66
-2 -5 14 1.19 0.56
2 5 -14 1.41 0.69
-2 -5 14 2.06 0.67
1 5 -14 66.06 3.26
-1 -5 14 66.36 3.19
0 -5 14 6.35 1.11
0 5 -14 5.28 1.08
-1 5 -14 10.38 1.37
1 -5 14 12.16 1.57
3 4 -14 -0.45 0.4
-3 -4 14 -0.39 0.5
-3 -4 14 0.18 0.41
-2 -4 14 38.64 2.38
2 4 -14 39.46 2.41
1 4 -14 0.61 0.6
-1 -4 14 0.81 0.51
0 4 -14 12.53 1.46
0 -4 14 12.14 1.45
-1 4 -14 7.09 1.19
1 -4 14 8.73 1.36
2 -4 14 6.77 1.27
-2 4 -14 4.87 1
3 3 -14 3.83 0.95
-3 -3 14 4.42 0.89
3 3 -14 2.14 0.75
2 3 -14 0.71 0.55
-2 -3 14 0.19 0.32
2 3 -14 0.88 0.5
-1 -3 14 4.2 0.94
1 3 -14 4.12 0.94
0 3 -14 0.53 0.55
0 -3 14 0.38 0.47
1 -3 14 0.45 0.51
-1 3 -14 0.41 0.48
-2 3 -14 18.24 1.63
2 -3 14 20.94 1.87
3 2 -14 3.32 0.91
-3 -2 14 7.45 1.23
2 2 -14 6.08 1.03
2 2 -14 5.69 1.01
-2 -2 14 6.01 1.06
1 2 -14 152.9 5.12
-1 -2 14 148.45 5.24
0 -2 14 0.35 0.5
0 2 -14 -0.12 0.43
-1 2 -14 5.57 1.05
1 -2 14 4.76 0.98
2 -2 14 0.45 0.53
-2 2 -14 0.11 0.52
3 1 -14 0.53 0.47
-3 -1 14 0.23 0.41
2 1 -14 0.5 0.48
2 1 -14 -0.27 0.41
-2 -1 14 0.15 0.37
1 1 -14 0.22 0.43
1 1 -14 1.14 0.62
-1 -1 14 1.13 0.6
0 -1 14 0.28 0.44
0 1 -14 -0.22 0.34
1 -1 14 3.75 0.89
-1 1 -14 4.76 0.97
-2 1 -14 64.21 3.29
2 -1 14 64.61 3.18
3 0 -14 2.21 0.8
-3 0 14 3.92 0.99
-2 0 14 9.28 1.25
2 0 -14 14.36 1.57
1 0 -14 62.7 3.06
1 0 -14 63.11 2.87
-1 0 14 61.41 3.09
0 0 -14 -0.19 0.35
0 0 14 0.63 0.48
-1 0 -14 3.66 0.86
1 0 14 5.52 1.02
-2 0 -14 0.82 0.55
3 -1 -14 0.79 0.62
-3 1 14 3.51 0.98
2 -1 -14 2.56 0.76
-2 1 14 3.29 0.86
-1 1 14 15.83 1.47
1 -1 -14 18.72 1.49
1 -1 -14 17.28 1.55
0 -1 -14 18.33 1.54
0 1 14 17.75 1.5
1 1 14 5.97 1.08
-1 -1 -14 7.37 1.13
-2 -1 -14 45.48 2.69
3 -2 -14 -0.1 0.42
-3 2 14 0.44 0.43
2 -2 -14 4.33 0.95
-2 2 14 4.85 1.03
1 -2 -14 2.11 0.68
-1 2 14 3.49 0.84
0 -2 -14 6.07 1.02
0 2 14 4.89 0.97
-1 -2 -14 8.93 1.25
1 2 14 8.88 1.28
-2 -2 -14 0.06 0.45
3 -3 -14 5.38 1.21
-3 3 14 10.81 1.57
2 -3 -14 0.69 0.43
-2 3 14 0.43 0.47
-1 3 14 8.7 1.2
1 -3 -14 8.19 1.13
0 3 14 9.02 1.23
-1 -3 -14 6.6 1.09
-2 -3 -14 5.21 1.09
2 -4 -14 17.2 1.76
-2 4 14 19.89 1.71
1 -4 -14 6.42 1.07
-1 4 14 8.41 1.22
0 4 14 0.13 0.42
-1 -4 -14 0.83 0.48
-2 -4 -14 17.61 1.78
2 -5 -14 0.47 0.52
-2 5 14 0.53 0.48
-1 5 14 14.33 1.53
1 -5 -14 17.37 1.59
0 5 14 1.79 0.62
2 -6 -14 88.46 4.15
-2 6 14 76.6 3.81
-1 6 14 21.67 1.71
1 -6 -14 18.4 1.69
-2 7 14 9.29 1.37
1 -7 -14 8.84 1.27
-1 7 14 7.4 1.16
-1 -8 15 8.24 1.28
-2 -7 15 0.63 0.59
-1 -7 15 2.97 0.88
1 7 -15 1.8 0.86
0 -7 15 2.18 0.68
0 7 -15 3.85 1
-2 -6 15 -0.05 0.49
-2 -6 15 0.66 0.44
2 6 -15 0.55 0.57
1 6 -15 0.31 0.54
-1 -6 15 0.84 0.55
0 -6 15 -0.09 0.36
0 6 -15 -0.12 0.5
2 5 -15 1.77 0.8
-2 -5 15 2.07 0.68
1 5 -15 1.5 0.67
-1 -5 15 2.53 0.78
0 -5 15 1.5 0.58
0 5 -15 2.08 0.79
-1 5 -15 7.32 1.26
1 -5 15 9.66 1.51
-3 -4 15 0.46 0.51
3 4 -15 0.17 0.58
-2 -4 15 12.62 1.5
2 4 -15 12.06 1.49
2 4 -15 13.58 1.54
1 4 -15 18.98 1.8
-1 -4 15 18.48 1.69
0 4 -15 15.62 1.67
0 -4 15 18.02 1.67
1 -4 15 18.45 1.73
-1 4 -15 19.41 1.93
-3 -3 15 1.06 0.54
-2 -3 15 0.35 0.42
2 3 -15 1.48 0.64
2 3 -15 -0.36 0.49
1 3 -15 3.82 0.95
-1 -3 15 3.32 0.87
0 -3 15 40.44 2.49
0 3 -15 43.03 2.57
1 -3 15 12.6 1.55
-1 3 -15 10.78 1.47
-3 -2 15 1.6 0.71
2 2 -15 14.62 1.6
2 2 -15 15.33 1.6
-2 -2 15 16.49 1.55
-1 -2 15 -0.14 0.31
1 2 -15 0.49 0.52
0 2 -15 0.38 0.55
0 -2 15 1.05 0.61
-1 2 -15 10.26 1.39
1 -2 15 10.44 1.42
2 -2 15 2.42 0.9
3 1 -15 4.01 0.94
-3 -1 15 4.95 1.15
-2 -1 15 21.14 1.75
2 1 -15 18.95 1.87
1 1 -15 0.58 0.62
-1 -1 15 1.32 0.62
0 1 -15 5.48 1.08
0 -1 15 5.22 1.1
-1 1 -15 3.23 0.88
1 -1 15 4.62 1.03
2 -1 15 0.99 0.61
2 0 -15 11.01 1.41
-2 0 15 9.96 1.38
-1 0 15 7.9 1.23
1 0 -15 9.64 1.25
0 0 15 1.23 0.56
0 0 -15 1.31 0.6
1 0 15 19.23 1.66
-1 0 -15 22.92 1.84
-2 1 15 12.32 1.54
2 -1 -15 13.64 1.55
-1 1 15 15.31 1.6
0 -1 -15 17.9 1.53
0 1 15 13.9 1.52
1 1 15 14.41 1.66
-1 -1 -15 17.07 1.7
2 -2 -15 2.15 0.84
-2 2 15 3.1 0.87
1 -2 -15 0.63 0.51
-1 2 15 0.06 0.35
0 -2 -15 0.19 0.5
0 2 15 0.69 0.49
-1 -2 -15 1.57 0.69
1 2 15 1.49 0.66
-2 3 15 0.01 0.39
2 -3 -15 -0.78 0.37
1 -3 -15 -0.13 0.39
-1 3 15 0.46 0.4
0 3 15 0.03 0.38
-1 -3 -15 1.71 0.65
-2 4 15 5.27 1.11
2 -4 -15 4 1.04
1 -4 -15 -0.11 0.42
-1 4 15 0.02 0.41
0 4 15 10.61 1.32
-2 5 15 1.69 0.69
2 -5 -15 1.71 0.82
1 -5 -15 4.98 1.01
-1 5 15 3.63 0.91
1 -6 -15 4.85 1.07
-1 6 15 6.74 1.15
1 5 -16 10.68 1.5
-1 -5 16 10.62 1.53
2 4 -16 -0.13 0.54
-1 -4 16 1.39 0.62
1 4 -16 0.38 0.56
0 -4 16 0.61 0.61
0 4 -16 0.34 0.48
-2 -3 16 5.32 1.12
2 3 -16 3.03 0.83
2 3 -16 3.35 0.94
1 3 -16 1.23 0.7
-1 -3 16 1.48 0.69
0 3 -16 0.05 0.49
0 -3 16 -0.16 0.45
2 2 -16 4.63 1.06
2 2 -16 5.66 1.07
-2 -2 16 4.71 1.07
-1 -2 16 2.48 0.8
1 2 -16 2.06 0.74
0 -2 16 0.37 0.57
0 2 -16 1.4 0.69
1 -2 16 5.02 1.12
2 1 -16 0.36 0.45
-2 -1 16 1.38 0.72
-1 -1 16 0.62 0.51
1 1 -16 0.45 0.58
0 -1 16 1.79 0.75
0 1 -16 1.59 0.7
1 -1 16 40.28 2.54
-1 1 -16 41.92 2.64
2 0 -16 0.62 0.56
-2 0 16 1.16 0.68
1 0 -16 0.82 0.51
-1 0 16 -0.73 0.28
0 0 -16 12.09 1.49
0 0 16 10.3 1.38
-1 0 -16 11.44 1.52
1 0 16 11.85 1.55
-2 1 16 0.25 0.44
2 -1 -16 0.72 0.58
-1 1 16 2.12 0.75
0 1 16 1.18 0.61
0 -1 -16 1.91 0.71
1 1 16 16.25 1.77
-1 -1 -16 14.51 1.72
2 -2 -16 2.49 0.87
-1 2 16 0.49 0.42
0 2 16 44.53 2.68
-1 -2 -16 2.1 0.74
2 -3 -16 4.15 0.93
-1 3 16 1.18 0.51
0 3 16 28.06 2.04
-1 4 16 3.15 0.74
0 4 16 0.59 0.42
1 -5 -16 0.26 0.53
-1 5 16 0.41 0.42
1 3 -17 0.21 0.59
1 2 -17 0.53 0.57
1 1 -17 5.03 1.08
0 1 -17 0.71 0.56
0 0 -17 1.87 0.7
0 -1 -17 0.16 0.48
