#------------------------------------------------------------------------------
#$Date: 2018-02-22 09:11:00 +0200 (Thu, 22 Feb 2018) $
#$Revision: 206576 $
#$URL: file:///home/coder/svn-repositories/cod/cif/2/02/10/2021028.cif $
#------------------------------------------------------------------------------
#
# This file is available in the Crystallography Open Database (COD),
# http://www.crystallography.net/. The original data for this entry
# were provided by IUCr Journals, http://journals.iucr.org/.
#
# The file may be used within the scientific community so long as
# proper attribution is given to the journal article from which the
# data were obtained.
#
data_2021028
loop_
_publ_author_name
'Borjas Nevarez, Rosendo'
'Balasekaran, Samundeeswari Mariappan'
'Kim, Eunja'
'Weck, Philippe'
'Poineau, Frederic'
_publ_section_title
;
 Zirconium tetrachloride revisited
;
_journal_coeditor_code           YO3045
_journal_issue                   3
_journal_name_full               'Acta Crystallographica Section C'
_journal_page_first
;
;
_journal_paper_doi               10.1107/S205322961800219X
_journal_volume                  74
_journal_year                    2018
_chemical_formula_iupac          'Zr Cl4'
_chemical_formula_moiety         'Cl4 Zr'
_chemical_formula_sum            'Cl4 Zr'
_chemical_formula_weight         233.02
_chemical_name_common            ZrCl4
_chemical_name_systematic
;
Zirconium tetrachloride
;
_space_group_crystal_system      orthorhombic
_space_group_IT_number           29
_space_group_name_Hall           'P 2c -2ac'
_space_group_name_H-M_alt        'P c a 21'
_symmetry_space_group_name_Hall  'P 2c -2ac'
_symmetry_space_group_name_H-M   'P c a 21'
_atom_sites_solution_hydrogens   notdet
_atom_sites_solution_primary     heavy
_atom_sites_solution_secondary   difmap
_cell_angle_alpha                90
_cell_angle_beta                 90
_cell_angle_gamma                90
_cell_formula_units_Z            4
_cell_length_a                   6.2311(8)
_cell_length_b                   7.3497(10)
_cell_length_c                   11.9462(15)
_cell_measurement_reflns_used    2581
_cell_measurement_temperature    150.(2)
_cell_measurement_theta_max      27.8828
_cell_measurement_theta_min      2.7714
_cell_volume                     547.10(12)
_computing_cell_refinement
;
APEX3 (Bruker, 2016)
;
_computing_data_collection
;
BIS (Bruker, 2016)
;
_computing_data_reduction
;
SAINT (Bruker, 2015)
;
_computing_molecular_graphics
;
shelXle (H\"ubschle <i>et al.</i>,  2011)
;
_computing_publication_material
;
APEX3 (Bruker, 2016)
;
_computing_structure_refinement  'SHELXL2014 (Sheldrick, 2015b)'
_computing_structure_solution    'SHELXT2014 (Sheldrick, 2015a)'
_diffrn_ambient_temperature      150.(2)
_diffrn_detector_area_resol_mean 8.3333
_diffrn_measured_fraction_theta_full 0.982
_diffrn_measured_fraction_theta_max 0.982
_diffrn_measurement_device_type  'Bruker D8 QUEST'
_diffrn_measurement_method       '\f and \w scans'
_diffrn_radiation_monochromator  'curved graphite'
_diffrn_radiation_type           'Mo K\a'
_diffrn_radiation_wavelength     0.71073
_diffrn_reflns_av_R_equivalents  0.0511
_diffrn_reflns_av_unetI/netI     0.0349
_diffrn_reflns_limit_h_max       7
_diffrn_reflns_limit_h_min       -7
_diffrn_reflns_limit_k_max       8
_diffrn_reflns_limit_k_min       -8
_diffrn_reflns_limit_l_max       14
_diffrn_reflns_limit_l_min       -14
_diffrn_reflns_number            5124
_diffrn_reflns_theta_full        24.70
_diffrn_reflns_theta_max         24.70
_diffrn_reflns_theta_min         6.52
_diffrn_source                   'sealed tube'
_diffrn_source_type              'Siemens KFFMo2K-90'
_exptl_absorpt_coefficient_mu    3.789
_exptl_absorpt_correction_T_max  0.78
_exptl_absorpt_correction_T_min  0.64
_exptl_absorpt_correction_type   numerical
_exptl_absorpt_process_details
;
(SADABS; Krause <i>et al.</i>,  2015)
;
_exptl_crystal_colour            'translucent colourless'
_exptl_crystal_density_diffrn    2.829
_exptl_crystal_density_method    'not measured'
_exptl_crystal_description       'rectangular plate'
_exptl_crystal_F_000             432
_exptl_crystal_size_max          0.09
_exptl_crystal_size_mid          0.08
_exptl_crystal_size_min          0.06
_refine_diff_density_max         2.080
_refine_diff_density_min         -0.521
_refine_ls_abs_structure_details
;
Flack <i>x</i> determined using 374 quotients [(I+)-(I-)]/[(I+)+(I-)]
(Parsons <i>et al.</i>,  2013)
;
_refine_ls_abs_structure_Flack   -0.03(14)
_refine_ls_extinction_method     none
_refine_ls_goodness_of_fit_ref   1.038
_refine_ls_hydrogen_treatment    undef
_refine_ls_matrix_type           full
_refine_ls_number_parameters     46
_refine_ls_number_reflns         906
_refine_ls_number_restraints     1
_refine_ls_restrained_S_all      1.038
_refine_ls_R_factor_all          0.0369
_refine_ls_R_factor_gt           0.0334
_refine_ls_shift/su_max          0.000
_refine_ls_shift/su_mean         0.000
_refine_ls_structure_factor_coef Fsqd
_refine_ls_weighting_details
'w=1/[\s^2^(Fo^2^)+(0.0514P)^2^] where P=(Fo^2^+2Fc^2^)/3'
_refine_ls_weighting_scheme      calc
_refine_ls_wR_factor_gt          0.0777
_refine_ls_wR_factor_ref         0.0801
_reflns_number_gt                853
_reflns_number_total             906
_reflns_threshold_expression     'I > 2\s(I)'
_cod_data_source_file            yo3045sup1.cif
_cod_data_source_block           SMB_ZrCl4a_a_150K
_cod_database_code               2021028
_publcif_datablock.id            {e7ad573b-831c-4b2d-ba94-e9a875cfa1d3}
_shelx_res_file
;


    SMB_ZrCl4_a_0m_a.res created by SHELXL-2014/7


TITL SMB_ZrCl4_a_0m_a.res in Pca2(1)
REM Old TITL SMB_ZrCl4_a_0m in Pca2(1)
REM SHELXT solution in Pca2(1)
REM R1 0.055,  Rweak 0.003,  Alpha 0.003,  Orientation as input
REM Flack x = -0.011 ( 0.135 ) from Parsons' quotients
REM Formula found by SHELXT:  Cl4 Zr
CELL  0.71073   6.2311   7.3497  11.9462   90.000   90.000   90.000
ZERR    4.000   0.0008   0.0010   0.0015    0.000    0.000    0.000
LATT -1
SYMM -X, -Y, 1/2+Z
SYMM 1/2+X, -Y, Z
SYMM 1/2-X, Y, 1/2+Z
SFAC CL ZR
UNIT 16 4
TEMP -123.160
SIZE 0.069 0.079 0.087
L.S. 10
BOND $H
LIST 4
ACTA 50
OMIT -4 50
OMIT 0   7  -6
OMIT 1   4  10
OMIT 0   0  -4
OMIT 4   5   4
OMIT 3   1 -10
OMIT 2   2  10
OMIT 3   6  -5
OMIT 4   5  -5
OMIT 0   4   0
OMIT 3   1  -1
OMIT 3   1  -8
OMIT 1   2   0
OMIT 3   2   9
OMIT 2   3  12
SHEL 3.5 0.85
FMAP 2
PLAN 20
WGHT    0.051400
FVAR       0.43982
ZR1   2    0.423056    0.334103    0.500011    11.00000    0.01502    0.02084 =
         0.02130    0.00056    0.00047    0.00023
CL1   1    0.572598    0.135868    0.628695    11.00000    0.02519    0.02809 =
         0.02624    0.00416   -0.00282    0.00412
CL2   1    0.092743    0.389620    0.613361    11.00000    0.01614    0.02495 =
         0.02225    0.00348    0.00243    0.00241
CL3   1    0.279744    0.130918    0.372451    11.00000    0.02729    0.02787 =
         0.02772   -0.00400   -0.00365   -0.00297
CL4   1    0.750749    0.392577    0.384523    11.00000    0.01842    0.02545 =
         0.02468   -0.00293    0.00180   -0.00220
HKLF 4

REM  SMB_ZrCl4_a_0m_a.res in Pca2(1)
REM R1 =  0.0334 for     853 Fo > 4sig(Fo)  and  0.0369 for all     906 data
REM     46 parameters refined using      1 restraints

END

WGHT      0.0514      0.0000

REM Highest difference peak  2.080,  deepest hole -0.521,  1-sigma level  0.157
Q1    1   0.7366  0.3348  0.5011  11.00000  0.05    2.08
Q2    1   0.1039  0.3480  0.5016  11.00000  0.05    1.14
Q3    1   0.4148  0.3604  0.6076  11.00000  0.05    0.90
Q4    1   0.5794  0.5996  0.3876  11.00000  0.05    0.82
Q5    1   0.5757  0.1276  0.3677  11.00000  0.05    0.77
Q6    1   0.2666  0.1357  0.6370  11.00000  0.05    0.76
Q7    1   0.4246  0.3665  0.4028  11.00000  0.05    0.72
Q8    1   0.2581  0.6062  0.6094  11.00000  0.05    0.64
Q9    1   0.8838  0.1248  0.6264  11.00000  0.05    0.49
Q10   1   0.4195  0.0030  0.5002  11.00000  0.05    0.48
Q11   1   0.1325 -0.0014  0.3967  11.00000  0.05    0.39
Q12   1   0.6107  0.4445  0.4410  11.00000  0.05    0.32
Q13   1   0.2553 -0.0405  0.5024  11.00000  0.05    0.32
Q14   1   0.0111  0.1282  0.3665  11.00000  0.05    0.32
Q15   1   0.5805  0.0786  0.5114  11.00000  0.05    0.30
Q16   1   0.2850  0.2790  0.3609  11.00000  0.05    0.28
Q17   1   0.3858 -0.0544  0.7423  11.00000  0.05    0.28
Q18   1   0.6849 -0.0125  0.6040  11.00000  0.05    0.28
Q19   1   0.7329  0.2251  0.3620  11.00000  0.05    0.28
Q20   1   0.6432 -0.0089  0.6236  11.00000  0.05    0.28
;
_shelx_res_checksum              75711
_shelx_hkl_file
;
   1   0   0   -1.60    1.80
   1   0   0   -2.90    1.90
  -1   0   0    1.70    1.70
  -1   0   0    0.70    2.20
  -2   0   0   59.39    7.90
   2   0   0   63.49    7.50
   2   0   0   76.69    8.20
  -2   0   0   64.59    6.10
  -3   0   0    1.50    3.30
   3   0   0   -0.40    4.60
  -3   0   0   -4.90    3.90
   3   0   0    1.10    3.90
   4   0   0    4.90    5.90
  -4   0   0   -6.80    4.60
  -4   0   0    6.00    4.40
   4   0   0    7.40    6.20
  -5   0   0   -3.00    6.10
   5   0   0   -1.00    5.50
   5   0   0    5.70    6.30
   6   0   0 3369.86  135.79
   6   0   0 3415.36  132.49
  -6   0   0 3117.99  137.09
   7   0   0    3.20    9.40
  -7   0   0   -7.50   10.10
  -8   0   0   85.39   24.00
   8   0   0   89.29   21.80
   0  -1   0 1617.24   59.29
   0  -1   0 1552.34   59.59
   0   1   0 1793.82   59.09
   0   1   0 1743.53   59.69
  -1  -1   0  631.74   27.40
   1  -1   0  630.44   28.30
   1  -1   0  682.33   26.60
   1   1   0  635.24   26.70
   1   1   0  699.23   27.70
  -1   1   0  644.14   27.00
   2  -1   0   67.99    9.20
  -2  -1   0   80.39    9.00
   2  -1   0   77.29    8.50
  -2  -1   0   56.49    7.60
   2   1   0   70.69    6.40
  -2   1   0   66.89    8.90
   2   1   0   78.19    8.80
   3  -1   0 1450.25   60.29
   3  -1   0 1381.56   57.59
  -3  -1   0 1395.16   56.19
  -3  -1   0 1317.37   57.99
   3   1   0 1398.06   54.39
  -3   1   0 1409.76   59.99
   3   1   0 1382.76   58.09
  -4  -1   0   52.69   11.10
   4  -1   0   59.49   10.90
  -4  -1   0   55.39    9.70
   4  -1   0   50.39   10.70
   4   1   0   55.99    9.60
   4   1   0   56.89   10.90
  -4   1   0   39.40   10.70
   5  -1   0   78.59   14.30
  -5  -1   0   92.09   16.00
  -5  -1   0   95.69   12.50
   5  -1   0  103.99   15.80
  -5   1   0   79.19   15.10
   5   1   0   77.09   14.10
   5   1   0  141.09   14.80
   6  -1   0  374.46   31.30
  -6  -1   0  425.36   33.90
   6  -1   0  424.96   32.40
   6   1   0  480.45   35.00
  -6   1   0  376.46   32.90
   7  -1   0   16.40   12.00
  -7  -1   0    9.20   13.60
   7  -1   0   10.80   11.80
  -7   1   0   51.49   15.80
   7   1   0   12.00   11.70
  -8  -1   0    5.20   16.30
   8  -1   0    7.10   14.20
  -8   1   0    3.30   13.40
   8   1   0   -5.00   11.60
   0  -2   0  479.05   25.00
   0  -2   0  545.95   24.80
   0   2   0  624.24   25.80
   0   2   0  596.34   24.40
  -1  -2   0   -0.50    4.60
  -1  -2   0    1.70    2.50
   1  -2   0    4.10    3.40
   1  -2   0   11.40    5.10
   1   2   0    7.60    4.00
   1   2   0    8.90    4.60
  -1   2   0    4.20    3.70
  -1   2   0    4.90    3.80
  -2  -2   0  239.28   17.30
   2  -2   0  245.18   18.90
   2  -2   0  236.88   15.40
  -2   2   0  218.38   16.10
   2   2   0  248.78   16.00
   2   2   0  236.48   16.80
   3  -2   0 9813.22  343.97
  -3  -2   0 9948.70  344.27
   3  -2   0 9999.00  348.57
  -3  -2   0 9780.92  344.07
  -3   2   0 9720.33  345.97
   3   2   0 9965.80  336.07
   4  -2   0   60.29   11.30
  -4  -2   0   47.90   11.10
   4  -2   0   38.70   10.90
  -4  -2   0   72.19   12.70
  -4   2   0   47.20   11.30
   4   2   0   39.00   10.00
   4   2   0   42.00    7.50
   5  -2   0  120.99   17.90
  -5  -2   0  115.99   16.10
   5  -2   0   75.29   14.40
  -5  -2   0   71.49   14.70
  -5   2   0  109.79   16.60
   5   2   0   91.39   15.90
  -6  -2   0  100.39   19.20
   6  -2   0  114.59   20.00
   6  -2   0   87.59   17.10
  -6   2   0   94.89   18.50
   6   2   0   77.99   17.00
  -7  -2   0   -0.60   12.70
   7  -2   0    6.90   11.30
   7  -2   0   -4.70   10.80
   7   2   0    2.50   10.10
  -7   2   0    6.50   11.80
  -8  -2   0   47.60   22.40
   8  -2   0   14.50   15.00
   8  -2   0   40.90   19.60
  -8   2   0   33.30   16.30
   8   2   0   66.09   20.40
   0  -3   0 1190.18   49.80
   0  -3   0 1191.88   51.79
   0   3   0 1316.07   50.09
   0   3   0 1218.78   51.29
   1  -3   0    1.80    4.30
   1  -3   0   -7.50    4.00
  -1  -3   0    1.80    3.30
  -1  -3   0    5.80    5.60
  -1   3   0   -6.30    4.00
  -1   3   0    1.80    5.40
   1   3   0    1.80    3.90
   1   3   0   -0.70    4.20
  -2  -3   0  490.35   29.80
   2  -3   0  470.95   22.60
   2  -3   0  417.16   29.10
   2   3   0  517.85   26.70
  -2   3   0  501.35   27.40
   2   3   0  527.75   28.30
  -2   3   0  533.95   28.00
   3  -3   0  141.09   17.30
   3  -3   0  114.19   13.00
  -3  -3   0  134.49   15.50
  -3   3   0  110.89   14.60
   3   3   0  157.48   15.30
   3   3   0  118.19   14.00
   4  -3   0  207.78   18.40
  -4  -3   0  175.28   19.90
  -4  -3   0  187.18   18.80
   4  -3   0  197.38   22.00
  -4   3   0  195.18   20.30
   4   3   0  149.39   17.30
  -5  -3   0   83.59   16.40
   5  -3   0   65.49   14.10
  -5  -3   0   49.40   13.90
   5  -3   0   32.50   13.60
  -5   3   0   71.19   15.80
   5   3   0   27.50   10.90
  -6  -3   0  486.45   37.30
   6  -3   0  508.35   36.80
   6  -3   0  423.06   37.80
  -6  -3   0  497.15   35.70
   6   3   0  464.65   36.20
  -6   3   0  445.66   37.20
  -7  -3   0   16.40   13.80
   7  -3   0   -4.80   13.30
   7  -3   0    7.80   11.70
  -7   3   0   18.60   13.90
   7   3   0   -3.60   10.50
   0  -4   0 7328.57  257.37
   0  -4   0 7187.18  254.37
   0   4   0 7113.99  253.47
   0   4   0 7261.47  256.67
   1  -4   0  329.57   22.20
  -1  -4   0  323.37   19.00
   1  -4   0  343.87   24.60
  -1  -4   0  328.47   25.30
  -1   4   0  341.77   22.20
   1   4   0  338.97   20.60
  -1   4   0  337.07   22.50
   1   4   0  323.07   22.90
   2  -4   0   -5.70    5.10
  -2  -4   0   -6.20    6.40
   2  -4   0    0.00    6.50
  -2   4   0    9.10    5.90
   2   4   0    1.90    5.10
   2   4   0    4.10    6.20
  -2   4   0    2.90    5.70
   3  -4   0  502.25   35.40
  -3  -4   0  588.94   36.20
   3  -4   0  513.45   24.30
  -3   4   0  521.45   32.30
  -3   4   0  543.75   32.50
   3   4   0  506.05   30.70
   3   4   0  516.55   32.80
  -4  -4   0    8.30    8.90
   4  -4   0    4.10    9.30
   4  -4   0    0.50    6.60
   4   4   0   -2.00    6.80
   4   4   0    2.90    7.30
  -4   4   0   16.50    9.40
  -5  -4   0  288.37   26.50
   5  -4   0  297.57   32.00
  -5  -4   0  324.67   30.00
   5  -4   0  284.37   25.90
   5   4   0  247.58   25.20
  -5   4   0  243.58   27.30
   6  -4   0 1173.88   63.19
  -6  -4   0 1152.88   63.29
  -6  -4   0 1183.98   65.09
   6  -4   0 1104.79   69.59
  -6   4   0 1086.49   65.19
   7  -4   0   11.80   13.30
   7  -4   0   17.80   16.70
  -7  -4   0    4.60   13.60
  -7   4   0   13.00   16.10
   7   4   0   10.70   13.60
   0  -5   0   11.20    9.00
   0  -5   0   12.20    7.90
   0   5   0   25.40    9.10
   0   5   0   12.60    7.90
  -1  -5   0  315.37   26.50
   1  -5   0  307.17   23.50
   1  -5   0  305.17   24.40
  -1  -5   0  289.27   19.90
   1   5   0  324.77   22.10
  -1   5   0  305.17   23.00
   1   5   0  348.57   25.40
  -1   5   0  284.47   23.30
  -2  -5   0  135.09   12.10
  -2  -5   0  136.99   19.30
   2  -5   0  175.08   21.10
   2  -5   0  142.59   14.80
   2   5   0  180.18   18.80
   2   5   0  138.69   15.40
  -2   5   0  179.58   18.40
  -2   5   0  140.79   16.80
  -3  -5   0  187.28   23.00
   3  -5   0  196.38   24.20
   3   5   0  156.48   19.60
  -3   5   0  231.48   22.30
   3   5   0  227.08   20.20
  -3   5   0  205.68   21.40
  -4  -5   0   12.30   11.30
   4  -5   0   11.20   12.20
   4   5   0    6.10    9.30
  -4   5   0   15.00   10.20
   4   5   0   12.50    9.50
  -4   5   0    1.40    8.60
   5  -5   0   80.19   22.10
  -5  -5   0   60.29   17.50
  -5  -5   0  118.79   20.10
  -5   5   0  114.29   20.80
  -5   5   0   91.99   19.40
   5   5   0   82.89   17.60
   6  -5   0   -8.10   14.60
  -6  -5   0   13.00   13.30
  -6  -5   0    6.40   10.90
   6   5   0  -15.20    9.70
  -6   5   0    5.50   13.30
  -6   5   0   10.70   12.00
  -7  -5   0   23.80   15.90
  -7  -5   0    8.50   14.30
   7  -5   0   39.40   21.30
   7   5   0   12.20   13.80
  -7   5   0   23.90   17.80
   0  -6   0  567.04   37.30
   0  -6   0  558.04   34.90
   0   6   0  552.74   36.40
   0   6   0  500.15   32.80
  -1  -6   0   64.69   16.80
  -1  -6   0   61.29   12.30
   1  -6   0   98.59   15.40
   1  -6   0   67.59   15.90
  -1   6   0   72.89   15.50
   1   6   0   93.79   17.10
  -1   6   0   84.29   14.50
   1   6   0   87.39   14.60
   2  -6   0  288.67   24.20
   2  -6   0  338.27   30.20
  -2  -6   0  326.77   31.00
  -2   6   0  356.46   28.00
   2   6   0  290.37   27.10
   2   6   0  289.77   24.10
  -2   6   0  306.87   26.80
   3  -6   0  881.41   57.49
  -3  -6   0 1034.20   59.79
   3   6   0  967.80   50.89
   3   6   0  902.31   53.09
  -3   6   0 1018.50   54.79
  -3   6   0  920.61   53.09
  -4  -6   0   66.69   20.80
   4  -6   0   77.29   21.10
  -4   6   0   75.89   17.80
  -4   6   0   61.39   16.50
   4   6   0   80.09   18.00
   4   6   0   86.19   17.40
  -5  -6   0   12.30   13.90
  -5  -6   0    2.40   11.80
   5  -6   0    7.60   12.70
   5   6   0    2.50   11.10
  -5   6   0    1.70   12.30
  -5   6   0    8.00   12.10
  -6  -6   0  127.29   23.50
  -6  -6   0  127.19   25.90
   6  -6   0  174.08   32.90
  -6   6   0  111.99   23.70
   6   6   0  119.59   24.00
  -6   6   0  120.49   24.80
   0  -7   0   -0.60    8.50
   0  -7   0    9.70   11.50
   0   7   0    2.60    9.80
   0   7   0  -11.30    8.10
   1  -7   0  110.29   20.60
  -1  -7   0   52.79   18.70
   1  -7   0   85.79   18.30
   1   7   0   78.69   15.40
  -1   7   0   82.69   17.40
   1   7   0   93.49   19.00
  -1   7   0   89.69   19.60
  -2  -7   0   45.10   16.10
   2  -7   0   62.19   17.80
   2  -7   0   77.29   16.80
   2   7   0  111.69   20.50
  -2   7   0   75.79   17.60
  -2   7   0   64.69   16.40
   2   7   0   60.89   14.70
   3  -7   0   18.70   13.80
  -3  -7   0   32.90   16.20
  -3   7   0   69.79   17.30
   3   7   0   30.60   13.60
   3   7   0   50.19   15.50
  -3   7   0   35.50   15.90
   4  -7   0   26.30   17.30
  -4  -7   0   60.79   21.40
  -4   7   0   19.10   15.50
  -4   7   0   19.40   13.70
   4   7   0   28.70   14.50
   4   7   0   22.30   15.20
  -5  -7   0  136.99   30.30
   5  -7   0  165.78   32.70
  -5   7   0  207.68   29.60
   5   7   0  149.88   26.10
  -5   7   0  202.68   32.00
   0  -8   0  202.08   28.50
   0   8   0  192.18   26.10
   1  -8   0   58.39   17.90
  -1  -8   0   64.29   22.10
   1  -8   0  115.49   22.50
  -1   8   0   95.69   21.10
   1   8   0  100.49   22.60
   2  -8   0   65.39   19.80
  -2  -8   0   63.19   22.00
   2   8   0   89.79   22.30
  -2   8   0   97.29   22.30
  -3  -8   0   95.79   26.90
   3  -8   0  120.49   24.60
   3   8   0   84.99   21.00
  -3   8   0   98.29   22.20
  -4  -8   0   24.90   19.10
   4  -8   0   48.10   22.50
   4   8   0   25.20   17.80
  -4   8   0   53.79   19.30
  -4   8   0   26.10   23.80
   0  -9   0   45.30   19.90
   0   9   0   49.60   18.60
   1  -9   0  -11.20   14.00
  -1  -9   0   17.10   20.30
   1   9   0   13.40   16.50
  -1   9   0    7.50   15.00
  -2  -9   0   79.49   29.60
   2  -9   0  139.69   28.60
   2   9   0  106.89   25.90
  -2   9   0  112.79   24.90
  -3  -9   0   69.79   28.10
   3  -9   0   51.29   23.00
   3   9   0   91.69   24.00
  -3   9   0   89.59   24.90
   8   0  -1  173.58   28.80
  -8   0   1  147.89   30.90
  -7   0   1  -12.00   11.20
   7   0  -1    5.60   10.20
   6   0  -1  201.68   23.20
  -6   0   1  155.08   22.00
   6   0  -1  194.18   22.40
  -5   0   1    4.70    7.40
   5   0  -1    5.70    7.40
   5   0  -1   -0.10    6.20
   4   0  -1  229.78   17.70
  -4   0   1  179.48   17.50
  -4   0   1  173.08   12.80
   4   0  -1  194.88   17.80
  -3   0   1   -1.60    2.60
   3   0  -1    1.20    4.50
  -3   0   1    2.80    4.30
   3   0  -1   -5.90    3.70
  -2   0   1 1338.27   53.89
   2   0  -1 1338.67   53.49
  -2   0   1 1376.26   49.99
   2   0  -1 1384.06   52.59
   1   0  -1   -1.40    2.40
   1   0  -1    4.60    2.70
   1   0  -1   -1.10    2.10
  -1   0   1    0.20    1.80
   0   0  -1    4.90    1.60
   0   0  -1    1.00    1.20
   1   0   1    4.90    2.80
  -1   0  -1    6.60    3.10
  -1   0  -1    3.60    2.40
   1   0   1    3.20    2.20
   2   0   1 1368.46   53.39
   2   0   1 1380.76   54.39
  -2   0  -1 1411.56   55.49
  -2   0  -1 1431.36   52.29
  -3   0  -1   -1.10    4.20
  -3   0  -1   -2.00    3.00
   3   0   1    4.00    4.30
   3   0   1    0.60    4.80
   4   0   1  203.98   17.50
  -4   0  -1  190.88   13.90
   4   0   1  219.18   17.70
  -4   0  -1  257.07   20.20
   5   0   1   -1.20    6.30
   5   0   1   -6.20    4.90
  -5   0  -1   -4.60    5.20
   6   0   1  183.68   21.20
   6   0   1  191.48   21.00
  -6   0  -1  165.08   22.40
   7   0   1    7.20   10.30
  -7   0  -1  -12.90   10.00
  -8   0  -1   93.29   25.90
   8   0   1  178.38   26.50
   8  -1  -1   -6.40   12.90
  -8  -1   1   -3.60   15.90
  -8   1   1   14.00   13.00
   8   1  -1   -2.00   11.80
   7  -1  -1  453.35   37.50
  -7  -1   1  424.96   39.30
   7  -1  -1  476.25   38.20
   7   1  -1  450.85   38.30
  -7   1   1  363.06   36.10
  -6  -1   1   62.09   15.50
   6  -1  -1   51.89   14.40
   6  -1  -1   44.80   14.90
  -6   1   1   74.49   18.50
   6   1  -1   76.79   16.40
  -5  -1   1  176.08   20.10
   5  -1  -1  217.38   21.90
   5  -1  -1  183.38   19.70
  -5  -1   1  215.78   17.80
  -5   1   1  171.48   20.10
   5   1  -1  181.68   17.40
   5   1  -1  175.98   19.40
  -4  -1   1  445.36   24.90
  -4  -1   1  447.36   28.80
   4  -1  -1  395.46   26.90
   4  -1  -1  492.45   29.40
   4   1  -1  451.15   24.20
  -4   1   1  437.96   28.30
   4   1  -1  404.66   27.50
  -3  -1   1   77.79   11.30
  -3  -1   1   82.59    9.80
   3  -1  -1   73.59   10.40
   3  -1  -1   79.09   11.40
   3   1  -1   62.99    8.10
   3   1  -1   94.79   11.10
  -3   1   1   61.99   10.70
   2  -1  -1  179.08   12.90
  -2  -1   1  168.68   12.10
   2  -1  -1  157.28   13.40
   2   1  -1  145.09   12.30
   2   1  -1  151.28    9.10
  -2   1   1  172.68   12.70
   2   1  -1  155.38   12.10
  -1  -1   1 2204.98   78.69
   1  -1  -1 2103.89   74.69
   1  -1  -1 2091.19   79.59
   1  -1  -1 2152.18   78.39
  -1   1   1 2201.68   77.49
   1   1  -1 2171.08   77.99
   1   1  -1 2282.87   79.19
   0  -1   1    2.00    2.40
   0  -1   1    0.60    2.10
   0  -1  -1    2.90    2.40
   0  -1  -1    6.10    3.20
   0   1  -1    0.30    1.70
   0   1  -1   -1.60    2.50
   0   1   1    0.90    2.20
  -1  -1  -1 2237.58   80.49
   1  -1   1 2388.66   80.29
   1  -1   1 2205.48   83.49
  -1  -1  -1 2203.28   82.79
  -1   1  -1 2229.58   79.89
   1   1   1 2358.76   80.59
   1   1   1 2319.37   82.39
  -1   1  -1 2343.37   82.79
   2  -1   1  160.38   13.60
  -2  -1  -1  149.99   11.80
   2  -1   1  177.78   11.90
  -2  -1  -1  186.98   13.10
  -2   1  -1  178.78    9.00
   2   1   1  173.28   10.90
   2   1   1  163.58   12.70
  -2   1  -1  179.38   13.70
   3  -1   1   87.59   10.10
  -3  -1  -1   76.89    9.90
   3  -1   1   80.89   11.10
  -3  -1  -1   89.89   11.40
   3   1   1   78.69    9.10
  -3   1  -1   94.79   11.90
   3   1   1   90.29   10.80
  -4  -1  -1  478.05   26.10
  -4  -1  -1  393.16   27.50
   4  -1   1  439.66   27.10
   4  -1   1  498.45   30.00
   4   1   1  457.25   25.70
   4   1   1  479.85   28.60
  -4   1  -1  488.85   30.90
  -5  -1  -1  153.88   15.80
   5  -1   1  145.69   17.00
   5  -1   1  210.58   20.60
  -5  -1  -1  226.68   21.40
  -5   1  -1  211.08   21.60
   5   1   1  159.58   16.40
   5   1   1  151.08   17.90
   6  -1   1   28.10   11.80
  -6  -1  -1   80.29   17.00
   6  -1   1   57.99   14.50
   6   1   1   69.59   15.50
  -6   1  -1   78.69   18.30
   7  -1   1  486.35   37.30
   7  -1   1  463.75   36.90
  -7  -1  -1  452.95   39.70
   7   1   1  463.25   38.00
  -7   1  -1  383.06   37.90
  -8  -1  -1   -6.30   14.40
   8  -1   1   -2.80   11.60
   8   1   1   -2.60   12.40
  -8   1  -1    7.80   15.90
   8  -2  -1   23.90   15.70
  -8  -2   1   23.20   19.20
   8   2  -1   44.20   18.30
  -8   2   1    5.40   14.50
   7  -2  -1   11.20   12.70
   7  -2  -1   14.50   12.30
  -7  -2   1   35.30   16.80
  -7   2   1   14.80   12.60
   7   2  -1   24.20   13.50
   6  -2  -1    5.50    8.60
   6  -2  -1    7.60   11.20
  -6  -2   1    1.10    9.50
   6   2  -1    3.90    8.50
  -6   2   1   -3.10    7.50
   5  -2  -1  459.45   34.60
  -5  -2   1  493.25   33.70
   5  -2  -1  433.46   31.50
  -5  -2   1  416.26   29.00
   5   2  -1  417.56   31.30
  -5   2   1  425.06   31.70
   4  -2  -1  263.97   23.60
   4  -2  -1  196.38   19.20
  -4  -2   1  254.27   19.70
  -4  -2   1  268.87   22.20
   4   2  -1  249.78   15.30
  -4   2   1  223.38   20.50
   4   2  -1  256.57   21.00
   3  -2  -1  162.58   14.90
   3  -2  -1  136.19   16.40
  -3  -2   1  157.68   15.10
   3   2  -1  135.49   14.40
   3   2  -1  126.09   14.20
  -3   2   1  141.59   14.10
   2  -2  -1  388.16   25.20
  -2  -2   1  453.25   24.70
   2  -2  -1  378.26   22.10
   2   2  -1  413.76   23.20
  -2   2   1  400.96   22.30
   2   2  -1  411.26   23.00
   1  -2  -1  605.34   29.60
  -1  -2   1  605.24   29.60
   1  -2  -1  578.14   25.70
   1   2  -1  624.94   28.00
  -1   2   1  589.14   26.00
   1   2  -1  628.34   27.60
  -1   2   1  614.64   28.50
   0  -2  -1   -1.60    3.10
   0  -2  -1   -3.40    3.60
   0  -2   1    1.70    4.00
   0  -2   1   -2.00    3.10
   0   2   1   -0.40    3.50
   0   2   1   -0.90    2.40
   0   2  -1   -3.00    2.80
   0   2  -1    0.70    3.80
   1  -2   1  583.34   26.20
  -1  -2  -1  607.84   29.60
  -1  -2  -1  650.73   25.80
   1  -2   1  571.14   29.20
  -1   2  -1  625.14   26.60
   1   2   1  594.44   28.40
   1   2   1  610.94   25.60
  -1   2  -1  666.63   29.00
   2  -2   1  395.56   24.50
  -2  -2  -1  381.86   23.10
   2  -2   1  382.66   20.00
   2  -2   1  397.46   17.40
   2   2   1  365.96   21.90
   2   2   1  389.46   20.80
  -2   2  -1  385.66   22.80
   2   2   1  388.06   18.00
  -3  -2  -1  145.29   13.40
  -3  -2  -1  126.29   14.60
   3  -2   1  150.68   16.20
   3  -2   1  129.89   12.60
   3   2   1  142.99   14.10
  -3   2  -1  172.28   16.30
   3   2   1  118.49   10.10
   4  -2   1  261.77   19.90
  -4  -2  -1  255.67   20.20
  -4  -2  -1  240.78   20.00
   4  -2   1  222.28   21.60
  -4   2  -1  250.67   22.10
   4   2   1  211.48   19.30
   4   2   1  236.28   16.00
  -5  -2  -1  442.26   28.60
  -5  -2  -1  412.96   30.30
   5  -2   1  441.66   33.00
   5  -2   1  410.16   29.20
  -5   2  -1  395.66   31.80
   5   2   1  489.15   34.40
   5   2   1  354.36   28.90
  -6  -2  -1   11.10   10.90
   6  -2   1   -0.90    8.10
   6  -2   1    8.40   10.40
  -6  -2  -1    6.40   10.50
  -6   2  -1    1.30    8.80
   6   2   1    6.20    9.00
   7  -2   1   41.30   14.50
   7  -2   1   12.10   12.10
  -7  -2  -1   49.70   16.30
  -7   2  -1   32.70   14.90
   7   2   1   43.00   14.80
   8  -2   1   14.20   16.10
   8  -2   1   19.90   16.30
  -8  -2  -1   47.60   20.30
  -8   2  -1   14.30   15.20
   8   2   1   22.40   14.90
   7  -3  -1    5.70   12.70
  -7  -3   1   -6.00   12.00
   7  -3  -1   -6.50   11.00
   7   3  -1    8.80   11.40
  -7   3   1    5.40   12.90
   6  -3  -1   51.39   17.80
  -6  -3   1   66.89   16.70
   6  -3  -1   35.00   13.50
  -6  -3   1   42.00   14.80
   6   3  -1   43.00   14.10
  -6   3   1   76.29   18.50
  -5  -3   1   37.70   12.90
  -5  -3   1   54.99   13.50
   5  -3  -1   58.09   17.20
   5  -3  -1   24.00    9.90
  -5   3   1   64.59   15.10
   5   3  -1   60.79   13.70
  -4  -3   1 1341.27   62.39
   4  -3  -1 1377.06   68.29
   4  -3  -1 1337.77   61.79
  -4   3   1 1345.07   62.29
   4   3  -1 1289.77   61.79
   4   3  -1 1228.38   61.29
   3  -3  -1   43.90    9.80
   3  -3  -1   51.49   12.50
  -3  -3   1   43.90   10.40
   3   3  -1   21.10    8.10
  -3   3   1   34.10    9.50
   3   3  -1   49.70   10.40
   2  -3  -1 1056.19   42.50
  -2  -3   1 1120.39   51.09
   2  -3  -1  995.40   51.49
   2   3  -1 1107.39   48.50
  -2   3   1 1115.89   47.20
   2   3  -1 1048.60   47.80
  -2   3   1 1064.99   48.80
  -1  -3   1   22.80    4.60
  -1  -3   1   23.90    7.50
   1  -3  -1   20.80    6.10
   1  -3  -1   12.70    6.80
  -1   3   1   25.40    7.30
   1   3  -1   15.80    6.00
  -1   3   1   30.90    6.60
   1   3  -1   10.70    5.50
   0  -3  -1   -5.90    4.90
   0  -3   1    0.10    4.20
   0  -3  -1   -5.00    3.80
   0  -3   1   -3.40    4.80
   0   3  -1   -3.40    4.40
   0   3   1    7.60    5.20
   0   3  -1   -4.50    3.60
   0   3   1   -2.70    3.10
   1  -3   1   25.10    6.50
  -1  -3  -1   24.30    6.00
   1  -3   1   20.40    7.40
  -1  -3  -1   27.80    7.80
  -1   3  -1   21.00    7.00
   1   3   1   17.90    6.60
   1   3   1   17.40    4.90
  -1   3  -1   20.40    5.70
   2  -3   1 1056.59   51.59
   2  -3   1 1091.19   43.60
  -2  -3  -1 1117.09   51.49
  -2   3  -1 1047.80   48.50
  -2   3  -1 1079.39   46.50
   2   3   1 1086.69   42.10
   2   3   1 1036.20   48.50
   2   3   1 1078.49   45.40
   3  -3   1   57.19   12.70
  -3  -3  -1   37.50    9.10
  -3  -3  -1   28.20    9.40
   3  -3   1   42.60    8.80
  -3   3  -1   46.10   10.60
   3   3   1   41.90    6.00
   3   3   1   43.10    9.70
   4  -3   1 1277.47   58.29
   4  -3   1 1238.68   64.49
  -4  -3  -1 1364.86   59.99
  -4  -3  -1 1377.16   63.09
   4   3   1 1277.87   61.29
  -4   3  -1 1218.58   62.59
   5  -3   1   51.09   13.00
   5  -3   1   42.00   13.90
  -5  -3  -1   56.59   13.50
  -5  -3  -1   46.80   13.20
   5   3   1   61.09   13.60
  -5   3  -1   58.39   15.00
   6  -3   1   43.70   13.60
   6  -3   1   30.20   14.10
  -6  -3  -1   65.19   15.90
  -6  -3  -1   46.00   15.00
   6   3   1   74.79   16.70
  -6   3  -1   56.09   16.50
   7  -3   1    9.70   11.70
  -7  -3  -1   10.20   13.80
   7  -3   1   18.50   14.80
   7   3   1   -1.70   10.40
  -7   3  -1   -0.90   13.10
   7  -4  -1  182.38   26.90
   7  -4  -1  152.98   29.00
  -7  -4   1  153.48   27.10
  -7   4   1  129.99   26.00
   7   4  -1  214.58   28.60
  -6  -4   1   70.59   19.00
   6  -4  -1  102.19   20.40
   6  -4  -1   68.29   19.80
  -6  -4   1   74.09   18.10
  -6   4   1   74.69   19.00
   6   4  -1   39.00   15.30
   5  -4  -1  287.97   26.90
   5  -4  -1  239.78   30.20
  -5  -4   1  305.77   27.80
  -5  -4   1  288.77   28.00
  -5   4   1  293.67   28.20
   5   4  -1  259.27   25.80
   4  -4  -1   42.30   11.90
   4  -4  -1   32.60   13.90
  -4  -4   1   50.39   14.00
   4   4  -1   57.69   13.50
  -4   4   1   57.79   14.80
   4   4  -1   66.69   13.90
  -3  -4   1    9.60    9.50
   3  -4  -1   -0.10    6.80
  -3   4   1   11.70    7.20
  -3   4   1   21.70    8.60
   3   4  -1    7.50    6.80
   3   4  -1    9.70    7.70
   2  -4  -1  370.76   21.40
  -2  -4   1  328.87   26.30
   2  -4  -1  356.06   27.50
   2   4  -1  329.17   23.50
  -2   4   1  372.16   23.60
   2   4  -1  373.06   24.60
  -2   4   1  346.57   25.20
  -1  -4   1  926.41   37.60
   1  -4  -1  850.91   44.10
   1  -4  -1  806.02   40.70
  -1  -4   1  897.21   45.50
   1   4  -1  916.01   42.40
   1   4  -1  894.01   42.20
  -1   4   1  804.42   42.40
  -1   4   1  871.21   39.80
   0  -4  -1   -1.50    4.70
   0  -4  -1   -9.60    5.90
   0  -4   1   -3.90    4.80
   0  -4   1    3.50    6.50
   0   4   1   -3.10    4.40
   0   4  -1   -5.30    4.60
   0   4  -1   -0.20    4.90
   0   4   1    2.30    4.60
   1  -4   1  915.41   42.70
   1  -4   1  877.61   44.20
  -1  -4  -1  818.52   45.00
  -1  -4  -1  927.41   40.20
   1   4   1  934.31   39.90
  -1   4  -1  908.91   42.40
   1   4   1  885.01   44.40
  -1   4  -1  954.60   44.20
  -2  -4  -1  344.67   18.70
   2  -4   1  363.06   21.60
   2  -4   1  330.07   26.30
  -2  -4  -1  380.36   27.70
  -2   4  -1  346.47   23.20
   2   4   1  350.36   21.50
   2   4   1  321.77   24.40
  -2   4  -1  378.86   25.50
  -3  -4  -1   -1.50    8.10
   3  -4   1    2.60    7.80
   3  -4   1   11.10    5.30
  -3   4  -1   29.00   10.20
   3   4   1   10.40    4.70
   3   4   1    5.50    6.50
  -3   4  -1    2.60    6.40
   3   4   1   15.20    6.50
   4  -4   1   46.60   10.70
  -4  -4  -1   68.69   14.10
  -4  -4  -1   82.09   16.10
   4  -4   1   53.49   14.50
  -4   4  -1   56.79   14.30
   4   4   1   26.30   10.00
   5  -4   1  295.77   25.60
  -5  -4  -1  296.37   26.10
   5  -4   1  249.38   29.20
  -5  -4  -1  277.77   28.00
  -5   4  -1  267.47   28.30
   5   4   1  275.37   26.10
  -6  -4  -1   43.80   15.40
   6  -4   1   48.40   19.20
   6  -4   1   42.20   13.60
  -6  -4  -1   61.19   17.00
  -6   4  -1   52.19   18.50
   6   4   1   67.09   16.70
   7  -4   1  144.39   24.00
  -7  -4  -1  209.98   28.10
   7  -4   1  123.19   26.10
   7   4   1  181.38   26.00
  -7   4  -1  131.79   26.30
  -7  -5   1  306.47   34.20
   7  -5  -1  266.87   39.20
  -7  -5   1  299.57   42.30
  -7   5   1  289.57   32.80
   7   5  -1  203.28   31.50
  -7   5   1  308.57   35.70
  -6  -5   1   24.10   15.00
  -6  -5   1   49.99   17.80
   6  -5  -1    2.00   14.20
  -6   5   1    2.50   13.30
  -6   5   1   42.80   17.10
   6   5  -1   17.30   13.80
  -5  -5   1  144.49   21.20
  -5  -5   1  140.49   24.20
   5  -5  -1  164.68   28.00
  -5   5   1  146.79   21.80
  -5   5   1  156.68   22.40
   5   5  -1  140.99   21.30
  -4  -5   1  138.59   20.60
   4  -5  -1  136.69   24.20
   4   5  -1   82.09   16.40
  -4   5   1   86.59   18.00
   4   5  -1  148.59   19.10
  -4   5   1  107.09   18.30
   3  -5  -1   17.70   11.20
  -3  -5   1   19.10   11.70
  -3   5   1   19.30    9.80
   3   5  -1   26.30   10.00
   3   5  -1   17.20    9.00
  -3   5   1   23.50   10.80
   2  -5  -1  361.56   29.70
  -2  -5   1  368.76   29.70
   2  -5  -1  354.66   24.00
   2   5  -1  354.56   26.10
   2   5  -1  343.27   25.80
  -2   5   1  348.37   27.50
  -2   5   1  388.46   26.60
  -1  -5   1 1007.90   43.60
  -1  -5   1 1009.90   52.19
   1  -5  -1  910.81   47.40
   1  -5  -1 1016.60   50.59
  -1   5   1  913.81   45.30
   1   5  -1  986.00   48.50
  -1   5   1  947.81   49.50
   1   5  -1  959.30   47.60
   0  -5   1   -1.50    5.90
   0  -5  -1   -3.40    5.90
   0  -5  -1    2.20    6.90
   0  -5   1   -6.20    5.10
   0   5  -1    4.20    6.80
   0   5  -1   -1.50    5.90
   0   5   1    0.10    5.90
   0   5   1   -3.40    5.20
   1  -5   1  993.10   49.10
   1  -5   1 1051.99   51.79
  -1  -5  -1  974.40   45.30
  -1  -5  -1 1024.20   53.09
  -1   5  -1  980.80   48.60
   1   5   1  958.30   44.50
  -1   5  -1  974.20   49.10
   1   5   1  975.00   50.99
  -2  -5  -1  413.96   31.50
   2  -5   1  349.57   23.60
   2  -5   1  323.17   27.90
  -2  -5  -1  352.66   20.70
  -2   5  -1  354.96   25.70
  -2   5  -1  316.97   25.80
   2   5   1  308.07   26.20
   2   5   1  401.36   24.10
   3  -5   1    6.20    9.40
  -3  -5  -1    7.90    9.00
  -3   5  -1   15.50    9.90
   3   5   1   10.70    7.70
   3   5   1   21.10   10.70
  -3   5  -1   27.90   10.30
  -4  -5  -1  161.88   18.40
   4  -5   1  109.99   21.00
  -4  -5  -1  153.98   23.10
   4   5   1  112.29   19.20
  -4   5  -1  103.59   17.40
  -4   5  -1  111.49   19.60
   5  -5   1  179.88   27.60
  -5  -5  -1  140.19   24.90
  -5  -5  -1  182.98   22.10
  -5   5  -1  110.49   21.30
   5   5   1  140.79   21.40
  -5   5  -1  147.99   20.70
   6  -5   1   29.10   18.60
  -6  -5  -1   19.00   12.90
  -6  -5  -1   30.80   14.60
  -6   5  -1   43.10   17.10
  -6   5  -1   31.50   14.80
   6   5   1   31.10   14.20
  -7  -5  -1  305.87   34.20
   7  -5   1  288.97   41.60
  -7  -5  -1  290.97   33.20
  -7   5  -1  267.97   34.40
  -7   5  -1  218.58   29.10
   7   5   1  232.68   30.20
   6  -6  -1    2.40   20.00
  -6  -6   1   13.00   16.00
  -6  -6   1    1.20   13.30
  -6   6   1   14.00   14.20
   6   6  -1    5.20   13.90
  -6   6   1    7.50   14.00
  -5  -6   1   92.19   22.30
   5  -6  -1   70.29   23.30
  -5   6   1   85.39   20.50
   5   6  -1   98.09   18.60
   5   6  -1  110.99   21.20
  -5   6   1  102.69   21.10
   4  -6  -1  378.66   37.60
  -4  -6   1  419.96   37.60
   4   6  -1  376.56   32.30
  -4   6   1  314.67   31.90
  -4   6   1  407.06   33.50
   4   6  -1  426.76   32.60
  -3  -6   1   39.90   14.50
   3  -6  -1   33.00   15.80
  -3   6   1    9.30   10.70
   3   6  -1   26.30   12.60
  -3   6   1   38.80   13.70
   3   6  -1   18.20    9.60
  -2  -6   1  515.95   39.40
   2  -6  -1  474.45   32.50
   2  -6  -1  627.24   41.30
   2   6  -1  519.95   34.60
  -2   6   1  573.84   35.30
   2   6  -1  514.65   35.20
  -2   6   1  506.75   36.20
   1  -6  -1  211.38   23.30
  -1  -6   1  223.18   26.00
  -1  -6   1  238.18   19.60
   1  -6  -1  246.28   23.20
   1   6  -1  248.28   22.00
  -1   6   1  224.18   20.40
  -1   6   1  234.28   23.70
   1   6  -1  238.48   23.30
   0  -6  -1    6.80    7.10
   0  -6  -1   10.50   10.30
   0  -6   1   -1.70    7.60
   0  -6   1    4.80   10.30
   0   6   1   -8.70    6.60
   0   6  -1    5.00    8.10
   0   6   1   -7.80    7.00
   0   6  -1   12.30    8.00
  -1  -6  -1  279.47   27.50
   1  -6   1  194.88   21.90
   1  -6   1  217.18   22.90
  -1  -6  -1  229.18   20.30
   1   6   1  223.58   19.60
  -1   6  -1  205.28   21.60
   1   6   1  204.08   23.30
  -1   6  -1  214.08   21.90
   2  -6   1  519.05   39.40
   2  -6   1  535.25   34.10
  -2  -6  -1  562.34   42.00
   2   6   1  567.74   33.00
   2   6   1  559.94   38.60
  -2   6  -1  547.05   36.00
  -2   6  -1  498.45   36.50
  -3  -6  -1   14.60   13.00
   3  -6   1   32.30   15.40
  -3   6  -1   41.00   15.60
   3   6   1   20.70   11.40
  -3   6  -1   16.10   10.60
   3   6   1   24.70   10.30
   4  -6   1  332.57   36.90
  -4  -6  -1  476.65   40.30
   4   6   1  379.46   34.20
  -4   6  -1  363.76   33.70
   4   6   1  424.16   30.90
  -4   6  -1  393.16   33.00
  -5  -6  -1   96.99   22.90
  -5  -6  -1  109.99   20.50
   5  -6   1   72.39   21.80
  -5   6  -1  131.19   22.30
  -5   6  -1  130.09   23.50
   5   6   1   94.19   20.70
  -6  -6  -1    6.90   12.90
  -6  -6  -1    9.30   14.80
   6  -6   1    8.00   20.70
   6   6   1    3.40   15.80
  -6   6  -1    7.20   15.00
  -6   6  -1   17.10   13.90
   5  -7  -1  231.58   35.70
  -5  -7   1  235.38   34.00
  -5   7   1  294.57   34.70
   5   7  -1  257.67   30.80
   5   7  -1  226.88   28.90
  -5   7   1  282.17   32.70
  -4  -7   1  160.58   28.60
   4  -7  -1  173.58   30.60
  -4   7   1  206.58   27.40
   4   7  -1  181.18   23.50
  -4   7   1  163.48   25.00
   4   7  -1  149.49   25.40
   3  -7  -1   22.30   14.80
  -3  -7   1    5.40   12.10
  -3   7   1   22.90   13.30
   3   7  -1   14.70   11.20
  -3   7   1   -2.00   11.50
   3   7  -1    2.10   11.40
  -2  -7   1  143.99   25.00
   2  -7  -1  146.69   19.90
   2  -7  -1  125.39   23.50
  -2   7   1  190.18   24.60
  -2   7   1  157.38   21.50
   2   7  -1  205.48   24.00
   2   7  -1  143.59   20.60
   1  -7  -1  443.56   34.70
  -1  -7   1  366.66   34.40
   1  -7  -1  430.96   34.50
   1   7  -1  394.96   30.80
  -1   7   1  391.26   34.60
   1   7  -1  424.46   34.60
  -1   7   1  470.75   31.80
   0  -7  -1    8.40   11.60
   0  -7  -1  -10.90    7.60
   0  -7   1    0.30   10.50
   0  -7   1   -6.40    9.00
   0   7  -1   -6.70    9.80
   0   7  -1   -0.70    9.40
   0   7   1    7.00   10.00
   1  -7   1  432.46   35.30
  -1  -7  -1  403.56   37.80
   1  -7   1  477.75   35.70
  -1   7  -1  473.85   34.90
  -1   7  -1  445.56   33.70
   1   7   1  390.46   35.20
   2  -7   1  201.88   25.50
   2  -7   1  149.88   20.40
  -2  -7  -1  210.18   29.30
  -2   7  -1  148.79   22.10
  -2   7  -1  181.58   23.30
   2   7   1  162.18   23.70
   3  -7   1   -8.80   10.90
  -3  -7  -1   18.60   14.90
  -3   7  -1    8.90   12.30
   3   7   1   18.50   12.20
  -3   7  -1    7.40   12.40
  -4  -7  -1  180.68   31.40
   4  -7   1  163.78   29.90
  -4   7  -1  215.68   26.60
  -4   7  -1  262.47   29.80
   4   7   1  123.29   24.70
   5  -7   1  209.28   37.00
  -5  -7  -1  241.08   35.50
  -5   7  -1  247.18   31.70
   5   7   1  261.67   31.90
  -5   7  -1  236.78   35.80
   4  -8  -1  231.78   35.60
  -4  -8   1  222.98   35.00
   4   8  -1  255.47   32.50
  -4   8   1  206.68   33.00
  -3  -8   1    1.30   15.80
   3  -8  -1    5.50   15.10
   3   8  -1  -11.10   11.80
  -3   8   1    5.70   13.90
   2  -8  -1  164.98   28.50
  -2  -8   1  168.18   30.90
   2   8  -1  146.69   32.60
  -2   8   1  161.48   26.70
   2   8  -1  188.98   26.10
   1  -8  -1  204.98   27.70
  -1  -8   1  237.38   31.00
   1  -8  -1  245.08   27.70
   1   8  -1  244.28   26.50
   1   8  -1  258.77   29.20
  -1   8   1  176.78   26.90
   0  -8  -1  -14.30   12.50
   0  -8  -1  -10.60    9.60
   0  -8   1   -7.90   12.30
   0   8  -1   -8.60   10.90
   0   8  -1   17.30   13.60
   0   8   1    1.90   11.30
  -1  -8  -1  230.68   32.00
   1  -8   1  260.67   29.70
   1  -8   1  195.38   26.50
   1   8   1  238.78   29.70
  -1   8  -1  215.08   25.80
  -1   8  -1  199.08   27.20
  -2  -8  -1  204.38   32.10
   2  -8   1  161.08   27.90
   2   8   1  213.78   28.80
  -2   8  -1  193.18   27.10
  -2   8  -1  161.68   24.90
  -3  -8  -1   11.70   19.00
   3  -8   1   -3.00   13.60
  -3   8  -1    7.30   13.40
  -3   8  -1   -0.80   14.30
   3   8   1   -4.00   12.90
   4  -8   1  169.58   33.30
  -4  -8  -1  223.58   35.00
   4   8   1  201.18   34.10
  -4   8  -1  197.28   32.00
   3  -9  -1    2.60   16.80
  -3  -9   1    2.80   20.20
   3   9  -1   15.00   16.70
  -3   9   1    0.10   16.90
  -2  -9   1  186.48   34.60
   2  -9  -1  220.98   32.30
  -2   9   1  226.98   33.20
   2   9  -1  218.08   30.80
  -1  -9   1   25.70   19.30
   1  -9  -1   26.00   16.90
   1  -9  -1    9.90   16.30
  -1   9   1    7.40   17.00
   1   9  -1   38.30   18.10
   0  -9   1   -8.20   13.50
   0  -9  -1   11.20   15.90
   0   9   1    3.90   15.10
   0   9  -1   -2.80   13.00
  -1  -9  -1   27.40   20.70
   1  -9   1   56.89   20.50
  -1   9  -1   33.30   19.70
   1   9   1   16.70   16.90
  -2  -9  -1  238.18   40.80
   2  -9   1  246.28   34.10
   2   9   1  306.77   37.10
  -2   9  -1  208.48   31.70
   3  -9   1    2.90   16.90
  -3  -9  -1    2.50   20.20
   3   9   1    3.50   16.80
   8   0  -2  246.78   32.40
  -8   0   2  228.78   32.20
   7   0  -2    4.20   10.10
  -7   0   2   -3.30    9.40
  -6   0   2  767.72   49.10
   6   0  -2  845.82   46.20
   6   0  -2  728.23   47.20
  -5   0   2   14.90    9.10
   5   0  -2    5.00    7.60
   5   0  -2    1.30    6.30
   4   0  -2 1387.36   62.99
  -4   0   2 1423.26   63.89
   4   0  -2 1471.85   61.49
  -4   0   2 1400.06   55.29
  -3   0   2   -4.00    3.90
   3   0  -2   -1.40    4.60
  -3   0   2    2.30    3.60
   3   0  -2    0.10    4.30
   2   0  -2 4357.06  155.68
   2   0  -2 4541.65  158.08
   2   0  -2 4306.77  157.28
  -2   0   2 4526.65  153.88
   1   0  -2    2.40    3.00
   1   0  -2    3.90    3.10
   1   0  -2    2.90    2.90
   1   0  -2    0.60    3.00
   0   0  -2 5182.38  175.98
   0   0   2 5380.96  174.98
   0   0  -2 4974.30  177.38
   0   0  -2 5073.59  177.08
  -1   0  -2   -0.60    2.70
   1   0   2    1.50    3.30
  -1   0  -2    5.90    3.30
   1   0   2    2.30    2.30
  -2   0  -2 4560.54  158.98
  -2   0  -2 4523.45  161.48
   2   0   2 4498.45  158.88
   2   0   2 4608.24  161.68
   3   0   2   -0.80    4.50
  -3   0  -2    5.00    3.80
  -3   0  -2   -1.10    5.00
   3   0   2    4.20    4.30
  -4   0  -2 1394.86   64.09
  -4   0  -2 1464.45   57.39
   4   0   2 1470.65   61.49
   4   0   2 1381.06   62.09
   5   0   2    3.90    6.60
   5   0   2   -5.10    5.90
  -5   0  -2    2.50    5.30
  -5   0  -2   -5.60    5.70
   6   0   2  754.92   43.50
  -6   0  -2  710.73   45.70
   6   0   2  717.63   43.60
   7   0   2   -1.30   10.30
   7   0   2   -6.70    8.10
  -7   0  -2  -16.00    9.70
  -8   0  -2  221.18   32.90
   8   0   2  231.68   28.80
   8  -1  -2   75.79   21.60
  -8  -1   2   39.30   22.30
   8   1  -2    5.60   14.10
  -8   1   2   30.50   17.40
   7  -1  -2   78.29   19.00
  -7  -1   2   50.59   17.50
   7  -1  -2   53.49   18.10
   7   1  -2   96.79   20.40
  -7   1   2   50.49   16.90
   6  -1  -2  226.78   24.10
   6  -1  -2  196.58   22.90
  -6  -1   2  209.88   25.50
  -6   1   2  218.48   25.50
   6   1  -2  201.48   24.00
   5  -1  -2  297.17   24.70
  -5  -1   2  241.48   19.20
  -5  -1   2  250.27   24.20
   5  -1  -2  253.77   23.30
  -5   1   2  205.18   21.80
   5   1  -2  241.98   23.20
   5   1  -2  244.78   20.00
  -4  -1   2  138.19   16.20
   4  -1  -2  138.89   16.30
   4  -1  -2  120.09   14.70
  -4  -1   2  114.89   12.40
   4   1  -2  117.69   14.30
  -4   1   2   99.79   13.80
   4   1  -2  112.09   11.70
  -3  -1   2 1667.83   65.59
   3  -1  -2 1709.53   69.49
   3  -1  -2 1689.53   69.09
   3   1  -2 1652.13   69.89
  -3   1   2 1669.13   68.29
   3   1  -2 1612.14   62.29
   3   1  -2 1636.44   68.09
  -2  -1   2  146.39   11.30
   2  -1  -2  149.19   12.60
   2  -1  -2  142.09   13.10
   2   1  -2  145.99   13.10
  -2   1   2  154.98   11.90
   2   1  -2  161.18    9.30
   2   1  -2  139.09   11.80
   1  -1  -2  382.56   16.90
   1  -1  -2  397.76   19.50
  -1  -1   2  375.46   19.00
   1  -1  -2  388.86   19.90
   1   1  -2  465.95   20.90
  -1   1   2  370.56   17.30
   1   1  -2  391.46   16.10
   1   1  -2  345.67   17.50
   0  -1  -2 1442.46   53.69
   0  -1   2 1349.47   51.69
   0  -1  -2 1376.76   52.69
   0   1  -2 1486.05   53.39
   0   1  -2 1447.56   52.79
   0   1   2 1451.55   52.59
   0   1  -2 1301.07   49.00
  -1  -1  -2  426.26   20.90
   1  -1   2  389.96   16.00
  -1  -1  -2  396.66   17.40
   1  -1   2  374.26   20.50
  -1   1  -2  418.66   18.80
  -1   1  -2  401.56   20.20
   1   1   2  407.66   19.30
   1   1   2  418.26   19.40
   2  -1   2  160.08   13.90
  -2  -1  -2  163.88   13.00
  -2  -1  -2  149.69   11.90
   2  -1   2  166.08   10.80
   2   1   2  168.08   11.90
  -2   1  -2  182.58   14.40
  -2   1  -2  162.68   10.30
   2   1   2  155.58   12.50
  -3  -1  -2 1719.13   68.09
   3  -1   2 1733.63   71.49
  -3  -1  -2 1730.93   68.99
   3  -1   2 1654.53   66.49
   3   1   2 1641.24   66.89
   3   1   2 1835.72   69.49
  -3   1  -2 1629.14   62.69
  -3   1  -2 1718.03   71.49
  -4  -1  -2  129.59   13.70
   4  -1   2  160.98   16.80
   4  -1   2  111.49   12.90
  -4  -1  -2  133.29   14.90
  -4   1  -2  128.99   15.70
   4   1   2  128.49   13.60
  -4   1  -2  118.79    9.60
   4   1   2   98.79   13.10
   5  -1   2  238.68   22.70
   5  -1   2  280.07   22.20
  -5  -1  -2  243.18   19.80
  -5  -1  -2  244.28   22.90
  -5   1  -2  244.88   24.10
   5   1   2  270.67   21.00
   5   1   2  254.47   22.00
   6  -1   2  208.78   23.60
  -6  -1  -2  206.78   23.70
   6  -1   2  215.68   22.40
   6   1   2  211.18   22.90
  -6   1  -2  206.28   25.20
   6   1   2  236.48   21.60
   7  -1   2   54.69   17.10
  -7  -1  -2   56.29   18.10
   7  -1   2  106.99   20.10
   7   1   2   51.59   15.90
  -7   1  -2   53.99   18.10
   8  -1   2   23.30   14.30
  -8  -1  -2   45.70   20.00
   8   1   2   16.30   14.20
  -8   1  -2   11.90   16.50
   8  -2  -2   16.00   14.30
  -8  -2   2   55.49   22.20
   8   2  -2   45.20   19.00
  -8   2   2   13.50   15.30
   7  -2  -2  251.87   31.00
   7  -2  -2  239.58   29.20
  -7  -2   2  240.98   30.90
   7   2  -2  195.48   28.40
  -7   2   2  263.37   29.90
   6  -2  -2  138.79   21.60
   6  -2  -2  119.99   21.10
  -6  -2   2  119.29   21.30
   6   2  -2   93.89   18.80
  -6   2   2   95.09   19.10
  -5  -2   2  811.12   48.90
   5  -2  -2  881.21   49.70
   5  -2  -2  954.90   52.19
  -5  -2   2  868.61   45.00
  -5   2   2  853.11   48.50
   5   2  -2  886.51   49.50
  -4  -2   2   30.00   10.00
   4  -2  -2   45.60   10.50
  -4  -2   2   44.80   10.10
   4  -2  -2   51.39   13.00
   4   2  -2   63.19   12.30
   4   2  -2   16.10    8.00
  -4   2   2   44.00   11.20
   3  -2  -2 1501.85   65.59
  -3  -2   2 1528.55   62.59
   3  -2  -2 1419.66   62.89
   3   2  -2 1486.15   62.69
   3   2  -2 1357.46   62.49
  -3   2   2 1429.66   61.89
  -2  -2   2  144.49   13.80
   2  -2  -2  128.89   12.90
   2  -2  -2  147.89   15.10
   2   2  -2  167.98   14.80
  -2   2   2  165.98   13.20
   2   2  -2  160.28   13.30
  -1  -2   2 4388.76  153.98
   1  -2  -2 4162.48  154.68
   1  -2  -2 4298.17  150.18
  -1   2   2 4348.96  149.09
   1   2  -2 4213.28  151.28
   1   2  -2 4389.36  153.78
  -1   2   2 4256.87  153.98
   0  -2  -2  619.04   28.10
   0  -2   2  573.54   26.30
   0  -2  -2  636.44   28.30
   0  -2   2  565.34   27.30
   0   2  -2  600.74   28.40
   0   2  -2  576.14   24.60
   0   2   2  617.64   28.30
  -1  -2  -2 4259.57  150.98
   1  -2   2 4340.57  153.98
   1  -2   2 4133.59  150.18
  -1  -2  -2 4105.59  153.78
  -1   2  -2 4363.36  154.18
  -1   2  -2 4360.76  148.79
   1   2   2 4411.56  153.18
  -2  -2  -2  164.28   15.00
  -2  -2  -2  145.39   11.30
   2  -2   2  170.78   11.40
   2  -2   2  140.89   15.00
  -2   2  -2  146.39   10.60
   2   2   2  174.18   11.80
  -2   2  -2  148.89   14.30
   2   2   2  146.39   13.30
  -3  -2  -2 1475.45   63.09
   3  -2   2 1539.65   60.49
   3  -2   2 1486.35   66.69
  -3  -2  -2 1470.45   60.99
  -3   2  -2 1533.65   66.39
   3   2   2 1440.86   63.09
  -3   2  -2 1466.05   55.69
   3   2   2 1507.75   58.89
   4  -2   2   39.60    9.30
  -4  -2  -2   35.20    9.60
  -4  -2  -2   48.70   10.30
   4  -2   2   34.80   11.40
   4   2   2   39.80    8.40
  -4   2  -2   52.09   12.70
   4   2   2   52.69   11.50
  -5  -2  -2  834.42   46.20
   5  -2   2  811.02   48.90
  -5  -2  -2  833.12   44.60
   5  -2   2  885.91   45.30
  -5   2  -2  809.42   49.20
   5   2   2  853.01   46.60
   5   2   2  890.71   41.80
   6  -2   2  109.19   19.00
  -6  -2  -2  110.69   17.40
   6  -2   2   88.49   19.20
  -6  -2  -2   74.19   16.50
   6   2   2  104.79   19.20
  -6   2  -2   88.39   18.60
  -7  -2  -2  202.28   27.60
   7  -2   2  204.58   27.80
   7  -2   2  246.38   26.60
  -7   2  -2  223.68   31.00
   7   2   2  232.48   27.30
   8  -2   2   17.90   15.20
   8  -2   2   44.40   16.70
  -8  -2  -2   49.90   21.30
   8   2   2   12.90   14.00
  -8   2  -2   15.90   17.80
   7  -3  -2   75.99   19.20
  -7  -3   2  100.89   23.10
   7  -3  -2  137.79   27.70
  -7   3   2  126.39   24.40
   7   3  -2   98.59   22.40
   6  -3  -2  574.94   43.80
  -6  -3   2  550.04   41.60
   6  -3  -2  558.34   41.30
  -6  -3   2  583.84   39.40
   6   3  -2  503.65   40.40
  -6   3   2  523.25   39.90
   5  -3  -2   14.60   11.00
  -5  -3   2    0.60    7.80
   5  -3  -2   27.70   11.30
  -5  -3   2   -0.40    9.30
   5   3  -2    3.10    7.50
  -5   3   2   20.10   10.70
  -4  -3   2   86.59   15.80
   4  -3  -2   96.89   14.60
   4  -3  -2  104.79   18.40
   4   3  -2   99.39   15.10
   4   3  -2  137.29   16.30
  -4   3   2  107.99   15.00
  -3  -3   2    7.40    7.10
   3  -3  -2   14.20    8.40
   3  -3  -2   13.50    7.20
   3   3  -2   23.00    8.40
   3   3  -2   17.70    7.50
  -3   3   2   12.90    7.10
  -2  -3   2  546.95   31.40
   2  -3  -2  531.95   24.70
   2  -3  -2  543.05   33.30
   2   3  -2  569.54   29.40
   2   3  -2  543.95   30.60
  -2   3   2  487.65   30.00
  -2   3   2  556.14   27.90
  -1  -3   2   82.09    7.70
  -1  -3   2  104.69   12.70
   1  -3  -2   91.99   12.40
   1  -3  -2  102.99   10.90
   1   3  -2  106.79   10.90
  -1   3   2   74.09    8.50
   1   3  -2  115.49   12.90
  -1   3   2  115.79   12.70
   0  -3  -2 2507.95   96.89
   0  -3   2 2604.14   97.49
   0  -3  -2 2575.54   97.89
   0  -3   2 2509.95   94.79
   0   3   2 2604.14   90.79
   0   3   2 2559.44   98.69
   0   3  -2 2456.95   97.59
   0   3  -2 2673.13   94.19
   1  -3   2  106.89   11.20
  -1  -3  -2   93.89   10.00
  -1  -3  -2   75.89   12.00
   1  -3   2   97.89   11.80
   1   3   2   83.59    7.70
  -1   3  -2   95.99   12.10
   1   3   2   83.89   11.30
  -1   3  -2  109.99    9.90
   2  -3   2  509.15   32.00
   2  -3   2  514.45   26.00
  -2  -3  -2  526.05   32.00
   2   3   2  535.15   26.10
  -2   3  -2  579.14   27.70
   2   3   2  558.34   31.00
   2   3   2  569.64   26.60
  -2   3  -2  554.74   31.00
  -3  -3  -2   27.30    8.90
   3  -3   2   17.50    6.30
   3  -3   2   18.70    9.40
  -3  -3  -2   17.70    6.40
   3  -3   2    8.90    5.10
   3   3   2   20.20    8.00
   3   3   2   16.30    5.50
  -3   3  -2   15.40    7.50
   4  -3   2   81.99   11.90
  -4  -3  -2  135.09   16.70
  -4  -3  -2   91.29   13.10
   4  -3   2   71.39   15.80
  -4   3  -2  114.89   16.80
   4   3   2  105.49   11.20
   4   3   2   73.69   13.80
   5  -3   2    1.10    7.10
   5  -3   2   35.30   13.20
  -5  -3  -2   19.70    8.90
  -5  -3  -2    1.80    7.80
   5   3   2   16.50    9.20
  -5   3  -2   14.10   12.10
   6  -3   2  579.04   37.90
  -6  -3  -2  539.95   37.70
   6  -3   2  521.85   41.60
  -6  -3  -2  542.25   38.20
  -6   3  -2  415.06   38.80
   6   3   2  516.95   38.00
   7  -3   2   91.29   22.40
  -7  -3  -2   99.09   21.00
   7  -3   2  114.49   21.40
   7   3   2  119.89   22.40
  -7   3  -2   80.49   22.00
  -7  -4   2   37.30   18.40
   7  -4  -2   21.40   17.40
   7  -4  -2   28.60   14.30
   7   4  -2   -2.40   14.40
  -7   4   2   18.00   14.80
  -6  -4   2  184.98   24.30
  -6  -4   2  151.08   24.70
   6  -4  -2  126.09   22.60
   6  -4  -2  116.89   24.80
   6   4  -2  181.48   25.00
  -6   4   2  141.99   24.20
  -5  -4   2  164.28   21.90
  -5  -4   2  181.48   22.10
   5  -4  -2  208.48   27.40
   5  -4  -2  143.89   20.30
  -5   4   2  137.69   20.20
   5   4  -2  120.49   18.60
  -4  -4   2  641.54   41.50
   4  -4  -2  658.33   45.20
   4  -4  -2  569.04   38.70
  -4   4   2  695.93   39.80
   4   4  -2  629.44   38.70
   4   4  -2  643.94   39.80
  -3  -4   2  696.53   40.90
   3  -4  -2  556.44   40.60
   3   4  -2  673.93   37.00
  -3   4   2  723.73   40.30
   3   4  -2  648.34   38.00
  -3   4   2  637.34   35.70
   2  -4  -2 1367.86   56.09
   2  -4  -2 1396.66   65.89
  -2  -4   2 1408.76   64.89
   2   4  -2 1252.37   61.29
  -2   4   2 1415.26   58.49
   2   4  -2 1432.76   60.69
  -2   4   2 1376.16   63.59
  -1  -4   2  261.87   16.30
  -1  -4   2  289.27   22.60
   1  -4  -2  239.58   19.20
   1  -4  -2  228.88   20.90
  -1   4   2  268.77   21.10
   1   4  -2  284.17   21.30
  -1   4   2  268.57   17.30
   1   4  -2  247.48   18.30
   0  -4   2  545.05   32.40
   0  -4  -2  545.55   32.30
   0  -4   2  608.14   30.50
   0  -4  -2  609.64   32.00
   0   4   2  563.94   26.50
   0   4  -2  582.34   32.30
   0   4   2  539.55   32.50
   0   4  -2  577.94   29.60
  -1  -4  -2  236.48   17.50
  -1  -4  -2  271.37   22.20
   1  -4   2  211.38   19.40
   1  -4   2  259.07   19.20
   1   4   2  229.38   14.70
   1   4   2  240.08   20.40
  -1   4  -2  253.27   20.50
  -1   4  -2  267.77   18.20
  -2  -4  -2 1392.46   66.29
   2  -4   2 1435.26   65.69
   2  -4   2 1424.56   58.79
  -2  -4  -2 1373.76   56.29
   2   4   2 1284.47   62.69
   2   4   2 1480.45   56.89
  -2   4  -2 1383.16   63.89
  -2   4  -2 1357.96   59.19
  -3  -4  -2  704.63   42.10
  -3  -4  -2  722.13   35.50
   3  -4   2  653.53   42.20
   3  -4   2  702.63   32.70
   3   4   2  678.33   39.40
   3   4   2  648.24   31.40
  -3   4  -2  692.43   40.30
  -3   4  -2  673.73   36.10
   4  -4   2  644.84   37.10
  -4  -4  -2  702.73   37.90
   4  -4   2  697.63   46.00
  -4  -4  -2  719.63   44.00
   4   4   2  676.83   41.00
  -4   4  -2  633.94   42.00
   5  -4   2  132.89   23.90
   5  -4   2  210.68   20.90
  -5  -4  -2  163.58   21.40
  -5  -4  -2  176.08   20.30
  -5   4  -2  162.78   23.00
   5   4   2  165.18   21.20
   6  -4   2  168.68   21.70
  -6  -4  -2  165.78   22.80
   6  -4   2  116.19   23.60
  -6  -4  -2  150.58   23.30
  -6   4  -2  127.19   24.50
   6   4   2  141.79   23.20
   7  -4   2    8.70   12.80
  -7  -4  -2   41.10   17.20
   7  -4   2   27.10   18.80
  -7   4  -2   28.50   15.50
   7   4   2    7.50   12.40
   7  -5  -2    8.70   17.50
  -7  -5   2    2.70   14.40
  -7   5   2    0.20   13.80
  -7   5   2    2.30   13.80
   7   5  -2   17.10   16.50
  -6  -5   2   22.20   13.70
   6  -5  -2   36.70   19.70
  -6  -5   2   40.20   16.60
   6   5  -2   84.49   20.40
  -6   5   2   46.10   17.10
  -6   5   2   41.70   17.10
  -5  -5   2  157.48   23.30
   5  -5  -2  186.78   32.20
   5   5  -2  107.89   20.60
  -5   5   2  144.49   21.30
  -5   5   2  161.18   25.10
   5   5  -2  117.99   20.60
   4  -5  -2   89.69   21.00
  -4  -5   2  145.89   21.50
  -4   5   2  129.79   19.60
   4   5  -2  156.18   20.30
  -4   5   2  154.38   19.50
   4   5  -2  131.89   18.60
   3  -5  -2  639.04   45.10
  -3  -5   2  714.23   44.70
   3   5  -2  700.13   41.20
  -3   5   2  658.73   42.50
  -3   5   2  714.33   39.70
   3   5  -2  675.43   39.50
   2  -5  -2  112.39   19.50
  -2  -5   2  116.19   17.20
   2  -5  -2  133.39   14.40
   2   5  -2   98.79   15.20
  -2   5   2  110.19   14.60
   2   5  -2   98.89   14.40
  -2   5   2  105.49   17.80
   1  -5  -2  244.18   22.80
   1  -5  -2  249.88   21.70
  -1  -5   2  228.38   22.80
  -1  -5   2  259.57   18.00
   1   5  -2  266.87   21.00
  -1   5   2  208.18   21.00
  -1   5   2  281.47   19.60
   1   5  -2  261.77   22.50
   0  -5   2  180.58   16.50
   0  -5   2  180.38   18.50
   0  -5  -2  179.68   17.50
   0  -5  -2  121.69   16.80
   0   5   2  168.88   19.30
   0   5  -2  161.98   17.80
   0   5   2  165.68   14.30
   0   5  -2  171.78   16.40
   1  -5   2  252.87   21.60
  -1  -5  -2  230.88   19.30
  -1  -5  -2  228.08   23.50
   1  -5   2  246.18   21.10
  -1   5  -2  224.48   21.30
   1   5   2  232.28   22.30
   1   5   2  250.87   17.20
  -1   5  -2  253.77   20.50
  -2  -5  -2   97.39   18.40
   2  -5   2  114.29   14.20
  -2  -5  -2  117.39   12.70
   2  -5   2  120.09   17.60
   2   5   2  106.89   16.40
  -2   5  -2  126.49   14.70
   2   5   2  110.69   12.80
  -2   5  -2  114.69   18.60
   3  -5   2  643.44   44.00
   3  -5   2  619.74   43.40
  -3  -5  -2  783.02   47.60
  -3   5  -2  704.03   43.30
  -3   5  -2  690.53   39.00
   3   5   2  670.83   36.30
   3   5   2  669.03   41.90
  -4  -5  -2  196.28   19.50
  -4  -5  -2  171.68   23.80
   4  -5   2  123.79   23.20
   4   5   2  142.99   20.00
  -4   5  -2  145.29   18.40
  -4   5  -2  105.79   20.60
  -5  -5  -2  189.18   21.60
  -5  -5  -2  199.68   26.20
   5  -5   2  126.39   25.10
  -5   5  -2  166.78   25.10
   5   5   2  176.58   22.80
  -5   5  -2  168.88   21.40
  -6  -5  -2   44.30   15.90
  -6  -5  -2   27.60   13.80
   6  -5   2    5.90   15.60
   6   5   2   51.79   16.70
  -6   5  -2   32.90   14.80
  -6   5  -2   41.30   17.80
  -7  -5  -2   10.20   17.00
  -7  -5  -2   14.50   14.70
   7  -5   2    7.90   18.30
   7   5   2    3.10   12.70
  -7   5  -2   -3.40   13.10
  -6  -6   2  177.18   28.90
  -6  -6   2  266.77   34.50
   6  -6  -2  110.09   27.40
  -6   6   2  195.98   27.30
  -6   6   2  125.39   25.80
   6   6  -2  220.08   29.40
  -5  -6   2  188.28   28.30
   5  -6  -2  205.88   32.20
   5   6  -2  213.58   26.60
   5   6  -2  194.98   25.60
  -5   6   2  202.08   27.30
  -5   6   2  265.47   28.20
  -4  -6   2  128.89   23.70
   4  -6  -2   71.79   19.70
   4   6  -2   85.19   18.50
  -4   6   2   90.99   20.60
   4   6  -2   98.59   17.80
  -4   6   2   92.99   19.10
   3  -6  -2   -4.90   10.30
  -3  -6   2    7.70   11.70
   3   6  -2    4.50    9.20
   3   6  -2   11.10    9.70
  -3   6   2   16.50   10.90
  -3   6   2    7.80   11.10
  -2  -6   2  236.48   25.80
   2  -6  -2  190.78   24.60
   2  -6  -2  197.58   19.80
   2   6  -2  190.38   21.60
  -2   6   2  236.28   22.20
  -2   6   2  161.48   21.90
   2   6  -2  240.48   22.50
   1  -6  -2  628.74   39.40
  -1  -6   2  697.43   44.00
   1  -6  -2  587.94   40.30
  -1   6   2  657.83   35.50
  -1   6   2  603.54   41.20
   1   6  -2  718.23   40.10
   1   6  -2  631.84   39.60
   0  -6   2  683.03   42.90
   0  -6  -2  681.33   42.90
   0  -6  -2  657.73   39.70
   0  -6   2  665.53   38.20
   0   6   2  674.33   35.30
   0   6   2  623.04   41.60
   0   6  -2  722.93   40.30
   0   6  -2  692.83   41.70
  -1  -6  -2  649.74   37.20
   1  -6   2  643.54   40.30
   1  -6   2  634.94   39.50
  -1  -6  -2  660.23   44.70
   1   6   2  622.34   33.40
  -1   6  -2  635.94   40.20
  -1   6  -2  701.63   38.90
   1   6   2  533.85   39.90
   2  -6   2  208.88   20.90
  -2  -6  -2  247.28   28.10
   2  -6   2  205.08   24.40
   2   6   2  169.48   22.80
  -2   6  -2  230.98   24.30
   2   6   2  178.18   20.00
  -2   6  -2  226.88   21.20
  -3  -6  -2   14.30   12.90
   3  -6   2    5.00   10.60
  -3   6  -2    8.00    8.70
  -3   6  -2    2.40    9.70
   3   6   2   24.30   12.40
   4  -6   2   67.59   19.50
  -4  -6  -2   72.99   19.80
  -4   6  -2   43.20   16.50
   4   6   2   72.39   17.80
  -4   6  -2   81.59   17.70
  -5  -6  -2  214.38   29.60
   5  -6   2  188.98   29.40
   5   6   2  177.18   25.10
  -5   6  -2  217.48   29.30
  -5   6  -2  229.98   29.80
  -6  -6  -2  224.58   30.30
   6  -6   2  162.58   33.40
  -6   6  -2  187.18   31.90
   6   6   2  152.18   25.80
  -5  -7   2   91.39   23.20
   5  -7  -2  130.69   29.60
  -5   7   2   50.79   20.60
   5   7  -2   85.09   22.10
   5   7  -2   93.09   21.60
  -4  -7   2    6.60   14.50
   4  -7  -2   32.50   18.40
   4   7  -2   28.00   14.20
   4   7  -2    3.80   11.70
  -4   7   2   30.60   15.70
   3  -7  -2  188.78   28.30
  -3  -7   2  235.88   28.60
   3   7  -2  217.58   25.80
   3   7  -2  182.78   24.30
  -3   7   2  199.58   27.40
  -2  -7   2  113.69   23.90
   2  -7  -2  101.49   20.90
   2   7  -2  146.99   20.60
  -2   7   2  118.09   22.70
   2   7  -2  114.79   21.50
   1  -7  -2  138.59   21.10
   1  -7  -2  172.58   23.10
  -1  -7   2  164.08   24.40
   1   7  -2  164.68   21.30
  -1   7   2  116.09   21.10
   1   7  -2  210.48   23.20
   0  -7   2  132.39   19.40
   0  -7  -2  198.08   25.10
   0  -7  -2  185.68   22.30
   0  -7   2  186.58   24.40
   0   7   2  104.69   20.40
   0   7  -2  181.68   21.40
   0   7  -2  176.68   23.10
   1  -7   2  131.39   20.60
  -1  -7  -2  135.29   23.30
  -1  -7  -2  129.79   19.60
   1  -7   2  136.09   20.80
  -1   7  -2  140.99   20.90
  -1   7  -2  127.19   19.50
   1   7   2  138.09   23.80
   2  -7   2  112.39   19.90
  -2  -7  -2  115.39   23.90
   2  -7   2  133.49   24.60
  -2   7  -2  100.09   21.20
   2   7   2  127.59   23.50
  -2   7  -2  183.58   22.10
  -3  -7  -2  193.38   30.50
   3  -7   2  246.78   31.00
  -3   7  -2  180.98   26.80
   3   7   2  254.57   29.70
  -3   7  -2  211.58   25.50
  -4  -7  -2   23.80   17.10
   4  -7   2   41.80   19.20
   4   7   2   14.60   13.90
  -4   7  -2   33.80   15.70
  -5  -7  -2   91.39   25.10
   5  -7   2  103.19   27.40
   5   7   2   54.99   20.80
  -5   7  -2   85.79   22.70
  -4  -8   2  113.49   26.90
   4  -8  -2   92.39   26.70
   4   8  -2  107.59   23.10
   4   8  -2  126.79   26.10
  -4   8   2  122.39   28.10
  -3  -8   2  141.79   27.10
   3  -8  -2  135.39   28.20
   3   8  -2  164.78   25.90
   3   8  -2  169.08   25.40
  -3   8   2  124.39   26.20
  -2  -8   2  188.58   31.50
   2  -8  -2  206.58   28.70
  -2   8   2  198.38   28.50
   2   8  -2  191.08   25.40
   2   8  -2  209.68   26.50
   1  -8  -2   66.59   17.90
  -1  -8   2   73.09   21.80
   1  -8  -2   24.90   16.40
  -1   8   2   57.69   18.70
   1   8  -2   84.09   19.00
   1   8  -2   69.59   18.90
   0  -8   2   61.29   19.20
   0  -8  -2   34.40   17.20
   0  -8  -2   91.99   19.20
   0   8  -2   40.40   16.10
   0   8   2   62.09   19.50
   0   8  -2   48.30   17.20
   1  -8   2   89.09   20.70
   1  -8   2   72.79   19.60
  -1  -8  -2   55.29   21.00
   1   8   2   44.20   17.80
  -1   8  -2   77.99   19.10
  -1   8  -2   87.89   20.20
  -2  -8  -2  231.18   34.10
   2  -8   2  237.08   29.60
  -2   8  -2  233.18   27.70
   2   8   2  245.88   32.00
  -2   8  -2  251.57   30.50
   3  -8   2  148.79   27.40
  -3  -8  -2  135.19   30.60
   3   8   2  162.88   29.40
  -3   8  -2  165.38   29.30
   4  -8   2   76.39   24.60
  -4  -8  -2   97.39   26.30
   4   8   2  105.09   26.10
  -4   8  -2   84.59   24.30
  -3  -9   2    3.20   19.50
   3  -9  -2    6.30   16.90
   3   9  -2   -2.60   15.10
  -3   9   2  -18.10   15.00
   2  -9  -2  100.09   24.50
  -2  -9   2   42.50   22.20
   2   9  -2   67.69   19.90
  -2   9   2   79.99   25.20
   1  -9  -2   36.30   18.90
  -1  -9   2   56.89   22.30
   1  -9  -2   19.30   17.10
   1   9  -2   66.49   20.80
  -1   9   2   75.09   24.30
   0  -9   2  190.38   29.70
   0  -9  -2  169.18   30.90
   0   9   2  116.79   28.00
   0   9  -2  131.29   25.20
  -1  -9  -2   58.69   24.10
   1  -9   2   67.79   21.30
   1   9   2   45.00   20.00
  -1   9  -2  104.69   32.20
  -2  -9  -2   44.30   25.90
   2  -9   2   38.30   20.30
  -2   9  -2   97.19   34.90
   2   9   2   84.59   25.50
  -3  -9  -2  -23.90   19.80
   3  -9   2    1.00   17.50
  -3   9  -2  -26.60   17.40
   3   9   2    0.90   18.20
  -8   0   3  185.48   34.30
   8   0  -3  239.88   31.50
   7   0  -3   -3.80   10.50
  -7   0   3   -5.40   10.30
   6   0  -3   36.60   12.30
   6   0  -3   30.40   14.90
  -6   0   3   30.10   12.80
   5   0  -3   -6.20    6.80
   5   0  -3   -4.00    5.90
  -5   0   3   -6.30    6.10
  -4   0   3 2842.12  114.49
   4   0  -3 2897.61  110.79
   4   0  -3 2931.11  114.79
  -4   0   3 2869.91  105.39
  -3   0   3    0.80    5.40
   3   0  -3   -6.80    3.60
  -3   0   3    0.50    3.40
   3   0  -3   -5.40    3.90
   2   0  -3 3869.91  133.89
   2   0  -3 3777.82  136.39
   2   0  -3 3711.03  136.69
   2   0  -3 3741.93  134.99
   1   0  -3    2.90    3.10
   1   0  -3    1.40    3.60
   1   0  -3    5.10    3.60
   1   0  -3    2.30    3.80
   0   0  -3   -4.40    2.70
   0   0  -3    4.90    3.80
   0   0  -3    1.60    2.40
   0   0   3    2.40    2.30
  -1   0  -3    1.50    3.40
   1   0   3    3.60    2.30
  -1   0  -3   -5.60    2.90
   1   0   3    2.30    3.40
   2   0   3 3841.52  137.59
  -2   0  -3 3844.22  136.29
   2   0   3 3666.53  132.69
  -2   0  -3 3756.52  134.79
   3   0   3   -0.60    4.90
   3   0   3    1.10    3.70
  -3   0  -3   -0.70    4.10
  -3   0  -3    1.60    5.10
  -4   0  -3 2871.31  107.99
  -4   0  -3 2833.12  114.49
   4   0   3 2904.61  110.79
   4   0   3 3007.00  114.49
  -5   0  -3    1.00    7.40
   5   0   3   -6.40    4.80
  -5   0  -3    4.20    5.80
   5   0   3   -9.20    5.40
  -6   0  -3   27.00   12.20
   6   0   3   13.40    9.30
   6   0   3    8.80    8.80
   7   0   3    4.60   10.20
  -7   0  -3   -4.50   11.50
   7   0   3    3.50   10.60
   8   0   3  187.18   26.60
  -8   0  -3  184.68   31.20
   8  -1  -3  120.79   26.00
  -8  -1   3   90.09   25.30
  -8   1   3   69.89   24.10
   8   1  -3   75.29   23.20
  -7  -1   3  141.29   26.30
   7  -1  -3   92.59   20.70
  -7   1   3  105.29   22.60
   7   1  -3  124.89   24.40
  -6  -1   3   40.40   14.90
   6  -1  -3   42.80   13.80
   6  -1  -3   51.59   14.90
   6   1  -3   42.60   14.40
  -6   1   3   74.79   16.90
  -5  -1   3  565.24   36.80
  -5  -1   3  517.85   29.50
   5  -1  -3  461.85   33.20
   5  -1  -3  495.15   33.90
   5   1  -3  499.45   32.30
   5   1  -3  478.05   34.30
  -5   1   3  464.35   33.50
  -4  -1   3  113.09   15.40
   4  -1  -3  100.09   14.50
   4  -1  -3  129.89   15.20
  -4  -1   3  102.79   12.00
   4   1  -3  117.99   14.80
   4   1  -3  113.29   11.40
  -4   1   3   99.49   13.90
   3  -1  -3   93.39   12.30
  -3  -1   3   76.89    9.80
   3  -1  -3   67.49   11.70
  -3   1   3   74.99   10.30
   3   1  -3   76.59   11.60
  -3   1   3   62.29    6.50
   3   1  -3   71.99   11.30
   3   1  -3   88.99    9.10
   2  -1  -3  498.45   27.20
   2  -1  -3  490.85   22.20
  -2  -1   3  516.65   25.50
   2  -1  -3  486.35   26.50
   2   1  -3  499.85   25.20
  -2   1   3  511.25   25.00
   2   1  -3  496.75   22.70
   2   1  -3  505.65   27.40
   1  -1  -3  913.91   36.80
   1  -1  -3  933.61   38.80
   1  -1  -3  913.71   35.90
   1  -1  -3  873.01   39.40
   1   1  -3  956.20   39.60
   1   1  -3  882.81   36.20
   1   1  -3  988.20   39.80
   0  -1   3    6.30    3.70
   0  -1  -3   -0.50    3.50
   0  -1  -3    1.40    3.80
   0   1  -3   -0.90    3.10
   0   1  -3    2.50    3.90
   0   1   3    1.50    3.10
  -1  -1  -3 1000.70   37.90
  -1  -1  -3 1015.60   42.60
   1  -1   3  948.51   42.60
  -1   1  -3 1037.30   41.40
   1   1   3  962.50   41.40
   1   1   3 1020.30   40.40
  -1   1  -3 1034.00   42.40
  -2  -1  -3  509.55   26.60
   2  -1   3  514.15   22.10
  -2  -1  -3  501.45   24.50
   2  -1   3  477.55   27.40
   2   1   3  499.85   25.00
  -2   1  -3  473.95   26.60
  -2   1  -3  483.75   23.70
   2   1   3  514.45   26.00
   3  -1   3   68.59    8.70
   3  -1   3   77.99   11.90
  -3  -1  -3   60.79   10.40
  -3  -1  -3   82.89   11.10
  -3   1  -3   84.09   13.40
   3   1   3   76.19   10.10
   3   1   3   81.29   10.60
  -3   1  -3   75.09    8.30
   4  -1   3  140.99   13.50
   4  -1   3  122.69   15.90
  -4  -1  -3   88.19   14.40
  -4  -1  -3  100.49   13.10
  -4   1  -3  108.79   15.50
   4   1   3   95.99   12.90
   4   1   3  131.29   14.20
  -4   1  -3  112.59   10.60
   5  -1   3  469.65   33.50
  -5  -1  -3  485.95   29.60
  -5  -1  -3  500.55   33.30
   5  -1   3  466.75   29.80
   5   1   3  507.35   31.60
   5   1   3  451.55   31.10
  -5   1  -3  503.65   34.80
   6  -1   3   47.50   12.20
   6  -1   3   64.59   15.80
  -6  -1  -3   54.79   16.20
  -6   1  -3   35.10   13.60
   6   1   3   59.99   13.50
   6   1   3   34.20   11.20
   7  -1   3  132.49   21.50
   7  -1   3  119.79   21.20
  -7  -1  -3   88.59   19.10
   7   1   3  127.49   21.90
  -7   1  -3  125.49   24.20
   8  -1   3   55.49   16.60
  -8  -1  -3   98.39   24.70
  -8   1  -3   55.29   21.60
   8   1   3   81.89   20.10
  -8  -2   3   15.00   18.80
  -8   2   3    8.90   14.80
   7  -2  -3  756.72   52.49
  -7  -2   3  673.93   52.49
   7  -2  -3  796.82   53.39
   7   2  -3  833.42   56.09
  -7   2   3  758.22   52.49
   6  -2  -3   19.20   12.60
  -6  -2   3    5.00   11.20
   6  -2  -3   10.00    9.70
  -6   2   3    5.60    9.20
   6   2  -3    6.40    9.70
   5  -2  -3  802.22   47.80
  -5  -2   3  740.63   46.50
   5  -2  -3  726.23   45.60
  -5  -2   3  797.22   42.80
   5   2  -3  792.62   45.80
  -5   2   3  742.93   45.10
   4  -2  -3  212.28   21.90
   4  -2  -3  227.38   21.20
  -4  -2   3  241.08   20.00
   4   2  -3  230.38   20.60
  -4   2   3  263.17   20.90
   4   2  -3  216.18   21.30
   3  -2  -3   14.60    7.20
  -3  -2   3   20.40    7.10
   3  -2  -3   19.20    8.30
   3   2  -3   43.50    9.90
   3   2  -3   30.20    9.40
  -3   2   3   29.20    7.60
   2  -2  -3  258.67   20.10
   2  -2  -3  254.07   18.70
  -2  -2   3  246.78   18.10
   2  -2  -3  239.78   13.70
   2   2  -3  263.77   19.40
  -2   2   3  235.18   15.80
   2   2  -3  285.37   17.90
   1  -2  -3 3966.70  148.79
  -1  -2   3 4069.59  141.49
  -1  -2   3 4081.99  147.79
   1  -2  -3 4218.58  144.69
  -1   2   3 3975.00  147.89
   1   2  -3 4052.69  143.89
   1   2  -3 4049.99  148.69
  -1   2   3 4202.08  141.69
   0  -2  -3   -3.70    4.10
   0  -2   3   -4.50    3.90
   0  -2   3   -2.20    3.40
   0  -2  -3    8.80    5.50
   0   2  -3    0.50    2.60
   0   2  -3   -2.30    4.30
   0   2   3   -2.70    3.40
  -1  -2  -3 4177.98  153.28
   1  -2   3 4115.99  152.38
  -1  -2  -3 4223.58  151.08
  -1   2  -3 4224.48  150.38
  -1   2  -3 4289.87  144.99
   1   2   3 4215.98  151.78
  -1   2  -3 4233.38  153.68
  -2  -2  -3  255.67   15.60
   2  -2   3  311.47   21.60
  -2  -2  -3  268.17   19.40
   2  -2   3  270.27   14.40
  -2   2  -3  246.88   19.30
   2   2   3  255.87   18.20
  -2   2  -3  273.47   16.50
   2   2   3  252.77   16.90
   3  -2   3   20.80    6.00
   3  -2   3   15.70    7.70
  -3  -2  -3   18.70    6.40
  -3  -2  -3   23.50    7.90
   3   2   3   30.90    8.10
  -3   2  -3   34.60   10.10
  -3   2  -3   29.40    6.20
   3   2   3   26.20    7.20
  -4  -2  -3  239.18   19.50
   4  -2   3  219.18   17.80
   4  -2   3  225.38   22.40
  -4  -2  -3  243.08   20.10
  -4   2  -3  212.78   14.40
   4   2   3  257.67   20.90
  -4   2  -3  242.98   22.80
   4   2   3  253.07   18.60
  -5  -2  -3  816.82   43.00
  -5  -2  -3  825.42   44.30
   5  -2   3  751.02   40.80
   5  -2   3  740.33   46.30
   5   2   3  714.33   39.10
   5   2   3  746.43   43.40
  -5   2  -3  751.22   47.80
   6  -2   3    0.60    8.10
  -6  -2  -3   15.10   10.90
   6  -2   3   23.30   12.30
  -6  -2  -3   -0.20    9.40
  -6   2  -3    3.70   12.50
   6   2   3    4.30    8.20
   7  -2   3  808.62   47.90
  -7  -2  -3  728.03   49.70
   7  -2   3  696.13   50.19
  -7   2  -3  571.04   49.50
   7   2   3  749.23   49.00
  -8  -2  -3   22.70   17.90
   8  -2   3   40.70   18.00
  -8   2  -3    2.50   18.40
   7  -3  -3    2.10   15.40
  -7  -3   3   20.90   16.30
   7  -3  -3   -5.70   11.40
   7   3  -3   -6.40   13.20
  -7   3   3    8.60   11.70
  -6  -3   3   45.80   16.10
  -6  -3   3   68.99   15.90
   6  -3  -3   34.50   15.30
   6  -3  -3   55.69   15.50
  -6   3   3   91.59   19.50
   6   3  -3   37.50   13.70
  -5  -3   3   34.20   13.30
   5  -3  -3   30.80   13.20
   5  -3  -3   55.39   14.70
  -5  -3   3   33.40   12.80
  -5   3   3   62.69   14.90
   5   3  -3   61.29   14.90
   4  -3  -3  360.26   28.50
   4  -3  -3  398.46   31.90
  -4  -3   3  385.06   28.40
   4   3  -3  388.66   29.50
  -4   3   3  338.87   26.30
   4   3  -3  428.46   29.00
   3  -3  -3   34.50    9.90
  -3  -3   3   16.40    8.30
   3  -3  -3   28.50   10.70
   3   3  -3   52.69   12.00
  -3   3   3   42.20    9.60
   3   3  -3   43.70   10.30
   2  -3  -3  871.71   37.40
   2  -3  -3  887.01   46.40
  -2  -3   3  818.02   43.70
   2   3  -3  975.30   46.10
  -2   3   3  882.81   44.30
   2   3  -3  936.71   41.60
  -2   3   3  903.41   39.30
   1  -3  -3   42.00   10.00
  -1  -3   3   34.40    6.10
  -1  -3   3   35.00    9.20
   1  -3  -3   35.60    8.10
   1   3  -3   34.40    7.40
  -1   3   3   39.70    9.40
  -1   3   3   35.50    5.90
   1   3  -3   39.90    9.10
   0  -3   3    5.50    5.50
   0  -3  -3    2.30    5.40
   0  -3  -3    4.20    5.20
   0  -3   3   -1.60    4.70
   0   3   3   -5.30    4.10
   0   3  -3    2.70    5.70
   0   3  -3    0.80    3.70
  -1  -3  -3   47.80   10.30
   1  -3   3   32.60    7.80
  -1  -3  -3   44.80    8.60
   1  -3   3   27.60    8.60
  -1   3  -3   45.30    9.70
   1   3   3   31.70    8.30
  -1   3  -3   30.80    5.90
  -2  -3  -3  861.81   44.50
   2  -3   3  899.41   40.00
  -2  -3  -3  925.71   37.90
   2  -3   3  884.41   46.10
  -2   3  -3  927.41   46.00
  -2   3  -3  904.01   38.70
   2   3   3  928.51   45.00
   2   3   3  956.60   41.60
   3  -3   3   31.60   11.30
  -3  -3  -3   42.50    8.70
   3  -3   3   27.40    6.80
   3  -3   3   32.20    7.30
  -3  -3  -3   32.80    9.30
   3   3   3   34.90    9.50
  -3   3  -3   22.50    9.40
   3   3   3   41.20    8.20
  -4  -3  -3  374.26   27.80
   4  -3   3  405.36   24.10
  -4  -3  -3  325.37   23.90
   4  -3   3  386.96   31.10
  -4   3  -3  361.96   30.10
   4   3   3  366.46   22.80
   4   3   3  351.66   26.80
  -5  -3  -3   26.50   10.80
  -5  -3  -3   36.70   11.50
   5  -3   3   26.60   12.40
   5  -3   3   40.70   10.70
  -5   3  -3   42.80   14.90
   5   3   3   59.69   13.40
  -6  -3  -3   56.69   15.20
   6  -3   3   72.89   20.30
   6  -3   3   55.39   13.90
  -6  -3  -3   63.39   16.00
  -6   3  -3   70.79   18.60
   6   3   3   47.30   14.10
   7  -3   3   13.80   14.50
  -7  -3  -3   33.90   15.80
   7  -3   3   19.70   12.80
  -7   3  -3   13.70   15.60
   7   3   3   -4.60   11.30
   7  -4  -3  151.48   30.90
  -7  -4   3  147.79   28.90
   7  -4  -3  196.08   29.50
   7   4  -3  164.38   28.20
  -7   4   3  205.98   27.80
  -6  -4   3   13.30   12.30
   6  -4  -3    1.50   10.90
  -6  -4   3   -0.40   10.70
   6  -4  -3   39.70   18.10
  -6   4   3   22.90   13.10
   6   4  -3   18.40   12.90
   5  -4  -3  182.78   25.90
  -5  -4   3  156.28   22.50
   5  -4  -3  145.29   23.60
  -5   4   3  154.38   20.60
   5   4  -3  204.98   24.30
   5   4  -3  163.98   21.20
  -4  -4   3  812.02   48.50
   4  -4  -3  840.52   49.40
   4  -4  -3 1000.30   55.99
   4   4  -3  810.82   48.50
  -4   4   3  797.92   45.00
   4   4  -3  933.81   47.80
  -4   4   3  810.52   48.80
  -3  -4   3    2.10    7.10
   3  -4  -3   20.10   10.70
  -3   4   3    5.00    7.40
   3   4  -3   11.30    8.20
   3   4  -3    6.00    5.90
  -3   4   3    4.40    6.60
   2  -4  -3  807.82   48.00
  -2  -4   3  855.91   47.10
   2  -4  -3  872.81   40.10
  -2   4   3  911.71   40.50
  -2   4   3  920.81   48.00
   2   4  -3  867.91   46.10
   2   4  -3  919.41   42.90
  -1  -4   3  733.13   33.20
   1  -4  -3  752.72   40.70
   1  -4  -3  763.42   37.90
  -1  -4   3  702.83   40.20
  -1   4   3  812.02   33.70
   1   4  -3  713.43   40.10
   1   4  -3  748.43   36.10
  -1   4   3  733.53   40.40
   0  -4   3    4.30    6.20
   0  -4  -3   -1.20    5.70
   0  -4   3   -2.80    5.00
   0  -4  -3   -3.00    5.40
   0   4   3    1.90    5.40
   0   4  -3   -2.20    5.80
   0   4  -3   -4.20    3.60
  -1  -4  -3  748.73   41.00
  -1  -4  -3  756.42   37.50
   1  -4   3  725.83   37.40
   1  -4   3  741.53   39.20
   1   4   3  691.83   39.50
  -1   4  -3  749.23   34.70
   1   4   3  730.03   30.50
  -1   4  -3  765.32   40.90
  -2  -4  -3  887.31   37.30
   2  -4   3  903.81   47.40
  -2  -4  -3  879.71   40.60
   2  -4   3  825.52   40.80
  -2  -4  -3  822.72   46.40
   2   4   3  806.02   45.40
  -2   4  -3  842.02   46.40
  -2   4  -3  906.11   40.20
  -3  -4  -3   16.30    8.90
   3  -4   3   12.20    8.90
   3  -4   3   13.50    6.90
  -3  -4  -3    8.80    6.00
  -3   4  -3   13.70    9.60
   3   4   3   20.90    8.90
   3   4   3    2.10    5.80
  -3   4  -3    4.80    6.20
   4  -4   3  749.82   50.49
  -4  -4  -3  935.51   44.20
  -4  -4  -3  895.41   49.99
  -4   4  -3  907.61   44.50
   4   4   3  819.02   48.10
  -4   4  -3  785.62   49.70
   5  -4   3  199.48   26.00
   5  -4   3  179.18   18.90
  -5  -4  -3  171.18   22.00
  -5  -4  -3  181.08   20.50
  -5   4  -3  160.48   23.70
   5   4   3  131.49   19.40
   6  -4   3    5.60    9.80
  -6  -4  -3    5.20   10.30
  -6  -4  -3    0.60   10.30
   6  -4   3    5.10   12.90
  -6   4  -3    5.60   11.90
   6   4   3   -3.10    9.30
  -7  -4  -3  123.99   25.30
   7  -4   3  146.29   28.90
  -7   4  -3  159.68   28.60
   7   4   3  173.48   25.90
  -7  -5   3   74.69   24.30
   7  -5  -3   35.90   23.20
  -7   5   3   19.60   16.90
  -7   5   3   37.50   19.30
  -6  -5   3   20.70   16.20
  -6  -5   3   22.70   14.80
   6  -5  -3   -2.60   15.70
  -6   5   3   33.50   15.90
  -6   5   3   10.80   14.10
   6   5  -3   16.60   14.20
  -5  -5   3  208.98   25.90
   5  -5  -3  188.48   29.20
   5   5  -3  167.28   24.10
  -5   5   3  194.68   26.00
  -5   5   3  182.98   23.10
   5   5  -3  175.08   22.90
   4  -5  -3  181.08   26.30
  -4  -5   3  195.08   24.30
   4   5  -3  151.58   21.00
  -4   5   3  160.98   19.90
  -4   5   3  152.08   22.80
   4   5  -3  168.48   20.30
  -3  -5   3   55.39   14.30
   3  -5  -3    6.00   10.60
  -3   5   3   50.69   11.80
   3   5  -3   23.90    9.70
   3   5  -3   11.10   10.70
  -3   5   3   20.30   10.50
  -2  -5   3   51.89   13.80
   2  -5  -3   33.50   12.50
   2  -5  -3   61.89   11.80
   2   5  -3   71.39   12.10
  -2   5   3   50.49   10.50
   2   5  -3   57.19   13.40
  -2   5   3   47.00   13.10
  -1  -5   3  316.87   26.10
   1  -5  -3  269.07   21.40
   1  -5  -3  261.57   24.10
  -1  -5   3  279.67   19.10
   1   5  -3  293.57   21.20
  -1   5   3  236.38   22.80
   1   5  -3  265.07   23.50
  -1   5   3  269.77   18.60
   0  -5   3   -1.50    5.60
   0  -5   3   -6.60    6.40
   0  -5  -3   -1.20    6.30
   0  -5  -3    1.00    5.90
   0   5  -3    1.50    5.60
   0   5   3    6.70    4.90
   0   5   3   -7.60    5.80
   0   5  -3   -8.40    5.10
  -1  -5  -3  293.87   26.00
  -1  -5  -3  273.87   21.90
   1  -5   3  306.27   23.90
   1  -5   3  286.57   22.90
   1   5   3  273.87   24.90
   1   5   3  244.98   16.00
  -1   5  -3  281.37   20.50
  -1   5  -3  313.87   25.20
  -2  -5  -3   32.80    9.40
   2  -5   3   74.29   13.10
   2  -5   3   65.99   15.00
  -2  -5  -3   74.19   17.40
   2   5   3   45.30    9.00
   2   5   3   63.39   14.30
  -2   5  -3   62.49   11.60
  -2   5  -3   38.10   13.00
   3  -5   3   20.20    9.10
   3  -5   3   10.50   11.00
  -3  -5  -3   42.40   14.30
  -3  -5  -3   31.40    8.60
  -3   5  -3   45.30   14.10
   3   5   3   17.20    9.00
  -3   5  -3   26.60   10.10
  -4  -5  -3  208.58   18.90
  -4  -5  -3  202.48   24.00
   4  -5   3  163.08   24.90
  -4   5  -3  187.28   19.90
  -4   5  -3  155.98   23.80
   4   5   3  140.89   20.40
   5  -5   3  149.49   27.80
  -5  -5  -3  199.78   22.40
  -5  -5  -3  167.98   24.50
  -5   5  -3  173.98   26.00
   5   5   3  178.88   22.90
  -6  -5  -3    8.70   13.70
   6  -5   3   30.20   17.40
   6   5   3   27.20   13.90
  -6   5  -3   47.20   18.90
   7  -5   3   43.50   21.00
  -7  -5  -3   46.80   19.20
  -7   5  -3   49.00   21.80
  -6  -6   3   13.20   14.30
  -6  -6   3   13.10   15.30
   6  -6  -3   19.00   22.20
  -6   6   3   -1.30   14.90
  -6   6   3    0.10   12.40
   6   6  -3   14.30   15.90
  -5  -6   3   71.89   20.10
   5  -6  -3  106.79   26.60
  -5   6   3   98.69   23.00
   5   6  -3   87.79   18.80
   5   6  -3   58.29   17.50
  -5   6   3   99.69   20.90
  -4  -6   3  347.07   36.20
   4  -6  -3  430.66   41.60
   4   6  -3  429.96   35.80
  -4   6   3  419.96   32.60
   4   6  -3  349.96   30.40
  -4   6   3  406.66   37.10
  -3  -6   3   18.30   12.50
   3  -6  -3    8.40   12.30
  -3   6   3   32.00   14.40
  -3   6   3   13.70   10.50
   3   6  -3   -4.50    8.50
   3   6  -3   28.00   11.50
   2  -6  -3  439.96   34.70
   2  -6  -3  337.87   26.60
  -2  -6   3  392.36   33.70
   2   6  -3  392.56   31.80
  -2   6   3  383.16   33.10
   2   6  -3  368.36   28.20
   1  -6  -3  184.58   22.70
  -1  -6   3  211.48   24.80
   1  -6  -3  167.78   20.00
   1   6  -3  214.48   20.10
   1   6  -3  206.38   24.10
  -1   6   3  208.28   23.40
   0  -6  -3    6.20    8.70
   0  -6  -3   -2.70    8.70
   0  -6   3    1.70    7.80
   0  -6   3    9.90    9.20
   0   6  -3    7.00    9.70
   0   6   3   -3.80    7.60
   0   6  -3   -0.20    7.60
  -1  -6  -3  214.88   21.30
   1  -6   3  208.78   21.80
   1  -6   3  262.77   24.30
  -1  -6  -3  248.08   25.80
  -1   6  -3  195.88   23.10
   1   6   3  191.68   23.20
  -1   6  -3  216.68   21.00
  -2  -6  -3  371.96   34.20
   2  -6   3  411.16   33.20
   2  -6   3  374.16   28.60
  -2  -6  -3  374.66   26.80
  -2   6  -3  390.36   28.50
   2   6   3  377.16   33.90
  -2   6  -3  383.06   32.70
  -3  -6  -3   18.50   13.00
   3  -6   3   27.10   13.40
  -3   6  -3   -5.70    8.30
   3   6   3   21.40   12.00
  -3   6  -3   21.80    9.90
   4  -6   3  427.16   39.00
  -4  -6  -3  492.45   40.00
  -4   6  -3  413.36   37.20
   4   6   3  302.37   32.40
  -5  -6  -3  143.59   25.90
   5  -6   3   76.39   23.30
   5   6   3   80.49   19.80
  -5   6  -3   69.99   21.00
   6  -6   3    5.80   17.80
  -6  -6  -3   11.70   16.00
   6   6   3   31.80   16.30
  -6   6  -3  -13.60   13.20
  -5  -7   3   20.50   15.80
   5  -7  -3   47.60   21.70
  -5   7   3   16.10   17.80
   5   7  -3   40.70   17.10
   5   7  -3   50.39   17.60
  -4  -7   3    6.20   12.90
   4  -7  -3   10.70   15.10
  -4   7   3   -2.20   14.50
   4   7  -3  -15.10    8.90
   4   7  -3   -2.40   12.10
  -3  -7   3    0.70   12.40
   3  -7  -3    5.10   12.40
   3   7  -3    5.20   10.60
   3   7  -3    6.60   12.40
  -3   7   3    4.40   11.70
   2  -7  -3   39.40   14.80
  -2  -7   3    8.10   11.90
  -2   7   3   35.20   14.90
   2   7  -3   32.80   11.90
   2   7  -3   43.50   14.10
   1  -7  -3  230.48   26.40
   1  -7  -3  216.38   23.50
  -1  -7   3  203.28   26.50
  -1   7   3  187.58   25.40
   1   7  -3  246.88   24.60
   1   7  -3  201.68   24.80
   0  -7  -3   -0.60   11.00
   0  -7  -3   10.80   10.50
   0  -7   3  -12.10    8.20
   0  -7   3   13.20   12.00
   0   7  -3    2.60    9.80
   0   7  -3    2.70   10.30
   0   7   3   -8.90    9.20
   1  -7   3  207.58   25.10
  -1  -7  -3  263.97   30.60
  -1  -7  -3  264.87   25.70
   1  -7   3  222.68   25.90
   1   7   3  153.18   25.00
  -1   7  -3  252.67   26.90
  -1   7  -3  212.38   22.80
   2  -7   3   66.69   18.80
   2  -7   3   86.99   17.90
  -2  -7  -3   37.00   18.30
   2   7   3   66.99   18.60
  -2   7  -3   82.59   16.90
  -2   7  -3   77.39   18.70
   3  -7   3    5.20   12.90
  -3  -7  -3    6.60   14.90
  -3   7  -3   12.40   13.70
   3   7   3    9.90   14.10
   4  -7   3   -9.80   11.30
  -4  -7  -3   14.70   13.40
  -4   7  -3  -14.80   11.40
   4   7   3    1.00   14.10
  -5  -7  -3   33.30   19.30
   5  -7   3   27.00   18.00
   5   7   3   43.40   17.90
  -5   7  -3   39.30   18.80
   4  -8  -3   26.80   18.60
  -4  -8   3    3.00   14.70
  -4   8   3    3.30   17.60
   4   8  -3    9.40   13.60
   4   8  -3    3.60   15.80
  -3  -8   3   -2.60   15.00
   3  -8  -3   32.80   18.60
   3   8  -3   14.50   15.50
  -3   8   3    8.10   14.70
   3   8  -3   10.30   12.20
  -2  -8   3   51.29   21.00
   2  -8  -3   37.70   18.20
   2   8  -3   78.39   18.40
  -2   8   3   89.79   23.00
   2   8  -3   55.69   18.90
   1  -8  -3  166.88   24.40
  -1  -8   3  195.78   28.90
   1  -8  -3  203.28   27.60
   1   8  -3  221.08   27.40
   1   8  -3  233.88   26.80
  -1   8   3  196.48   29.20
   0  -8   3   -4.60   12.50
   0  -8  -3   12.90   12.20
   0  -8  -3    2.10   12.50
   0   8  -3   -6.40   10.10
   0   8   3   -0.50   13.40
   0   8  -3  -10.10   12.00
   1  -8   3  201.68   26.40
   1  -8   3  219.78   28.40
  -1  -8  -3  170.88   29.40
  -1   8  -3  205.58   27.70
   1   8   3  132.39   25.70
  -2  -8  -3   43.70   20.60
   2  -8   3   59.19   19.70
  -2   8  -3   63.49   19.30
   2   8   3   66.69   21.90
   3  -8   3    2.50   15.70
  -3  -8  -3   -3.00   16.40
  -3   8  -3   11.60   16.80
   3   8   3    1.00   15.30
   4  -8   3    6.90   17.60
  -4  -8  -3    3.80   14.80
  -4   8  -3   26.80   18.20
   4   8   3   -4.00   16.90
  -2  -9   3   48.20   23.80
   2  -9  -3   68.09   22.60
  -2   9   3   50.79   23.90
   2   9  -3   71.09   21.50
   2   9  -3   38.80   20.30
   1  -9  -3   12.50   15.30
  -1  -9   3   11.10   17.20
   1   9  -3   11.30   14.10
  -1   9   3    8.50   16.30
   1   9  -3   26.50   16.50
   0  -9   3   -6.50   15.00
   0  -9  -3   28.40   17.10
   0   9  -3    4.20   16.10
   0   9   3    8.40   17.20
  -1  -9  -3   52.99   21.80
   1  -9   3  -15.60   15.40
  -1   9  -3  -10.20   15.40
   1   9   3   21.20   18.30
   2  -9   3   56.89   21.50
  -2  -9  -3   45.90   24.10
   2   9   3   76.39   25.60
  -2   9  -3   51.39   21.20
  -8   0   4  168.68   31.20
   8   0  -4  172.88   29.80
   7   0  -4    3.30   10.50
  -7   0   4   -8.50    9.10
   6   0  -4   12.20   11.10
  -6   0   4   15.90   11.80
   5   0  -4   -0.90    6.70
   5   0  -4   -3.40    7.30
  -5   0   4  -10.30    6.30
   4   0  -4  461.55   29.50
   4   0  -4  433.26   26.80
  -4   0   4  446.16   30.00
  -4   0   4  408.26   23.40
   3   0  -4   -7.70    4.20
   3   0  -4    1.10    4.40
  -3   0   4    0.30    3.50
   3   0  -4    0.50    5.00
   2   0  -4 1610.34   64.19
   2   0  -4 1639.74   65.29
   2   0  -4 1614.74   64.69
   2   0  -4 1578.14   62.79
   1   0  -4   -2.30    4.00
   1   0  -4   -1.00    3.70
   1   0  -4    6.00    4.30
   1   0  -4   -1.00    3.70
   0   0  -4 1568.84   57.19
   0   0  -4 1515.25   59.69
   0   0   4 1553.04   55.19
   0   0   4 1388.16   59.29
   1   0   4    0.40    3.90
  -1   0  -4   -1.10    3.50
   1   0   4    0.70    2.60
  -1   0  -4   -3.10    3.40
   2   0   4 1576.74   59.19
  -2   0  -4 1680.43   63.69
   2   0   4 1580.54   65.59
  -2   0  -4 1483.75   62.69
  -3   0  -4    3.10    4.50
  -3   0  -4   -6.60    5.40
   3   0   4    7.30    5.90
   3   0   4    4.50    3.90
   4   0   4  428.06   25.70
  -4   0  -4  486.55   30.40
   4   0   4  452.25   29.90
  -4   0  -4  432.36   25.50
   5   0   4   11.10    7.20
  -5   0  -4   -3.20    6.10
  -5   0  -4   -3.10    9.00
   5   0   4   -5.90    7.00
   6   0   4   16.00    9.80
  -6   0  -4   22.90   13.60
   6   0   4   35.20   12.70
   7   0   4   -5.10    9.10
  -7   0  -4  -15.10   10.60
   7   0   4   19.80   12.90
   8   0   4  172.48   24.80
  -8   0  -4  138.89   28.30
   8  -1  -4   77.19   21.90
  -8  -1   4  103.29   24.50
   8   1  -4  144.59   28.90
  -8   1   4  143.39   28.80
  -7  -1   4   24.70   14.00
   7  -1  -4   17.70   13.10
  -7   1   4    9.20   12.20
   7   1  -4   18.40   14.60
   6  -1  -4   19.20   11.70
  -6  -1   4   46.00   14.60
   6  -1  -4    4.70    8.60
   6   1  -4   37.40   14.20
  -6   1   4    8.00   10.30
  -5  -1   4  417.96   27.10
   5  -1  -4  472.65   32.70
  -5  -1   4  449.46   34.10
   5  -1  -4  375.06   31.40
   5   1  -4  419.06   32.20
  -5   1   4  450.65   32.20
  -4  -1   4   46.70    9.50
   4  -1  -4   51.69   11.40
   4  -1  -4   43.70   11.00
   4   1  -4   38.00    8.10
   4   1  -4   29.20   10.40
  -4   1   4   57.59   11.60
  -4   1   4   32.70    6.50
   4   1  -4   66.09   13.10
   3  -1  -4 1223.48   55.49
   3  -1  -4 1142.59   53.59
  -3  -1   4 1222.68   52.49
   3  -1  -4 1169.78   47.80
  -3   1   4 1169.98   52.79
   3   1  -4 1225.68   53.89
   3   1  -4 1265.27   49.80
   3   1  -4 1195.88   55.79
  -2  -1   4  315.07   19.50
   2  -1  -4  315.07   20.50
   2  -1  -4  284.87   17.00
   2  -1  -4  292.77   20.10
   2   1  -4  304.47   18.60
   2   1  -4  280.47   20.30
   2   1  -4  271.07   16.50
  -2   1   4  273.87   17.50
  -1  -1   4  279.47   16.00
   1  -1  -4  248.18   16.20
   1  -1  -4  290.47   17.60
   1  -1  -4  274.17   18.80
   1  -1  -4  301.47   15.20
   1   1  -4  286.07   18.20
   1   1  -4  273.37   15.20
   1   1  -4  302.67   18.40
   0  -1  -4  457.35   25.20
   0  -1   4  434.56   23.30
   0  -1  -4  473.75   19.40
   0  -1  -4  428.16   23.50
   0   1  -4  485.65   24.30
   0   1  -4  493.45   25.10
   0   1   4  466.45   22.80
  -1  -1  -4  294.57   14.50
   1  -1   4  290.57   18.90
  -1  -1  -4  259.37   18.00
   1   1   4  311.37   16.70
  -1   1  -4  293.77   18.80
  -1   1  -4  296.47   18.30
   1   1   4  284.57   18.50
   2  -1   4  266.07   14.20
  -2  -1  -4  305.97   20.00
  -2  -1  -4  320.27   18.00
   2  -1   4  317.77   21.80
  -2   1  -4  281.47   17.90
   2   1   4  283.27   19.10
  -2   1  -4  312.87   20.60
   2   1   4  312.97   18.30
  -3  -1  -4 1249.18   53.49
  -3  -1  -4 1266.67   54.69
   3  -1   4 1188.48   56.79
   3  -1   4 1206.88   49.30
   3   1   4 1237.48   54.49
  -3   1  -4 1159.38   55.49
  -3   1  -4 1243.08   50.89
   3   1   4 1217.88   52.19
  -4  -1  -4   47.40   10.30
   4  -1   4   22.00    9.10
  -4  -1  -4   24.70    8.60
   4  -1   4   31.00    8.10
  -4   1  -4   18.40    9.00
   4   1   4   30.40    8.40
   4   1   4   53.79   11.80
  -4   1  -4   30.10    7.20
  -5  -1  -4  471.25   32.10
   5  -1   4  443.56   28.50
   5  -1   4  400.56   31.80
  -5  -1  -4  461.35   29.00
  -5   1  -4  372.86   32.20
   5   1   4  465.85   30.00
   5   1   4  450.25   30.70
  -6  -1  -4   16.30   10.80
   6  -1   4   17.50    9.80
   6  -1   4   59.99   16.40
   6   1   4    9.00    9.30
  -6   1  -4   28.10   13.80
   6   1   4   26.10   11.40
  -7  -1  -4   28.60   15.70
   7  -1   4   18.00   13.40
   7  -1   4   10.80   10.20
   7   1   4   12.80   11.80
  -7   1  -4  -13.90   11.80
   8  -1   4  130.19   25.90
  -8  -1  -4  126.49   25.80
   8   1   4   81.19   21.10
  -8   1  -4  149.19   29.70
   7  -2  -4   56.29   17.90
   7  -2  -4   58.49   18.70
  -7  -2   4   28.40   16.90
   7   2  -4   61.59   19.50
  -7   2   4   33.00   15.90
  -6  -2   4  104.59   21.00
   6  -2  -4  175.78   24.70
   6  -2  -4  151.28   24.30
   6   2  -4  161.08   23.40
  -6   2   4  143.49   23.60
  -5  -2   4  404.46   33.10
   5  -2  -4  427.06   34.20
  -5  -2   4  401.66   28.50
   5  -2  -4  399.96   32.30
  -5   2   4  415.56   31.00
   5   2  -4  402.76   31.70
   4  -2  -4   38.80   11.90
  -4  -2   4   14.10    8.20
   4  -2  -4    9.30    9.50
   4   2  -4   17.80    8.90
  -4   2   4   25.80    8.60
   4   2  -4   30.30    9.80
   3  -2  -4  392.06   19.60
   3  -2  -4  368.56   27.00
  -3  -2   4  378.26   25.10
   3  -2  -4  374.06   26.50
   3   2  -4  396.26   25.40
  -3   2   4  404.36   24.40
   3   2  -4  417.16   28.50
   2  -2  -4   82.79   11.40
   2  -2  -4   80.39    8.60
   2  -2  -4   88.29   12.30
  -2  -2   4   57.99   10.90
  -2  -2   4   68.19    6.90
   2   2  -4   78.49    9.90
  -2   2   4   67.69    8.60
   2   2  -4   94.29   12.40
  -1  -2   4 1171.38   52.19
  -1  -2   4 1206.48   47.20
   1  -2  -4 1188.38   49.10
   1  -2  -4 1171.08   53.09
   1   2  -4 1147.89   52.69
  -1   2   4 1265.37   52.29
   1   2  -4 1183.68   47.00
  -1   2   4 1220.38   45.20
   0  -2   4  717.63   32.90
   0  -2  -4  711.43   34.40
   0  -2  -4  725.03   35.50
   0   2  -4  695.43   34.80
   0   2   4  731.33   34.20
   0   2  -4  668.43   34.60
   1  -2   4 1176.88   52.19
  -1  -2  -4 1162.38   51.39
  -1  -2  -4 1250.97   53.59
  -1   2  -4 1188.78   53.19
  -1   2  -4 1205.38   51.19
   1   2   4 1229.78   51.29
  -2  -2  -4   83.59    8.50
   2  -2   4   70.49    6.80
   2  -2   4   95.49   13.60
  -2  -2  -4   89.49   13.00
   2   2   4   84.39   10.70
  -2   2  -4   61.49    9.50
  -2   2  -4   65.19   12.10
   2   2   4   75.09   10.40
   3  -2   4  417.56   29.60
   3  -2   4  406.56   21.10
  -3  -2  -4  360.66   26.10
  -3  -2  -4  421.66   24.10
   3   2   4  391.96   24.80
  -3   2  -4  403.06   22.60
   3   2   4  462.65   26.60
  -3   2  -4  366.06   27.00
  -4  -2  -4   17.80    8.20
   4  -2   4   13.30    9.10
   4  -2   4   14.10    6.20
  -4  -2  -4   20.80    8.10
  -4   2  -4   19.40    6.10
  -4   2  -4   36.60   10.90
   4   2   4   17.00    7.70
   4   2   4   21.20    7.90
   5  -2   4  451.75   28.20
   5  -2   4  381.96   33.10
  -5  -2  -4  413.66   29.90
  -5  -2  -4  443.56   30.70
   5   2   4  412.06   28.50
   5   2   4  439.46   30.40
  -5   2  -4  306.57   30.60
  -6  -2  -4  170.78   19.90
   6  -2   4  119.79   22.50
  -6  -2  -4  129.19   19.60
   6  -2   4  116.09   17.70
   6   2   4  130.49   19.30
  -6   2  -4  122.39   23.20
   7  -2   4   49.80   19.90
  -7  -2  -4   52.59   17.80
   7  -2   4   22.20   14.90
   7   2   4   53.09   16.10
  -7   2  -4   38.40   18.10
   7  -3  -4   13.50   16.10
   7  -3  -4    4.10   12.60
  -7  -3   4    6.90   14.10
   7   3  -4   14.00   14.80
  -7   3   4   -0.50   12.80
  -6  -3   4  346.27   34.50
  -6  -3   4  430.76   33.20
   6  -3  -4  398.66   36.10
   6  -3  -4  398.56   38.30
   6   3  -4  463.65   37.50
  -6   3   4  428.16   34.40
  -5  -3   4   59.99   14.10
   5  -3  -4   48.10   16.40
   5  -3  -4   62.29   15.10
   5   3  -4   66.59   14.80
   5   3  -4   87.89   18.10
  -5   3   4   56.89   14.40
   4  -3  -4   59.99   13.40
  -4  -3   4   94.69   16.50
   4  -3  -4   69.79   16.90
   4   3  -4   38.50   11.90
   4   3  -4   53.79   12.80
  -4   3   4   64.79   12.90
   3  -3  -4   65.49    8.30
   3  -3  -4   93.39   16.50
   3  -3  -4   50.09   11.80
  -3  -3   4   63.89   13.00
   3   3  -4   88.79   12.30
   3   3  -4   67.79   13.50
  -3   3   4   77.09   11.60
   2  -3  -4  375.56   27.60
  -2  -3   4  391.06   26.60
   2  -3  -4  399.36   21.80
  -2   3   4  381.26   26.90
  -2   3   4  430.96   22.20
   2   3  -4  410.36   23.90
   2   3  -4  367.06   26.70
   1  -3  -4   26.60    8.60
  -1  -3   4   45.80   10.00
   1  -3  -4   52.19    9.30
  -1  -3   4   28.90    6.10
   1   3  -4   22.00    8.20
  -1   3   4   31.10    9.00
  -1   3   4   35.50    5.60
   1   3  -4   37.70    7.30
   0  -3  -4 2782.92  108.69
   0  -3   4 2883.61  107.89
   0  -3   4 2894.51  104.99
   0  -3  -4 2732.73  107.49
   0   3  -4 2692.73   99.69
   0   3   4 2761.22  108.29
   0   3  -4 2834.82  109.99
   1  -3   4   18.50    7.20
  -1  -3  -4   35.70    8.90
  -1  -3  -4   45.30    9.70
   1  -3   4   26.90    8.10
  -1   3  -4   36.60    5.50
   1   3   4   20.80    7.80
  -1   3  -4   36.50    9.60
  -2  -3  -4  451.55   28.60
  -2  -3  -4  420.66   20.60
   2  -3   4  422.16   28.90
   2   3   4  395.46   26.80
  -2   3  -4  411.56   20.90
  -2   3  -4  393.96   28.40
   2   3   4  416.26   25.60
  -2   3  -4  453.45   25.50
  -3  -3  -4   74.49   13.50
   3  -3   4   77.79   15.20
   3  -3   4   91.59   10.30
  -3  -3  -4   88.29   10.70
  -3   3  -4   68.29   10.80
   3   3   4   63.19   11.90
  -3   3  -4   78.19   14.10
   3   3   4   77.69   11.30
  -4  -3  -4   52.79   10.70
   4  -3   4   75.19   10.50
   4  -3   4   25.60   10.20
  -4  -3  -4   58.49   13.60
  -4   3  -4   55.29   14.30
   4   3   4   42.90   11.30
   4   3   4   77.99   11.70
   5  -3   4   50.99   15.80
  -5  -3  -4   43.20   12.70
   5  -3   4   62.69   12.20
  -5  -3  -4   75.49   14.40
  -5   3  -4   91.09   20.00
   5   3   4   45.60   13.20
  -6  -3  -4  491.85   35.60
  -6  -3  -4  443.56   34.50
   6  -3   4  396.66   38.00
   6   3   4  453.15   35.30
  -6   3  -4  373.96   39.10
   7  -3   4    5.80   13.20
  -7  -3  -4   21.00   14.40
   7   3   4   -0.60   10.70
  -7   3  -4    2.60   15.20
   7  -4  -4   -0.90   12.10
   7  -4  -4    3.50   16.20
  -7  -4   4   -9.80   14.80
   7   4  -4  -14.00   13.20
  -7   4   4  -22.40    9.90
  -6  -4   4  123.89   24.40
   6  -4  -4  133.09   27.00
  -6  -4   4  147.99   22.70
   6  -4  -4  141.79   25.10
   6   4  -4  131.09   23.80
  -6   4   4  125.29   22.30
  -5  -4   4   71.49   16.90
   5  -4  -4   64.99   20.50
   5  -4  -4   90.09   19.30
  -5   4   4   59.79   15.90
   5   4  -4   75.19   17.40
   5   4  -4   71.29   16.60
  -4  -4   4   87.89   16.50
   4  -4  -4   92.89   20.00
  -4   4   4  107.29   19.90
   4   4  -4  139.29   20.00
   4   4  -4  130.29   17.50
  -4   4   4  127.69   16.60
  -3  -4   4  838.72   48.90
   3  -4  -4  905.41   52.89
  -3   4   4  857.41   49.60
   3   4  -4  931.01   45.90
   3   4  -4  836.82   49.20
  -3   4   4  888.71   43.20
   2  -4  -4  336.27   21.80
   2  -4  -4  350.06   28.20
  -2  -4   4  346.07   27.40
  -2   4   4  370.36   28.30
  -2   4   4  359.56   21.40
   2   4  -4  375.46   27.90
   2   4  -4  354.86   23.10
   1  -4  -4  106.49   15.10
   1  -4  -4  129.39   14.10
  -1  -4   4  112.29   11.40
  -1  -4   4   99.89   14.70
   1   4  -4   94.09   16.00
  -1   4   4   99.79   14.80
   1   4  -4  125.19   12.40
  -1   4   4  105.69    9.70
   0  -4  -4 1055.09   50.79
   0  -4  -4 1070.79   51.69
   0  -4   4 1074.09   48.10
   0  -4   4 1068.19   51.49
   0   4  -4 1080.79   44.60
   0   4   4 1024.30   52.09
   0   4  -4 1013.60   51.99
   1  -4   4  111.99   15.00
   1  -4   4  118.69   14.60
  -1  -4  -4  110.49   15.20
  -1  -4  -4  136.49   14.60
  -1   4  -4   96.49   16.30
   1   4   4  140.29   16.80
  -1   4  -4  115.09   10.90
  -2  -4  -4  392.56   25.10
  -2  -4  -4  359.56   27.90
   2  -4   4  400.06   24.90
  -2  -4  -4  357.16   19.30
   2  -4   4  388.86   29.10
   2   4   4  363.56   27.80
  -2   4  -4  407.46   21.90
  -2   4  -4  388.06   29.30
   3  -4   4  852.31   50.59
  -3  -4  -4  931.31   40.60
  -3  -4  -4  950.60   50.59
   3  -4   4  847.62   41.70
   3   4   4  922.61   43.40
   3   4   4  812.32   47.20
  -3   4  -4  902.61   41.60
  -3   4  -4  793.32   48.90
   4  -4   4  171.58   23.50
  -4  -4  -4  173.88   17.10
  -4  -4  -4  169.88   21.70
  -4   4  -4  154.58   21.20
  -4   4  -4  123.39   15.80
   4   4   4  121.99   23.60
   4   4   4  149.59   19.90
   5  -4   4   39.70   16.30
  -5  -4  -4   97.39   16.10
  -5  -4  -4   35.00   12.60
   5   4   4   78.89   16.10
  -5   4  -4   67.79   19.00
  -6  -4  -4  111.79   21.10
  -6  -4  -4  148.39   21.70
   6  -4   4  127.19   26.30
   6   4   4  158.68   22.80
  -6   4  -4   91.79   22.60
  -7  -4  -4    1.60   14.20
   7  -4   4   -8.60   14.60
  -7   4  -4   -5.50   12.40
   7   4   4   22.20   14.40
   6  -5  -4  223.98   35.20
  -6  -5   4  231.68   31.10
  -6  -5   4  266.57   31.80
  -6   5   4  283.47   31.10
  -6   5   4  273.27   33.70
   6   5  -4  299.67   31.90
   5  -5  -4  151.58   28.50
  -5  -5   4  138.09   24.80
   5   5  -4  167.08   24.60
  -5   5   4  159.18   26.20
  -5   5   4  165.58   22.30
   5   5  -4  130.19   21.90
  -4  -5   4   21.70   11.60
   4  -5  -4   16.30   13.10
  -4   5   4   18.40   11.10
   4   5  -4   32.90   12.00
   4   5  -4   29.90   14.60
  -4   5   4   -1.50   10.60
  -3  -5   4 1024.90   56.99
   3  -5  -4 1056.89   61.39
  -3   5   4 1081.49   49.90
  -3   5   4  922.81   56.79
   3   5  -4  974.00   55.89
   3   5  -4 1009.10   51.09
   2  -5  -4   29.20    9.50
  -2  -5   4   -1.00    8.70
   2  -5  -4   14.50   10.10
   2   5  -4    4.50    9.20
  -2   5   4   35.10    9.20
  -2   5   4   36.40   12.40
   2   5  -4   20.40    8.70
   1  -5  -4   55.09   12.40
  -1  -5   4   70.49   10.50
   1  -5  -4   58.09   13.60
  -1  -5   4   61.59   13.40
   1   5  -4   71.09   11.50
   1   5  -4   44.40   12.20
  -1   5   4   68.79   14.30
   0  -5  -4  654.23   38.50
   0  -5   4  639.54   35.00
   0  -5  -4  559.14   36.70
   0  -5   4  642.44   38.40
   0   5  -4  651.73   39.80
   0   5   4  640.34   40.30
   0   5  -4  592.44   31.80
   1  -5   4   69.99   13.60
  -1  -5  -4   84.39   16.00
  -1  -5  -4   74.99   13.10
   1  -5   4   54.39   12.90
  -1   5  -4   65.29   13.90
  -1   5  -4   57.09    9.90
   1   5   4   58.19   13.50
  -2  -5  -4   16.00   10.90
  -2  -5  -4   38.40    9.90
   2  -5   4   33.40    9.80
   2  -5   4   28.50   11.90
  -2   5  -4   21.60    7.50
  -2   5  -4   19.90   11.00
   2   5   4    4.20    8.10
   3  -5   4 1013.10   58.89
  -3  -5  -4 1005.40   57.69
   3  -5   4 1068.89   49.70
   3   5   4 1010.80   49.00
   3   5   4  961.20   55.79
  -3   5  -4 1004.30   58.19
  -3   5  -4 1025.80   52.19
  -4  -5  -4   24.70   12.50
   4  -5   4    7.40   10.70
   4   5   4   14.00   10.10
  -4   5  -4   22.10   13.00
  -5  -5  -4  124.39   23.10
   5  -5   4  141.99   27.40
  -5   5  -4  142.99   25.70
   5   5   4  114.49   21.20
   6  -5   4  258.57   36.40
  -6  -5  -4  327.27   33.20
   6   5   4  283.27   31.30
  -6   5  -4  311.67   35.50
   6  -6  -4  293.77   41.10
  -6  -6   4  302.67   36.30
  -6   6   4  220.98   33.20
   6   6  -4  378.46   35.90
   6   6  -4  323.97   35.90
   5  -6  -4   49.00   21.80
  -5  -6   4   18.60   16.20
  -5   6   4    9.20   16.00
   5   6  -4    1.80   10.70
   5   6  -4    7.40   12.00
   4  -6  -4   20.70   15.20
  -4  -6   4   14.00   12.90
   4   6  -4   31.30   13.10
   4   6  -4   28.70   15.20
  -4   6   4   28.00   15.60
  -3  -6   4  774.32   50.49
   3  -6  -4  675.83   49.50
   3   6  -4  723.73   41.60
   3   6  -4  637.44   45.40
  -3   6   4  634.74   47.40
   2  -6  -4   89.99   15.40
  -2  -6   4   73.99   18.20
   2  -6  -4   92.59   19.90
  -2   6   4  101.89   20.20
   2   6  -4   75.09   14.60
   2   6  -4  109.19   19.90
   1  -6  -4   66.49   15.20
   1  -6  -4  102.19   19.10
  -1  -6   4   60.29   15.90
   1   6  -4   57.99   16.20
  -1   6   4   30.80   12.40
   1   6  -4   63.19   12.20
   0  -6   4 1013.70   50.19
   0  -6   4  914.11   53.89
   0  -6  -4  981.50   53.89
   0  -6  -4  975.10   53.49
   0   6  -4 1032.30   48.70
   0   6  -4  997.10   56.19
   0   6   4  924.71   55.89
  -1  -6  -4   86.99   16.40
  -1  -6  -4   66.39   16.70
   1  -6   4   76.99   17.00
   1  -6   4   68.69   15.20
   1   6   4   63.29   16.10
  -1   6  -4   60.69   12.70
  -1   6  -4   52.19   14.60
  -2  -6  -4   84.99   15.10
   2  -6   4  114.99   17.50
  -2  -6  -4   52.89   16.90
   2  -6   4   66.59   16.90
   2   6   4   97.29   19.30
  -2   6  -4   85.69   18.30
   3  -6   4  724.83   49.30
  -3  -6  -4  651.53   47.20
   3   6   4  746.23   49.10
  -3   6  -4  665.53   47.50
  -4  -6  -4   14.30   13.10
   4  -6   4   41.60   17.50
  -4   6  -4   14.30   13.80
   4   6   4   15.90   11.20
  -5  -6  -4    4.80   13.90
   5  -6   4    5.40   14.10
   5   6   4    5.60   12.30
  -5   6  -4   -1.80   14.00
   6  -6   4  252.37   38.50
  -6  -6  -4  305.77   35.30
   6   6   4  241.98   31.30
  -6   6  -4  278.57   36.40
   5  -7  -4   -5.90   14.90
  -5  -7   4    7.80   15.90
  -5   7   4    7.70   17.30
   5   7  -4   17.60   15.90
   5   7  -4   17.70   13.60
   4  -7  -4    0.20   13.30
  -4  -7   4  -14.90   12.40
  -4   7   4  -15.70   13.60
   4   7  -4   -3.00   10.40
   4   7  -4    3.50   14.00
  -3  -7   4  601.94   47.80
   3  -7  -4  630.54   49.30
   3   7  -4  512.85   42.90
  -3   7   4  654.93   49.30
   3   7  -4  573.44   39.60
   2  -7  -4   33.30   15.20
  -2  -7   4   11.40   13.60
   2   7  -4   18.20   12.40
   2   7  -4   20.10   11.20
  -2   7   4   15.40   12.70
   1  -7  -4   22.90   13.40
  -1  -7   4   18.50   12.40
   1  -7  -4   71.89   18.00
   1   7  -4   42.80   16.40
  -1   7   4   47.30   16.40
   1   7  -4   84.19   16.40
   0  -7  -4  596.34   42.60
   0  -7  -4  581.24   42.30
   0  -7   4  625.74   43.80
   0   7  -4  650.43   38.80
   0   7  -4  598.34   44.30
   0   7   4  613.44   45.20
  -1  -7  -4   73.99   16.60
   1  -7   4   69.69   17.30
  -1  -7  -4   47.00   17.10
   1  -7   4   57.79   16.90
  -1   7  -4   42.50   15.70
   1   7   4   41.50   16.10
  -2  -7  -4   35.80   17.30
   2  -7   4   -1.00   11.10
   2  -7   4   12.70   13.20
  -2   7  -4   21.40   14.10
   2   7   4   12.30   13.20
   3  -7   4  511.45   43.80
  -3  -7  -4  599.44   48.80
   3   7   4  576.74   46.00
  -3   7  -4  572.94   46.00
  -4  -7  -4   18.10   15.20
   4  -7   4  -15.60   10.30
   4   7   4   -4.30    9.50
  -4   7  -4    8.30   14.60
   5  -7   4    2.70   16.00
  -5  -7  -4    4.80   14.70
  -5   7  -4   29.30   18.20
   5   7   4    7.40   14.00
  -4  -8   4  -13.90   13.00
   4  -8  -4   10.80   17.20
   4   8  -4   12.50   13.70
  -4   8   4   -1.10   16.60
   4   8  -4    8.10   17.20
   3  -8  -4  280.17   36.10
  -3  -8   4  203.78   35.20
   3   8  -4  308.67   30.70
  -3   8   4  323.97   38.50
   3   8  -4  317.27   34.60
  -2  -8   4    4.50   15.40
   2  -8  -4  -13.10   12.90
  -2   8   4   11.00   16.90
   2   8  -4    4.00   11.10
   2   8  -4   12.10   13.40
   1  -8  -4    7.10   14.70
   1  -8  -4   65.19   18.20
  -1  -8   4   32.60   17.40
   1   8  -4    8.40   11.70
   1   8  -4   17.10   13.60
  -1   8   4   44.30   19.50
   0  -8  -4  853.61   54.69
   0  -8   4  818.52   55.79
   0  -8  -4  857.61   55.39
   0   8   4  837.42   58.89
   0   8  -4  754.22   54.59
  -1  -8  -4   36.60   19.00
   1  -8   4   49.50   17.60
   1  -8   4   24.70   21.20
  -1   8  -4   47.50   18.10
   1   8   4   32.00   17.30
  -2  -8  -4   -4.90   13.80
   2  -8   4    6.00   13.40
  -2   8  -4  -10.70   12.30
   2   8   4    3.50   15.60
  -3  -8  -4  249.38   37.60
   3  -8   4  287.87   35.80
   3   8   4  303.87   37.60
  -3   8  -4  216.98   30.60
   4  -8   4   -3.30   16.20
  -4  -8  -4   -2.40   13.80
  -4   8  -4   -2.10   15.70
   4   8   4   -0.40   14.20
   2  -9  -4   27.80   17.40
  -2  -9   4   27.50   22.30
   2   9  -4   43.20   20.90
  -2   9   4   29.30   22.00
  -1  -9   4   -6.80   18.10
   1  -9  -4   -1.30   14.50
   1   9  -4   11.00   17.10
  -1   9   4   26.10   19.10
   0  -9  -4  426.16   42.70
   0  -9   4  467.55   44.90
   0   9  -4  605.64   48.30
   0   9   4  424.76   45.30
  -1  -9  -4    8.20   17.20
   1  -9   4   -0.90   17.30
  -1   9  -4  -28.30   13.80
   1   9   4   11.80   17.50
   2  -9   4   21.80   21.80
  -2  -9  -4   29.70   22.20
  -2   9  -4   42.00   20.30
   2   9   4   12.90   20.60
   7   0  -5   -4.10   12.10
  -7   0   5   -2.30   11.00
  -6   0   5   27.30   12.30
   6   0  -5   50.19   16.10
   5   0  -5   -0.90    7.40
   5   0  -5   15.40   10.60
  -5   0   5   -5.90    6.90
  -4   0   5 2479.55   96.49
   4   0  -5 2603.44   99.79
  -4   0   5 2546.25  103.89
   4   0  -5 2372.06  102.69
   3   0  -5   -3.10    4.80
   3   0  -5   -8.10    4.20
   3   0  -5    4.70    5.50
   2   0  -5 3083.99  116.99
   2   0  -5 3056.19  115.69
   2   0  -5 3162.88  116.99
   2   0  -5 3100.89  116.19
   1   0  -5   -4.90    3.80
   1   0  -5    1.60    4.30
   1   0  -5    0.70    4.70
   1   0  -5    4.00    5.40
   0   0   5    2.70    2.80
   0   0   5    1.40    4.30
   0   0  -5   -0.40    3.40
   0   0  -5    0.20    4.40
  -1   0  -5    2.80    4.40
   1   0   5    3.90    2.80
   1   0   5    7.00    5.30
  -1   0  -5    2.50    4.40
  -2   0  -5 2985.30  110.79
   2   0   5 2966.60  106.09
  -2   0  -5 2929.31  111.79
   2   0   5 2977.90  114.59
  -3   0  -5   -3.70    5.50
  -3   0  -5    0.00    5.10
   3   0   5   -4.10    3.30
   3   0   5   -5.40    4.70
   4   0   5 2626.24  105.09
  -4   0  -5 2489.45   99.09
  -4   0  -5 2481.65  103.59
   4   0   5 2473.15   96.79
  -5   0  -5    2.70    6.60
  -5   0  -5   -5.10    8.00
   5   0   5    3.50    7.70
   5   0   5    0.60    5.60
   6   0   5   32.70   11.20
   6   0   5   34.00   13.90
  -6   0  -5   38.50   14.90
  -7   0  -5   -0.10   13.30
   7   0   5   -1.40   10.30
   7   0   5   -3.40    9.40
   7  -1  -5  181.58   27.20
  -7  -1   5  131.39   25.80
  -7   1   5  184.88   26.10
   7   1  -5  157.38   28.80
   6  -1  -5   39.40   15.10
   6  -1  -5   49.30   15.00
  -6  -1   5   71.79   18.40
   6   1  -5   45.60   15.60
  -6   1   5   16.80   11.40
   5  -1  -5  520.75   35.20
   5  -1  -5  530.85   37.20
  -5  -1   5  492.85   36.50
  -5  -1   5  467.65   30.10
   5   1  -5  499.25   35.60
  -5   1   5  525.75   35.80
   4  -1  -5  176.98   19.40
  -4  -1   5  181.08   16.90
   4  -1  -5  181.08   18.50
   4   1  -5  172.88   18.30
   4   1  -5  170.98   16.00
  -4   1   5  155.88   13.20
   4   1  -5  172.18   19.40
  -4   1   5  184.98   18.30
  -3  -1   5   68.49   10.40
   3  -1  -5   63.79    8.90
   3  -1  -5   51.19   11.20
   3  -1  -5   46.00   10.80
  -3   1   5   55.69   10.60
   3   1  -5   68.89   13.00
   3   1  -5   62.19   11.10
   3   1  -5   75.09   10.10
   2  -1  -5  578.64   30.90
   2  -1  -5  549.05   28.10
   2  -1  -5  541.65   28.30
   2  -1  -5  543.35   31.10
   2   1  -5  569.74   30.80
   2   1  -5  568.94   28.20
   2   1  -5  563.54   28.80
   2   1  -5  578.24   32.10
  -1  -1   5 1046.10   45.60
   1  -1  -5 1113.19   47.20
   1  -1  -5 1072.19   49.80
   1  -1  -5 1147.59   44.40
   1   1  -5 1076.79   47.80
   1   1  -5 1099.29   44.00
   1   1  -5 1067.79   49.00
  -1   1   5 1145.19   47.20
   0  -1  -5   -1.40    4.50
   0  -1   5   -2.60    3.50
   0  -1  -5    2.50    3.00
   0  -1  -5    1.90    4.70
   0   1  -5    3.20    4.60
   0   1  -5   -0.70    4.60
   0   1   5    1.10    3.60
  -1  -1  -5 1006.80   46.90
   1  -1   5 1035.70   47.60
  -1  -1  -5 1078.69   41.80
  -1   1  -5 1036.70   46.90
  -1   1  -5 1077.79   46.80
   1   1   5 1085.59   43.80
   1   1   5 1020.50   47.30
  -2  -1  -5  561.94   27.30
  -2  -1  -5  575.54   31.10
   2  -1   5  538.65   32.40
   2  -1   5  549.35   22.70
  -2   1  -5  575.24   31.10
   2   1   5  561.94   31.40
   2   1   5  555.54   27.60
  -2   1  -5  526.85   29.20
   3  -1   5   54.19   11.90
   3  -1   5   63.39    8.00
  -3  -1  -5   72.69   12.30
  -3  -1  -5   62.69   10.90
  -3   1  -5   67.89   12.90
   3   1   5   32.80    9.70
  -3   1  -5   60.49   10.20
   3   1   5   49.10    9.20
   4  -1   5  180.68   15.10
   4  -1   5  172.48   20.10
  -4  -1  -5  179.88   18.10
  -4  -1  -5  164.18   17.60
  -4   1  -5  161.28   15.30
   4   1   5  185.98   16.60
  -4   1  -5  192.58   20.80
   4   1   5  217.68   19.80
   5  -1   5  500.45   30.00
   5  -1   5  534.75   38.00
  -5  -1  -5  494.35   34.10
  -5  -1  -5  540.45   32.70
  -5   1  -5  520.45   38.10
   5   1   5  458.25   31.20
   5   1   5  506.45   34.80
  -6  -1  -5   23.70   12.70
   6  -1   5   41.40   12.40
   6  -1   5   21.80   12.60
   6   1   5   39.60   12.50
  -6   1  -5   34.60   15.40
   6   1   5   40.40   14.10
  -7  -1  -5  160.38   24.40
   7  -1   5  165.38   25.60
   7   1   5  117.39   21.10
  -7   1  -5  137.59   27.20
   7  -2  -5  780.12   52.69
  -7  -2   5  633.54   50.79
   7  -2  -5  690.73   51.99
   7   2  -5  718.53   53.19
  -7   2   5  686.63   49.99
   6  -2  -5   21.20   12.80
   6  -2  -5   19.40   12.90
  -6  -2   5   20.70   12.30
  -6   2   5   13.50   11.60
   6   2  -5    0.80   11.10
   5  -2  -5  752.72   46.20
  -5  -2   5  747.43   41.60
   5  -2  -5  643.24   44.30
   5   2  -5  701.63   44.40
  -5   2   5  714.33   42.50
   5   2  -5  597.54   44.00
  -4  -2   5  169.48   18.40
   4  -2  -5  164.38   19.90
   4  -2  -5  157.18   19.50
   4   2  -5  125.59   18.10
  -4   2   5  170.78   18.00
   4   2  -5  144.59   17.80
   3  -2  -5   28.40    6.90
  -3  -2   5   32.20    9.50
   3  -2  -5   42.20   11.00
   3  -2  -5   42.60   11.20
  -3   2   5   36.90    8.80
   3   2  -5   43.40   11.60
   3   2  -5   44.40    9.80
   2  -2  -5  174.68   13.90
  -2  -2   5  153.28   15.70
   2  -2  -5  124.49   14.80
   2  -2  -5  190.48   17.70
  -2  -2   5  161.28   11.70
   2   2  -5  173.48   14.10
  -2   2   5  163.18   12.70
   2   2  -5  170.08   17.00
  -1  -2   5 3069.09  112.09
   1  -2  -5 3154.68  119.49
   1  -2  -5 3194.18  114.89
  -1   2   5 3120.59  116.59
   1   2  -5 2993.90  118.09
   1   2  -5 2978.80  117.79
  -1   2   5 3034.20  108.19
   1   2  -5 3055.79  110.19
   0  -2  -5    6.20    5.20
   0  -2  -5    5.70    5.80
   0  -2   5   -1.70    4.60
   0   2  -5    4.40    5.40
   0   2  -5    0.20    4.50
   0   2   5    6.30    4.80
  -1  -2  -5 3046.10  119.29
   1  -2   5 3127.39  118.69
  -1  -2  -5 3175.68  119.19
  -1   2  -5 3118.59  119.49
   1   2   5 3092.79  116.39
  -1   2  -5 3092.39  117.89
   2  -2   5  202.38   19.10
  -2  -2  -5  189.38   13.20
  -2  -2  -5  195.58   18.00
   2   2   5  181.58   16.10
  -2   2  -5  191.18   16.10
  -2   2  -5  173.48   17.70
   2   2   5  192.28   17.00
   3  -2   5   49.00   12.20
  -3  -2  -5   28.50    9.50
  -3  -2  -5   45.10    8.90
   3  -2   5   37.20    6.50
   3   2   5   44.00   10.60
   3   2   5   33.50    9.00
  -3   2  -5   48.40    9.30
  -3   2  -5   38.80   11.50
  -4  -2  -5  187.38   17.60
  -4  -2  -5  140.19   17.10
   4  -2   5  171.98   14.60
   4  -2   5  150.88   20.30
  -4   2  -5  154.68   14.70
   4   2   5  165.88   17.60
  -4   2  -5  157.88   19.60
   4   2   5  180.88   17.30
  -5  -2  -5  759.92   42.80
   5  -2   5  725.53   47.70
  -5  -2  -5  701.93   41.90
   5  -2   5  719.33   38.00
   5   2   5  738.03   42.30
   5   2   5  728.63   41.60
  -5   2  -5  671.83   46.60
  -6  -2  -5   12.90   10.80
  -6  -2  -5   14.40   10.10
   6  -2   5    8.20   12.60
   6   2   5    6.90    8.80
  -6   2  -5   -5.70   11.10
   7  -2   5  551.44   46.50
  -7  -2  -5  665.93   46.70
   7   2   5  703.73   46.00
  -7   2  -5  495.35   47.30
   7  -3  -5   17.10   16.50
   7  -3  -5    1.10   12.50
  -7  -3   5    3.80   14.30
  -7   3   5    1.00   10.60
   7   3  -5    1.20   14.70
  -6  -3   5   71.29   21.10
   6  -3  -5   44.20   17.00
  -6  -3   5   69.19   20.20
   6  -3  -5   28.10   14.80
   6   3  -5   74.19   18.40
  -6   3   5   30.40   13.80
   5  -3  -5   60.99   16.70
   5  -3  -5   43.20   15.80
  -5  -3   5   49.60   13.20
   5   3  -5   54.89   15.60
   5   3  -5   84.79   17.00
  -5   3   5   59.69   14.60
   4  -3  -5  452.45   34.80
  -4  -3   5  473.75   33.80
   4  -3  -5  441.26   34.90
   4   3  -5  475.95   32.40
  -4   3   5  482.45   30.80
   4   3  -5  410.06   33.20
   3  -3  -5   31.00   10.50
   3  -3  -5   38.50    8.10
  -3  -3   5    2.00    7.00
   3  -3  -5   15.60    9.10
   3   3  -5   31.50    9.30
   3   3  -5   20.20    9.70
  -3   3   5   26.20    8.20
   2  -3  -5  894.81   41.60
  -2  -3   5  954.10   48.40
  -2  -3   5  948.41   37.90
   2  -3  -5  867.91   48.60
   2   3  -5  950.80   42.80
  -2   3   5  934.51   40.10
  -2   3   5  942.11   48.10
   2   3  -5  867.81   48.00
  -1  -3   5   23.40    6.20
   1  -3  -5   15.10    7.40
   1  -3  -5   12.40    6.40
  -1  -3   5   14.10    7.50
   1   3  -5   14.30    5.20
  -1   3   5    9.10    6.60
   1   3  -5   26.30    8.70
   0  -3   5    2.60    5.90
   0  -3  -5   -6.00    4.90
   0  -3   5    5.40    5.30
   0  -3  -5   -1.30    4.90
   0   3  -5    0.20    5.60
   0   3   5    9.40    5.90
   0   3  -5    1.40    3.10
  -1  -3  -5    6.80    7.00
   1  -3   5   20.50    8.40
  -1  -3  -5   12.40    7.00
   1   3   5   12.90    6.30
  -1   3  -5   26.40    9.30
  -1   3  -5   11.00    6.90
  -2  -3  -5  899.71   37.60
  -2  -3  -5  944.01   48.60
   2  -3   5  946.31   49.20
   2   3   5  984.70   46.50
   2   3   5  938.31   46.80
  -2   3  -5  926.21   44.60
  -2   3  -5  885.11   48.40
  -3  -3  -5   31.50    7.70
  -3  -3  -5   10.00    7.70
   3  -3   5   29.80   11.00
   3   3   5   20.30    8.20
   3   3   5   28.70    8.90
  -3   3  -5   27.00    6.70
  -3   3  -5   28.80    8.00
  -3   3  -5   22.70   10.00
  -4  -3  -5  447.36   28.20
  -4  -3  -5  461.45   33.00
   4  -3   5  423.06   35.40
  -4   3  -5  444.86   26.30
   4   3   5  464.95   31.70
   4   3   5  474.25   30.10
  -4   3  -5  384.56   33.10
   5  -3   5   24.90   14.10
  -5  -3  -5   48.20   14.50
  -5  -3  -5   78.39   15.10
  -5   3  -5   80.99   19.60
   5   3   5   75.29   14.50
   5   3   5   52.99   12.90
  -6  -3  -5   39.60   13.80
  -6  -3  -5   21.10   12.40
   6  -3   5   59.09   18.20
   6   3   5   43.80   14.00
  -6   3  -5   23.80   15.80
  -7  -3  -5   15.10   13.90
   7  -3   5   14.00   16.50
   7   3   5    1.40   11.10
  -7   3  -5    3.50   17.60
   7  -4  -5  148.89   28.70
  -7  -4   5  164.88   31.10
   7  -4  -5  167.38   32.30
  -7   4   5  181.68   27.00
   7   4  -5  106.49   26.20
   6  -4  -5   38.20   15.30
  -6  -4   5   17.50   14.70
   6  -4  -5   29.60   16.50
  -6  -4   5   18.70   14.40
   6   4  -5   15.50   12.70
  -6   4   5   11.50   12.90
  -5  -4   5  113.59   20.90
   5  -4  -5  135.69   24.40
   5  -4  -5  120.39   24.80
   5   4  -5  121.59   22.10
   5   4  -5  146.39   21.30
  -5   4   5  117.09   18.00
   4  -4  -5  758.02   50.39
  -4  -4   5  762.42   46.80
  -4   4   5  720.73   41.10
   4   4  -5  814.72   44.70
   4   4  -5  707.63   47.40
  -4   4   5  692.43   47.20
  -3  -4   5   13.90    9.10
   3  -4  -5    4.30    9.40
  -3   4   5    8.80    7.10
   3   4  -5    7.20    9.10
   3   4  -5    7.50    8.20
  -3   4   5    8.40    9.20
  -2  -4   5  695.43   41.80
   2  -4  -5  705.73   43.70
   2  -4  -5  724.13   36.10
   2   4  -5  737.03   43.50
   2   4  -5  705.23   36.70
  -2   4   5  698.83   43.40
  -2   4   5  757.22   34.30
  -1  -4   5  451.55   32.10
   1  -4  -5  525.15   30.50
   1  -4  -5  504.65   33.40
  -1  -4   5  509.25   27.00
   1   4  -5  500.75   26.10
   1   4  -5  510.85   34.20
  -1   4   5  455.35   32.10
   0  -4  -5   -0.20    5.50
   0  -4  -5   -5.60    6.00
   0  -4   5    1.90    6.10
   0  -4   5    9.80    7.70
   0   4  -5   -3.60    3.90
   0   4  -5   -2.90    5.90
   0   4   5    6.10    6.60
  -1  -4  -5  482.75   30.80
   1  -4   5  460.25   30.60
  -1  -4  -5  453.65   31.30
   1  -4   5  514.15   30.90
  -1   4  -5  476.15   22.70
  -1   4  -5  494.35   33.30
   1   4   5  480.75   32.00
  -2  -4  -5  749.53   40.00
   2  -4   5  769.52   44.20
  -2  -4  -5  696.83   42.50
   2  -4   5  782.52   39.50
  -2   4  -5  719.73   32.70
  -2   4  -5  691.83   43.10
   2   4   5  768.92   43.40
   3  -4   5   16.00   10.10
   3  -4   5   14.10    8.10
  -3  -4  -5   12.70    8.80
   3   4   5    6.60    8.00
   3   4   5   23.50    9.50
  -3   4  -5   14.10   10.20
  -4  -4  -5  740.83   45.90
   4  -4   5  705.03   48.70
   4   4   5  777.62   41.40
  -4   4  -5  693.53   48.00
   4   4   5  744.53   45.00
  -5  -4  -5   79.49   17.60
   5  -4   5  124.49   23.70
  -5   4  -5   94.39   20.70
   5   4   5  125.29   19.00
   6  -4   5   22.40   17.40
  -6  -4  -5    9.40   11.30
   6   4   5   22.10   12.80
  -6   4  -5   40.90   17.20
   7  -4   5  115.09   28.90
  -7  -4  -5  156.98   30.10
   7   4   5   99.39   21.00
  -7   4  -5   91.59   24.70
  -6  -5   5   25.30   16.60
   6  -5  -5   42.60   19.90
  -6   5   5   16.50   17.20
   6   5  -5    6.10   13.30
  -6   5   5   16.00   14.20
   6   5  -5   31.90   16.20
  -5  -5   5  214.68   27.00
   5  -5  -5  153.18   28.20
   5   5  -5  232.18   28.10
  -5   5   5  212.68   28.20
  -5   5   5  161.98   22.50
   5   5  -5  174.48   23.00
   4  -5  -5   35.20   16.90
  -4  -5   5   72.89   17.10
   4   5  -5   51.49   14.40
  -4   5   5   57.69   17.80
   4   5  -5   43.70   15.10
   3  -5  -5   10.50   11.80
  -3  -5   5   27.80   13.30
   3   5  -5   21.80   11.10
   3   5  -5   36.90   10.80
  -3   5   5   48.70   16.00
  -2  -5   5    8.90    8.90
   2  -5  -5   10.30   10.70
   2  -5  -5    2.30    7.20
   2   5  -5    8.90    6.80
   2   5  -5    6.60    9.50
  -2   5   5    9.70    9.90
  -1  -5   5  368.56   29.60
   1  -5  -5  380.16   27.70
   1  -5  -5  336.87   29.20
  -1  -5   5  366.56   23.20
   1   5  -5  372.46   23.70
  -1   5   5  336.17   29.10
   1   5  -5  359.66   30.50
   0  -5  -5    2.20    7.50
   0  -5   5   -3.70    6.30
   0  -5   5   -4.10    6.90
   0  -5  -5    5.30    8.40
   0   5   5    1.60    7.70
   0   5  -5    2.20    5.40
   0   5  -5   -5.80    6.40
  -1  -5  -5  363.76   29.00
   1  -5   5  393.26   29.00
   1  -5   5  382.16   28.40
  -1  -5  -5  395.86   28.20
   1   5   5  336.17   29.20
  -1   5  -5  315.67   28.70
  -1   5  -5  340.07   21.20
   2  -5   5    0.40    7.30
  -2  -5  -5   -8.50    6.90
  -2  -5  -5   -1.60    8.00
   2  -5   5    5.70    9.00
  -2   5  -5   13.70   10.30
   2   5   5    2.20    8.10
  -3  -5  -5   35.50   13.10
   3  -5   5   24.40   12.60
   3  -5   5   40.30   12.10
   3   5   5   15.80   10.00
  -3   5  -5   43.50   14.20
   3   5   5   33.70   10.70
   4  -5   5   60.69   17.60
  -4  -5  -5   64.69   16.30
   4   5   5   92.79   18.30
  -4   5  -5   68.59   19.90
  -5  -5  -5  238.88   28.40
   5  -5   5  207.08   29.70
   5   5   5  208.98   26.40
  -5   5  -5  214.88   30.60
  -6  -5  -5   32.60   15.30
   6  -5   5   19.40   18.60
   6   5   5   23.70   14.40
  -6   5  -5   10.40   17.20
   6  -6  -5   43.30   25.50
  -6  -6   5   22.50   15.60
  -6   6   5   29.50   19.70
   6   6  -5   48.10   20.80
   6   6  -5    7.40   15.60
  -5  -6   5   43.60   18.00
   5  -6  -5   86.09   27.30
  -5   6   5   80.59   23.10
   5   6  -5   30.80   15.80
   5   6  -5   45.90   15.50
   4  -6  -5  313.27   35.80
  -4  -6   5  283.47   32.10
   4   6  -5  271.77   31.10
   4   6  -5  210.08   24.10
  -4   6   5  258.67   33.00
   3  -6  -5    8.60   12.10
  -3  -6   5   33.60   14.40
  -3   6   5   -1.40   12.60
   3   6  -5   10.20    9.10
   3   6  -5   15.00   12.40
   2  -6  -5  271.07   29.30
   2  -6  -5  241.78   22.10
  -2  -6   5  209.48   25.90
  -2   6   5  231.98   27.60
   2   6  -5  267.87   22.30
   2   6  -5  192.18   25.30
   1  -6  -5  171.58   20.60
  -1  -6   5  154.18   22.10
   1  -6  -5  181.38   23.40
  -1   6   5  170.78   23.00
   1   6  -5  174.38   17.80
   1   6  -5  186.48   24.50
   0  -6   5   -2.90    8.80
   0  -6   5    0.50    8.10
   0  -6  -5   -0.60    8.20
   0  -6  -5    2.90   10.00
   0   6  -5   12.80   10.90
   0   6  -5    1.70    7.40
   0   6   5   -5.30    8.20
   1  -6   5  201.08   22.50
  -1  -6  -5  189.58   21.70
   1  -6   5  213.48   23.00
  -1  -6  -5  180.48   23.90
  -1   6  -5  144.19   24.50
   1   6   5  163.78   22.90
   2  -6   5  242.78   24.40
  -2  -6  -5  235.28   22.60
  -2  -6  -5  210.88   26.50
   2  -6   5  243.98   26.80
   2   6   5  236.08   27.60
  -2   6  -5  269.17   28.30
   3  -6   5   16.10   11.60
  -3  -6  -5    4.80   11.60
  -3   6  -5   -3.70   11.50
   3   6   5   10.40   11.30
   4  -6   5  255.67   32.10
  -4  -6  -5  297.47   32.30
   4   6   5  273.47   31.10
  -4   6  -5  332.57   35.10
  -5  -6  -5   57.69   18.90
   5  -6   5   49.99   19.80
  -5   6  -5   48.80   20.60
   5   6   5   89.49   22.30
   6  -6   5   29.30   18.90
  -6  -6  -5   10.60   15.30
  -6   6  -5   12.70   19.40
   6   6   5   -1.30   11.80
  -5  -7   5    8.60   17.10
   5  -7  -5  -11.50   18.00
   5   7  -5   19.90   16.80
   5   7  -5   20.50   13.70
  -5   7   5   13.50   19.30
  -4  -7   5   43.40   18.50
   4  -7  -5   10.70   14.90
   4   7  -5   48.10   18.20
  -4   7   5    5.30   17.30
   4   7  -5    3.50   11.20
   3  -7  -5    9.80   13.40
  -3  -7   5   10.20   13.60
   3   7  -5   15.90   10.60
  -3   7   5   16.30   17.10
   3   7  -5   13.50   13.20
  -2  -7   5   93.79   22.80
   2  -7  -5   74.79   19.10
   2   7  -5   81.29   16.30
  -2   7   5   61.89   18.60
   2   7  -5   58.49   18.60
   1  -7  -5  107.49   19.30
   1  -7  -5  125.29   22.80
  -1  -7   5  102.59   21.30
  -1   7   5   85.59   21.20
   1   7  -5  116.89   19.70
   1   7  -5  139.29   24.60
   0  -7   5    1.50    9.80
   0  -7  -5   -5.10   10.40
   0  -7  -5    0.80   10.60
   0   7  -5  -10.80   11.40
   0   7   5    2.90   11.40
  -1  -7  -5  156.48   25.90
   1  -7   5  141.69   22.00
  -1  -7  -5  135.19   20.90
   1  -7   5  138.89   22.00
   1   7   5  121.39   23.30
  -1   7  -5  111.39   23.20
   2  -7   5   67.29   18.10
  -2  -7  -5   50.79   19.00
   2  -7   5   61.99   18.70
   2   7   5   39.00   15.60
  -2   7  -5   74.59   20.80
  -3  -7  -5   21.90   18.00
   3  -7   5    1.40   13.30
  -3   7  -5    2.30   14.10
   3   7   5    1.00   11.10
   4  -7   5   14.20   15.80
  -4  -7  -5   27.70   16.90
  -4   7  -5   13.60   15.70
   4   7   5   32.50   16.90
  -5  -7  -5   10.80   15.20
   5  -7   5  -10.10   14.10
  -5   7  -5    5.50   17.80
   5   7   5   18.50   17.40
   4  -8  -5   28.50   20.70
  -4  -8   5    0.50   15.30
   4   8  -5    1.70   15.90
  -4   8   5   -1.80   17.70
   4   8  -5   -7.90   12.30
  -3  -8   5    5.50   17.20
   3  -8  -5  -25.10   13.20
   3   8  -5   17.20   15.40
  -3   8   5   27.10   19.20
   3   8  -5   16.00   13.10
  -2  -8   5    9.90   18.70
   2  -8  -5   31.10   16.70
   2   8  -5   40.60   18.60
  -2   8   5   17.20   16.60
   1  -8  -5  114.89   22.00
  -1  -8   5  131.49   26.00
   1  -8  -5  110.29   24.50
  -1   8   5   76.99   22.70
   1   8  -5  128.69   25.70
   0  -8   5    0.00   13.90
   0  -8  -5   13.70   14.20
   0  -8  -5   -4.00   13.40
   0   8  -5   -9.70   13.10
   0   8   5    2.80   14.30
   1  -8   5  154.08   27.00
  -1  -8  -5   87.39   23.30
   1   8   5  121.89   26.40
  -1   8  -5  151.18   29.10
   2  -8   5    5.70   14.80
  -2  -8  -5   30.50   20.50
   2  -8   5   10.90   22.10
  -2   8  -5   33.50   17.70
   2   8   5   -1.40   17.40
   3  -8   5    6.10   14.40
  -3  -8  -5    4.40   18.80
  -3   8  -5   20.80   16.10
   3   8   5  -11.60   12.30
   4  -8   5    9.50   17.00
  -4  -8  -5   13.80   18.00
   4   8   5    5.90   14.90
  -4   8  -5    9.70   20.00
   2  -9  -5   65.69   21.70
  -2  -9   5   57.09   25.80
   2   9  -5   33.50   20.60
  -2   9   5   36.70   24.50
   1  -9  -5  -10.00   16.40
  -1  -9   5    6.10   19.00
  -1   9   5  -12.40   16.60
   1   9  -5   -4.20   15.00
   0  -9  -5    2.10   15.10
   0  -9   5  -16.70   14.20
   0   9   5   16.40   19.50
   0   9  -5   -7.00   13.10
  -1  -9  -5    4.20   17.70
   1  -9   5   19.20   17.70
  -1   9  -5   17.70   19.50
   1   9   5   15.30   19.20
  -2  -9  -5   13.10   20.30
   2   9   5   10.50   20.00
  -2   9  -5   49.50   22.20
   7   0  -6   16.10   15.50
  -7   0   6   -6.20   11.90
  -6   0   6  242.98   27.50
   6   0  -6  217.48   27.00
  -5   0   6   -8.40    7.60
   5   0  -6    7.70    8.40
   5   0  -6    3.30    8.00
  -4   0   6  871.81   42.80
  -4   0   6  909.21   47.90
   4   0  -6  814.92   46.60
   4   0  -6  905.61   45.50
   3   0  -6    2.50    5.70
   3   0  -6   -5.40    4.90
   3   0  -6   -6.40    5.00
   3   0  -6    5.40    6.30
   2   0  -6 2235.98   89.79
   2   0  -6 2186.38   88.89
   2   0  -6 2322.57   89.99
   2   0  -6 2249.18   88.89
   1   0  -6    5.70    4.60
   1   0  -6    4.40    4.50
   1   0  -6   -2.90    3.90
   1   0  -6    3.70    5.60
   0   0  -6 1025.60   49.50
   0   0   6 1078.09   43.40
   0   0   6 1186.18   50.49
   0   0  -6 1085.19   46.20
  -1   0  -6    2.00    4.90
  -1   0  -6    2.80    4.60
   1   0   6    2.90    3.30
   1   0   6   -2.90    4.20
   2   0   6 2126.29   77.39
  -2   0  -6 2084.89   82.89
  -2   0  -6 2147.99   84.89
   2   0   6 2029.50   87.09
   3   0   6    0.10    3.80
   3   0   6   -3.40    5.60
  -3   0  -6    1.70    6.30
  -3   0  -6   -0.30    4.70
   4   0   6  915.71   49.40
  -4   0  -6  970.80   45.70
   4   0   6  788.92   39.60
  -4   0  -6  821.12   46.20
   5   0   6   -9.50    8.20
  -5   0  -6    1.30   10.10
   5   0   6   -0.50    5.60
  -5   0  -6   -4.40    6.30
  -6   0  -6  239.58   28.30
   6   0   6  219.58   22.10
   6   0   6  209.38   26.80
  -7   0  -6   -1.30   14.00
   7   0   6   -7.30   12.30
   7  -1  -6   35.10   18.40
  -7  -1   6   43.50   17.70
   7   1  -6   32.40   17.00
  -7   1   6   74.19   20.80
  -6  -1   6   14.70   12.40
   6  -1  -6   53.29   18.10
   6  -1  -6   16.90   12.40
  -6   1   6   17.70   14.20
   6   1  -6   17.20   13.50
  -5  -1   6  161.68   21.90
   5  -1  -6  192.38   21.70
   5  -1  -6  155.38   21.70
  -5  -1   6  189.18   19.50
   5   1  -6  208.38   23.10
  -5   1   6  219.48   22.90
   4  -1  -6  100.69   15.00
   4  -1  -6   74.09   15.20
  -4  -1   6   70.09   13.00
   4   1  -6   85.99   16.10
   4   1  -6   94.89   15.70
   4   1  -6   91.09   13.10
  -4   1   6   74.39   11.50
  -4   1   6   70.79   13.90
   3  -1  -6  444.06   28.50
  -3  -1   6  410.86   26.60
   3  -1  -6  384.76   24.00
   3  -1  -6  341.47   26.60
  -3   1   6  415.16   26.30
   3   1  -6  431.86   29.60
   3   1  -6  376.96   25.60
   3   1  -6  413.76   24.80
   2  -1  -6  127.29   13.80
   2  -1  -6  161.28   13.80
   2  -1  -6  149.49   15.20
   2  -1  -6  159.08   16.50
   2   1  -6  147.99   13.70
   2   1  -6  140.99   15.40
   2   1  -6  146.99   14.10
   2   1  -6  142.19   15.70
   1  -1  -6  290.77   20.20
   1  -1  -6  311.97   17.70
   1  -1  -6  298.67   22.20
  -1  -1   6  289.67   19.20
  -1   1   6  286.47   19.20
   1   1  -6  275.97   16.80
   1   1  -6  284.17   19.90
   1   1  -6  274.57   21.30
   0  -1  -6   68.59   10.80
   0  -1  -6   74.79   12.00
   0  -1   6   72.49    6.00
   0  -1  -6   70.29    7.60
   0  -1   6   69.69   10.50
   0   1  -6   63.19   11.00
   0   1  -6   51.09    9.60
   0   1   6   64.29    9.00
   1  -1   6  282.47   21.20
  -1  -1  -6  293.87   16.50
  -1  -1  -6  289.27   21.40
  -1   1  -6  264.87   20.00
  -1   1  -6  252.87   20.20
   1   1   6  282.77   17.30
   1   1   6  289.17   21.60
  -2  -1  -6  130.49   11.80
   2  -1   6  113.99   14.50
  -2  -1  -6  139.39   15.00
  -2   1  -6  118.09   13.80
  -2   1  -6  141.59   15.50
   2   1   6  148.59   15.70
   2   1   6  120.19   11.70
  -3  -1  -6  401.46   27.60
  -3  -1  -6  400.26   25.30
   3  -1   6  385.86   20.30
   3  -1   6  376.86   29.20
   3   1   6  440.06   28.90
   3   1   6  451.25   24.80
  -3   1  -6  436.56   26.60
  -3   1  -6  402.36   28.00
   4  -1   6   84.39   10.70
   4  -1   6   56.09   14.30
  -4  -1  -6   89.99   15.50
  -4  -1  -6  110.19   15.40
   4   1   6   63.19   11.10
   4   1   6  121.69   17.00
  -4   1  -6   87.19   16.10
  -4   1  -6   78.09   13.00
  -5  -1  -6  192.08   22.00
   5  -1   6  210.08   25.20
  -5  -1  -6  199.58   20.80
   5  -1   6  191.48   17.80
   5   1   6  167.98   17.90
   5   1   6  174.38   21.60
  -5   1  -6  170.18   23.90
  -5   1  -6  197.58   19.00
  -6  -1  -6   23.20   13.80
   6  -1   6   18.80   13.10
   6   1   6   18.40   10.50
  -6   1  -6   36.50   15.20
   6   1   6   22.30   11.40
   7  -1   6   31.60   16.70
  -7  -1  -6   22.70   15.30
  -7   1  -6   47.80   20.00
   7   1   6   44.50   15.00
   7  -2  -6  168.38   30.10
  -7  -2   6  124.79   25.80
   7   2  -6  162.08   28.30
  -7   2   6  158.08   27.10
   6  -2  -6   62.39   18.10
  -6  -2   6   99.09   21.70
   6  -2  -6  118.69   22.50
  -6   2   6  104.09   20.70
   6   2  -6   98.29   20.90
  -5  -2   6  669.83   42.20
   5  -2  -6  666.73   45.50
   5  -2  -6  732.33   46.70
   5   2  -6  699.13   44.40
   5   2  -6  663.93   46.30
  -5   2   6  694.13   42.40
   4  -2  -6   36.10   11.50
   4  -2  -6   14.60    9.30
  -4  -2   6   45.00   12.00
   4   2  -6   35.00   13.20
  -4   2   6    4.60    6.90
   4   2  -6    8.80    9.30
  -3  -2   6  414.96   29.40
   3  -2  -6  419.56   30.40
   3  -2  -6  437.36   30.90
  -3  -2   6  436.46   23.30
   3  -2  -6  444.86   25.20
  -3   2   6  422.26   25.70
   3   2  -6  442.16   31.60
   3   2  -6  471.65   28.90
  -2  -2   6   68.79    9.10
   2  -2  -6   71.09   10.80
   2  -2  -6   62.49   13.20
  -2  -2   6   80.49   12.60
  -2   2   6   66.39    9.10
  -2   2   6   93.49   13.00
   2   2  -6   77.69   13.90
   2   2  -6   74.59   10.50
  -1  -2   6 1907.71   71.79
   1  -2  -6 1719.23   77.29
   1  -2  -6 1806.72   73.69
   1   2  -6 1834.92   68.19
   1   2  -6 1789.42   77.39
   1   2  -6 1756.32   76.39
  -1   2   6 1738.63   65.99
  -1   2   6 1845.82   74.99
   0  -2   6  519.05   27.90
   0  -2  -6  468.65   30.50
   0  -2  -6  433.86   27.80
   0   2  -6  489.55   29.50
   0   2   6  450.25   26.90
   0   2  -6  511.95   30.20
   1  -2   6 1904.71   78.79
  -1  -2  -6 1883.71   79.49
  -1  -2  -6 1859.81   79.29
  -1   2  -6 1814.92   78.89
   1   2   6 1879.71   75.89
  -1   2  -6 1919.91   78.89
  -2  -2  -6   68.79    8.50
  -2  -2  -6   74.59   13.50
   2  -2   6   85.29   13.50
   2   2   6   77.29   13.40
   2   2   6   89.69   11.90
  -2   2  -6   88.89   12.20
  -2   2  -6   92.79   15.20
   3  -2   6  426.36   31.40
  -3  -2  -6  463.65   25.70
  -3  -2  -6  411.36   28.90
  -3   2  -6  353.66   29.00
  -3   2  -6  427.96   26.30
   3   2   6  364.86   27.20
   3   2   6  431.66   27.00
   4  -2   6    7.90    9.50
  -4  -2  -6    4.00    7.80
  -4  -2  -6   26.90   10.30
   4   2   6   40.50   10.50
   4   2   6   31.00    9.40
  -4   2  -6   22.50   11.30
  -4   2  -6   35.10    9.70
   5  -2   6  658.03   46.90
  -5  -2  -6  659.73   40.10
  -5  -2  -6  718.43   42.40
   5   2   6  646.84   40.90
   5   2   6  661.83   40.00
  -5   2  -6  684.43   46.50
   6  -2   6   98.39   21.70
  -6  -2  -6   78.49   16.40
  -6  -2  -6  108.19   19.70
  -6   2  -6   63.39   20.00
   6   2   6  141.19   19.90
   6   2   6  139.99   22.00
  -7  -2  -6  171.08   27.40
   7  -2   6  186.88   29.20
  -7   2  -6  111.29   26.40
   7   2   6  160.48   23.70
  -7  -3   6   66.89   22.30
   7  -3  -6   86.69   22.50
   7  -3  -6   27.90   18.20
   7   3  -6   60.09   21.10
  -7   3   6   84.29   20.30
   6  -3  -6  227.08   30.20
  -6  -3   6  228.28   28.20
   6  -3  -6  251.47   31.10
  -6   3   6  198.48   25.20
   6   3  -6  247.28   29.80
  -5  -3   6   13.20    9.20
   5  -3  -6    8.50   11.20
   5  -3  -6   -0.20   10.00
   5   3  -6   -0.20   10.60
  -5   3   6   16.50   11.40
   5   3  -6   -0.80    9.50
   4  -3  -6   69.79   17.30
  -4  -3   6   67.79   15.40
   4  -3  -6  109.39   20.30
   4   3  -6   94.59   19.00
  -4   3   6   91.09   15.50
   4   3  -6   92.59   16.20
   3  -3  -6   62.89   11.10
   3  -3  -6   62.19   14.40
  -3  -3   6   63.89   14.30
  -3   3   6   74.29   12.40
  -3   3   6   72.89   14.70
   3   3  -6   43.80   12.90
   3   3  -6   52.69   11.40
  -2  -3   6  377.66   20.70
  -2  -3   6  375.46   28.10
   2  -3  -6  385.16   23.70
   2  -3  -6  341.87   27.70
   2   3  -6  379.36   23.30
  -2   3   6  419.86   29.10
  -2   3   6  359.16   20.70
   2   3  -6  322.47   27.20
   1  -3  -6   48.30   10.30
  -1  -3   6   36.00   10.80
   1  -3  -6   30.80   10.30
  -1  -3   6   53.59    9.50
  -1   3   6   28.40    9.30
   1   3  -6   41.60    7.30
   1   3  -6   26.70    9.40
   0  -3  -6  669.53   39.10
   0  -3   6  731.63   36.40
   0  -3  -6  733.33   38.60
   0   3   6  723.03   38.70
   0   3  -6  665.33   38.90
   0   3  -6  647.74   38.90
  -1  -3  -6   32.60   10.20
   1  -3   6   38.00   10.10
  -1  -3  -6   38.20   10.10
   1   3   6   40.30   10.40
  -1   3  -6   37.90   10.60
  -1   3  -6   27.40    9.30
  -2  -3  -6  411.26   29.10
   2  -3   6  399.66   29.70
   2   3   6  375.76   27.00
  -2   3  -6  370.76   25.50
  -2   3  -6  317.17   27.60
   2   3   6  380.66   26.70
  -3  -3  -6   57.19   10.10
   3  -3   6   35.60   12.40
  -3  -3  -6   48.90   12.90
   3   3   6   52.49   12.20
   3   3   6   61.49   12.40
  -3   3  -6   56.39   12.10
  -3   3  -6   48.20   14.80
  -4  -3  -6   98.19   17.50
  -4  -3  -6   96.49   14.40
   4  -3   6  106.59   20.60
  -4   3  -6   63.09   17.30
  -4   3  -6   73.59   13.50
   4   3   6   98.49   15.20
   4   3   6   80.49   15.10
  -5  -3  -6    8.00    9.50
   5  -3   6   26.20   14.50
  -5  -3  -6   -3.30    8.10
   5   3   6   14.70   10.40
  -5   3  -6   -2.10   11.50
   5   3   6   13.60    9.70
   6  -3   6  189.38   29.20
  -6  -3  -6  201.88   24.50
  -6  -3  -6  182.68   23.20
   6   3   6  208.08   24.00
  -6   3  -6  267.67   34.00
   7  -3   6   33.70   19.60
  -7   3  -6   17.90   20.00
   7   3   6   62.99   17.00
   6  -4  -6   16.80   16.40
   6  -4  -6   10.20   14.00
  -6  -4   6    4.40   12.90
   6   4  -6   30.50   15.10
   6   4  -6   29.60   16.70
  -6   4   6   25.10   13.40
   5  -4  -6   80.69   21.60
  -5  -4   6   71.59   18.30
   5   4  -6  106.29   20.30
  -5   4   6  125.39   18.20
  -5   4   6   73.59   19.70
   5   4  -6  126.39   23.70
  -4  -4   6  427.06   35.40
   4  -4  -6  491.55   39.70
   4   4  -6  503.55   34.10
   4   4  -6  387.06   35.00
  -4   4   6  413.16   29.40
  -4   4   6  400.26   35.10
   3  -4  -6  632.64   44.30
  -3  -4   6  668.13   42.80
  -3   4   6  556.34   41.10
   3   4  -6  654.03   43.40
  -3   4   6  658.03   34.60
   3   4  -6  724.93   38.80
   2  -4  -6  792.02   48.90
  -2  -4   6  823.42   47.50
   2  -4  -6  887.11   42.20
   2   4  -6  872.31   41.00
   2   4  -6  720.33   46.50
  -2   4   6  778.82   47.30
   1  -4  -6  118.79   17.40
   1  -4  -6  130.39   15.70
  -1  -4   6  107.09   16.50
  -1  -4   6  117.09   13.30
   1   4  -6  151.88   13.30
  -1   4   6  110.89   16.50
   1   4  -6  120.99   17.80
   0  -4   6  111.49   15.50
   0  -4  -6   94.39   16.00
   0  -4  -6   91.69   16.20
   0  -4   6   89.69   13.40
   0   4  -6   71.99   15.10
   0   4  -6   88.89    9.00
   0   4   6   66.29   13.60
   1  -4   6  130.09   16.60
   1  -4   6  152.98   17.30
  -1  -4  -6  116.59   16.30
  -1  -4  -6   96.69   16.90
   1   4   6  105.49   15.90
  -1   4  -6  135.09   17.80
   2  -4   6  903.91   45.90
  -2  -4  -6  831.62   48.90
   2  -4   6  846.12   49.80
  -2   4  -6  855.21   50.39
   2   4   6  923.71   48.50
   2   4   6  855.91   48.50
  -3  -4  -6  643.84   42.50
   3  -4   6  754.32   39.20
   3  -4   6  704.53   46.00
   3   4   6  603.64   40.90
   3   4   6  692.93   40.00
  -3   4  -6  626.14   44.30
  -4  -4  -6  384.46   32.40
   4  -4   6  406.06   36.00
   4   4   6  456.55   31.30
  -4   4  -6  396.26   37.00
   4   4   6  363.56   30.90
  -5  -4  -6  130.59   22.50
   5  -4   6   60.79   20.00
   5   4   6  136.99   20.00
  -5   4  -6   82.29   22.40
  -6  -4  -6   15.50   11.40
   6  -4   6   17.50   18.10
   6   4   6   11.70   10.70
  -6   4  -6   41.50   20.10
   6  -5  -6   95.29   27.30
  -6  -5   6   92.89   23.40
   6   5  -6   99.19   25.00
   6   5  -6  101.39   21.90
  -6   5   6  103.29   25.50
   5  -5  -6  127.59   27.10
  -5  -5   6  100.69   22.00
   5   5  -6   88.29   21.50
  -5   5   6  117.89   24.80
   5   5  -6  128.49   22.60
  -4  -5   6   75.39   18.20
   4  -5  -6  109.99   24.30
   4   5  -6   79.69   16.20
  -4   5   6   67.89   18.80
   4   5  -6   79.29   19.00
  -3  -5   6  244.78   26.50
   3  -5  -6  201.58   26.80
   3   5  -6  222.88   21.10
  -3   5   6  246.98   27.30
   3   5  -6  175.58   24.30
   2  -5  -6   49.50   12.20
  -2  -5   6   24.40   12.20
   2  -5  -6   57.79   15.40
  -2   5   6   34.90   13.00
   2   5  -6   34.80   10.50
   2   5  -6   44.80   13.90
   1  -5  -6  156.18   18.50
   1  -5  -6  168.08   22.20
  -1  -5   6  136.09   20.00
  -1  -5   6  173.88   19.30
  -1   5   6  166.18   20.80
   1   5  -6  179.88   15.60
   1   5  -6  192.28   23.20
   0  -5   6  477.55   30.70
   0  -5  -6  451.95   32.50
   0  -5   6  432.16   33.30
   0  -5  -6  428.56   32.70
   0   5  -6  428.36   34.50
   0   5   6  399.06   32.80
  -1  -5  -6  155.78   20.90
   1  -5   6  197.18   21.60
   1  -5   6  218.48   22.30
  -1  -5  -6  197.88   22.10
   1   5   6  179.28   22.00
  -1   5  -6  143.79   21.70
   2  -5   6   33.90   12.20
  -2  -5  -6   50.19   13.70
   2  -5   6   47.50   14.60
  -2  -5  -6   41.10   13.70
   2   5   6   38.20   13.20
  -2   5  -6   38.80   14.20
  -3  -5  -6  242.68   26.20
   3  -5   6  223.88   27.60
   3  -5   6  223.88   22.30
   3   5   6  272.57   25.00
  -3   5  -6  231.78   27.70
   3   5   6  224.88   26.00
   4  -5   6   99.59   21.60
  -4  -5  -6   75.59   17.80
  -4   5  -6   45.10   17.50
   4   5   6   61.49   16.20
  -5  -5  -6  101.99   22.60
   5  -5   6  144.69   27.80
   5   5   6  148.39   24.60
  -5   5  -6  147.19   28.70
   6  -5   6   91.29   27.10
  -6  -5  -6   99.09   21.80
   6   5   6  124.29   23.10
  -6   5  -6  135.09   29.70
  -5  -6   6  167.98   29.70
   5  -6  -6  144.69   32.10
  -5   6   6   75.29   23.70
   5   6  -6  145.99   27.80
   5   6  -6  135.19   22.30
  -4  -6   6   29.00   14.20
   4  -6  -6   62.09   22.30
   4   6  -6   43.60   14.00
   4   6  -6   67.29   20.70
  -4   6   6   71.59   22.20
  -3  -6   6    1.70   10.20
   3  -6  -6   25.40   14.50
   3   6  -6   12.60   10.50
   3   6  -6    7.80   11.90
  -3   6   6  -19.00    9.30
   2  -6  -6  104.49   16.20
   2  -6  -6  115.99   22.50
  -2  -6   6   75.79   19.30
   2   6  -6  126.49   23.00
  -2   6   6   90.39   20.30
   2   6  -6  142.79   17.10
  -1  -6   6  416.86   35.60
   1  -6  -6  395.06   35.20
   1  -6  -6  436.26   32.20
  -1   6   6  390.06   35.20
   1   6  -6  413.36   36.50
   0  -6   6  775.72   48.30
   0  -6   6  788.02   44.50
   0  -6  -6  769.12   48.70
   0  -6  -6  797.12   48.00
   0   6  -6  695.23   49.60
   0   6   6  738.63   49.90
   1  -6   6  433.86   33.60
  -1  -6  -6  402.06   34.50
   1  -6   6  480.45   34.30
  -1  -6  -6  390.86   32.60
  -1   6  -6  412.16   35.80
   1   6   6  390.26   35.30
  -2  -6  -6  127.79   20.90
   2  -6   6  104.39   19.20
  -2  -6  -6  146.69   24.00
   2  -6   6  113.99   20.80
   2   6   6  136.99   23.70
  -2   6  -6   79.49   18.50
   3  -6   6   26.80   15.10
  -3  -6  -6   16.20   12.30
   3   6   6   -5.70    9.60
  -3   6  -6   10.90   10.80
  -4  -6  -6   41.40   16.20
   4  -6   6   50.49   18.90
   4   6   6   38.60   15.10
  -4   6  -6   17.30   15.60
  -5  -6  -6  191.98   29.50
   5  -6   6  127.39   28.80
  -5   6  -6  108.79   25.30
   5   6   6  154.48   27.00
  -4  -7   6   31.50   16.60
   4  -7  -6   22.20   18.10
   4   7  -6   27.60   17.00
  -4   7   6   27.30   20.40
   4   7  -6   22.50   13.20
  -3  -7   6  290.27   34.10
   3  -7  -6  312.37   36.00
  -3   7   6  318.87   37.20
   3   7  -6  369.26   37.40
   3   7  -6  337.47   28.90
  -2  -7   6   89.99   22.60
   2  -7  -6   71.59   21.00
   2   7  -6   52.29   18.40
  -2   7   6   86.69   23.50
   1  -7  -6   71.59   19.70
   1  -7  -6   62.79   17.20
  -1  -7   6  107.49   23.40
  -1   7   6   56.79   18.20
   1   7  -6   82.19   20.90
   0  -7  -6   13.10   12.20
   0  -7  -6   14.40   13.10
   0  -7   6   48.10   17.20
   0   7   6   37.80   15.80
   0   7  -6   15.60   14.50
   1  -7   6   56.69   16.90
   1  -7   6   58.49   17.10
  -1  -7  -6   41.00   14.20
  -1  -7  -6   86.89   20.60
   1   7   6   57.19   17.70
  -1   7  -6   69.99   19.80
   2  -7   6   72.49   17.60
   2  -7   6   80.29   19.30
  -2  -7  -6   83.49   22.20
   2   7   6   88.19   22.30
  -2   7  -6   94.79   24.10
  -3  -7  -6  291.47   35.50
   3  -7   6  375.96   38.10
   3   7   6  366.56   37.70
  -3   7  -6  281.67   34.80
  -4  -7  -6   15.30   15.80
   4  -7   6   15.80   17.90
  -4   7  -6   12.80   15.20
   4   7   6   12.10   15.30
   3  -8  -6  275.97   36.90
  -3  -8   6  291.07   36.50
  -3   8   6  262.37   38.80
   3   8  -6  265.37   35.50
  -2  -8   6  104.69   26.50
   2  -8  -6   96.99   23.90
   2   8  -6  138.89   27.70
  -2   8   6  148.89   30.50
  -1  -8   6   40.30   20.60
   1  -8  -6    9.90   15.10
   1  -8  -6   39.70   16.40
  -1   8   6   25.70   19.80
   1   8  -6   12.90   14.80
   0  -8  -6  123.39   25.00
   0  -8   6  107.39   24.70
   0  -8  -6   83.29   20.30
   0   8   6   96.69   24.80
   0   8  -6   89.89   24.40
  -1  -8  -6    8.30   15.20
   1  -8   6   21.40   16.50
  -1  -8  -6   10.60   15.40
  -1   8  -6   82.69   23.20
   1   8   6   39.20   18.20
   2  -8   6  112.19   25.20
  -2  -8  -6  196.08   33.80
   2  -8   6  139.59   27.20
  -2   8  -6  114.09   26.20
   2   8   6  116.09   27.60
  -3  -8  -6  272.17   38.00
   3  -8   6  284.27   35.00
  -3   8  -6  204.48   34.70
   3   8   6  230.28   34.10
  -1  -9   6   84.19   26.70
   1  -9  -6   53.29   22.50
   1   9  -6   23.30   18.90
  -1   9   6   20.90   19.70
   0  -9  -6  281.67   37.40
   0  -9  -6  228.88   33.00
   0  -9   6  280.77   37.00
   0   9   6  337.37   43.40
   0   9  -6  223.18   36.10
  -1  -9  -6   62.29   22.90
   1  -9   6   49.99   21.70
   1   9   6   17.60   20.50
  -1   9  -6   34.30   21.40
  -7   0   7   -5.10   11.80
   7   0  -7   13.60   15.90
  -6   0   7   56.99   17.10
   6   0  -7   42.50   15.70
  -5   0   7   -3.30    8.70
   5   0  -7   -1.60    8.80
   5   0  -7   -7.30    8.10
   4   0  -7  202.58   20.40
   4   0  -7  198.58   21.30
  -4   0   7  163.48   17.20
   4   0  -7  151.58   19.40
   3   0  -7   -0.40    6.00
   3   0  -7    7.40    6.70
   3   0  -7    8.60    7.00
   3   0  -7   -2.80    5.60
   2   0  -7  773.12   41.10
   2   0  -7  793.32   41.70
   2   0  -7  783.82   39.80
   2   0  -7  783.12   39.40
   1   0  -7    8.10    5.20
   1   0  -7    2.20    5.10
   1   0  -7   -1.20    4.70
   1   0  -7   -0.70    5.40
   0   0  -7    7.00    5.30
   0   0   7    0.70    3.50
   0   0   7    4.50    5.60
   0   0  -7   -2.40    5.10
  -1   0  -7    1.20    4.70
  -1   0  -7    6.60    6.30
   1   0   7   -6.70    4.10
   1   0   7   -1.30    2.90
   2   0   7  811.52   33.80
  -2   0  -7  763.92   39.10
  -2   0  -7  793.92   41.60
   2   0   7  778.82   43.00
   3   0   7   -3.10    3.90
   3   0   7    1.40    6.80
  -3   0  -7   -0.60    6.40
  -3   0  -7    2.40    5.50
  -4   0  -7  172.98   18.70
   4   0   7  187.38   15.60
  -4   0  -7  179.28   20.30
   4   0   7  162.08   20.50
  -5   0  -7   -2.80    7.70
  -5   0  -7   10.00   11.50
   5   0   7   -1.30    9.40
   6   0   7   70.79   19.30
  -6   0  -7   88.79   20.80
  -7   0  -7   17.40   15.20
   7   0   7   19.80   14.10
   7  -1  -7  326.67   38.30
  -7  -1   7  475.35   41.90
   7   1  -7  410.56   41.70
  -7   1   7  377.46   37.70
   6  -1  -7   38.20   16.90
   6  -1  -7   28.20   16.30
  -6  -1   7   43.50   17.40
   6   1  -7   48.00   17.60
  -6   1   7   32.50   15.50
  -5  -1   7  135.29   21.90
  -5  -1   7  137.09   20.70
   5  -1  -7  161.08   22.40
   5  -1  -7  159.58   20.80
  -5   1   7  143.59   19.90
   5   1  -7  167.48   22.70
   4  -1  -7  392.06   31.20
   4  -1  -7  371.56   29.60
   4  -1  -7  421.56   26.40
  -4  -1   7  408.46   29.60
   4   1  -7  386.36   29.60
  -4   1   7  368.66   28.20
   4   1  -7  447.46   28.30
   4   1  -7  373.86   30.90
   3  -1  -7   13.20    7.30
  -3  -1   7    4.20    6.20
   3  -1  -7   19.80    9.70
   3  -1  -7   21.40    8.80
   3   1  -7   27.80    8.90
   3   1  -7   22.10   10.30
   3   1  -7   11.30    8.10
  -3   1   7   10.50    6.70
   2  -1  -7  164.18   17.40
   2  -1  -7  215.68   16.60
   2  -1  -7  202.68   18.10
   2  -1  -7  155.08   17.80
   2   1  -7  224.88   19.80
   2   1  -7  206.98   18.80
   2   1  -7  184.28   16.10
   2   1  -7  214.38   17.90
   1  -1  -7 1162.58   56.49
   1  -1  -7 1162.78   49.00
   1  -1  -7 1184.98   54.19
  -1  -1   7 1162.98   52.39
   1   1  -7 1161.08   48.20
   1   1  -7 1147.09   52.79
   1   1  -7 1204.68   56.19
  -1   1   7 1173.48   51.69
   0  -1   7   -1.10    4.90
   0  -1  -7   -2.10    5.60
   0  -1  -7   -2.00    4.50
   0  -1  -7   -3.60    3.60
   0   1  -7   -2.40    5.10
   0   1   7    0.80    3.80
   0   1  -7   -5.80    4.40
  -1  -1  -7 1057.29   53.09
   1  -1   7 1130.29   53.59
  -1  -1  -7 1114.29   45.80
  -1   1  -7 1169.28   53.89
   1   1   7 1041.70   53.29
  -1   1  -7 1088.09   50.99
   1   1   7 1213.28   48.20
  -2  -1  -7  197.38   15.50
  -2  -1  -7  182.18   18.80
   2  -1   7  203.58   19.80
  -2   1  -7  197.58   18.50
   2   1   7  206.58   20.00
  -2   1  -7  203.78   18.80
   2   1   7  187.78   14.90
  -3  -1  -7   32.10   10.10
  -3  -1  -7   14.90    7.90
   3  -1   7    7.70    7.60
   3   1   7   13.30    8.40
  -3   1  -7    4.90    6.30
  -3   1  -7   12.20    9.10
   3   1   7   16.00    6.60
   4  -1   7  335.37   31.00
  -4  -1  -7  419.36   30.40
  -4  -1  -7  444.46   30.00
   4   1   7  408.06   31.00
  -4   1  -7  408.66   28.50
   4   1   7  408.76   26.00
  -4   1  -7  426.36   32.10
  -5  -1  -7  148.79   19.40
   5  -1   7   86.39   18.90
  -5  -1  -7  161.08   20.90
   5   1   7  133.39   20.20
  -5   1  -7  121.99   17.10
  -5   1  -7  136.69   22.50
   5   1   7  142.39   16.90
   6  -1   7   37.90   17.50
  -6  -1  -7   31.90   16.20
  -6  -1  -7   26.70   13.80
   6   1   7   17.40   11.00
  -6   1  -7   19.00   14.50
   6   1   7   30.20   14.40
   7  -1   7  351.76   38.60
  -7  -1  -7  338.67   35.50
  -7   1  -7  330.47   37.80
   7   1   7  356.56   36.60
  -7  -2   7   27.20   16.80
   7  -2  -7   63.29   22.00
  -7   2   7    7.60   14.90
   7   2  -7   49.99   20.10
   6  -2  -7    5.90   12.30
   6  -2  -7    1.90   12.30
  -6  -2   7    4.40   11.00
  -6   2   7   13.40   12.20
   6   2  -7   -4.90   11.40
  -5  -2   7  331.37   28.90
   5  -2  -7  324.47   31.60
   5  -2  -7  322.87   31.50
  -5   2   7  311.57   27.30
   5   2  -7  335.17   32.70
   5   2  -7  323.87   29.90
   4  -2  -7  109.29   19.50
   4  -2  -7   94.59   17.90
  -4  -2   7   62.69   14.40
   4   2  -7  103.09   17.20
   4   2  -7  113.39   20.70
  -4   2   7  130.69   15.90
  -3  -2   7   53.79    9.20
  -3  -2   7   61.69   14.00
   3  -2  -7   38.80    9.80
   3  -2  -7   47.00   13.10
   3  -2  -7   31.70   10.90
   3   2  -7   56.99   12.20
  -3   2   7   37.50    9.20
   3   2  -7   65.59   14.30
  -2  -2   7  160.58   13.90
   2  -2  -7  165.18   19.00
  -2  -2   7  168.68   18.00
   2  -2  -7  157.88   16.30
   2   2  -7  117.79   16.50
  -2   2   7  149.69   16.70
   2   2  -7  143.19   14.10
  -2   2   7  144.69   13.00
   2   2  -7  165.58   18.30
  -1  -2   7  350.26   22.70
   1  -2  -7  322.37   26.00
   1  -2  -7  343.27   24.10
   1  -2  -7  363.06   18.60
   1   2  -7  366.36   19.80
   1   2  -7  384.76   27.70
  -1   2   7  389.86   25.70
   1   2  -7  310.77   24.90
   0  -2  -7    2.80    6.20
   0  -2  -7   -1.50    5.70
   0  -2   7   -0.80    5.20
   0   2  -7   -1.30    5.20
   0   2  -7   11.20    6.70
   0   2   7    5.70    5.40
  -1  -2  -7  335.57   26.20
   1  -2   7  358.66   25.90
  -1   2  -7  357.46   25.80
   1   2   7  386.06   24.30
  -1   2  -7  387.36   26.90
   1   2   7  381.06   28.40
  -2  -2  -7  159.98   18.20
  -2  -2  -7  116.39   11.40
   2  -2   7  158.28   18.40
  -2   2  -7  144.79   17.90
  -2   2  -7  150.18   16.60
   2   2   7  169.48   15.80
   2   2   7  164.68   18.30
  -3  -2  -7   31.70   10.80
  -3  -2  -7   56.69   10.10
   3  -2   7   59.49   14.40
  -3   2  -7   25.70   11.50
   3   2   7   40.40   10.20
  -3   2  -7   45.00   10.80
   3   2   7   48.60   12.40
  -4  -2  -7  115.79   17.30
  -4  -2  -7  122.69   16.70
   4  -2   7  117.29   21.40
   4   2   7   80.79   15.40
  -4   2  -7  109.09   19.80
   4   2   7  114.09   15.10
  -4   2  -7   92.89   14.40
   5  -2   7  355.06   35.10
  -5  -2  -7  395.36   31.80
  -5  -2  -7  384.06   30.40
  -5   2  -7  432.06   36.70
   5   2   7  371.96   28.80
   5   2   7  357.36   30.80
  -6  -2  -7    3.00   10.60
   6  -2   7    4.50   13.70
  -6  -2  -7   16.00   12.80
   6   2   7    7.00    9.90
  -6   2  -7  -18.00   11.60
   6   2   7   18.90   12.80
   7  -2   7   24.10   16.50
  -7  -2  -7   17.30   15.50
  -7   2  -7   45.60   20.80
   7   2   7   34.70   16.70
  -7  -3   7   24.40   15.00
   7  -3  -7   10.10   16.90
   7  -3  -7   19.50   20.00
   7   3  -7   10.80   17.40
  -7   3   7    9.20   14.20
   6  -3  -7   15.30   16.10
  -6  -3   7    1.50   10.80
   6  -3  -7   43.70   18.70
   6   3  -7   20.50   14.40
  -6   3   7   42.30   15.80
   5  -3  -7   19.90   13.40
  -5  -3   7   29.50   13.40
   5  -3  -7   21.80   13.70
  -5   3   7    9.40   11.30
   5   3  -7   16.30   12.40
   5   3  -7    9.20   13.00
   4  -3  -7  980.50   56.59
  -4  -3   7  872.11   52.09
   4  -3  -7  890.21   54.99
   4   3  -7  814.42   54.29
   4   3  -7  975.00   51.99
  -4   3   7  986.40   47.90
   3  -3  -7   21.90   10.70
   3  -3  -7   23.80    8.90
  -3  -3   7   13.70    9.70
  -3   3   7   16.20    7.50
   3   3  -7    9.60    9.70
   3   3  -7   22.30   10.00
  -3   3   7   16.10   10.30
   2  -3  -7  606.44   40.50
   2  -3  -7  646.94   35.40
  -2  -3   7  643.94   39.90
  -2  -3   7  653.93   32.00
  -2   3   7  624.74   39.10
   2   3  -7  671.83   41.10
   2   3  -7  680.13   34.20
  -2   3   7  632.14   30.30
  -1  -3   7   38.80   11.30
   1  -3  -7   67.59   12.50
   1  -3  -7   28.40   10.20
  -1  -3   7   46.70    9.60
   1   3  -7   45.40    7.90
  -1   3   7   45.70   11.30
   1   3  -7   36.50   11.30
   0  -3   7   -0.60    5.80
   0  -3  -7   -0.60    6.60
   0  -3  -7    3.90    7.30
   0   3  -7    2.30    7.00
   0   3   7   -5.70    4.70
   0   3  -7    7.70    7.30
  -1  -3  -7   29.10    9.90
   1  -3   7   56.49   12.20
  -1  -3  -7   23.60   10.10
  -1   3  -7   48.20   11.70
  -1   3  -7   42.20   11.50
   1   3   7   54.19   11.40
   2  -3   7  734.53   42.20
  -2  -3  -7  642.04   40.50
   2   3   7  668.93   38.20
  -2   3  -7  635.44   40.80
   2   3   7  635.34   39.70
  -2   3  -7  633.04   37.80
  -3  -3  -7   10.40    8.90
   3  -3   7    8.00    9.70
  -3   3  -7    8.50   10.80
   3   3   7   22.00   10.30
  -3   3  -7    6.50    7.50
   3   3   7   17.90    9.00
  -4  -3  -7  968.60   54.29
   4  -3   7  925.31   58.69
  -4   3  -7 1008.80   49.50
  -4   3  -7  924.91   57.49
   4   3   7  987.80   52.49
   4   3   7  927.81   52.19
  -5  -3  -7   10.10    9.20
   5  -3   7   22.40   14.80
  -5   3  -7   10.60   13.00
   5   3   7   20.90   12.00
   5   3   7   12.20   10.40
   6  -3   7   19.20   16.60
  -6  -3  -7   29.50   13.30
   6   3   7   21.90   13.10
  -6   3  -7   49.70   20.60
   7  -3   7   12.30   17.80
   7   3   7    7.60   12.10
  -7   3  -7   43.60   23.70
  -6  -4   7   41.40   18.00
   6  -4  -7    3.60   16.30
   6  -4  -7   24.20   17.50
   6   4  -7   43.80   19.00
   6   4  -7    6.20   14.30
  -6   4   7   20.40   15.20
   5  -4  -7  147.09   27.40
  -5  -4   7  204.58   25.30
  -5   4   7  146.29   25.50
   5   4  -7  133.89   23.80
   5   4  -7   96.79   21.70
  -4  -4   7   51.99   15.10
   4  -4  -7   36.30   14.60
  -4   4   7   46.10   14.90
   4   4  -7   56.99   15.20
   4   4  -7   28.40   13.50
   3  -4  -7   14.90   11.50
  -3  -4   7    0.70    8.70
   3   4  -7    0.20    8.30
  -3   4   7    7.50    9.70
   3   4  -7    7.60   10.30
   2  -4  -7  233.48   20.90
  -2  -4   7  195.78   23.20
   2  -4  -7  191.58   24.10
   2   4  -7  296.07   21.40
  -2   4   7  282.47   26.70
   2   4  -7  188.98   23.20
  -1  -4   7  383.26   24.80
   1  -4  -7  392.76   31.30
  -1  -4   7  367.46   30.20
   1  -4  -7  378.26   27.30
   1   4  -7  423.06   33.10
  -1   4   7  332.67   28.60
   1   4  -7  383.36   22.40
   0  -4   7    1.90    6.50
   0  -4   7    0.10    6.70
   0  -4  -7   -3.00    7.10
   0  -4  -7   -0.30    6.00
   0   4  -7   -2.40    5.90
   0   4   7    0.30    6.50
  -1  -4  -7  373.36   29.60
   1  -4   7  426.46   29.90
   1  -4   7  414.36   29.80
  -1  -4  -7  373.86   29.70
   1   4   7  375.16   29.10
  -1   4  -7  348.97   30.10
   2  -4   7  223.58   24.30
  -2  -4  -7  251.37   24.80
  -2   4  -7  250.77   23.10
  -2   4  -7  232.98   25.60
   2   4   7  236.98   24.20
   2   4   7  209.98   23.00
   3  -4   7    0.50    9.40
  -3  -4  -7   17.70   10.30
   3   4   7   -4.80    7.50
   3   4   7   -1.10    8.40
  -3   4  -7    7.40    9.00
  -3   4  -7   11.80   12.30
   4  -4   7   62.29   17.60
  -4  -4  -7   31.20   13.40
   4   4   7   37.90   13.30
  -4   4  -7   43.40   17.10
   4   4   7   51.59   14.10
  -5  -4  -7  152.88   22.60
   5  -4   7  100.09   25.00
  -5   4  -7  165.58   30.90
   5   4   7  119.99   20.90
  -6  -4  -7   13.30   11.60
   6  -4   7   13.90   18.90
  -6   4  -7   19.40   19.80
   6   4   7   28.10   14.10
  -6  -5   7   18.70   16.40
   6  -5  -7    1.20   19.10
   6   5  -7   15.20   15.50
   6   5  -7   19.10   17.10
  -6   5   7    5.50   16.80
   5  -5  -7   85.29   25.60
  -5  -5   7   59.19   19.40
   5   5  -7  100.59   19.70
  -5   5   7  113.59   26.30
   5   5  -7   88.79   22.60
   4  -5  -7   20.30   15.30
  -4  -5   7   29.20   14.40
   4   5  -7   42.70   15.80
   4   5  -7   45.90   14.50
  -4   5   7   35.90   15.40
   3  -5  -7    6.60   11.50
  -3  -5   7   21.80   14.00
   3   5  -7    0.40    8.80
   3   5  -7   -2.30    9.40
  -3   5   7    6.70   11.00
   2  -5  -7  111.79   22.10
   2  -5  -7  112.39   16.50
  -2  -5   7  145.09   23.20
   2   5  -7   94.29   19.70
  -2   5   7   94.49   19.90
   2   5  -7  142.39   16.00
  -1  -5   7  665.43   45.20
   1  -5  -7  632.04   38.90
   1  -5  -7  601.64   43.00
   1   5  -7  592.04   43.50
  -1   5   7  671.63   43.70
   0  -5  -7    7.90    8.30
   0  -5  -7   11.90    9.60
   0  -5   7    1.40    8.30
   0  -5   7   -6.90    7.90
   0   5   7    1.10    7.70
   0   5  -7   -8.40    8.50
   1  -5   7  654.83   41.10
  -1  -5  -7  590.14   40.70
   1  -5   7  612.74   40.60
  -1  -5  -7  651.73   41.90
   1   5   7  571.84   41.20
  -1   5  -7  599.74   43.20
   2  -5   7  179.88   21.00
  -2  -5  -7  142.29   21.60
   2  -5   7  144.49   21.70
  -2  -5  -7  125.79   18.90
  -2   5  -7  117.19   21.50
   2   5   7  165.18   22.40
  -3  -5  -7    1.30   10.30
   3  -5   7    6.10   10.70
   3  -5   7   10.20    9.30
  -3   5  -7  -10.30    9.40
   3   5   7   13.50   10.60
   3   5   7    5.70    9.20
   4  -5   7   23.70   14.30
  -4  -5  -7   44.00   15.60
  -4   5  -7   62.29   19.20
   4   5   7   46.50   15.50
  -5  -5  -7   82.69   19.00
   5  -5   7  138.29   27.70
  -5   5  -7   69.99   22.20
   5   5   7   86.09   20.00
   6  -5   7   28.40   23.50
  -6  -5  -7    7.50   12.70
  -6   5  -7   11.40   21.60
   6   5   7    3.60   12.20
  -5  -6   7   94.69   25.40
   5  -6  -7   83.09   27.30
  -5   6   7   89.29   27.30
   5   6  -7   66.99   19.10
   5   6  -7   93.09   25.30
   4  -6  -7  120.39   27.40
  -4  -6   7  142.49   27.30
   4   6  -7  162.28   22.40
   4   6  -7  179.38   30.30
  -4   6   7  213.18   31.80
  -3  -6   7    8.00   13.70
   3  -6  -7   -2.30   10.80
   3   6  -7    3.10   12.80
  -3   6   7   28.50   15.80
   3   6  -7   17.90   11.20
  -2  -6   7  237.08   29.70
   2  -6  -7  247.98   24.20
   2  -6  -7  259.07   31.20
   2   6  -7  214.88   28.20
  -2   6   7  254.97   30.00
  -1  -6   7  125.59   23.10
   1  -6  -7   94.49   21.00
   1  -6  -7  133.39   19.60
   1   6  -7   82.59   19.90
  -1   6   7  106.99   22.20
   0  -6   7   11.70   12.30
   0  -6  -7   -4.90    9.10
   0  -6   7    1.60    9.00
   0  -6  -7    9.10    9.60
   0   6  -7   -0.80   10.20
   0   6   7    2.00    9.70
   1  -6   7  103.79   19.20
  -1  -6  -7  136.69   23.10
   1  -6   7  127.39   22.00
  -1  -6  -7  127.89   21.80
  -1   6  -7  110.49   22.10
   1   6   7  147.89   25.10
   2  -6   7  244.98   28.00
   2  -6   7  272.17   27.60
  -2  -6  -7  217.38   25.00
  -2  -6  -7  289.17   31.20
  -2   6  -7  220.08   27.60
   2   6   7  269.87   30.00
   3  -6   7   12.90   12.70
  -3  -6  -7    6.50   13.80
   3  -6   7   16.10   12.50
   3   6   7   17.20   12.90
  -3   6  -7   14.40   14.80
   4  -6   7  228.38   30.70
  -4  -6  -7  140.39   25.20
   4   6   7  131.19   24.60
  -4   6  -7  137.69   27.90
   5  -6   7   49.50   21.70
  -5  -6  -7   41.20   17.60
   5   6   7   79.49   20.80
  -5   6  -7  105.19   27.30
  -4  -7   7  175.68   31.80
   4  -7  -7  187.48   33.90
   4   7  -7  194.38   32.00
  -4   7   7  187.48   34.00
   3  -7  -7    5.40   14.00
  -3  -7   7    5.40   14.00
  -3   7   7   -2.50   15.10
   3   7  -7   11.10   14.40
   2  -7  -7   47.70   19.80
  -2  -7   7   79.09   23.50
  -2   7   7  110.29   24.20
   2   7  -7   92.29   22.70
   1  -7  -7  178.58   30.20
   1  -7  -7  177.68   23.60
  -1  -7   7  132.29   26.40
  -1   7   7  187.38   28.30
   1   7  -7  193.08   28.60
   0  -7   7   10.10   12.40
   0  -7  -7    8.00   11.80
   0  -7  -7    5.70   11.30
   0   7   7   -6.60   10.20
   0   7  -7   -7.30   10.90
  -1  -7  -7  137.79   24.80
  -1  -7  -7  200.48   28.20
   1  -7   7  173.88   26.10
   1  -7   7  214.08   26.00
   1   7   7  165.88   27.60
  -1   7  -7  135.79   25.80
  -2  -7  -7   75.19   18.70
   2  -7   7  109.09   22.20
   2  -7   7  103.59   21.80
  -2  -7  -7   69.69   22.40
  -2   7  -7  129.69   27.80
   2   7   7   37.50   17.50
   3  -7   7   14.70   15.40
  -3  -7  -7   -1.70   14.50
  -3   7  -7   -0.70   13.80
   3   7   7   12.20   14.30
   4  -7   7  217.78   32.80
  -4  -7  -7   86.59   24.20
   4   7   7   95.19   24.40
  -4   7  -7  195.38   36.60
   3  -8  -7   14.40   17.30
  -3  -8   7   16.90   17.00
   3   8  -7   16.60   16.90
  -3   8   7    3.00   21.00
  -2  -8   7   83.09   25.60
   2  -8  -7  110.49   27.70
   2   8  -7   62.49   20.80
  -2   8   7   91.79   28.00
  -1  -8   7   99.49   26.10
   1  -8  -7   74.89   23.90
   1  -8  -7   80.89   21.20
  -1   8   7   93.19   26.30
   1   8  -7   90.49   23.00
   0  -8   7   -2.10   15.10
   0  -8  -7   -0.50   11.70
   0  -8  -7   -5.60   11.50
   0   8   7    6.40   14.30
   0   8  -7  -16.00   14.00
  -1  -8  -7   72.49   21.30
   1  -8   7  185.08   27.90
  -1  -8  -7  109.39   26.10
   1   8   7   67.99   23.30
  -1   8  -7   79.79   26.10
   2  -8   7   46.90   20.40
  -2  -8  -7   80.69   25.50
   2  -8   7  125.29   27.10
   2   8   7   66.49   22.10
  -2   8  -7   78.89   23.80
   3  -8   7   -0.60   16.60
  -3  -8  -7  -14.60   18.20
   3   8   7   -4.50   15.90
  -3   8  -7  -15.00   14.60
   7   0  -8  -15.00   13.80
  -7   0   8  -11.20   12.80
  -6   0   8 1550.04   81.69
   6   0  -8 1591.64   84.19
   5   0  -8  -23.50    7.50
  -5   0   8   -5.50    9.00
   5   0  -8   -3.80   15.70
   4   0  -8   60.79   14.70
   4   0  -8   32.40   12.00
   4   0  -8   60.69   14.30
  -4   0   8   50.99   12.50
   3   0  -8   -2.00    6.30
   3   0  -8   -7.90    5.00
   3   0  -8   -2.50    6.50
   3   0  -8    9.60    7.70
   2   0  -8   93.29   14.40
   2   0  -8   84.99   12.80
   2   0  -8  104.49   15.20
   2   0  -8   67.69   12.40
   1   0  -8   -0.10    6.60
   1   0  -8   -0.60    4.60
  -1   0   8   -3.20    3.80
   1   0  -8   -4.70    6.10
   0   0   8 7003.60  246.78
   0   0  -8 7183.48  251.47
   0   0   8 7251.27  257.77
   0   0  -8 6959.30  257.27
   1   0   8    1.30    5.60
   1   0   8    4.90    3.70
  -1   0  -8   -0.80    4.40
  -1   0  -8    5.40    5.90
  -2   0  -8   56.09   13.00
   2   0   8   81.99    8.50
  -2   0  -8   98.49   12.70
   2   0   8   65.19   13.20
   3   0   8    4.10    8.10
  -3   0  -8   -6.50    5.70
  -3   0  -8   -1.60    7.10
  -4   0  -8   65.89   14.20
   4   0   8   26.50   12.70
  -4   0  -8   75.19   15.20
  -5   0  -8    5.60    8.80
  -5   0  -8    0.60   10.50
   5   0   8  -13.40    7.90
   6   0   8 1362.46   75.29
  -6   0  -8 1314.67   72.39
  -7   0  -8    5.70   14.70
   7   0   8    2.30   13.90
   7  -1  -8    7.80   17.60
  -7  -1   8   17.00   14.40
   7   1  -8    2.40   17.50
  -7   1   8   38.20   16.30
  -6  -1   8  164.48   27.20
   6  -1  -8  152.98   27.50
   6   1  -8  215.78   28.30
  -6   1   8  107.49   22.70
   5  -1  -8   84.39   19.20
  -5  -1   8   42.40   13.70
   5  -1  -8   97.39   20.20
   5   1  -8   66.09   16.50
  -5   1   8   55.39   15.20
   4  -1  -8   50.19   14.10
   4  -1  -8   53.79   12.60
  -4  -1   8   53.59   13.40
   4  -1  -8   81.09   16.50
  -4   1   8   54.19   14.30
   4   1  -8   70.89   15.20
   4   1  -8   43.10   14.30
   4   1  -8   84.29   15.60
   3  -1  -8  544.65   32.90
   3  -1  -8  537.35   35.10
   3  -1  -8  540.15   32.00
   3  -1  -8  497.85   34.90
   3   1  -8  537.75   35.80
   3   1  -8  493.35   32.00
   3   1  -8  505.85   32.00
   3   1  -8  546.35   35.30
   2  -1  -8   90.29   11.90
   2  -1  -8  100.99   16.10
   2  -1  -8   95.39   14.20
   2  -1  -8  124.09   15.60
  -2  -1   8   70.09   13.30
   2   1  -8  100.29   15.10
   2   1  -8   88.79   12.30
   2   1  -8  108.79   14.80
  -1  -1   8  246.48   20.30
   1  -1  -8  242.78   22.90
   1  -1  -8  261.17   17.90
   1  -1  -8  285.77   23.00
  -1   1   8  247.88   18.90
   1   1  -8  216.88   21.60
   1   1  -8  262.67   17.20
   1   1  -8  236.78   20.00
   0  -1   8  284.67   23.20
   0  -1  -8  335.07   26.30
   0  -1  -8  294.57   23.90
   0  -1  -8  338.17   19.50
   0   1   8  317.57   20.80
   0   1  -8  310.27   24.60
   0   1  -8  336.07   24.00
   1  -1   8  231.48   21.30
  -1  -1  -8  261.87   22.00
  -1  -1  -8  254.77   17.00
  -1   1  -8  225.78   19.70
   1   1   8  228.28   16.70
  -1   1  -8  221.18   20.90
   1   1   8  262.07   22.90
   2  -1   8   76.19   14.70
  -2  -1  -8   96.79   12.00
  -2  -1  -8   80.09   14.90
  -2   1  -8  114.19   15.10
   2   1   8   71.59   14.60
  -2   1  -8   63.89   13.30
   2   1   8   84.49   10.80
  -3  -1  -8  543.15   36.20
  -3  -1  -8  527.75   31.30
   3  -1   8  501.05   36.50
  -3   1  -8  489.55   34.30
   3   1   8  497.75   35.80
   3   1   8  548.45   29.60
  -3   1  -8  549.35   34.40
   4  -1   8   59.79   17.10
  -4  -1  -8   49.10   13.70
  -4  -1  -8   66.89   14.10
   4   1   8   69.99   15.90
  -4   1  -8   24.90   13.40
   4   1   8   52.79   10.40
  -4   1  -8   50.99   13.20
   5  -1   8   54.69   17.60
  -5  -1  -8   89.79   18.10
  -5  -1  -8  102.59   18.70
  -5   1  -8   97.29   20.90
   5   1   8   84.09   18.10
  -5   1  -8   65.99   15.30
   6  -1   8  152.28   28.90
  -6  -1  -8  180.68   25.30
  -6  -1  -8  201.78   24.60
   6   1   8  157.88   25.30
  -6   1  -8  152.28   27.00
   7  -1   8   12.50   15.60
  -7  -1  -8   33.50   17.30
  -7   1  -8   34.20   20.70
   7   1   8   15.20   15.10
  -7  -2   8   53.59   19.70
  -7   2   8   17.00   15.20
   6  -2  -8   63.09   19.10
  -6  -2   8   31.30   15.80
   6  -2  -8   27.80   16.40
   6   2  -8   66.29   20.00
  -6   2   8   36.30   15.90
   5  -2  -8   72.99   18.40
   5  -2  -8   53.19   17.60
  -5  -2   8   59.99   16.20
  -5   2   8   73.59   16.10
   5   2  -8   39.90   15.90
   5   2  -8   92.39   18.70
   4  -2  -8   21.80   12.00
   4  -2  -8   15.50   11.90
  -4  -2   8   15.90   10.40
   4   2  -8   27.80   11.60
  -4   2   8   20.60    9.90
   4   2  -8    4.10    9.50
  -3  -2   8 3492.45  130.49
  -3  -2   8 3407.86  138.69
   3  -2  -8 3580.04  141.59
   3  -2  -8 3601.84  134.09
   3  -2  -8 3279.47  140.79
   3   2  -8 3568.54  134.89
   3   2  -8 3236.98  139.89
  -3   2   8 3619.04  132.19
   2  -2  -8   86.99   16.50
   2  -2  -8   87.19   14.90
  -2  -2   8   96.19   12.40
   2   2  -8   96.29   17.30
   2   2  -8  100.59   12.50
  -2   2   8   94.69   14.20
   2   2  -8   96.59   16.60
  -2   2   8   72.69   11.10
   1  -2  -8   31.50   11.20
   1  -2  -8   53.29    7.90
   1  -2  -8   66.49   13.00
  -1  -2   8   50.69   10.70
   1   2  -8   62.69    9.10
   1   2  -8   66.99   13.60
  -1   2   8   51.09   11.30
   1   2  -8   43.30   12.00
   0  -2  -8  168.98   18.80
   0  -2   8  181.78   17.70
   0  -2  -8  187.58   20.10
   0   2   8  208.38   17.80
   0   2  -8  169.18   19.40
   0   2  -8  155.98   18.20
   1  -2   8   36.10   10.90
  -1  -2  -8   64.59   13.60
   1   2   8   30.20    8.80
  -1   2  -8   28.10    9.60
   1   2   8   47.00   12.30
  -1   2  -8   71.49   14.20
   2  -2   8   69.69   14.70
  -2  -2  -8   74.29   10.10
  -2  -2  -8  104.49   15.90
  -2   2  -8   82.19   15.80
  -2   2  -8   66.79   13.50
   2   2   8   88.09   12.80
   2   2   8  123.19   17.70
   3  -2   8 3370.56  140.19
  -3  -2  -8 3529.35  137.89
  -3  -2  -8 3169.58  124.79
  -3   2  -8 3401.96  132.19
   3   2   8 3436.46  136.59
  -3   2  -8 3226.88  136.49
   3   2   8 3379.16  129.49
  -4  -2  -8    9.70    9.30
  -4  -2  -8    7.40    8.50
   4  -2   8   27.30   13.40
   4   2   8   20.80    9.50
   4   2   8    6.60    9.30
  -4   2  -8   13.50    8.30
  -4   2  -8   42.10   14.30
  -5  -2  -8   52.69   16.60
  -5  -2  -8   65.09   15.90
   5  -2   8   28.00   15.10
   5   2   8   58.19   13.50
   5   2   8   65.49   17.20
  -5   2  -8   24.20   14.60
   6  -2   8   25.50   16.40
  -6  -2  -8   55.29   16.80
  -6   2  -8   31.90   18.40
   6   2   8   60.09   17.50
   7  -2   8   21.70   18.30
  -7   2  -8    5.70   18.90
   6  -3  -8  191.48   31.80
   6  -3  -8  266.17   33.10
  -6   3   8  220.68   27.20
   6   3  -8  168.58   30.70
   6   3  -8  281.37   31.80
   5  -3  -8   57.29   17.00
   5  -3  -8   43.30   18.00
  -5  -3   8   42.00   15.00
   5   3  -8   59.19   17.10
   5   3  -8   32.70   16.70
  -5   3   8   45.40   13.10
   4  -3  -8   99.59   20.90
  -4  -3   8   86.59   19.10
  -4   3   8  111.79   16.00
   4   3  -8  144.59   20.20
  -4   3   8   77.09   17.80
   4   3  -8  114.99   22.40
   3  -3  -8   27.40   13.40
  -3  -3   8   17.00   10.70
   3  -3  -8   41.60   11.20
  -3   3   8   26.70   11.80
   3   3  -8   48.30   12.50
   3   3  -8   31.00   13.10
  -2  -3   8  244.88   19.30
  -2  -3   8  236.98   23.90
   2  -3  -8  253.27   26.60
   2  -3  -8  282.37   23.00
   2   3  -8  272.47   20.10
   2   3  -8  246.78   25.10
  -2   3   8  298.97   26.00
   1  -3  -8   89.19   15.80
  -1  -3   8   58.19   11.80
   1  -3  -8   54.09   13.90
   1   3  -8   46.20   13.00
   1   3  -8   89.09   16.20
  -1   3   8   64.39   13.60
   0  -3  -8  438.76   33.10
   0  -3   8  482.45   30.60
   0  -3  -8  455.15   31.60
   0   3  -8  445.96   33.00
   0   3  -8  430.76   32.40
   0   3   8  394.76   29.40
  -1  -3  -8   75.29   15.00
  -1  -3  -8   79.19   15.90
   1  -3   8   51.89   13.20
   1   3   8   37.80   10.40
  -1   3  -8   66.69   13.60
  -1   3  -8   57.59   14.40
   2  -3   8  241.58   24.60
  -2  -3  -8  232.58   24.10
   2   3   8  226.18   21.60
   2   3   8  208.68   23.10
  -2   3  -8  232.58   22.80
  -2   3  -8  230.48   24.60
   3  -3   8   42.00   14.00
  -3  -3  -8   50.49   14.30
  -3   3  -8   36.20   11.30
   3   3   8   25.30   10.00
  -3   3  -8   56.99   16.20
   3   3   8   19.00   10.20
  -4  -3  -8  143.89   20.40
   4  -3   8   73.19   18.90
  -4   3  -8  129.09   18.00
  -4   3  -8   90.59   21.10
   4   3   8  107.09   18.40
   4   3   8   91.99   18.50
  -5  -3  -8   60.09   16.20
   5  -3   8   23.10   16.30
  -5   3  -8   50.69   19.00
   5   3   8   37.50   14.30
   5   3   8   39.50   13.20
  -6  -3  -8  208.58   27.50
   6  -3   8  182.38   33.70
  -6   3  -8  203.58   35.60
   6   3   8  218.58   25.50
   6  -4  -8  541.85   48.70
  -6  -4   8  485.55   43.70
   6   4  -8  626.94   46.70
  -6   4   8  419.36   42.70
   6   4  -8  422.86   46.30
  -5  -4   8  142.39   25.60
   5  -4  -8  113.29   25.50
   5   4  -8   80.29   22.20
  -5   4   8  130.39   24.90
   5   4  -8  125.09   22.80
  -4  -4   8   54.49   16.70
   4  -4  -8   46.30   17.70
   4   4  -8   43.60   13.90
  -4   4   8   16.50   12.50
   4   4  -8   42.70   16.80
   3  -4  -8  226.78   27.60
  -3  -4   8  269.97   28.20
   3   4  -8  241.78   23.10
  -3   4   8  219.38   26.10
   3   4  -8  247.18   28.30
   2  -4  -8   12.40    9.80
  -2  -4   8   11.80   10.80
   2  -4  -8   25.70    9.80
   2   4  -8    7.20   11.70
  -2   4   8   22.40   11.80
   2   4  -8    9.70   10.60
  -1  -4   8  162.28   21.00
   1  -4  -8  155.48   21.10
   1  -4  -8  145.69   18.50
  -1  -4   8  128.59   16.40
  -1   4   8  141.69   19.60
   1   4  -8  130.49   21.60
   0  -4  -8 2371.86  101.29
   0  -4  -8 2264.17  103.79
   0  -4   8 2451.55   98.29
   0  -4   8 2321.17  102.59
   0   4  -8 2345.57  105.79
   0   4   8 2314.77  101.89
  -1  -4  -8  124.99   19.20
   1  -4   8  172.18   20.60
  -1  -4  -8  125.69   19.70
  -1   4  -8  152.78   20.00
  -1   4  -8  135.59   20.60
   1   4   8  150.78   19.30
  -2  -4  -8   22.10   11.70
   2  -4   8   26.30   12.90
   2   4   8   14.20    9.60
   2   4   8   28.50   12.80
  -2   4  -8   24.10   10.30
  -2   4  -8    9.80   10.30
  -3  -4  -8  255.17   26.90
   3  -4   8  270.47   29.30
   3   4   8  264.17   25.90
   3   4   8  223.48   25.00
  -3   4  -8  242.88   24.70
  -3   4  -8  225.68   27.70
  -4  -4  -8   32.60   13.90
   4  -4   8   19.40   12.90
   4   4   8   18.00   11.10
   4   4   8   38.50   14.10
  -4   4  -8   18.90   14.00
  -5  -4  -8  152.58   23.10
   5  -4   8  128.39   26.10
   5   4   8  130.29   22.90
  -5   4  -8  137.39   29.30
  -6  -4  -8  505.95   42.30
   6  -4   8  535.15   52.09
   6   4   8  556.24   42.40
  -6   4  -8  616.14   55.59
   5  -5  -8   86.19   25.30
  -5  -5   8   71.89   20.50
   5   5  -8   37.80   17.10
  -5   5   8   31.20   16.50
   5   5  -8   47.00   19.50
   4  -5  -8   41.70   19.10
  -4  -5   8   29.60   15.50
  -4   5   8   40.80   17.00
   4   5  -8   21.90   14.30
   4   5  -8   35.60   13.20
  -3  -5   8  104.59   20.90
   3  -5  -8   73.69   20.50
  -3   5   8  105.99   22.10
   3   5  -8   46.80   17.00
   2  -5  -8  106.09   18.00
   2  -5  -8   85.09   20.20
  -2  -5   8  132.89   22.90
   2   5  -8  112.29   22.80
  -2   5   8  126.89   22.20
  -1  -5   8  202.88   25.60
   1  -5  -8  170.98   23.50
   1  -5  -8  176.48   21.40
  -1   5   8  138.89   21.00
   1   5  -8  147.59   25.20
   0  -5  -8   23.20   12.30
   0  -5   8   11.40    9.80
   0  -5  -8   24.90   12.40
   0  -5   8    9.00   10.80
   0   5   8    3.70    9.30
   0   5  -8   12.00   12.40
   1  -5   8  101.59   19.50
  -1  -5  -8  168.18   21.70
  -1  -5  -8  149.29   21.50
   1  -5   8  130.79   20.50
   1   5   8  154.98   22.00
  -1   5  -8  153.48   25.10
  -2  -5  -8   69.59   17.70
   2  -5   8   59.59   14.50
   2  -5   8   74.19   17.10
  -2   5  -8   39.60   14.40
   2   5   8  109.69   20.90
   2   5   8   86.49   18.50
   3  -5   8   82.69   19.90
  -3  -5  -8   64.69   16.60
   3  -5   8   84.79   17.50
  -3   5  -8   68.89   20.60
   3   5   8   51.99   15.80
   3   5   8   93.69   20.70
  -4  -5  -8   27.00   13.70
   4  -5   8   27.10   14.40
   4   5   8   18.10   12.40
   4   5   8   22.60   15.00
  -4   5  -8   20.20   17.60
  -5  -5  -8   41.60   15.60
   5  -5   8   33.30   19.40
  -5   5  -8   20.30   19.40
   5   5   8   46.90   16.60
   5  -6  -8    0.50   20.00
  -5  -6   8   34.20   18.90
   5   6  -8    3.90   18.00
  -5   6   8    7.10   17.70
   5   6  -8    2.30   15.00
  -4  -6   8   46.90   18.80
   4  -6  -8   38.20   20.80
  -4   6   8   36.00   17.90
   4   6  -8   37.00   17.50
  -3  -6   8  405.46   39.40
   3  -6  -8  384.06   41.00
   3   6  -8  434.76   41.10
  -3   6   8  388.16   39.70
   2  -6  -8  192.38   31.70
  -2  -6   8  196.98   27.80
  -2   6   8  191.38   27.80
   2   6  -8  162.38   27.50
  -1  -6   8   47.30   17.00
   1  -6  -8   40.90   14.70
   1  -6  -8   49.40   15.90
   1   6  -8   17.10   13.10
  -1   6   8   49.99   16.30
   0  -6  -8  196.38   25.90
   0  -6   8  225.78   27.80
   0  -6  -8  280.87   28.10
   0   6  -8  243.58   29.80
   0   6   8  240.18   29.40
  -1  -6  -8   70.49   18.40
   1  -6   8   30.40   15.40
   1  -6   8   50.39   16.40
  -1  -6  -8   31.50   14.60
  -1   6  -8   35.50   15.40
   1   6   8   42.30   15.50
   2  -6   8  207.68   25.60
   2  -6   8  161.78   24.60
  -2  -6  -8  121.29   23.00
  -2  -6  -8  178.58   23.70
  -2   6  -8  221.08   29.90
   2   6   8  151.58   26.00
   3  -6   8  426.16   34.30
   3  -6   8  434.16   39.50
  -3  -6  -8  374.16   38.10
   3   6   8  390.96   34.60
  -3   6  -8  381.56   38.80
   3   6   8  321.57   35.40
   4  -6   8   45.70   19.10
  -4  -6  -8   34.70   16.20
   4   6   8   45.60   17.10
  -4   6  -8   17.30   15.20
   5  -6   8   16.50   17.20
  -5  -6  -8    7.50   13.60
   5   6   8   -1.60   12.90
  -5   6  -8   -4.30   14.30
   4  -7  -8   50.69   22.00
  -4  -7   8    6.60   16.70
  -4   7   8    6.70   19.80
   4   7  -8    9.90   17.00
  -3  -7   8   25.80   16.40
   3  -7  -8   30.00   19.80
   3   7  -8   25.80   17.40
  -3   7   8   33.50   17.80
   2  -7  -8   49.30   20.30
  -2  -7   8   55.79   22.10
  -2   7   8   46.90   19.90
   2   7  -8   47.00   18.80
   1  -7  -8   36.60   14.80
   1  -7  -8   44.70   17.30
  -1  -7   8   39.00   19.90
  -1   7   8   43.70   18.30
   1   7  -8   68.49   21.60
   0  -7  -8   -2.50   11.50
   0  -7  -8   -8.40   11.40
   0  -7   8    5.80   15.00
   0   7   8    2.90   12.60
   0   7  -8   10.00   14.30
  -1  -7  -8   62.79   19.20
  -1  -7  -8   51.19   18.50
   1  -7   8   55.19   19.40
   1  -7   8   84.49   21.90
  -1   7  -8   75.79   21.70
   1   7   8   50.69   18.80
  -2  -7  -8   35.20   19.50
  -2  -7  -8   28.50   16.10
   2  -7   8   34.80   16.70
   2  -7   8   47.60   17.90
  -2   7  -8   51.69   20.60
   2   7   8   33.50   17.50
  -3  -7  -8   24.30   18.20
   3  -7   8   87.59   23.40
  -3   7  -8   15.90   14.70
   3   7   8   10.60   15.20
   4  -7   8   20.10   19.60
  -4  -7  -8   -8.80   12.90
  -4   7  -8   11.90   17.40
   4   7   8   19.30   16.90
  -2  -8   8    8.40   19.00
   2  -8  -8   63.59   24.30
   2   8  -8   38.10   20.30
  -2   8   8   36.50   19.70
   1  -8  -8   61.79   21.80
  -1  -8   8   34.00   19.90
   1  -8  -8   73.69   30.80
  -1   8   8   81.69   25.10
   1   8  -8   68.79   22.60
   0  -8  -8   76.99   21.50
   0  -8   8   45.80   22.50
   0  -8  -8   91.29   23.50
   0   8  -8   59.99   23.00
   0   8   8   57.89   21.70
  -1  -8  -8   45.30   19.80
  -1  -8  -8   69.39   22.60
   1  -8   8  100.49   25.60
   1   8   8   81.19   24.70
  -1   8  -8   18.10   18.20
   2  -8   8   23.20   21.30
   2  -8   8   44.30   20.10
  -2  -8  -8   14.10   19.60
  -2   8  -8   22.90   19.30
   2   8   8   42.00   20.90
  -6   0   9   80.09   20.30
   6   0  -9   64.59   20.60
   5   0  -9    3.30   10.40
  -5   0   9    9.10   12.60
  -4   0   9   45.70   12.20
   4   0  -9   33.60   13.10
   4   0  -9   31.20   12.20
   4   0  -9   67.69   16.50
   3   0  -9   -1.10    8.30
   3   0  -9    8.00    7.80
   3   0  -9    1.00    7.10
   3   0  -9   -6.10    6.20
   2   0  -9  208.48   19.60
   2   0  -9  255.77   21.70
   2   0  -9  217.48   22.20
   2   0  -9  238.38   22.90
  -1   0   9   -2.90    4.30
  -1   0   9    4.20    7.60
   1   0  -9    2.20    5.90
   1   0  -9   -0.30    5.80
   0   0  -9   -0.40    6.60
   0   0   9    0.00    6.20
   0   0   9   -2.80    3.70
   0   0  -9   -1.70    5.50
  -1   0  -9    3.20    7.40
   1   0   9    7.80    7.60
  -1   0  -9    8.20    6.10
  -2   0  -9  235.38   20.30
   2   0   9  216.38   23.00
  -2   0  -9  243.38   23.10
   3   0   9   -5.00    8.50
  -3   0  -9    7.70    8.30
  -3   0  -9   -2.70    7.30
   4   0   9   52.39   15.90
  -4   0  -9   83.19   17.30
  -4   0  -9   63.69   15.60
  -5   0  -9    3.50    9.70
   5   0   9  -13.20    9.90
  -5   0  -9    2.40   10.40
   6   0   9   68.09   20.20
  -6   0  -9   56.89   18.90
  -6  -1   9   28.80   16.10
   6  -1  -9    4.50   15.10
  -6   1   9   29.30   15.40
   6   1  -9   15.00   14.70
   5  -1  -9   87.99   19.50
   5  -1  -9   64.29   17.90
   5   1  -9   80.59   18.50
   5   1  -9   94.69   20.80
  -5   1   9  118.89   20.80
   4  -1  -9  107.09   19.20
   4  -1  -9   76.69   18.70
   4  -1  -9   57.99   15.40
  -4  -1   9  109.89   16.70
   4   1  -9   76.69   16.50
  -4   1   9  124.79   19.20
   4   1  -9  109.89   19.80
   3  -1  -9   13.40   10.00
   3  -1  -9   21.30   10.20
   3  -1  -9   39.00   12.10
   3  -1  -9   38.10   12.00
   3   1  -9   16.30   11.20
   3   1  -9   21.20   10.40
   3   1  -9   34.30   12.50
   3   1  -9   28.30   11.20
  -2  -1   9   58.69   13.00
   2  -1  -9   49.90   10.60
   2  -1  -9   64.09   14.00
   2  -1  -9   73.49   15.40
   2   1  -9   64.39   11.90
   2   1  -9   35.90   11.50
  -2   1   9   49.70   11.50
   2   1  -9   47.10   12.60
  -1  -1   9  422.86   29.10
   1  -1  -9  475.75   33.70
   1  -1  -9  426.06   25.40
   1  -1  -9  438.76   31.10
   1   1  -9  410.86   24.60
   1   1  -9  459.05   32.70
  -1   1   9  382.96   26.20
   1   1  -9  409.06   28.10
   0  -1  -9    3.10    4.90
   0  -1  -9    0.00    6.70
   0  -1   9   -4.30    5.00
   0   1  -9    5.20    6.80
   0   1   9    3.90    5.30
   0   1  -9   -0.90    4.80
   0   1   9    3.80    7.30
  -1  -1  -9  460.05   32.00
   1  -1   9  449.16   31.40
  -1  -1  -9  424.16   24.30
  -1   1  -9  417.76   30.80
   1   1   9  402.96   24.50
   1   1   9  398.46   31.30
  -1   1  -9  409.76   28.50
  -2  -1  -9   62.69   11.20
  -2  -1  -9   56.29   14.60
   2  -1   9   58.29   13.80
  -2   1  -9   63.89   14.40
  -2   1  -9   57.59   13.50
   2   1   9   64.49   15.30
   2   1   9   64.09   10.50
  -3  -1  -9   36.40   10.60
   3  -1   9   21.10   11.90
  -3  -1  -9   29.40   11.90
  -3   1  -9   27.10   10.00
   3   1   9   21.60   11.40
  -3   1  -9   45.00   12.40
  -4  -1  -9   96.69   18.10
   4  -1   9   97.09   19.90
  -4  -1  -9   95.29   16.50
  -4   1  -9  109.49   20.50
  -4   1  -9   97.49   18.10
   4   1   9   84.69   18.30
   5  -1   9   64.89   18.70
  -5  -1  -9   76.39   17.40
  -5  -1  -9  116.09   20.40
   5   1   9   34.30   14.50
  -5   1  -9   56.09   18.00
  -5   1  -9  102.89   17.80
   6  -1   9   14.90   16.20
  -6  -1  -9   45.80   16.60
  -6  -1  -9    8.20   13.40
   6   1   9   13.50   14.00
  -6   1  -9   19.30   14.30
   6  -2  -9   -3.60   12.60
   6  -2  -9   -6.10   14.00
  -6  -2   9  -13.50   11.30
  -6   2   9   17.80   13.40
   6   2  -9    5.90   13.90
   5  -2  -9   60.39   19.60
   5  -2  -9   62.39   18.30
  -5  -2   9   90.39   20.70
   5   2  -9   77.09   20.40
   5   2  -9  117.79   21.60
  -5   2   9   62.99   16.20
   4  -2  -9   85.29   18.90
  -4  -2   9  128.89   19.80
   4  -2  -9   95.49   20.90
   4   2  -9  106.89   19.20
  -4   2   9   88.69   15.70
   4   2  -9   76.29   18.60
   3  -2  -9   33.10   11.80
   3  -2  -9   49.40   12.80
  -3  -2   9   42.40   14.10
  -3  -2   9   29.30   10.00
   3   2  -9   77.79   14.70
  -3   2   9   46.20   12.80
   3   2  -9   43.70   14.30
  -3   2   9   58.49   12.00
  -2  -2   9  109.79   14.90
   2  -2  -9  149.88   18.60
   2  -2  -9   78.19   16.30
  -2   2   9  141.39   14.10
   2   2  -9  117.99   18.60
   2   2  -9  133.59   15.10
   2   2  -9  125.09   18.40
  -2   2   9  183.48   19.20
   1  -2  -9   80.19   16.70
   1  -2  -9   94.79   14.80
  -1  -2   9   90.79   13.80
  -1   2   9  103.09   15.50
   1   2  -9   77.59   14.20
   1   2  -9   90.09   16.80
   0  -2  -9   -6.80    5.80
   0  -2  -9   -7.40    5.90
   0  -2   9   -0.40    5.70
   0   2   9   -2.80    5.20
   0   2  -9    3.40    6.90
   0   2  -9    4.20    7.60
  -1  -2  -9   69.49   14.90
   1  -2   9   57.19   12.90
   1   2   9   74.29   12.50
   1   2   9   73.49   15.90
  -1   2  -9   84.19   15.60
  -1   2  -9   66.79   13.90
   2  -2   9  172.68   20.70
  -2  -2  -9  135.89   19.50
  -2   2  -9  125.49   18.10
   2   2   9  134.49   16.20
  -2   2  -9  142.79   19.80
   2   2   9  137.29   20.00
   3  -2   9   35.20   13.60
  -3  -2  -9   47.40   14.30
  -3   2  -9   77.19   18.10
   3   2   9   50.79   14.50
  -3   2  -9   50.99   12.90
   3   2   9   26.40    9.20
   4  -2   9   92.49   21.30
  -4  -2  -9  119.29   21.20
   4   2   9  114.69   17.00
  -4   2  -9  105.59   18.50
   4   2   9  162.58   22.10
  -4   2  -9  122.39   22.30
   5  -2   9   73.59   21.40
  -5  -2  -9   89.79   19.30
   5   2   9   69.09   18.50
  -5   2  -9   76.09   21.20
   6  -2   9   -4.90   15.10
  -6  -2  -9    1.80   12.80
   6   2   9   -3.50   13.70
  -6   2  -9   16.40   17.40
   6  -3  -9   33.10   19.30
   6  -3  -9   35.20   19.30
   6   3  -9   24.10   20.40
   6   3  -9   15.30   17.70
   5  -3  -9   31.60   17.30
  -5  -3   9   48.10   16.70
   5  -3  -9   21.70   15.60
   5   3  -9   57.09   19.00
   5   3  -9   33.90   15.20
   4  -3  -9  352.96   36.00
  -4  -3   9  408.16   35.40
   4   3  -9  369.86   36.00
   4   3  -9  468.05   33.80
  -4   3   9  371.46   34.40
   3  -3  -9   21.00   12.60
   3  -3  -9   19.80   11.30
  -3  -3   9   19.20   11.40
  -3   3   9    8.20   10.40
   3   3  -9   20.40   12.30
   3   3  -9   19.60   10.00
   2  -3  -9  371.26   28.00
  -2  -3   9  371.46   25.20
   2  -3  -9  350.36   31.50
  -2  -3   9  342.27   30.10
  -2   3   9  315.37   28.90
   2   3  -9  296.77   28.90
   1  -3  -9   46.70   12.80
   1  -3  -9    7.80   10.20
  -1  -3   9   17.80    8.30
  -1   3   9   14.20    8.70
   1   3  -9    9.60   10.20
   1   3  -9    8.60    9.60
   0  -3  -9    2.70    7.40
   0  -3   9   -4.00    7.20
   0  -3  -9    0.70    7.40
   0   3   9    7.40    7.10
   0   3  -9    5.40    8.40
   0   3  -9   -2.60    8.10
  -1  -3  -9   13.30   10.50
   1  -3   9   17.20   10.30
  -1  -3  -9   14.60   10.10
  -1   3  -9   17.80   10.40
  -1   3  -9   34.50   12.50
   1   3   9   -9.50    7.90
   1   3   9   14.50    8.10
  -2  -3  -9  335.47   30.50
   2  -3   9  350.76   31.00
   2   3   9  378.06   27.90
  -2   3  -9  269.37   27.80
  -2   3  -9  351.26   29.00
   2   3   9  315.37   29.80
  -3  -3  -9   31.80   13.30
   3  -3   9    8.70   10.50
  -3   3  -9    7.80   11.80
   3   3   9    3.40   10.60
   3   3   9   13.20    9.30
  -3   3  -9   18.50   10.40
  -4  -3  -9  433.96   35.90
   4  -3   9  350.06   36.10
  -4   3  -9  447.86   32.60
   4   3   9  415.66   32.40
   4   3   9  375.46   34.30
  -4   3  -9  406.06   37.60
   5  -3   9   62.89   21.80
  -5  -3  -9   23.90   14.10
   5   3   9   41.90   13.60
  -5   3  -9   64.59   20.80
   5   3   9   31.30   15.40
  -6  -3  -9   15.40   12.90
   6  -3   9   51.59   22.90
  -6   3  -9    6.40   18.50
  -6  -4   9   15.80   29.10
  -6   4   9   54.39   19.90
  -5  -4   9  174.88   28.70
   5  -4  -9  113.59   27.50
   5   4  -9  133.39   28.00
  -5   4   9  108.09   24.60
   5   4  -9  194.58   26.70
   4  -4  -9   -2.90   12.30
  -4  -4   9   10.70   12.60
   4   4  -9    9.80   14.60
  -4   4   9   -1.60    9.70
   4   4  -9   22.50   12.40
  -3  -4   9    2.60    9.60
   3  -4  -9   -1.60    9.80
  -3   4   9   12.20   11.20
   3   4  -9    2.80   11.40
   2  -4  -9  113.29   18.80
  -2  -4   9   41.50   14.50
   2  -4  -9   41.50   15.90
   2   4  -9   58.79   17.40
  -2   4   9   77.19   17.90
  -1  -4   9  336.17   25.90
   1  -4  -9  325.07   28.80
   1  -4  -9  328.77   31.60
  -1  -4   9  364.66   32.20
  -1   4   9  329.77   30.10
   1   4  -9  398.06   34.80
   0  -4  -9    6.50    9.90
   0  -4   9   -2.30    7.70
   0  -4  -9    6.10    9.20
   0  -4   9   -9.60    8.10
   0   4   9   13.60    9.30
   0   4  -9  -12.80    9.10
  -1  -4  -9  404.26   34.00
  -1  -4  -9  413.06   33.50
   1  -4   9  443.26   33.20
  -1   4  -9  335.07   32.60
  -1   4  -9  433.76   34.40
   1   4   9  375.96   31.20
   2  -4   9   60.79   16.90
  -2  -4  -9   73.99   18.10
  -2   4  -9   59.99   16.00
   2   4   9   39.30   14.00
   2   4   9   38.50   12.40
  -2   4  -9   29.80   13.50
   3  -4   9   12.30   11.90
  -3  -4  -9    4.20    8.50
  -3   4  -9   -5.00    9.90
  -3   4  -9   18.30   13.10
   3   4   9   17.80   11.50
   3   4   9   -5.30    8.10
  -4  -4  -9    7.20   10.40
   4  -4   9   -2.90   12.70
  -4   4  -9   -1.70   10.80
   4   4   9   -6.30    9.00
  -4   4  -9   13.00   16.80
   4   4   9    6.90   11.50
   5  -4   9  108.79   25.20
  -5  -4  -9  100.89   21.50
   5   4   9   86.79   20.30
  -5   4  -9  141.39   29.50
   5   4   9  133.69   30.10
  -6  -4  -9   46.90   17.20
  -5  -5   9   78.39   22.60
   5  -5  -9   68.19   27.10
  -5   5   9   26.70   16.60
   5   5  -9   25.50   20.40
   4  -5  -9   29.00   19.40
  -4  -5   9   90.49   23.10
   4   5  -9   60.99   21.70
  -4   5   9   61.89   20.50
  -3  -5   9   14.50   13.60
   3  -5  -9   15.80   17.80
   3   5  -9    4.10   13.90
  -3   5   9    2.30   13.70
   2  -5  -9  128.69   19.80
   2  -5  -9  167.08   24.50
  -2  -5   9  186.48   25.80
   2   5  -9  135.29   25.90
  -2   5   9  182.38   25.30
   1  -5  -9  308.27   28.40
  -1  -5   9  269.77   31.60
   1  -5  -9  280.47   30.60
   1   5  -9  295.87   33.10
  -1   5   9  315.17   31.00
   0  -5   9   -6.90   10.30
   0  -5   9   -1.40    9.40
   0  -5  -9    5.00   10.20
   0  -5  -9    4.20    9.80
   0   5  -9   -8.50   12.00
   0   5   9   -8.30    7.20
  -1  -5  -9  348.07   32.10
  -1  -5  -9  331.27   31.70
   1  -5   9  369.96   32.50
   1  -5   9  229.78   26.60
   1   5   9  315.97   31.10
  -1   5  -9  314.57   32.90
   2  -5   9  200.48   26.50
   2  -5   9  176.58   24.00
  -2  -5  -9  191.08   25.80
   2   5   9  219.48   26.50
  -2   5  -9  170.88   28.90
   2   5   9  205.48   25.40
   3  -5   9   16.50   13.80
  -3  -5  -9    9.30   10.50
   3  -5   9   -0.20   11.80
   3   5   9   37.80   14.60
  -3   5  -9   18.80   15.60
   3   5   9   22.10   13.20
   4  -5   9   82.49   22.90
  -4  -5  -9   67.29   18.50
   4   5   9   74.49   18.20
  -4   5  -9   25.70   20.00
   4   5   9   88.69   20.80
   5  -5   9   91.39   26.10
  -5  -5  -9   59.79   17.70
   5   5   9  100.09   22.70
  -5   5  -9   60.89   25.80
  -4  -6   9  215.48   35.70
   4  -6  -9  195.88   36.20
  -4   6   9  204.08   34.30
   4   6  -9  116.79   25.50
   3  -6  -9   -1.60   14.90
  -3  -6   9    8.30   15.80
  -3   6   9   -5.90   12.80
   3   6  -9   13.00   14.80
  -2  -6   9  290.07   32.90
   2  -6  -9  226.58   30.90
  -2   6   9  269.77   32.00
   2   6  -9  237.28   32.00
   1  -6  -9   66.69   17.50
  -1  -6   9   93.29   23.20
   1  -6  -9   58.79   18.70
   1   6  -9   55.29   19.20
  -1   6   9   76.79   20.30
   0  -6   9    2.70   12.90
   0  -6  -9   -9.80   10.60
   0  -6  -9   21.60   12.30
   0   6  -9    2.70   12.30
   0   6   9   -8.20    9.40
   1  -6   9   74.79   19.50
  -1  -6  -9   63.29   18.00
   1  -6   9   96.09   20.20
  -1  -6  -9   60.39   17.30
   1   6   9   63.09   19.20
  -1   6  -9   75.99   20.50
   2  -6   9  175.18   27.40
  -2  -6  -9  254.27   31.40
   2  -6   9  246.58   30.10
   2   6   9  243.78   30.10
  -2   6  -9  232.88   32.00
   2   6   9  296.37   31.60
   3  -6   9   10.10   13.30
   3  -6   9   -3.60   13.90
  -3  -6  -9   11.60   14.80
   3   6   9   11.40   13.20
   3   6   9   17.20   15.40
  -3   6  -9   14.00   16.40
  -4  -6  -9  160.48   28.50
   4  -6   9  206.58   34.00
  -4   6  -9  173.48   33.60
   4   6   9  162.18   28.40
  -3  -7   9   14.70   17.90
   3  -7  -9   -7.00   15.40
   3   7  -9  -14.70   14.50
  -3   7   9    0.40   14.40
   2  -7  -9   46.50   19.80
  -2  -7   9   90.79   25.70
  -2   7   9   21.40   18.00
   2   7  -9   10.40   16.50
  -1  -7   9  174.98   30.90
   1  -7  -9  195.88   33.10
   1  -7  -9  152.98   23.90
  -1   7   9  202.68   30.90
   1   7  -9  203.38   30.70
   0  -7   9   -9.50   15.00
   0  -7  -9    9.60   13.50
   0  -7  -9   -3.30   12.70
   0   7   9  -11.80   10.70
   0   7  -9  -13.10   14.10
   1  -7   9  184.68   30.50
  -1  -7  -9  193.08   28.10
  -1  -7  -9  143.89   27.40
  -1   7  -9  188.98   33.00
   1   7   9  225.38   30.50
   2  -7   9   37.80   17.40
   2  -7   9   89.49   22.90
  -2  -7  -9   44.00   20.40
   2   7   9   83.59   23.00
  -2   7  -9   68.29   22.70
   2   7   9   79.89   21.60
  -3  -7  -9  -18.80   15.30
   3  -7   9    1.20   12.60
  -3   7  -9    3.80   17.00
   3   7   9    6.90   14.80
   1  -8  -9  137.69   30.10
  -1  -8   9  143.39   33.80
   1   8  -9  169.68   33.60
  -1   8   9  165.08   32.80
   0  -8  -9  -14.70   13.60
   0  -8  -9  -13.80   15.10
   0  -8   9   25.00   19.60
   0   8  -9    8.00   17.40
   0   8   9  -17.10   15.20
  -1  -8  -9  144.19   28.60
   1  -8   9  179.68   33.20
  -1  -8  -9  106.19   25.50
  -1   8  -9  179.08   35.60
   1   8   9  162.38   31.10
   6   0 -10  465.95   44.20
  -6   0  10  584.94   45.60
   5   0 -10   -5.10   11.80
  -5   0  10   -2.70   12.50
   4   0 -10  360.46   31.50
   4   0 -10  393.46   32.70
   4   0 -10  432.76   34.30
   4   0 -10  405.16   33.50
   3   0 -10   -4.90    7.60
   3   0 -10   -0.40    7.40
   3   0 -10   -3.20    7.50
   3   0 -10   13.20   10.30
   2   0 -10  745.13   41.20
   2   0 -10  666.73   43.90
   2   0 -10  741.13   41.60
   2   0 -10  742.73   45.40
  -1   0  10   -8.10    6.10
   1   0 -10   -5.20    7.60
  -1   0  10   -1.30    5.20
   1   0 -10    2.40    6.60
   0   0 -10 1284.37   67.69
   0   0 -10 1440.76   62.59
   0   0  10 1427.06   69.29
  -1   0 -10   -0.40    6.60
   1   0  10    1.70    8.10
  -1   0 -10   -2.40    8.00
   2   0  10  672.43   44.50
  -2   0 -10  666.53   37.90
  -2   0 -10  696.03   44.20
  -3   0 -10   -0.70    8.80
  -3   0 -10    5.60    8.80
   3   0  10   -8.10    8.50
  -4   0 -10  406.36   33.10
   4   0  10  344.57   34.20
  -4   0 -10  376.26   31.80
  -5   0 -10   10.00   10.70
  -5   0 -10    0.60   11.30
   5   0  10  -13.40   10.60
  -6   0 -10  478.75   42.80
   6   0  10  468.35   44.40
  -6  -1  10  226.58   30.20
   6  -1 -10  184.08   31.20
  -6   1  10  171.18   27.90
   6   1 -10  190.98   31.30
   5  -1 -10   67.19   18.60
   5  -1 -10   72.29   19.50
   5   1 -10  111.99   23.00
   5   1 -10   79.29   20.00
  -5   1  10  102.99   21.80
  -4  -1  10    5.40    9.00
   4  -1 -10   25.30   12.60
   4  -1 -10    2.20   11.50
   4   1 -10   18.50   11.10
  -4   1  10   25.50   12.10
   4   1 -10   18.60   11.30
   3  -1 -10  973.10   56.09
  -3  -1  10  984.40   51.89
   3  -1 -10  995.90   54.09
   3  -1 -10  989.50   49.90
   3  -1 -10  960.80   52.69
   3   1 -10  772.52   51.79
   3   1 -10  956.50   50.69
   3   1 -10  951.10   53.49
   2  -1 -10   43.40   11.60
   2  -1 -10   29.60   11.80
  -2  -1  10   14.00    8.90
   2  -1 -10   11.50   11.20
  -2   1  10   29.60   10.00
   2   1 -10   44.50   10.80
   2   1 -10   25.80   11.90
   2   1 -10   58.09   13.80
   1  -1 -10   70.99   15.50
  -1  -1  10   95.19   16.90
   1  -1 -10   77.19   12.20
   1  -1 -10  102.79   19.10
   1   1 -10  102.29   16.10
   1   1 -10   92.19   17.70
  -1   1  10   39.70   10.80
   0  -1 -10  688.23   34.80
   0  -1  10  697.93   42.40
   0  -1 -10  642.44   42.30
   0   1  10  701.23   36.20
   0   1 -10  704.73   40.50
   0   1  10  725.33   45.20
   0   1 -10  641.54   42.90
   1  -1  10   61.49   14.30
  -1  -1 -10   65.49   15.10
  -1  -1 -10   63.99   11.40
   1   1  10   55.99   11.30
  -1   1 -10   97.69   16.10
   1   1  10   63.29   15.60
  -1   1 -10   63.79   14.90
   2  -1  10   24.00   11.60
  -2  -1 -10   45.00   10.50
  -2  -1 -10   15.60    9.60
  -2   1 -10   31.40   10.00
   2   1  10    8.10   10.60
  -2   1 -10   21.20   10.40
   3  -1  10  816.92   52.79
  -3  -1 -10  973.80   54.29
  -3   1 -10  830.72   49.50
   3   1  10  843.12   53.89
  -3   1 -10  921.91   52.09
  -4  -1 -10   14.70   10.40
   4  -1  10   26.60   14.80
  -4   1 -10   42.70   16.00
   4   1  10    7.90   11.90
  -4   1 -10   34.20   13.70
  -5  -1 -10   60.59   17.60
   5  -1  10   60.59   19.40
  -5   1 -10   98.49   20.00
  -5   1 -10   76.59   21.10
   5   1  10   63.69   18.90
  -6  -1 -10  194.68   26.60
   6  -1  10  140.69   28.30
  -6   1 -10  209.28   30.80
   6   1  10  140.79   26.50
   6  -2 -10   34.70   19.40
  -6  -2  10   37.40   17.50
   6  -2 -10   47.80   19.30
   6   2 -10   36.50   17.50
   5  -2 -10  266.07   31.70
   5  -2 -10  179.78   27.80
  -5  -2  10  234.78   27.70
   5   2 -10  267.97   29.90
   5   2 -10  123.09   25.40
   4  -2 -10    7.90   12.80
   4  -2 -10   14.50   12.30
  -4  -2  10   64.29   16.90
   4   2 -10   17.10   13.80
   4   2 -10   14.50   10.50
   3  -2 -10  793.72   49.90
  -3  -2  10  695.33   45.90
   3  -2 -10  751.52   44.40
   3   2 -10  790.82   43.60
  -3   2  10  712.43   45.60
   3   2 -10  748.93   48.40
  -2  -2  10   30.80   10.10
   2  -2 -10   65.49   15.10
   2  -2 -10   21.20   11.80
   2   2 -10   48.30   14.00
  -2   2  10   40.50   11.80
   2   2 -10   69.19   17.60
   1  -2 -10  655.73   44.60
  -1  -2  10  629.54   38.00
   1  -2 -10  611.84   41.00
   1   2 -10  663.73   40.80
   1   2 -10  674.53   43.70
  -1   2  10  611.94   38.20
   0  -2 -10   80.29   16.40
   0  -2 -10   64.59   16.00
   0  -2  10   72.19   14.90
   0   2  10   95.29   14.10
   0   2 -10   90.79   17.70
   0   2 -10   64.39   14.60
  -1  -2 -10  620.04   42.10
   1  -2  10  683.03   42.40
  -1   2 -10  638.44   40.60
   1   2  10  622.24   43.90
   1   2  10  639.74   36.50
  -1   2 -10  627.54   42.20
  -2  -2 -10   37.00   13.80
   2  -2  10   29.80   12.30
  -2   2 -10   47.90   13.90
   2   2  10   30.80   12.90
  -2   2 -10   47.50   12.30
   2   2  10   33.40   10.50
  -3  -2 -10  761.82   49.70
   3  -2  10  698.43   49.10
  -3   2 -10  783.32   46.60
   3   2  10  782.42   50.29
  -3   2 -10  735.33   48.10
  -4  -2 -10   14.40   11.70
   4  -2  10    5.30   12.30
  -4   2 -10   26.40   13.80
  -4   2 -10   21.60   10.80
   4   2  10    7.30   11.10
   5  -2  10  202.98   31.10
  -5  -2 -10  190.98   26.30
  -5   2 -10  257.17   32.00
   5   2  10  202.68   28.40
   6  -2  10   24.20   19.50
  -6  -2 -10   42.40   16.90
  -6   2 -10   16.90   19.60
   6   2  10   37.90   19.50
  -5  -3  10  -12.30   12.20
   5  -3 -10    1.70   13.40
   5   3 -10    1.30   14.30
  -5   3  10   17.40   14.10
   5   3 -10  -12.30   12.20
  -4  -3  10   48.60   16.10
   4  -3 -10   39.90   16.30
   4   3 -10   25.20   15.00
  -4   3  10    1.80   10.90
   4   3 -10   37.50   14.10
   3  -3 -10  128.19   20.30
  -3  -3  10  109.59   21.10
   3  -3 -10  117.69   23.50
   3   3 -10  126.09   23.20
  -3   3  10   92.99   19.00
   2  -3 -10  154.88   23.50
  -2  -3  10  145.59   20.30
  -2  -3  10  172.48   22.00
   2  -3 -10  154.38   21.30
  -2   3  10  154.88   21.40
   2   3 -10  109.59   20.00
  -1  -3  10   15.40    8.10
   1  -3 -10   13.10   10.00
   1  -3 -10    9.00   10.70
  -1   3  10   -2.30    6.80
   1   3 -10   10.40   10.10
   1   3 -10   24.00   12.50
   0  -3 -10 1164.88   62.59
   0  -3  10 1228.98   59.89
   0  -3 -10 1082.89   63.89
   0   3 -10 1148.29   64.29
   0   3 -10 1203.48   63.79
   0   3  10 1125.99   58.89
   1  -3  10    8.90   10.10
  -1  -3 -10    2.00   11.00
  -1   3 -10   24.00   11.70
   1   3  10    9.70   11.30
   1   3  10    3.20    7.40
  -1   3 -10    4.50    9.00
  -2  -3 -10  172.28   23.30
   2  -3  10  135.59   21.00
  -2   3 -10  145.89   23.20
  -2   3 -10  141.29   20.20
   2   3  10  112.29   16.90
   2   3  10  139.99   22.60
  -3  -3 -10  113.09   21.10
   3  -3  10   51.69   15.10
  -3   3 -10   77.09   16.80
   3   3  10   93.59   17.00
  -3   3 -10   78.59   20.20
   3   3  10   60.49   17.70
   4  -3  10   46.60   17.20
  -4  -3 -10   33.00   14.40
  -4   3 -10   25.50   12.50
   4   3  10   29.10   15.70
  -4   3 -10   23.30   16.40
   4   3  10    1.80   12.20
  -5  -3 -10   13.70   12.90
   5  -3  10   -0.10   16.60
  -5   3 -10   -9.80   15.20
   5   3  10    2.70   12.10
  -5  -4  10   83.09   22.60
   5  -4 -10   83.79   24.30
   5   4 -10   46.00   20.90
  -5   4  10   61.99   21.60
  -4  -4  10  148.09   26.60
   4  -4 -10  162.78   29.60
   4   4 -10  119.89   25.10
  -4   4  10  112.59   23.30
  -3  -4  10  160.78   26.60
   3  -4 -10  131.99   26.00
  -3   4  10  156.28   26.40
   3   4 -10  133.89   25.80
   2  -4 -10  243.58   29.80
  -2  -4  10  324.47   31.60
   2  -4 -10  414.36   31.30
  -2   4  10  271.87   29.70
   2   4 -10  249.78   30.00
   1  -4 -10   62.79   17.60
   1  -4 -10   65.09   16.70
  -1  -4  10   61.09   16.90
  -1  -4  10   52.49   13.00
  -1   4  10   56.99   14.70
   1   4 -10  110.99   21.70
   0  -4 -10  363.96   33.50
   0  -4 -10  388.66   33.50
   0  -4  10  389.76   30.30
   0  -4  10  340.47   31.80
   0   4  10  277.57   28.50
   0   4 -10  369.56   34.30
  -1  -4 -10   95.69   19.90
   1  -4  10   87.79   18.40
  -1  -4 -10  105.09   20.70
  -1   4 -10   65.39   17.20
  -1   4 -10   53.59   16.30
   1   4  10   44.30   13.60
   2  -4  10  333.27   32.60
  -2  -4 -10  351.66   33.70
   2   4  10  375.46   31.60
   2   4  10  392.66   35.50
  -2   4 -10  344.97   32.70
  -2   4 -10  254.07   31.00
   3  -4  10  116.89   24.30
  -3  -4 -10  140.29   24.50
  -3   4 -10  140.79   21.80
   3   4  10  117.29   21.10
  -3   4 -10  148.59   26.90
   3   4  10  167.18   24.60
   4  -4  10  207.38   31.20
  -4  -4 -10  156.88   26.60
   4   4  10  215.28   25.90
  -4   4 -10  182.08   33.10
  -4   4 -10  167.88   23.50
   4   4  10  166.88   26.20
  -5  -4 -10   67.39   20.20
   5  -4  10   57.99   21.90
  -5   4 -10   60.79   25.80
   5   4  10   40.30   17.20
   5   4  10   41.00   23.70
   4  -5 -10   85.19   26.60
  -4  -5  10   32.20   17.00
   4   5 -10   40.20   19.70
  -4   5  10   37.90   18.20
   3  -5 -10  412.86   41.20
  -3  -5  10  368.66   37.60
   3   5 -10  343.17   38.60
  -3   5  10  359.66   38.10
  -2  -5  10   44.60   15.30
   2  -5 -10   77.09   20.80
   2  -5 -10   29.20   14.60
   2   5 -10    2.60   14.40
  -2   5  10   24.70   13.80
   1  -5 -10   67.29   17.30
   1  -5 -10   70.59   20.00
  -1  -5  10   70.79   19.80
   1   5 -10   53.09   19.40
  -1   5  10   70.49   19.50
   0  -5  10    4.00   11.80
   0  -5  10    1.90   11.20
   0  -5 -10    0.20   10.70
   0  -5 -10   -6.60   10.70
   0   5 -10   -0.80   12.00
   0   5  10   10.60   10.30
   1  -5  10   95.49   19.40
  -1  -5 -10   48.40   17.00
  -1  -5 -10   68.29   19.10
   1  -5  10   47.80   17.60
   1   5  10   65.39   17.00
  -1   5 -10   91.49   22.30
   2  -5  10   76.39   19.50
  -2  -5 -10   39.90   16.20
   2  -5  10   56.09   18.30
   2   5  10   19.10   12.70
  -2   5 -10   18.50   14.50
   2   5  10   50.89   16.70
  -3  -5 -10  316.67   34.20
   3  -5  10  431.86   40.20
   3  -5  10  385.16   35.20
  -3   5 -10  362.56   39.40
   3   5  10  351.26   34.30
   3   5  10  394.96   36.90
   4  -5  10   58.29   20.40
  -4  -5 -10   46.70   16.40
  -4   5 -10   14.80   19.90
   4   5  10   46.30   18.90
   4   5  10   34.60   15.80
  -4  -6  10   11.90   16.40
   4  -6 -10   41.60   24.50
  -4   6  10   19.40   18.80
   4   6 -10   31.70   18.60
  -3  -6  10   21.70   16.10
   3  -6 -10   28.70   18.50
   3   6 -10   47.10   21.20
  -3   6  10   49.70   19.50
   2  -6 -10  101.59   24.10
  -2  -6  10   80.89   21.90
   2   6 -10  102.69   26.50
  -2   6  10  145.49   26.60
   1  -6 -10  207.18   29.60
   1  -6 -10  223.88   27.40
  -1  -6  10  174.08   30.50
   1   6 -10  155.98   30.80
  -1   6  10  147.49   28.40
   0  -6 -10  126.59   24.20
   0  -6 -10   59.79   20.10
   0  -6  10  121.39   25.30
   0   6 -10   73.29   24.10
   0   6  10   89.29   21.40
  -1  -6 -10  204.48   28.60
  -1  -6 -10  208.78   30.00
   1  -6  10  209.48   28.00
   1  -6  10  222.28   31.30
  -1   6 -10  243.18   34.80
   1   6  10  183.48   27.90
   2  -6  10   70.89   21.20
   2  -6  10  120.89   25.30
  -2  -6 -10   83.69   22.30
   2   6  10   92.79   22.40
  -2   6 -10   91.49   25.10
   2   6  10  109.49   23.10
  -3  -6 -10   31.30   18.30
   3  -6  10   28.60   17.10
   3  -6  10   37.50   17.10
   3   6  10   18.20   13.20
   3   6  10   30.40   17.40
  -3   6 -10    3.70   20.00
   4  -6  10   19.50   17.80
  -4  -6 -10   64.29   19.90
   4   6  10   23.30   16.10
  -4   6 -10   14.20   21.10
  -2  -7  10   49.60   24.50
   2  -7 -10   31.60   19.00
  -2   7  10   72.49   23.90
   2   7 -10   32.80   19.50
   1  -7 -10   41.30   19.70
   1  -7 -10   44.50   19.10
  -1  -7  10   57.79   23.60
  -1   7  10   40.50   20.70
   1   7 -10   51.19   20.00
   0  -7  10  135.89   29.30
   0  -7 -10  146.59   27.70
   0  -7 -10   99.39   25.50
   0   7  10  141.19   29.60
   0   7 -10  184.88   34.40
  -1  -7 -10    4.40   16.70
  -1  -7 -10   47.30   19.50
   1  -7  10   48.30   20.40
  -1   7 -10   38.80   21.00
   1   7  10   61.89   21.20
  -2  -7 -10   42.30   21.60
   2  -7  10   84.29   22.70
   2  -7  10   59.79   22.50
   2   7  10   22.10   18.10
  -2   7 -10   42.90   20.60
   2   7  10   43.60   20.30
   6   0 -11   10.90   16.70
  -6   0  11   13.70   16.50
   5   0 -11   -0.70   12.00
  -5   0  11  -12.50   10.20
   4   0 -11  702.53   47.70
   4   0 -11  726.33   47.90
   4   0 -11  909.51   52.59
   4   0 -11  748.53   48.40
   3   0 -11   17.50   10.40
   3   0 -11    0.80    9.10
   3   0 -11    4.90    8.90
   3   0 -11    1.20    9.80
   2   0 -11  690.43   40.00
  -2   0  11  574.74   36.40
   2   0 -11  652.93   44.50
  -2   0  11  669.93   44.10
  -1   0  11   -3.80    7.30
   1   0 -11   -0.60    7.40
   1   0 -11   -4.40    7.90
   0   0  11    6.20    9.30
   0   0 -11   -6.20    7.00
   0   0 -11  -17.00    5.30
  -1   0 -11   -6.50    7.00
   1   0  11   -1.90    8.20
  -1   0 -11   -6.40    6.80
  -2   0 -11  574.64   36.10
  -2   0 -11  629.64   43.60
   2   0  11  602.74   44.10
  -3   0 -11    3.50   10.50
   3   0  11   -6.60    9.00
  -3   0 -11    0.30    9.00
  -4   0 -11  778.42   48.00
   4   0  11  664.33   51.59
  -4   0 -11  860.11   52.89
   5   0  11  -15.00   11.20
  -5   0 -11   -6.30   13.50
  -5   0 -11   16.70   13.70
   6   0  11    7.70   16.30
  -6  -1  11   13.50   16.60
  -6   1  11   21.70   16.90
   5  -1 -11  122.19   24.50
   5  -1 -11  143.09   27.20
  -5   1  11  100.59   22.10
   5   1 -11  175.58   25.90
   5   1 -11  154.88   27.00
  -4  -1  11    4.20    9.70
   4  -1 -11    0.40   12.40
   4  -1 -11    7.00   12.40
   4   1 -11    9.10   11.50
  -4   1  11   14.40   11.50
   4   1 -11   19.40   13.20
   3  -1 -11   24.80   11.40
   3  -1 -11   17.40   11.60
   3  -1 -11   35.10   14.70
  -3  -1  11   13.60   11.10
  -3   1  11   22.60   11.00
   3   1 -11   14.80   12.10
   3   1 -11    3.90   12.40
   3   1 -11   29.10   11.90
  -2  -1  11   48.10   13.60
   2  -1 -11   41.60   13.30
   2  -1 -11   61.79   17.50
   2   1 -11   48.60   13.80
  -2   1  11   41.80   11.70
   2   1 -11   75.69   18.50
  -1  -1  11  128.99   19.30
   1  -1 -11  145.89   21.20
  -1   1  11  161.58   18.40
   1   1 -11  155.18   22.30
  -1   1  11  146.19   21.80
   1   1 -11  142.39   18.80
   0  -1  11   -8.90    7.40
   0  -1 -11  -11.00    8.60
   0   1  11    3.50    9.30
   0   1 -11   -4.70    7.50
   0   1 -11   -4.40    8.20
  -1  -1 -11   83.79   18.00
   1  -1  11  146.79   19.90
  -1   1 -11  145.69   18.30
  -1   1 -11  102.49   19.30
   1   1  11  105.49   20.20
  -2  -1 -11   60.29   16.20
   2  -1  11   58.49   16.10
  -2   1 -11   63.09   15.10
   2   1  11   31.60   14.70
  -2   1 -11   71.49   17.20
   3  -1  11   15.50   10.70
  -3  -1 -11   10.70   11.40
  -3   1 -11   28.60   13.10
   3   1  11   37.90   16.10
  -3   1 -11   29.40   12.70
   4  -1  11   29.70   16.50
  -4  -1 -11    9.10   11.60
  -4   1 -11   12.60   12.10
   4   1  11   12.90   13.80
  -4   1 -11   -1.10   10.80
  -5  -1 -11  109.59   23.90
   5  -1  11   77.99   22.40
  -5   1 -11   75.99   19.20
  -5   1 -11  108.79   24.30
   5   1  11  113.29   25.00
   5  -2 -11  112.19   25.70
  -5  -2  11  218.78   28.90
   5  -2 -11  228.08   31.30
   5   2 -11  237.38   31.20
   5   2 -11  171.88   28.30
  -4  -2  11   72.39   18.00
   4  -2 -11   80.69   21.30
  -4   2  11   57.69   16.60
   4   2 -11   91.39   20.80
   3  -2 -11   -9.20   10.70
  -3  -2  11   -1.40    9.10
   3  -2 -11   -5.20    9.20
  -3   2  11   -6.90    8.40
   3   2 -11    1.90   10.50
  -2  -2  11   95.89   17.50
   2  -2 -11   51.29   16.60
   2  -2 -11   72.29   17.20
  -2   2  11   58.19   15.30
   2   2 -11   58.99   18.10
   2   2 -11   66.79   16.30
   1  -2 -11  698.03   45.90
   1  -2 -11  650.43   47.20
  -1  -2  11  675.03   41.60
   1   2 -11  669.93   46.20
  -1   2  11  725.53   41.70
   1   2 -11  673.83   43.20
   0  -2 -11   -6.90    8.20
   0  -2  11   -7.00    6.80
   0   2 -11    7.30    9.70
   0   2  11   -5.80    7.90
   0   2 -11    3.60    8.80
   0   2  11    4.40    7.70
   1  -2  11  594.04   42.00
  -1  -2 -11  720.73   46.90
   1   2  11  638.04   46.00
   1   2  11  666.93   41.60
  -1   2 -11  635.14   44.50
  -1   2 -11  642.84   42.20
   2  -2  11   72.99   17.30
  -2  -2 -11   84.89   18.70
   2   2  11   49.00   17.20
  -2   2 -11   64.89   17.40
  -2   2 -11   78.89   17.90
  -3  -2 -11   -5.30    9.60
   3  -2  11   -6.60    9.00
  -3   2 -11   -7.10    9.50
   3   2  11    2.60   11.30
  -3   2 -11   13.50   10.00
  -4  -2 -11   75.59   19.10
   4  -2  11   79.69   20.80
  -4   2 -11   71.69   17.50
   4   2  11   82.09   20.40
  -4   2 -11   55.69   18.50
   5  -2  11  152.38   30.30
  -5  -2 -11  220.08   29.50
   5   2  11  191.68   28.90
  -5   2 -11  162.28   29.60
  -5  -3  11  -13.90   12.30
   5  -3 -11   35.20   18.10
  -5   3  11    3.50   11.20
   5   3 -11   27.60   17.80
  -4  -3  11   58.59   17.00
   4  -3 -11   60.19   21.20
   4   3 -11   75.69   22.00
  -4   3  11   61.89   19.00
   3  -3 -11    9.20   13.20
   3  -3 -11   12.90   13.30
  -3  -3  11    0.90    9.90
  -3   3  11    5.20   10.50
   3   3 -11    5.10   11.40
   2  -3 -11  204.88   28.00
   2  -3 -11  156.88   22.50
  -2  -3  11  147.99   21.80
  -2   3  11  166.18   25.90
   2   3 -11  175.78   24.40
   1  -3 -11   36.80   15.80
   1  -3 -11   13.70   11.70
  -1  -3  11   21.60    9.60
  -1   3  11   17.90   10.60
   1   3 -11   36.40   15.70
   1   3 -11   40.90   14.60
   0  -3 -11   -5.40    8.80
   0  -3  11   -2.80    8.20
   0  -3 -11    4.10   10.50
   0   3  11    3.80    8.10
   0   3 -11    4.10    9.10
   0   3 -11   -5.60   11.00
  -1  -3 -11   23.20   13.70
   1  -3  11   31.80   12.90
   1   3  11   13.50    9.80
   1   3  11   13.90   11.90
  -1   3 -11   59.29   16.10
  -1   3 -11   15.70   11.70
  -2  -3 -11  157.28   24.40
   2  -3  11  140.39   22.50
   2   3  11  169.98   21.00
  -2   3 -11  149.59   26.10
   2   3  11  144.09   25.60
  -2   3 -11  201.28   24.50
   3  -3  11   13.60   12.90
  -3  -3 -11    5.40   11.60
  -3   3 -11   10.80   13.90
  -3   3 -11   12.90   10.60
   3   3  11   12.80   14.70
   4  -3  11   32.30   16.50
  -4  -3 -11   77.29   20.20
  -4   3 -11   28.20   18.20
  -4   3 -11   47.50   16.00
   4   3  11   65.29   19.90
  -5  -3 -11    1.80   14.00
   5  -3  11   21.30   18.80
   5   3  11   28.20   16.20
  -5   3 -11    1.50   17.10
  -5  -4  11   44.00   20.10
   5  -4 -11  100.99   26.80
   5   4 -11   51.39   22.40
  -5   4  11   50.19   19.80
  -4  -4  11  176.48   27.70
   4  -4 -11  240.08   34.10
  -4   4  11  135.19   26.50
   4   4 -11  179.88   31.10
   3  -4 -11    7.80   14.30
  -3  -4  11   14.90   14.50
  -3   4  11    9.80   11.80
   3   4 -11    2.70   14.80
   2  -4 -11  161.98   26.20
  -2  -4  11  150.78   22.60
   2  -4 -11  185.58   24.40
   2   4 -11  208.18   28.10
  -2   4  11  149.09   23.00
  -1  -4  11  250.37   36.20
   1  -4 -11  199.58   27.60
  -1  -4  11  230.38   27.40
   1  -4 -11  236.18   26.60
   1   4 -11  226.88   28.00
  -1   4  11  205.48   25.10
   0  -4  11  -13.40    7.50
   0  -4 -11   -4.80   10.60
   0  -4 -11   -8.60   11.40
   0   4 -11  -11.70    9.50
   0   4  11    2.90    8.80
   0   4 -11    3.60   13.00
   1  -4  11  291.07   29.20
  -1  -4 -11  296.37   31.40
   1   4  11  228.88   26.00
  -1   4 -11  228.08   28.70
  -1   4 -11  235.18   29.30
   1   4  11  212.18   29.10
   2  -4  11  174.48   25.60
  -2  -4 -11  187.58   27.90
   2   4  11  178.38   23.60
   2   4  11  184.28   26.80
  -2   4 -11  175.68   29.50
  -2   4 -11  189.18   26.10
   3  -4  11    3.50   12.50
  -3  -4 -11   -4.80   10.60
   3   4  11  -11.90    9.00
  -3   4 -11    3.50   11.50
   3   4  11  -10.30   11.50
  -3   4 -11   -3.90   11.80
   4  -4  11  196.88   31.20
  -4  -4 -11  293.57   32.90
   4   4  11  197.38   29.00
  -4   4 -11  194.98   34.20
  -4   4 -11  175.88   26.50
  -5  -4 -11   68.39   20.10
   5  -4  11   45.40   20.90
  -5   4 -11   70.09   27.80
   5   4  11   36.60   19.50
  -4  -5  11   50.79   19.70
   4  -5 -11   90.49   28.40
  -4   5  11  125.19   27.80
   4   5 -11   73.99   25.50
   3  -5 -11   26.20   18.60
  -3  -5  11    7.30   13.80
   3   5 -11   24.50   18.10
  -3   5  11   -7.40   13.30
  -2  -5  11   53.59   18.50
   2  -5 -11   41.10   16.20
   2  -5 -11   40.60   19.30
   2   5 -11   79.59   24.10
  -2   5  11   25.90   14.80
   1  -5 -11   71.09   20.50
  -1  -5  11   29.10   16.30
   1  -5 -11   51.99   17.50
   1   5 -11   41.70   18.90
  -1   5  11   53.59   17.30
   0  -5  11   -4.10   11.60
   0  -5  11    5.10   12.40
   0  -5 -11    7.00   12.80
   0  -5 -11    7.10   13.30
   0   5 -11  -15.10   13.80
   0   5  11    0.00   10.50
  -1  -5 -11   26.40   16.80
   1  -5  11    7.40   13.90
   1  -5  11   44.30   16.30
  -1  -5 -11   77.19   20.80
   1   5  11   43.10   15.80
  -1   5 -11   36.90   18.60
  -2  -5 -11   47.30   18.90
   2  -5  11   65.49   19.50
   2  -5  11   52.29   19.30
   2   5  11   27.70   16.10
  -2   5 -11   29.40   18.30
   2   5  11   30.10   15.40
   3  -5  11    3.80   13.80
   3  -5  11    7.50   14.50
  -3  -5 -11   15.20   14.90
   3   5  11    7.40   12.50
  -3   5 -11   12.00   18.30
   3   5  11   15.90   14.30
   4  -5  11   82.79   23.90
  -4  -5 -11  121.89   26.30
   4   5  11   53.49   20.30
  -4   5 -11   80.99   26.80
   4   5  11  100.29   22.80
   3  -6 -11   13.90   18.90
  -3  -6  11  -12.80   13.60
   3   6 -11    9.50   20.40
  -3   6  11   -8.20   14.40
  -2  -6  11  143.59   28.10
   2  -6 -11   78.59   23.30
  -2   6  11  200.98   33.80
   2   6 -11   87.09   26.00
   1  -6 -11   66.39   20.40
   1  -6 -11   53.49   20.50
  -1  -6  11   46.40   20.70
   1   6 -11   48.40   20.80
  -1   6  11   41.30   18.60
   0  -6 -11    4.90   13.70
   0  -6  11   -4.00   14.60
   0  -6 -11   14.60   15.90
   0   6  11   -2.20   12.30
   0   6 -11   -7.90   17.20
  -1  -6 -11   16.40   16.00
  -1  -6 -11   38.60   19.50
   1  -6  11   29.10   16.60
   1  -6  11   50.09   20.00
  -1   6 -11   47.30   22.90
   1   6  11   49.90   18.60
  -2  -6 -11  137.69   28.40
   2  -6  11  132.99   26.40
   2  -6  11  127.99   26.30
   2   6  11  159.58   28.40
  -2   6 -11  140.19   31.70
   2   6  11  221.88   30.30
  -3  -6 -11    4.40   16.80
   3  -6  11   23.40   17.30
   3  -6  11   15.30   15.90
   3   6  11    6.50   15.00
   3   6  11    2.60   15.30
  -3   6 -11   -2.30   19.10
   1  -7 -11  127.19   25.70
  -1  -7  11  140.79   30.70
   1  -7 -11   86.29   27.00
  -1   7  11   70.89   24.10
   1   7 -11  109.89   29.00
   0  -7  11   -3.00   17.50
   0  -7 -11    6.20   15.10
   0  -7 -11    1.90   15.40
   0   7  11   13.90   14.70
   0   7 -11   17.40   17.20
  -1  -7 -11   99.99   26.80
  -1  -7 -11   90.99   24.70
   1  -7  11  108.89   28.30
  -1   7 -11   82.39   28.60
   1   7  11   74.49   22.90
   5   0 -12   -8.10   12.50
  -5   0  12   -4.20   13.60
   4   0 -12  163.28   26.00
   4   0 -12  168.58   26.50
   4   0 -12  189.88   26.80
   4   0 -12  181.78   25.30
   3   0 -12   -6.20    8.40
   3   0 -12    9.20   12.60
   2   0 -12  354.46   28.90
  -2   0  12  370.46   32.70
   2   0 -12  304.97   31.60
  -1   0  12    0.20    9.10
   1   0 -12   -2.10    8.30
   1   0 -12   -8.40    7.70
   0   0  12   22.80   13.70
   0   0 -12   15.30   13.10
   0   0 -12   42.10   11.90
   1   0  12   -0.20    9.70
  -1   0 -12  -13.00    8.20
   2   0  12  327.57   33.40
  -2   0 -12  335.97   32.80
   3   0  12    3.20   11.40
  -3   0 -12   -8.30   10.50
   4   0  12  178.98   28.70
  -4   0 -12  179.18   26.80
   5   0  12   -4.90   15.00
  -5   0 -12  -11.30   13.00
   5  -1 -12  165.78   29.30
   5   1 -12  114.99   24.70
   5   1 -12  105.09   22.60
   4  -1 -12   55.89   18.80
  -4  -1  12   52.59   17.00
  -4   1  12   34.10   13.90
   4   1 -12   44.80   15.30
   3  -1 -12  403.26   36.40
  -3  -1  12  334.27   31.40
   3  -1 -12  361.66   32.80
   3   1 -12  365.56   32.80
   3   1 -12  348.97   35.20
  -3   1  12  340.17   30.00
   2  -1 -12  110.79   22.90
  -2  -1  12   84.19   17.60
   2  -1 -12  122.19   22.40
   2   1 -12   66.89   16.50
  -2   1  12   82.79   17.00
   2   1 -12   96.69   21.40
  -1  -1  12   76.39   18.20
   1  -1 -12  127.09   23.50
   1   1 -12   98.29   18.80
   1   1 -12  113.49   21.70
  -1   1  12  108.89   21.20
   0  -1  12  184.28   22.60
   0  -1 -12  149.79   24.90
   0   1 -12  108.19   21.70
   0   1  12   97.69   21.50
   0   1 -12  130.09   19.50
  -1  -1 -12   93.29   21.90
   1  -1  12   87.49   20.00
   1   1  12  120.19   23.20
  -1   1 -12   99.09   19.70
  -1   1 -12   91.69   17.60
   2  -1  12  107.29   21.00
  -2  -1 -12   99.99   21.10
   2   1  12   87.89   21.00
  -2   1 -12   74.39   18.80
  -2   1 -12  105.49   19.40
  -3  -1 -12  347.77   34.60
   3  -1  12  364.96   35.30
  -3   1 -12  322.87   32.60
   3   1  12  368.56   37.30
  -3   1 -12  338.97   30.90
  -4  -1 -12   48.60   17.20
   4  -1  12   34.20   17.70
  -4   1 -12   50.09   16.70
  -4   1 -12   17.10   14.20
   4   1  12    9.10   14.20
   5  -1  12  116.49   27.10
  -5  -1 -12  125.99   25.30
  -5   1 -12  141.39   25.10
   5   1  12  124.79   27.80
  -5   1 -12  133.29   27.40
   5  -2 -12  132.89   29.50
  -5   2  12  117.89   25.80
   5   2 -12  116.29   25.40
   4  -2 -12    9.80   15.20
  -4  -2  12   14.20   13.00
  -4   2  12    4.90   10.40
   4   2 -12   13.70   13.40
   3  -2 -12   50.89   17.60
   3  -2 -12    8.90   13.70
  -3  -2  12   22.40   11.90
  -3   2  12    7.80    9.80
   3   2 -12    6.00   12.20
   2  -2 -12    4.60   12.20
   2  -2 -12   28.40   13.50
  -2  -2  12   13.40   11.30
   2   2 -12   13.00   14.20
   2   2 -12   25.40   12.90
  -2   2  12   30.10   12.50
   1  -2 -12  241.58   30.50
  -1  -2  12  276.87   26.50
   1  -2 -12  216.88   27.10
  -1   2  12  220.58   23.10
   1   2 -12  253.17   26.80
   1   2 -12  244.38   28.80
   0  -2  12  128.49   20.10
   0  -2 -12  136.09   25.00
   0   2 -12  131.29   23.90
   0   2 -12  122.89   21.20
   0   2  12  105.79   21.20
   1  -2  12  246.88   27.40
  -1  -2 -12  254.67   30.00
   1   2  12  204.38   29.20
  -1   2 -12  258.97   27.40
  -1   2 -12  225.38   27.80
  -2  -2 -12   18.00   13.20
   2  -2  12   19.50   13.10
   2   2  12   33.80   16.00
  -2   2 -12   12.10   11.60
  -2   2 -12   22.40   14.00
   3  -2  12   26.00   14.20
  -3  -2 -12   34.20   15.00
   3   2  12   19.70   15.70
  -3   2 -12   28.70   13.20
  -3   2 -12   26.80   13.70
  -4  -2 -12   27.10   15.90
   4  -2  12   13.30   12.90
   4   2  12   13.00   15.70
  -4   2 -12    4.80   12.40
  -4   2 -12    4.00   14.00
   5  -2  12   72.29   25.30
  -5  -2 -12  185.98   28.20
  -5   2 -12   93.39   25.60
   5   2  12  115.19   26.10
  -4  -3  12   20.60   15.10
   4  -3 -12   12.20   15.50
   4   3 -12   19.50   17.40
  -4   3  12   30.60   14.60
  -3  -3  12    1.10   11.40
   3  -3 -12   10.60   14.40
  -3   3  12    3.10   10.70
   3   3 -12   18.50   14.40
  -2  -3  12   92.39   20.00
   2  -3 -12   70.39   21.70
   2  -3 -12  149.88   23.30
   2   3 -12  119.89   23.50
  -2   3  12   98.79   20.10
   1  -3 -12    7.10   13.70
   1  -3 -12   82.29   20.30
  -1  -3  12   71.99   17.00
   1   3 -12   59.39   19.50
   1   3 -12   19.10   12.70
  -1   3  12   27.00   12.40
   0  -3 -12  622.34   46.70
   0  -3  12  627.54   42.70
   0   3 -12  582.94   45.20
   0   3  12  616.54   49.30
   0   3 -12  623.64   47.20
   0   3  12  720.43   43.80
  -1  -3 -12   19.30   13.40
   1  -3  12   30.20   14.00
   1   3  12   24.80   16.10
  -1   3 -12   54.69   17.90
  -1   3 -12   65.09   18.30
   2  -3  12   99.09   20.90
  -2  -3 -12  115.59   24.10
   2   3  12   90.89   22.30
  -2   3 -12  109.89   21.80
  -2   3 -12   71.59   18.90
  -3  -3 -12    4.60   12.50
   3  -3  12    0.80   11.40
   3   3  12    3.20   13.20
  -3   3 -12   14.20   11.70
  -3   3 -12    6.70   12.60
   4  -3  12   32.50   18.20
  -4  -3 -12   10.50   13.80
  -4   3 -12   16.10   16.30
  -4   3 -12   22.30   12.70
   4   3  12   40.40   19.00
  -4  -4  12   72.49   22.60
   4  -4 -12   47.70   21.40
   4   4 -12   52.99   21.80
  -4   4  12   66.79   21.00
  -3  -4  12  186.48   28.80
   3  -4 -12  244.28   34.10
  -3   4  12  202.88   32.20
   3   4 -12  241.38   33.40
  -2  -4  12   72.19   19.90
   2  -4 -12   88.69   23.90
   2  -4 -12  149.99   25.60
   2   4 -12  133.39   25.00
  -2   4  12   77.19   19.70
   1  -4 -12   36.80   16.90
  -1  -4  12   45.90   16.80
   1  -4 -12   40.90   17.10
  -1   4  12   44.70   15.80
   1   4 -12   45.60   17.20
   0  -4 -12  149.39   27.40
   0  -4 -12  191.88   27.20
   0  -4  12  108.99   21.10
   0   4 -12   99.49   24.10
   0   4  12  144.59   24.10
   0   4 -12  146.19   27.00
   1  -4  12   23.90   14.30
  -1  -4 -12   53.89   20.40
  -1   4 -12   40.30   17.60
   1   4  12   24.20   15.80
   1   4  12   37.30   15.00
  -1   4 -12    9.70   15.20
  -2  -4 -12   58.99   20.00
   2  -4  12   88.99   20.00
  -2   4 -12   86.59   21.80
   2   4  12  124.19   31.80
   2   4  12   50.19   19.50
  -2   4 -12  102.49   24.80
   3  -4  12  253.97   32.60
  -3  -4 -12  218.68   31.20
   3   4  12  238.58   33.20
  -3   4 -12  272.27   31.20
  -3   4 -12  206.28   33.30
  -4  -4 -12  120.49   26.30
   4  -4  12   67.29   22.70
   4   4  12  101.39   24.10
  -4   4 -12   48.70   18.50
  -4   4 -12   40.60   22.00
   3  -5 -12  259.37   37.70
  -3  -5  12  235.48   33.70
   3   5 -12  329.87   39.90
  -3   5  12  267.87   34.50
  -2  -5  12    3.50   13.80
   2  -5 -12   21.10   18.60
   2  -5 -12   26.90   19.30
   2   5 -12   53.89   22.80
  -2   5  12   26.80   16.00
   1  -5 -12   12.90   15.30
   1  -5 -12   50.79   17.80
  -1  -5  12   36.10   17.60
   1   5 -12   25.80   17.80
  -1   5  12   36.20   16.40
   0  -5 -12  103.79   24.50
   0  -5 -12  101.59   24.50
   0  -5  12  112.19   24.40
   0   5 -12   72.19   23.70
   0   5  12   67.59   19.10
   1  -5  12   38.50   18.90
   1  -5  12   28.20   16.90
  -1  -5 -12   49.60   20.30
   1   5  12   33.60   14.70
   1   5  12   34.50   17.90
  -1   5 -12   46.00   21.70
  -2  -5 -12   44.00   20.40
   2  -5  12   16.80   14.00
   2  -5  12   20.30   15.80
   2   5  12   22.20   16.10
  -2   5 -12   27.20   18.00
   2   5  12    4.30   13.30
   3  -5  12  338.27   34.90
  -3  -5 -12  257.97   35.30
   3  -5  12  355.96   39.70
   3   5  12  344.67   51.89
   3   5  12  328.57   37.80
  -3   5 -12  286.27   40.10
   2  -6 -12    2.80   16.70
  -2  -6  12   47.60   19.40
   2   6 -12    3.20   18.50
  -2   6  12   34.50   19.20
   1  -6 -12   30.00   18.30
   1  -6 -12   -0.50   17.00
  -1  -6  12   27.90   19.90
  -1   6  12   27.70   17.40
   1   6 -12   12.00   19.90
   0  -6 -12  205.38   33.30
   0  -6 -12  255.77   33.70
   0  -6  12  259.17   36.30
   0   6 -12  249.48   42.20
   0   6  12  210.18   30.90
   1  -6  12   22.90   19.00
  -1  -6 -12   26.50   20.20
   1   6  12   48.70   19.10
  -1   6 -12   53.99   25.10
   1   6  12   21.40   19.50
  -2  -6 -12   27.30   20.60
   2  -6  12   55.79   21.60
   2  -6  12   67.29   22.30
   2   6  12   14.70   18.30
   2   6  12   12.50   16.20
  -2   6 -12   66.59   25.20
   4   0 -13  517.75   44.70
   3   0 -13   14.10   12.70
  -3   0  13  -17.70   10.00
   2   0 -13  525.75   43.70
  -2   0  13  578.14   44.10
   1   0 -13  -19.20    9.30
  -1   0  13   11.00   12.20
   0   0 -13   -0.50   11.40
   0   0  13    0.30   10.80
  -1   0 -13   -3.80    9.50
   1   0  13   -0.80    9.60
   2   0  13  572.84   47.10
  -2   0 -13  599.64   46.90
  -3   0 -13  -11.10   11.50
   3   0  13   -5.50   12.30
   4   0  13  447.36   45.80
  -4   0 -13  526.15   44.50
   4  -1 -13   78.69   23.60
  -4  -1  13   74.69   20.20
  -4   1  13   41.70   15.60
   4   1 -13   51.69   18.00
   3  -1 -13   25.60   14.60
  -3  -1  13   14.10   13.80
   3  -1 -13    6.20   14.00
   3   1 -13   37.60   16.20
   3   1 -13   28.60   15.90
   2  -1 -13  171.88   27.80
  -2  -1  13  161.78   23.30
   2   1 -13  164.88   22.90
   2   1 -13  161.28   27.50
  -2   1  13  129.99   24.90
   1  -1 -13  246.68   30.50
  -1  -1  13  279.47   30.20
   1   1 -13  305.27   32.90
   1   1 -13  314.57   28.70
  -1   1  13  199.18   27.70
   0  -1 -13    4.40   12.20
   0  -1  13   -1.50   11.10
   0   1 -13    1.60    8.60
   0   1  13    4.60   12.00
   0   1 -13  -17.20    8.30
   1  -1  13  257.67   29.80
  -1  -1 -13  220.68   31.50
   1   1  13  313.87   34.00
  -1   1 -13  301.37   27.80
  -1   1 -13  228.08   28.50
   2  -1  13  141.49   26.20
  -2  -1 -13   93.49   23.10
  -2   1 -13  133.49   24.90
  -2   1 -13  179.88   23.10
   2   1  13  130.39   26.10
  -3  -1 -13   11.30   15.50
   3  -1  13    5.40   11.70
   3   1  13   -7.90   12.80
  -3   1 -13   -2.20   12.80
  -3   1 -13   12.50   14.90
   4  -1  13   32.30   18.30
  -4  -1 -13   21.20   16.20
   4   1  13   53.29   19.90
  -4   1 -13   46.50   19.90
  -4  -2  13   11.10   14.40
   4  -2 -13   49.00   20.50
   4   2 -13    9.50   16.00
  -4   2  13   21.80   14.70
   3  -2 -13  -10.50   12.30
  -3  -2  13   -2.30   11.10
   3  -2 -13  -12.70   11.60
   3   2 -13    5.20   11.90
  -3   2  13    0.30   11.20
  -2  -2  13   35.00   13.90
   2  -2 -13   38.40   16.90
   2  -2 -13   50.39   18.00
   2   2 -13   46.60   16.10
   2   2 -13   22.00   16.40
  -1  -2  13  485.65   38.20
   1  -2 -13  553.54   44.00
   1   2 -13  589.34   42.60
  -1   2  13  524.85   44.90
   1   2 -13  459.65   41.90
   0  -2  13    0.80   10.50
   0  -2 -13   24.30   15.60
   0   2 -13   -3.30   10.80
   0   2 -13   13.60   13.20
   0   2  13   -1.90   10.70
  -1  -2 -13  506.85   44.90
   1  -2  13  496.15   40.70
   1   2  13  460.75   43.50
  -1   2 -13  533.65   40.70
  -1   2 -13  479.15   41.60
  -2  -2 -13   31.10   16.40
   2  -2  13   35.10   15.10
  -2   2 -13   32.00   16.20
  -2   2 -13    8.10   11.80
   2   2  13   27.60   17.60
  -3  -2 -13   10.80   15.20
   3  -2  13   16.60   13.50
   3   2  13    1.00   15.70
  -3   2 -13    8.50   13.10
  -3   2 -13    4.10   14.30
  -4  -2 -13    5.70   14.40
   4  -2  13   -0.60   12.30
   4   2  13   20.60   19.20
  -4   2 -13   12.80   15.00
  -4   2 -13    8.10   15.60
   4  -3 -13  112.09   27.60
  -4  -3  13  138.79   28.50
   4   3 -13  128.99   27.30
  -4   3  13  105.69   24.40
   3  -3 -13    3.10   16.60
  -3  -3  13   10.70   12.50
   3   3 -13  -11.70   13.60
  -3   3  13   -4.20   10.80
   2  -3 -13  196.38   30.50
  -2  -3  13  207.18   28.30
   2  -3 -13  248.68   30.90
   2   3 -13  237.88   30.40
  -2   3  13  255.37   28.50
  -1  -3  13   11.50   11.40
   1  -3 -13    9.60   16.50
   1  -3 -13   19.00   15.30
   1   3 -13   18.70   16.70
   1   3 -13   25.80   15.20
  -1   3  13    3.20   11.20
   0  -3 -13   10.00   13.60
   0  -3  13   -4.30    9.50
   0   3 -13    5.30   12.80
   0   3  13    7.50   12.30
   0   3 -13   -1.50   11.50
   1  -3  13   20.10   14.70
  -1  -3 -13   26.00   16.10
  -1   3 -13   33.10   15.60
   1   3  13   13.00   14.10
  -1   3 -13    3.80   14.90
   2  -3  13  284.97   32.00
  -2  -3 -13  195.38   33.30
  -2   3 -13  232.78   29.20
  -2   3 -13  251.57   31.40
   2   3  13  229.38   33.80
   3  -3  13   11.10   14.10
  -3  -3 -13    3.30   14.40
  -3   3 -13   19.10   14.40
  -3   3 -13  -18.70   12.00
   3   3  13    9.50   17.00
   4  -3  13   90.29   24.70
  -4  -3 -13  203.28   34.40
  -4   3 -13  169.08   31.10
  -4   3 -13  166.68   27.90
   4   3  13  159.58   31.10
   3  -4 -13   27.70   19.30
  -3  -4  13   -6.10   13.80
  -3   4  13    2.70   13.30
   3   4 -13    9.20   16.60
   2  -4 -13  123.29   27.40
   2  -4 -13  215.78   32.60
  -2  -4  13  130.49   24.60
   2   4 -13  219.08   31.20
  -2   4  13  124.09   23.90
  -1  -4  13   65.59   19.40
   1  -4 -13   76.69   25.60
   1  -4 -13   88.39   22.00
  -1   4  13   87.79   20.40
   1   4 -13   97.59   23.70
   0  -4 -13  -13.50   11.90
   0  -4  13    5.30   11.70
   0   4 -13   -7.20   13.60
   0   4  13    9.20   16.20
   0   4  13   17.50   14.40
   0   4 -13   -8.80   11.50
  -1  -4 -13   86.99   24.80
   1  -4  13   85.09   21.50
   1   4  13  104.29   25.50
  -1   4 -13  115.29   25.70
  -1   4 -13   83.99   24.60
  -2  -4 -13  157.68   30.70
   2  -4  13  156.48   28.20
  -2   4 -13  168.78   30.50
  -2   4 -13  209.48   30.40
   2   4  13  137.29   27.90
   3  -4  13  -11.10   13.40
  -3  -4 -13   -7.40   12.80
   3   4  13    6.40   16.20
  -3   4 -13   -1.00   16.00
  -3   4 -13   -0.10   15.40
  -2  -5  13  -20.40   12.50
   2  -5 -13    5.70   19.50
  -2   5  13    4.10   14.20
   2   5 -13   12.70   19.80
   1  -5 -13  103.19   25.10
  -1  -5  13  119.79   27.30
   1  -5 -13   96.29   26.00
  -1   5  13  148.39   27.40
   1   5 -13   89.59   25.10
   0  -5 -13  -16.60   13.90
   0  -5 -13  -11.20   14.50
   0  -5  13   -8.50   14.00
   0   5  13   11.70   13.70
   0   5 -13    3.90   17.00
   1  -5  13   92.39   22.60
   1  -5  13   87.39   24.40
  -1  -5 -13  111.59   27.50
   1   5  13  121.19   23.90
  -1   5 -13  180.08   34.40
   1   5  13  139.19   28.30
   2  -5  13  -13.30   13.90
   2  -5  13    3.50   13.60
  -2  -5 -13   -7.20   16.70
  -2   5 -13   18.00   19.70
   2   5  13  -15.40   15.10
   3   0 -14    6.10   14.60
  -3   0  14   -4.00   12.40
   2   0 -14  260.87   32.80
  -2   0  14  297.67   32.70
  -1   0  14   -9.60   10.70
   1   0 -14   -6.80   13.30
   0   0  14  135.69   25.50
   0   0 -14   65.49   21.20
   1   0  14    3.70   12.50
  -1   0 -14   -1.90   14.20
  -2   0 -14  352.86   37.50
   2   0  14  348.47   37.50
  -3   0 -14   17.60   15.90
   3   0  14    8.60   17.20
   4   0  14   57.99   23.00
  -4   0 -14  182.48   33.00
   3  -1 -14   13.20   14.20
  -3   1  14   14.50   14.20
   3   1 -14   16.00   17.70
   3   1 -14    2.80   14.20
   2  -1 -14   61.19   20.60
  -2  -1  14   41.10   17.40
  -2   1  14   28.90   17.00
   2   1 -14   23.00   15.60
   1  -1 -14   80.09   22.50
  -1  -1  14   45.90   17.30
  -1   1  14   51.69   17.80
   1   1 -14   72.69   21.50
   0  -1  14   -6.70   10.40
   0  -1 -14    9.80   14.10
   0   1  14    7.10   12.90
   0   1 -14   -9.40   13.90
   1  -1  14   95.19   23.60
  -1  -1 -14   89.89   24.40
  -1   1 -14   80.79   22.00
   1   1  14   92.49   23.90
  -2  -1 -14    5.60   13.80
   2  -1  14   29.90   16.80
  -2   1 -14   39.30   16.70
   2   1  14   27.40   17.00
  -3  -1 -14   -1.90   15.60
   3  -1  14   18.10   16.30
  -3   1 -14   34.90   16.10
   3   1  14   37.40   19.90
   3  -2 -14   20.50   16.30
   3  -2 -14    5.00   16.10
  -3  -2  14   22.50   16.30
   3   2 -14   10.20   14.90
   2  -2 -14   -3.00   12.50
  -2   2  14   -6.60   12.70
   2   2 -14   12.70   18.40
   2   2 -14    7.60   14.70
   1  -2 -14  232.18   31.20
  -1  -2  14  252.67   29.20
  -1   2  14  169.08   29.70
   1   2 -14  215.88   28.50
   1   2 -14  261.07   34.50
   0  -2 -14  101.49   25.60
   0  -2  14  115.49   23.00
   0   2 -14   83.89   18.90
   0   2 -14  112.99   26.70
   0   2  14  118.69   25.00
   1  -2  14  210.38   28.20
  -1  -2 -14  250.17   35.60
   1   2  14  186.08   32.00
  -1   2 -14  211.38   28.00
  -1   2 -14  243.78   32.30
   2  -2  14   -3.70   13.30
  -2  -2 -14   -3.40   15.10
  -2   2 -14   15.60   13.50
   2   2  14   -0.90   17.00
  -2   2 -14    1.20   13.60
   3  -2  14   21.60   16.40
  -3  -2 -14   51.09   20.50
   3   2  14   49.60   22.50
  -3   2 -14   -3.90   13.70
  -3   2 -14    7.80   14.50
  -3  -3  14   47.70   20.10
   3  -3 -14   53.09   23.00
  -3   3  14   43.00   19.30
   3   3 -14   72.09   23.20
   2  -3 -14   55.89   23.90
   2  -3 -14  103.39   24.00
  -2  -3  14  101.89   22.20
   2   3 -14   52.59   20.20
  -1  -3  14   -1.10   11.40
   1  -3 -14   15.00   16.60
   1   3 -14    9.90   17.60
  -1   3  14   -3.80   12.90
   1   3 -14    0.90   13.30
   0  -3 -14   74.89   23.80
   0  -3  14   67.49   19.00
   0   3  14   20.40   15.10
   0   3 -14   49.80   19.20
   0   3 -14   13.10   15.10
  -1  -3 -14   -1.60   16.60
   1  -3  14   -0.80   12.90
  -1   3 -14    2.30   13.30
   1   3  14  -11.90   15.50
  -1   3 -14   16.80   14.00
  -2  -3 -14   40.90   21.70
   2  -3  14   70.99   21.30
  -2   3 -14   72.59   21.90
  -2   3 -14   76.49   21.40
   2   3  14   94.19   25.80
   3  -3  14   72.39   22.80
  -3  -3 -14   77.19   23.20
  -3   3 -14   37.20   19.60
   3   3  14   52.89   24.00
  -3   3 -14   17.00   18.50
   2  -4 -14  128.99   30.20
  -2  -4  14   92.59   23.00
   2  -4 -14  129.49   27.50
  -2   4  14  149.19   28.60
   2   4 -14  123.39   28.10
   1  -4 -14    9.50   19.70
   1  -4 -14   35.60   18.40
  -1  -4  14    7.10   12.70
   1   4 -14   65.19   22.50
   0  -4  14    6.10   12.60
   0  -4 -14    4.80   16.90
   0   4 -14    4.40   17.30
   0   4  14    1.00   14.20
   0   4 -14    4.50   14.30
   1  -4  14    1.40   13.40
  -1  -4 -14   45.60   22.10
  -1   4 -14   14.70   16.80
  -1   4 -14   39.50   19.20
   1   4  14    9.90   16.60
  -2  -4 -14  107.09   29.20
   2  -4  14   89.59   23.80
   2   4  14  176.38   33.70
  -2   4 -14  139.29   30.30
  -2   4 -14  125.89   27.50
   2   0 -15  194.48   33.10
  -2   0  15  158.38   28.40
   1   0 -15    0.50   17.50
  -1   0  15   -9.90   12.80
   0   0 -15   19.70   17.70
   0   0  15  -10.20   12.70
   1   0  15   -0.70   12.70
  -1   0 -15   -7.80   16.60
   2   0  15  147.19   29.10
  -2   0 -15  168.98   31.40
   2  -1 -15   36.70   20.40
  -2  -1  15   25.70   16.60
  -2   1  15   73.49   25.10
   2   1 -15   45.60   22.20
   1  -1 -15  230.98   33.80
  -1  -1  15  209.68   29.60
   1   1 -15  289.47   36.50
  -1   1  15  242.08   33.70
   0  -1 -15    1.00   18.20
   0  -1  15  -12.40    9.90
   0   1 -15   -6.90   16.50
   0   1  15    8.00   14.60
  -1  -1 -15  231.18   38.90
   1  -1  15  235.48   32.50
  -1   1 -15  308.77   36.80
   1   1  15  279.97   36.90
  -2  -1 -15   34.10   20.80
   2  -1  15   52.79   20.50
   2   1  15   62.69   22.70
  -2   1 -15   52.59   19.70
   2  -2 -15   37.00   20.20
   2   2 -15   26.90   16.20
   2   2 -15   12.10   19.90
  -2   2  15   17.00   16.50
  -1  -2  15  110.29   24.50
   1  -2 -15   80.59   25.40
   1   2 -15   90.69   22.50
  -1   2  15   86.19   24.10
   1   2 -15   50.69   22.50
   0  -2  15  -14.90   11.40
   0  -2 -15   16.40   19.20
   0   2  15   -4.80   14.10
   0   2 -15    3.70   15.20
   0   2 -15    3.50   17.10
  -1  -2 -15   76.39   25.90
   1  -2  15  119.59   26.10
   1   2  15   80.59   24.10
  -1   2 -15   83.69   22.90
   2  -2  15    7.90   15.80
  -2  -2 -15   11.70   17.10
  -2   2 -15   17.80   16.90
   2   2  15   11.40   19.40
   1  -3 -15   26.30   19.90
  -1   3  15    9.30   16.00
   1   3 -15    3.40   16.90
   1   3 -15   24.50   21.10
   0  -3  15   -4.50   12.30
   0  -3 -15  -12.30   17.10
   0   3 -15    0.50   14.70
   0   3 -15  -14.20   13.20
   0   3  15   -4.80   13.50
  -1  -3 -15  -10.50   19.00
   1  -3  15   13.80   15.20
   1   3  15   15.60   19.40
  -1   3 -15   15.10   16.30
  -1   3 -15   20.00   18.90
   0   0   0    0.00    0.00

_computing_structure_solution     'SHELXT 2014/5 (Sheldrick, 2014)'
;
_shelx_hkl_checksum              55224
loop_
_space_group_symop_operation_xyz
'x, y, z'
'-x, -y, z+1/2'
'x+1/2, -y, z'
'-x+1/2, y, z+1/2'
loop_
_atom_site_type_symbol
_atom_site_label
_atom_site_fract_x
_atom_site_fract_y
_atom_site_fract_z
_atom_site_U_iso_or_equiv
_atom_site_adp_type
_atom_site_calc_flag
_atom_site_occupancy
Zr Zr1 0.42306(12) 0.33410(10) 0.50001(13) 0.0191(3) Uani d 1
Cl Cl1 0.5726(4) 0.1359(3) 0.6287(2) 0.0265(6) Uani d 1
Cl Cl2 0.0927(4) 0.3896(3) 0.61336(18) 0.0211(6) Uani d 1
Cl Cl3 0.2797(4) 0.1309(3) 0.3725(2) 0.0276(6) Uani d 1
Cl Cl4 0.7507(4) 0.3926(3) 0.38452(18) 0.0229(6) Uani d 1
loop_
_atom_site_aniso_label
_atom_site_aniso_U_11
_atom_site_aniso_U_22
_atom_site_aniso_U_33
_atom_site_aniso_U_12
_atom_site_aniso_U_13
_atom_site_aniso_U_23
Zr1 0.0150(4) 0.0208(5) 0.0213(5) 0.0002(4) 0.0005(4) 0.0006(5)
Cl1 0.0252(14) 0.0281(13) 0.0262(14) 0.0041(10) -0.0028(10) 0.0042(11)
Cl2 0.0161(12) 0.0250(12) 0.0222(13) 0.0024(9) 0.0024(9) 0.0035(10)
Cl3 0.0273(12) 0.0279(12) 0.0277(14) -0.0030(11) -0.0037(13) -0.0040(10)
Cl4 0.0184(11) 0.0254(11) 0.0247(14) -0.0022(10) 0.0018(11) -0.0029(10)
loop_
_atom_type_symbol
_atom_type_description
_atom_type_scat_dispersion_real
_atom_type_scat_dispersion_imag
_atom_type_scat_source
Cl Cl 0.1484 0.1585 'International Tables Vol C Tables 4.2.6.8 and 6.1.1.4'
Zr Zr -2.9673 0.5597 'International Tables Vol C Tables 4.2.6.8 and 6.1.1.4'
loop_
_geom_angle_atom_site_label_1
_geom_angle_atom_site_label_2
_geom_angle_atom_site_label_3
_geom_angle_site_symmetry_1
_geom_angle_site_symmetry_3
_geom_angle
Cl3 Zr1 Cl1 . . 100.76(9)
Cl3 Zr1 Cl2 . . 98.31(9)
Cl1 Zr1 Cl2 . . 94.27(9)
Cl3 Zr1 Cl4 . . 93.60(10)
Cl1 Zr1 Cl4 . . 98.39(9)
Cl2 Zr1 Cl4 . . 160.69(9)
Cl3 Zr1 Cl2 . 3_565 169.05(11)
Cl1 Zr1 Cl2 . 3_565 88.99(9)
Cl2 Zr1 Cl2 . 3_565 85.81(8)
Cl4 Zr1 Cl2 . 3_565 79.93(7)
Cl3 Zr1 Cl4 . 3_465 89.43(10)
Cl1 Zr1 Cl4 . 3_465 168.97(10)
Cl2 Zr1 Cl4 . 3_465 79.94(7)
Cl4 Zr1 Cl4 . 3_465 85.05(7)
Cl2 Zr1 Cl4 3_565 3_465 81.27(7)
Zr1 Cl2 Zr1 . 3_465 100.15(9)
Zr1 Cl4 Zr1 . 3_565 99.96(9)
loop_
_geom_bond_atom_site_label_1
_geom_bond_atom_site_label_2
_geom_bond_site_symmetry_2
_geom_bond_distance
Zr1 Cl3 . 2.313(3)
Zr1 Cl1 . 2.314(3)
Zr1 Cl2 . 2.497(2)
Zr1 Cl4 . 2.501(2)
Zr1 Cl2 3_565 2.660(3)
Zr1 Cl4 3_465 2.663(2)
Cl2 Zr1 3_465 2.660(3)
Cl4 Zr1 3_565 2.663(2)

_cod_database_fobs_code 2021028
