#------------------------------------------------------------------------------
#$Date: 2019-01-19 05:02:08 +0200 (Sat, 19 Jan 2019) $
#$Revision: 213221 $
#$URL: file:///home/coder/svn-repositories/cod/cif/2/02/14/2021440.cif $
#------------------------------------------------------------------------------
#
# This file is available in the Crystallography Open Database (COD),
# http://www.crystallography.net/. The original data for this entry
# were provided by IUCr Journals, http://journals.iucr.org/.
#
# The file may be used within the scientific community so long as
# proper attribution is given to the journal article from which the
# data were obtained.
#
data_2021440
loop_
_publ_author_name
'Harchani, Ali'
'Trzybi\'nski, Damian'
'Pawledzio, Sylwia'
'Wo\'zniak, Krzysztof'
'Haddad, Amor'
_publ_section_title
;
 Crystallographic and computational studies of a new organoarsenate
 compound: <i>o</i>-anisidinium dihydroarsenate
;
_journal_coeditor_code           KU3230
_journal_issue                   2
_journal_name_full               'Acta Crystallographica Section C'
_journal_page_first
;
;
_journal_paper_doi               10.1107/S2053229619000172
_journal_volume                  75
_journal_year                    2019
_chemical_formula_iupac          'C7 H10 N O +, H2 As O4 -'
_chemical_formula_moiety         'C7 H10 N O +, H2 As O4 -'
_chemical_formula_sum            'C7 H12 As N O5'
_chemical_formula_weight         265.10
_chemical_name_common
;
<i>o</i>-Anisidinium dihydroarsenate
;
_chemical_name_systematic
;
2-Methoxyanilinium dihydrogen arsenate
;
_space_group_crystal_system      triclinic
_space_group_IT_number           2
_space_group_name_Hall           '-P 1'
_space_group_name_H-M_alt        'P -1'
_symmetry_space_group_name_Hall  '-P 1'
_symmetry_space_group_name_H-M   'P -1'
_atom_sites_solution_hydrogens   mixed
_audit_creation_method           SHELXL-2018/3
_cell_angle_alpha                70.769(4)
_cell_angle_beta                 75.984(4)
_cell_angle_gamma                89.624(3)
_cell_formula_units_Z            2
_cell_length_a                   5.5235(2)
_cell_length_b                   9.4385(4)
_cell_length_c                   10.4633(5)
_cell_measurement_reflns_used    5519
_cell_measurement_temperature    100(2)
_cell_measurement_theta_max      71.6400
_cell_measurement_theta_min      4.9430
_cell_volume                     498.12(4)
_computing_cell_refinement
;
CrysAlis PRO (Rigaku OD, 2015)
;
_computing_data_collection
;
CrysAlis PRO (Rigaku OD, 2015)
;
_computing_data_reduction
;
CrysAlis PRO (Rigaku OD, 2015)
;
_computing_molecular_graphics
;
OLEX2 (Dolomanov <i>et al.</i>,  2009),
DIAMOND (Brandenburg & Putz, 2005) and
Mercury (Macrae <i>et al.</i>, 2008)
;
_computing_publication_material
;
PLATON (Spek, 2009)
;
_computing_structure_refinement
;
SHELXL2018 (Sheldrick, 2015b)
;
_computing_structure_solution
;
SHELXT (Sheldrick, 2015a)
;
_diffrn_ambient_temperature      100(2)
_diffrn_detector_area_resol_mean 5.2195
_diffrn_measured_fraction_theta_full 0.998
_diffrn_measured_fraction_theta_max 0.998
_diffrn_measurement_device_type
'Rigaku OD SuperNova Dual source diffractometer with an Atlas detector'
_diffrn_measurement_method       '\w scans'
_diffrn_radiation_type           CuK\a
_diffrn_radiation_wavelength     1.54184
_diffrn_reflns_av_R_equivalents  0.0234
_diffrn_reflns_av_unetI/netI     0.0167
_diffrn_reflns_limit_h_max       6
_diffrn_reflns_limit_h_min       -5
_diffrn_reflns_limit_k_max       11
_diffrn_reflns_limit_k_min       -11
_diffrn_reflns_limit_l_max       12
_diffrn_reflns_limit_l_min       -12
_diffrn_reflns_number            6075
_diffrn_reflns_theta_full        67.010
_diffrn_reflns_theta_max         67.010
_diffrn_reflns_theta_min         4.979
_diffrn_source                   'micro-focus sealed X-ray tube'
_exptl_absorpt_coefficient_mu    4.666
_exptl_absorpt_correction_T_max  0.444
_exptl_absorpt_correction_T_min  0.118
_exptl_absorpt_correction_type   analytical
_exptl_absorpt_process_details
;
[CrysAlis PRO (Rigaku OD, 2015), based on expressions derived by Clark &
Reid
(1995)]
;
_exptl_crystal_colour            'light pink'
_exptl_crystal_density_diffrn    1.767
_exptl_crystal_description       plate
_exptl_crystal_F_000             268
_exptl_crystal_size_max          0.54
_exptl_crystal_size_mid          0.21
_exptl_crystal_size_min          0.12
_refine_diff_density_max         1.181
_refine_diff_density_min         -0.623
_refine_ls_extinction_method     none
_refine_ls_goodness_of_fit_ref   1.092
_refine_ls_hydrogen_treatment    mixed
_refine_ls_matrix_type           full
_refine_ls_number_parameters     153
_refine_ls_number_reflns         1778
_refine_ls_number_restraints     23
_refine_ls_restrained_S_all      1.201
_refine_ls_R_factor_all          0.0348
_refine_ls_R_factor_gt           0.0346
_refine_ls_shift/su_max          0.001
_refine_ls_shift/su_mean         0.000
_refine_ls_structure_factor_coef Fsqd
_refine_ls_weighting_details
'w=1/[\s^2^(Fo^2^)+(0.0298P)^2^+1.5814P] where P=(Fo^2^+2Fc^2^)/3'
_refine_ls_weighting_scheme      calc
_refine_ls_wR_factor_gt          0.0829
_refine_ls_wR_factor_ref         0.0830
_reflns_number_gt                1769
_reflns_number_total             1778
_reflns_threshold_expression     'I > 2\s(I)'
_cod_data_source_file            ku3230sup1.cif
_cod_data_source_block           I
_cod_database_code               2021440
_shelx_space_group_comment
;
The symmetry employed for this shelxl refinement is uniquely defined
by the following loop, which should always be used as a source of
symmetry information in preference to the above space-group names.
They are only intended as comments.
;
_shelx_hkl_file
;
  -1  -1   0 275265. 4980.23   7
   2   2   0 2410.32 64.0151  12
  -2  -2   0 2086.98 58.2767  20
  -2  -2   0 2135.79 59.6928  26
  -2  -2   0 2288.01 53.6871  21
   3   3   0 14577.3 288.939  11
  -3  -3   0 13650.0 299.416  19
  -3  -3   0 15255.4 298.486  26
   3   3   0 15199.0 304.705  12
  -3  -3   0 13816.4 307.448  15
   4   4   0 66.4252 18.8983  58
   4   4   0 56.3557 28.8839  60
  -4  -4   0 11.7834 32.5094  15
  -4  -4   0 120.883 27.1236  26
   5   5   0 1330.54 49.0750  60
   5   4   0 46862.9 894.014  58
   5   4   0 49954.3 908.974  60
   4   3   0 38312.0 733.632  58
  -4  -3   0 39572.3 747.268  19
  -4  -3   0 39553.3 737.470  26
   4   3   0 39989.0 730.479  11
  -4  -3   0 38188.3 753.870  15
   4   3   0 40656.0 748.172  60
  -3  -2   0 7583.41 180.169  26
  -3  -2   0 7944.01 185.312  19
   3   2   0 8786.45 186.413  12
  -3  -2   0 8891.37 181.315  20
   3   2   0 8628.24 176.794  11
   2   1   0 30959.9 581.372  12
  -2  -1   0 31345.2 574.152   2
  -2  -1   0 30114.2 569.732   6
   2   1   0 31027.2 578.902  11
   2   1   0 31672.6 572.131   1
   1   0   0 62932.8 1158.65   1
  -1   0   0 64964.9 1161.65   3
   1   0   0 64465.3 1161.59   3
   0  -1   0 6056.72 114.783   2
   0   1   0 6135.91 114.801   2
  -1  -2   0 62967.7 1183.10   6
   1   2   0 65719.0 1180.64  11
   1   2   0 65226.8 1183.98   6
   1   2   0 64498.7 1188.56  12
  -1  -2   0 64174.5 1189.10   9
  -1  -2   0 66893.6 1189.61  15
  -2  -3   0 625.073 29.1701  26
   2   3   0 679.732 27.7873  11
  -2  -3   0 582.708 31.6746   9
  -2  -3   0 533.479 32.7788  19
  -2  -3   0 469.364 35.5821  15
   2   3   0 653.159 34.9488  12
  -3  -4   0 80876.0 1464.60  19
  -3  -4   0 78853.3 1456.48  26
  -3  -4   0 77486.7 1470.05  15
   3   4   0 76513.0 1461.39  12
   4   5   0 28250.3 539.510  60
  -4  -5   0 26393.7 544.696  27
   5   6   0 4862.19 105.338  60
  -5  -6   0 4673.75 97.5220  44
   5   3   0 7084.21 158.467  58
   5   3   0 7350.23 167.053  60
   4   2   0 5103.75 125.886  11
  -4  -2   0 4924.29 135.827  19
  -4  -2   0 5425.90 133.006  26
  -4  -2   0 4946.22 143.331  15
  -4  -2   0 5478.15 129.993  20
  -3  -1   0 161762. 2888.07  21
   3   1   0 155146. 2888.84  11
  -2   0   0 224107. 4004.51   2
   2   0   0 210172. 4004.34  11
  -2   0   0 222720. 4004.10   3
  -2   0   0 224914. 4010.02   7
   2   0   0 223021. 4001.50  12
   1  -1   0 118088. 2182.02   3
  -1   1   0 117935. 2183.35   7
  -1   1   0 115691. 2183.09   2
   0   2   0 257776. 4669.87   6
   1   3   0 7859.57 159.943  11
   1   3   0 7886.46 169.638   6
  -1  -3   0 8446.49 169.412  19
   1   3   0 8618.13 172.622  12
  -1  -3   0 8222.24 172.220   9
  -1  -3   0 8622.18 172.134  15
   2   4   0 6347.81 133.221  11
  -2  -4   0 6099.53 140.165  26
  -2  -4   0 6525.95 143.897   9
  -2  -4   0 5781.59 144.993  15
   2   4   0 6017.12 146.569  12
   3   5   0 375.700 36.4507  56
   3   5   0 355.580 36.3287  12
   3   5   0 311.834 29.5760  60
  -4  -6   0 22783.5 429.051  53
   4   6   0 21272.6 434.527  60
   6   3   0 13372.1 258.613  58
   5   2   0 28331.7 533.876  58
   5   2   0 25420.6 522.826  45
  -4  -1   0 30425.6 571.525  20
   4   1   0 28382.8 565.900  11
   3   0   0 401.490 29.1386  11
  -3   0   0 417.857 29.6167   7
  -2   1   0 35039.1 617.088   2
  -2   1   0 34606.6 621.133   7
   2  -1   0 32049.3 614.273  11
  -2   1   0 31957.8 607.389   1
  -1   2   0 8180.73 163.559   7
  -1   2   0 7733.30 165.773   2
   0  -3   0 228197. 4113.28   9
   0   3   0 224897. 4110.79   6
   0   3   0 223676. 4109.70  12
   0  -3   0 228612. 4103.45   2
   1   4   0 234464. 4395.91  25
   1   4   0 252168. 4396.29  12
  -1  -4   0 251110. 4397.46   9
   1   4   0 228063. 4400.18  22
  -2  -5   0 55233.1 1019.29  35
  -2  -5   0 56304.7 1029.21   9
   3   6   0 32388.9 667.795  39
  -3  -6   0 32429.2 653.577  27
   3   6   0 36603.5 658.192  56
   3   6   0 34385.4 647.156  60
  -3  -6   0 31207.0 645.737  18
  -3  -6   0 34255.5 643.418  53
  -4  -7   0 1179.88 42.4553  44
  -4  -7   0 1240.65 40.1970  53
   4   7   0 1214.74 44.8882  60
   6   2   0 4783.17 112.459  58
   5   1   0 42457.1 796.090  43
   5   1   0 41777.3 822.377  58
   5   1   0 43361.6 807.551  45
   4   0   0 93976.1 1701.25  11
  -4   0   0 89809.8 1696.44  21
  -3   1   0 118288. 2100.04   8
   3  -1   0 114735. 2109.39  11
  -3   1   0 111474. 2112.94   7
  -3   1   0 113193. 2126.56  13
   2  -2   0 1492.22 47.2599  11
  -2   2   0 1614.49 42.2292   1
  -2   2   0 1618.96 49.4469  23
  -2   2   0 1423.96 39.3871   8
   2  -2   0 1512.53 46.7505  10
   1  -3   0 21290.8 411.423   9
  -1   3   0 21984.2 402.062   7
  -1   3   0 22282.0 409.524   2
  -1   3   0 22230.4 416.892  23
   0   4   0 508.152 27.3978  12
   0   4   0 486.559 24.8275  25
   1   5   0 37977.3 713.899  25
   1   5   0 39119.2 711.534  22
  -1  -5   0 36639.1 714.130   9
   1   5   0 36273.5 712.839  12
  -1  -5   0 37457.2 707.496  27
  -2  -6   0 49858.4 976.724   9
   2   6   0 52455.0 985.153  12
   2   6   0 53996.0 989.174  39
  -2  -6   0 51373.9 977.639  27
   3   7   0 34645.5 663.928  60
   3   7   0 35555.2 678.571  39
  -3  -7   0 36111.6 662.976  53
  -4  -8   0 12544.5 240.212  44
   6   1   0 817.059 45.6253  58
   5   0   0 1494.77 55.7507  43
   5   0   0 1353.78 72.7151  58
   5   0   0 1510.69 64.3064  59
   4  -1   0 6961.40 165.622  11
  -4   1   0 6339.15 171.408  16
  -3   2   0 86073.5 1660.23  13
  -3   2   0 88906.9 1643.39  23
  -3   2   0 88999.3 1630.19  14
   3  -2   0 91315.1 1646.94  11
  -2   3   0 74335.8 1279.94  23
  -2   3   0 65132.6 1266.12   7
  -2   3   0 69825.5 1286.23  13
   2  -3   0 65480.6 1274.09  11
   2  -3   0 71170.4 1267.99  10
  -2   3   0 69972.8 1268.16  28
   1  -4   0 10214.9 223.857   9
  -1   4   0 11836.1 228.298  23
   1  -4   0 10532.7 226.081  24
  -1   4   0 11599.6 226.311  13
   0   5   0 105238. 1970.78  12
   0   5   0 110656. 1965.92  25
   0  -5   0 105350. 1974.93   9
   1   6   0 98336.3 1778.48  12
  -1  -6   0 93657.2 1777.91   9
   2   7   0 9279.32 210.452  12
  -2  -7   0 9044.10 195.927  53
  -2  -7   0 8785.23 202.221   9
   2   7   0 9386.15 198.234  56
   2   7   0 8751.53 207.169  39
   2   7   0 8897.85 203.097  46
   2   7   0 8719.29 194.086  60
   3   8   0 97.1547 20.9727  39
  -3  -8   0 87.7067 21.8609  44
  -3  -8   0 69.7419 18.4491  53
   3   8   0 83.3378 17.3154  60
   6   0   0 11149.0 245.815  58
  -5   1   0 36681.9 751.961  21
   5  -1   0 40405.4 751.533  43
   5  -1   0 36974.1 767.224  58
   5  -1   0 40564.7 763.398  59
   5  -1   0 42757.5 773.980  61
  -4   2   0 33131.2 673.378  13
  -4   2   0 29147.8 666.302  16
   3  -3   0 2399.32 71.7327  31
  -3   3   0 2393.05 92.0250  13
  -2   4   0 368.892 34.7187  23
   1  -5   0 7999.30 181.334   9
   1  -5   0 7655.11 179.406  24
  -1   5   0 7969.70 174.539  23
   0   6   0 92233.0 1678.63  22
   0   6   0 90691.1 1681.70  25
   0  -6   0 91036.4 1693.56   9
   1   7   0 80345.5 1443.66  39
  -1  -7   0 76275.2 1435.97  44
  -1  -7   0 79244.2 1452.00   9
  -1  -7   0 76183.6 1434.41  53
  -1  -7   0 75904.8 1431.23  38
   1   7   0 79164.0 1440.53  46
  -2  -8   0 19554.6 381.482  53
  -2  -8   0 19359.1 383.252  44
   2   8   0 18932.0 389.617  39
  -3  -9   0 10561.2 198.971  44
   3   9   0 10140.8 199.032  39
   6  -1   0 10234.4 194.529  43
   6  -1   0 7810.99 195.591  58
  -5   2   0 25972.4 561.152  21
   5  -2   0 30072.1 570.027  59
   5  -2   0 30188.7 561.455  43
   5  -2   0 27464.3 573.345  61
  -4   3   0 44317.1 869.277  13
  -4   3   0 45733.9 865.485  29
  -3   4   0 41579.4 743.049  23
   3  -4   0 40058.2 738.094  31
  -3   4   0 38826.0 749.467  13
   3  -4   0 36109.0 737.341  11
  -3   4   0 38527.5 748.102  29
  -3   4   0 34712.7 743.620  16
   2  -5   0 14703.2 309.338  31
  -2   5   0 15135.5 307.859  23
  -2   5   0 14965.7 315.383  29
  -2   5   0 14084.3 308.327  16
  -1   6   0 25106.6 490.704  25
   1  -6   0 26199.7 494.382  31
  -1   6   0 26675.9 491.807  29
  -1   6   0 25141.9 489.887  23
   1  -6   0 25153.7 502.667   9
   1  -6   0 24695.7 499.285  24
   0  -7   0 3914.32 103.610  24
   0  -7   0 3963.58 111.891   9
   0   7   0 3702.55 100.118  25
   0  -7   0 3576.57 96.7873  38
   0   7   0 3950.01 97.4459  22
   0   7   0 3966.30 98.6115  39
  -1  -8   0 3938.82 103.927  44
  -1  -8   0 3798.39 102.817  53
   1   8   0 4203.06 107.199  46
  -1  -8   0 4133.79 105.800  24
   1   8   0 3990.05 107.929  39
   2   9   0 8687.52 188.125  39
  -2  -9   0 8960.65 185.383  44
   6  -2   0 2512.44 73.7484  43
   5  -3   0 189.659 37.0586  43
   5  -3   0 224.946 28.8243  61
   4  -4   0 2041.17 85.4922  43
  -4   4   0 1675.42 77.8656  13
  -4   4   0 1416.02 74.8974  16
   4  -4   0 1738.91 72.4779  38
   4  -4   0 2099.28 73.9150  59
   4  -4   0 1896.55 70.1662  42
  -4   4   0 1541.52 75.5428  29
   4  -4   0 1398.91 71.8535  11
  -3   5   0 11617.8 275.003  16
  -3   5   0 12386.5 279.200  13
   3  -5   0 13079.1 281.501  38
   3  -5   0 12187.5 276.616  31
  -3   5   0 13317.2 274.225  23
  -3   5   0 12487.1 282.580  29
  -2   6   0 20434.2 402.743  23
   2  -6   0 19734.3 409.572  31
   2  -6   0 21020.7 415.139  38
  -2   6   0 20206.2 409.951  29
   1  -7   0 26914.5 537.671  24
  -1   7   0 26903.8 527.750  25
   1  -7   0 26951.1 541.632   9
   1  -7   0 27006.7 533.816  38
  -1   7   0 28459.1 523.784  39
   1  -7   0 27790.2 531.505  31
   0  -8   0 53594.7 997.567  24
   0  -8   0 52230.8 991.515  44
   0  -8   0 54617.0 1009.38   9
   0   8   0 52536.3 992.624  39
   0   8   0 54930.4 990.930  22
   0   8   0 52065.2 993.137  46
   0  -8   0 51532.3 992.558  38
   1   9   0 15365.6 314.295  46
   1   9   0 15721.1 316.802  39
  -1  -9   0 16003.1 314.105  44
   2  10   0 5995.59 126.545  39
  -2 -10   0 6364.65 126.010  44
   6  -3   0 7364.34 165.600  43
   5  -4   0 8487.74 213.973  43
   4  -5   0 34225.0 723.303  43
  -4   5   0 35200.6 691.335  29
   4  -5   0 35319.0 699.384  38
   4  -5   0 33531.1 676.181  42
  -4   5   0 33179.2 692.716  16
   3  -6   0 24073.1 535.605  40
  -3   6   0 26019.2 519.410  16
  -3   6   0 27452.4 525.083  29
   3  -6   0 25111.4 528.615  38
   3  -6   0 25612.1 524.289  31
  -3   6   0 26942.1 511.915  23
   2  -7   0 207.617 30.3724  38
  -2   7   0 157.080 20.1238  52
  -2   7   0 236.077 23.0899  50
   2  -7   0 102.153 28.6878  40
  -2   7   0 65.5582 22.8082  29
  -2   7   0 18.2043 17.2684  25
  -1   8   0 258.529 25.3565  25
  -1   8   0 292.495 24.3456  39
   1  -8   0 192.523 29.6042   9
   1  -8   0 227.466 29.1264  38
  -1   8   0 248.281 23.5302  22
  -1   8   0 277.188 22.4780  50
   1  -8   0 271.585 27.8651  31
   0   9   0 14734.5 306.158  46
   0   9   0 14955.6 305.176  39
   0  -9   0 15328.0 304.084  44
   0  -9   0 15107.7 305.732  38
   0  -9   0 15895.0 310.047  24
  -1 -10   0 24938.5 468.652  44
   1  10   0 24793.4 471.194  39
   6  -4   0 3134.13 88.5985  43
  -5   5   0 10965.0 231.126  29
   5  -5   0 10570.7 266.180  43
   4  -6   0 11453.0 292.816  38
  -4   6   0 14325.8 287.668  29
  -4   6   0 13942.6 271.655  23
   4  -6   0 10959.0 319.145  43
  -3   7   0 47649.5 920.791  29
   3  -7   0 44961.9 935.924  40
   3  -7   0 48381.6 927.900  31
   3  -7   0 46224.7 932.717  38
  -3   7   0 49824.3 913.885  23
  -3   7   0 51332.4 907.543  52
  -2   8   0 16204.9 325.184  22
  -2   8   0 16250.6 321.710  52
  -2   8   0 17102.9 323.196  29
   2  -8   0 15845.8 337.125  38
   2  -8   0 15710.1 336.101  40
   2  -8   0 15962.5 332.066  31
  -2   8   0 16275.9 323.516  25
  -2   8   0 15580.1 321.885  50
   1  -9   0 8799.87 197.026  38
   1  -9   0 8775.32 198.682  40
  -1   9   0 8809.33 193.105  46
   0 -10   0 17647.7 333.031  44
   0  10   0 17587.8 335.428  39
   0  10   0 16674.8 336.533  46
   6  -5   0 1451.36 48.4767  43
   5  -6   0 5064.12 150.208  43
  -5   6   0 5803.37 124.084  50
  -4   7   0 9878.32 206.974  50
   4  -7   0 9274.33 223.128  38
   4  -7   0 9043.94 226.791  43
  -4   7   0 10077.5 211.604  29
  -3   8   0 2013.87 62.2496  29
  -3   8   0 1929.94 55.8423  52
   3  -8   0 1682.19 69.7373  38
  -3   8   0 1659.27 59.0167  50
   3  -8   0 2075.83 69.1377  31
   3  -8   0 1837.28 70.2868  40
  -2   9   0 15387.1 306.416  50
   2  -9   0 15659.1 317.781  38
   2  -9   0 15985.2 311.732  31
   2  -9   0 15169.5 316.077  40
  -1  10   0 304.333 23.2837  46
   1 -10   0 323.482 25.2558  40
   1 -10   0 239.988 21.2022  38
   5  -7   0 7064.48 155.798  43
  -5   7   0 6950.06 142.161  50
   4  -8   0 10559.3 229.134  43
  -4   8   0 11127.3 220.406  50
   4  -8   0 10812.3 231.379  38
  -3   9   0 22743.1 424.635  50
   3  -9   0 22501.3 433.373  38
   2 -10   0 1403.47 45.5155  38
  -2  10   0 1477.05 40.3697  50
   2 -10   0 1398.41 46.5211  40
  -2  10   0 1428.66 42.8209  46
  -4   9   0 1367.63 36.7349  50
   4  -9   0 1211.30 37.7965  43
  -3  10   0 7274.25 143.567  50
  -4   9  -1 609.592 21.1196  50
  -2  10  -1 6671.28 136.205  46
   2 -10   1 6918.52 139.299  38
   3  -9   1 7996.27 170.994  38
  -3   9  -1 8120.04 163.383  50
   3  -9   1 7789.81 164.237  43
   4  -8   1 7850.86 175.928  38
   4  -8   1 7685.75 170.863  43
  -5   7  -1 6657.18 133.676  50
   5  -7   1 6205.73 139.542  43
   1 -10   1 8330.59 177.066  40
  -1  10  -1 8448.06 176.252  46
  -1  10  -1 9067.87 173.601  39
   1 -10   1 8800.11 178.295  38
   2  -9   1 2594.30 77.6942  38
   2  -9   1 2794.80 74.7213  31
   2  -9   1 2778.01 76.6209  40
  -2   9  -1 2675.61 67.8194  50
  -3   8  -1 38.9270 19.9196  29
  -3   8  -1 23.8081 15.3512  52
   3  -8   1 16.1259 20.2272  40
  -3   8  -1 32.0888 17.8534  50
   3  -8   1 70.5170 21.3205  31
   4  -7   1 9951.46 232.746  38
   4  -7   1 9856.57 229.895  43
  -4   7  -1 10399.9 219.716  50
   5  -6   1 4347.84 129.332  43
   5  -6   1 5360.51 115.984  42
   6  -5   1 5784.66 130.714  43
   0  10  -1 6725.19 144.916  46
   0 -10   1 7058.43 147.895  40
   0  10  -1 7170.24 146.221  39
   0 -10   1 7178.07 145.139  38
   1  -9   1 16716.3 328.121  38
   1  -9   1 15945.9 325.683  40
  -1   9  -1 15667.0 322.055  46
  -1   9  -1 16711.9 320.772  39
   2  -8   1 9716.46 215.483  40
   2  -8   1 9767.14 214.315  31
  -2   8  -1 9832.74 204.292  50
  -2   8  -1 9895.27 207.063  25
   2  -8   1 9728.52 218.800  38
  -2   8  -1 10021.1 207.206  22
  -2   8  -1 9304.34 204.699  52
  -3   7  -1 11243.8 229.154  25
  -3   7  -1 11057.0 228.739  52
   3  -7   1 10730.6 244.260  31
   3  -7   1 11124.5 250.306  40
   3  -7   1 10573.6 248.278  38
  -3   7  -1 10714.9 238.386  29
  -3   7  -1 10901.1 232.020  23
   4  -6   1 3527.58 130.633  43
   4  -6   1 4266.62 109.607  42
  -4   6  -1 4280.48 118.123  29
   4  -6   1 3427.40 122.613  38
  -4   6  -1 4430.34 109.894  23
   5  -5   1 433.155 34.4509  42
  -5   5  -1 488.059 34.2557  29
   6  -4   1 1856.99 69.9409  43
   1  10  -1 8325.00 167.202  39
   0   9  -1 7857.20 177.984  46
   0  -9   1 8068.18 179.837  38
  -1   8  -1 1786.40 59.2205  25
   1  -8   1 1871.55 62.1919  31
  -1   8  -1 1595.01 54.9102  22
  -1   8  -1 1793.26 57.3700  39
   1  -8   1 1983.35 67.2612  38
   1  -8   1 1710.47 62.9184  24
   2  -7   1 9214.18 216.417  38
  -2   7  -1 10183.9 207.608  25
   2  -7   1 9804.38 218.095  40
   2  -7   1 9531.55 214.873  31
  -2   7  -1 9712.94 203.708  52
  -2   7  -1 8824.87 203.100  50
  -2   7  -1 9699.51 207.439  29
  -3   6  -1 27262.9 566.279  16
  -3   6  -1 29641.0 564.676  23
   3  -6   1 26199.5 586.959  40
  -3   6  -1 31382.9 558.064  52
   3  -6   1 29623.9 578.008  31
  -3   6  -1 28141.6 573.686  29
   3  -6   1 28056.6 580.962  38
  -4   5  -1 38631.2 759.901  29
   4  -5   1 39114.5 747.473  42
  -4   5  -1 35651.3 754.146  16
  -4   5  -1 42085.1 753.888  23
   4  -5   1 36707.3 761.877  31
   4  -5   1 35476.3 781.347  43
   4  -5   1 39702.0 769.676  38
  -4   5  -1 41028.0 762.048  13
   5  -4   1 4057.14 140.830  43
  -5   4  -1 4339.56 120.786  29
   6  -3   1 14889.2 311.288  43
   1   9  -1 15326.4 308.414  46
  -1  -9   1 15872.4 308.962  44
   1   9  -1 15387.5 313.085  39
  -1  -9   1 16257.6 308.875  38
   0  -8   1 7854.33 177.953  38
   0   8  -1 8229.91 178.920  39
   0   8  -1 8025.54 177.198  46
   0  -8   1 8323.49 181.619  24
   0   8  -1 7596.23 175.489  25
   1  -7   1 52587.8 994.979   9
  -1   7  -1 52429.9 982.192  25
  -1   7  -1 52742.4 978.760  52
   1  -7   1 53278.7 986.225  31
   1  -7   1 51486.4 987.235  38
   1  -7   1 52049.3 990.487  24
  -1   7  -1 52674.0 978.534  39
   2  -6   1 33462.5 658.733  31
  -2   6  -1 33138.9 650.640  23
   2  -6   1 35369.9 663.319  38
  -2   6  -1 34158.2 657.763  29
   2  -6   1 34362.2 668.661  24
  -3   5  -1 911.629 58.5957  29
  -3   5  -1 1106.44 57.7986  23
   3  -5   1 1174.31 60.6414  38
   3  -5   1 863.908 53.4105  31
  -3   5  -1 971.085 57.8546  13
   4  -4   1 22471.1 426.844  59
  -4   4  -1 19955.6 445.305  29
  -4   4  -1 17904.1 439.683  16
  -4   4  -1 20171.6 445.014  13
  -4   4  -1 21335.7 438.748  23
   4  -4   1 22394.1 437.828  42
   4  -4   1 20484.4 421.499  62
   4  -4   1 23356.8 459.617  43
   4  -4   1 23164.3 443.099  38
   5  -3   1 5573.60 157.409  43
   5  -3   1 5634.87 149.748  42
   5  -3   1 5643.39 148.229  59
   6  -2   1 1842.64 66.9104  43
   2   9  -1 3834.71 90.9845  39
  -2  -9   1 3797.95 88.3866  44
   1   8  -1 9363.35 204.019  46
   1   8  -1 9156.07 207.163  39
  -1  -8   1 9204.58 203.833  53
  -1  -8   1 9808.75 203.371  38
  -1  -8   1 9369.56 203.009  44
   0  -7   1 22565.6 449.757  24
   0   7  -1 21610.9 444.684  25
   0  -7   1 22950.9 459.432   9
   0  -7   1 22789.5 445.349  53
   0   7  -1 22652.7 445.332  39
   0  -7   1 22875.1 446.953  38
   1  -6   1 31777.9 604.851  31
  -1   6  -1 31413.7 602.281  25
  -1   6  -1 30956.6 597.906  23
   1  -6   1 31337.5 610.837   9
   1  -6   1 32415.9 609.353  24
   2  -5   1 64172.8 1182.84  31
  -2   5  -1 63862.6 1186.49  29
  -2   5  -1 63428.8 1182.07  23
  -2   5  -1 67105.6 1182.82  13
  -3   4  -1 34092.5 664.168  23
   3  -4   1 35253.6 665.382  31
   4  -3   1 27165.8 557.141  11
  -4   3  -1 26715.5 573.141  13
  -4   3  -1 27866.8 558.976  23
   5  -2   1 9323.36 211.122  43
  -5   2  -1 7519.67 213.452  16
   5  -2   1 9489.99 211.144  59
   5  -2   1 7957.45 205.403  61
   5  -2   1 10295.6 214.922  42
   6  -1   1 6291.65 137.271  43
   6  -1   1 4932.16 129.180  58
  -2  -8   1 19850.3 385.189  53
  -2  -8   1 19985.6 385.724  44
   2   8  -1 18916.2 389.117  39
   1   7  -1 63489.3 1188.17  39
  -1  -7   1 64025.1 1196.96   9
   1   7  -1 64157.8 1183.56  46
  -1  -7   1 62955.8 1182.39  44
  -1  -7   1 63707.6 1181.43  38
  -1  -7   1 63955.0 1183.10  53
   1   7  -1 62249.1 1192.96  12
   0  -6   1 29230.8 554.291  31
   0   6  -1 29654.2 551.546  22
   0   6  -1 28808.2 561.644  12
   0  -6   1 28524.2 570.096   9
   0   6  -1 28850.6 556.463  25
   1  -5   1 16281.1 327.964  24
   1  -5   1 16353.2 323.001  31
  -1   5  -1 16115.8 323.986  29
   1  -5   1 17036.9 330.558   9
  -1   5  -1 15703.0 320.739  23
   2  -4   1 167.381 25.8664  24
  -2   4  -1 120.712 31.2220  13
  -2   4  -1 174.124 29.3417  23
   2  -4   1 241.124 25.9159  31
   3  -3   1 17441.2 343.537  31
  -3   3  -1 17538.2 336.255  28
  -3   3  -1 16221.2 361.240  13
   3  -3   1 16979.6 343.616  11
  -3   3  -1 16008.4 347.229  23
   4  -2   1 34420.5 663.156  11
  -4   2  -1 35533.0 663.824  23
   5  -1   1 22185.2 464.300  58
   5  -1   1 22916.0 471.465  61
   5  -1   1 23855.9 466.682  59
   5  -1   1 23089.3 458.342  43
   6   0   1 13921.5 317.775  58
   6   0   1 12872.8 309.655  59
   3   8  -1 443.383 23.6583  60
  -3  -8   1 469.039 27.0496  44
   3   8  -1 514.746 26.9455  39
   2   7  -1 9851.44 213.392  56
  -2  -7   1 10278.3 209.070  38
   2   7  -1 9697.24 220.695  39
   2   7  -1 9968.12 209.848  60
  -2  -7   1 9567.79 212.339  53
  -1  -6   1 124939. 2276.56   9
  -1  -6   1 122324. 2257.57  38
   1   6  -1 123373. 2271.31  12
   0   5  -1 133045. 2436.80  12
   0  -5   1 136611. 2429.79  31
   0  -5   1 128576. 2442.57   9
   0   5  -1 132898. 2433.22  25
   1  -4   1 38078.4 701.475   9
  -1   4  -1 38011.4 698.037  13
   1  -4   1 37409.3 702.472  24
  -2   3  -1 83540.4 1551.40   7
   2  -3   1 83341.5 1552.41  10
  -2   3  -1 86605.2 1553.27  28
   2  -3   1 81864.6 1552.51  11
  -3   2  -1 39179.5 732.108  28
   3  -2   1 40357.7 743.877  11
  -3   2  -1 38852.6 733.677  14
   4  -1   1 29.0391 24.3872  11
  -4   1  -1 41.3383 23.1133   8
  -4   1  -1-14.5259 41.5139  13
   5   0   1 5902.90 141.260  43
   5   0   1 5698.37 149.926  59
   6   1   1 11072.0 241.447  58
   3   7  -1 10515.9 221.401  56
   3   7  -1 10181.1 216.123  60
   3   7  -1 9810.88 221.866  39
  -3  -7   1 10856.2 218.388  53
  -2  -6   1 17865.4 366.016  27
  -2  -6   1 17576.8 367.504   9
   2   6  -1 18185.2 364.123  56
   2   6  -1 18022.5 372.438  39
   2   6  -1 17844.2 359.460  60
   2   6  -1 17983.4 371.898  12
  -2  -6   1 18265.9 361.209  53
  -2  -6   1 18047.5 355.550  38
   1   5  -1 14115.6 286.586  25
  -1  -5   1 13914.5 292.828   9
  -1  -5   1 14462.9 282.778  35
   1   5  -1 13511.3 288.322  12
   0   4  -1 34957.2 669.346  12
   0   4  -1 36168.7 664.302  23
   0  -4   1 35958.1 676.514   9
  -1   3  -1 24825.5 477.670  23
   1  -3   1 25462.9 475.883   9
  -2   2  -1 3763.82 85.3480  14
  -2   2  -1 3680.75 89.8215   7
   2  -2   1 3686.91 84.5108  11
   2  -2   1 3612.22 87.9628  10
  -3   1  -1 97330.0 1771.57   7
  -3   1  -1 94360.2 1755.62   8
   3  -1   1 97133.2 1764.42  11
   4   0   1 80202.7 1444.37  11
  -4   0  -1 75397.4 1434.01   8
   5   1   1 16403.0 358.401  58
   5   1   1 17133.3 347.220  45
   5   1   1 16141.5 338.130  43
   5   1   1 15732.8 344.188  59
   6   2   1 3478.23 95.8201  58
  -4  -7   1 5104.45 105.195  53
  -4  -7   1 4938.98 107.040  44
   3   6  -1 25547.4 520.382  39
   3   6  -1 26705.2 515.324  56
  -3  -6   1 26808.9 507.048  53
   3   6  -1 26169.1 507.180  60
  -2  -5   1 63304.6 1177.09   9
  -2  -5   1 63633.8 1170.71  35
   2   5  -1 61320.5 1177.91  12
  -1  -4   1 162149. 2921.19   9
  -1  -4   1 162181. 2913.05  15
   1   4  -1 155958. 2917.77  12
   1   4  -1 158638. 2916.34  25
   0  -3   1 69380.3 1244.18   2
   0   3  -1 70114.0 1244.64   5
   0   3  -1 66163.9 1249.57   6
   0   3  -1 67808.6 1248.62  12
   0  -3   1 65271.6 1253.02   9
  -1   2  -1 2072.51 49.6936  14
   1  -2   1 1755.78 50.2862   2
   1  -2   1 1881.77 48.4942  10
   1  -2   1 2213.59 52.3166   3
  -2   1  -1 115853. 2162.27   8
   2  -1   1 122964. 2166.44  11
  -2   1  -1 118349. 2163.79   1
  -2   1  -1 119490. 2168.48   2
  -2   1  -1 118108. 2172.55   7
   2  -1   1 120229. 2169.54  10
   3   0   1 3084.81 83.7058  11
  -3   0  -1 3586.57 89.9580   7
  -4  -1  -1 69403.9 1273.58  20
   4   1   1 67553.7 1274.98  11
   5   2   1 23159.3 454.872  45
   5   2   1 24991.6 461.675  58
   6   3   1 14344.0 282.302  58
   4   6  -1 7437.32 172.351  60
  -4  -6   1 8431.09 170.618  53
  -3  -5   1 147.645 25.5854  35
   3   5  -1 250.849 35.5679  56
   3   5  -1 156.436 36.4779  39
   3   5  -1 194.964 26.9292  60
   3   5  -1 137.349 26.2791  12
   2   4  -1 16518.3 339.607  12
  -2  -4   1 15825.1 338.936  15
  -2  -4   1 16722.4 331.206  35
  -2  -4   1 16705.8 334.857  26
  -2  -4   1 16547.1 337.792  19
  -2  -4   1 17228.7 337.380   9
  -1  -3   1 20817.7 385.483   9
  -1  -3   1 20075.0 381.902  15
  -1  -3   1 21112.3 379.014  26
   1   3  -1 21134.9 382.852  12
   0   2  -1 136709. 2495.39   5
   0  -2   1 138767. 2500.81   9
   2   0   1 245304. 4554.95  10
  -2   0  -1 253395. 4553.07   3
   2   0   1 248184. 4553.48  11
  -2   0  -1 259572. 4559.66   7
  -2   0  -1 251640. 4552.39   2
  -3  -1  -1 80146.7 1454.17   7
   3   1   1 77628.8 1450.05  11
  -4  -2  -1 186.223 33.2736  15
   4   2   1 188.588 27.2027  11
  -4  -2  -1 195.909 27.1734  19
   5   3   1 364.270 35.2031  58
  -5  -3  -1 311.639 36.6813  27
   5   3   1 268.420 33.2755  45
   6   4   1 79.1111 13.1213  58
  -4  -5   1 74706.0 1435.96  27
   4   5  -1 78901.1 1431.45  60
  -3  -4   1 104429. 1871.60  35
  -3  -4   1 99593.8 1879.91  19
  -3  -4   1 106073. 1877.41  26
  -3  -4   1 99060.6 1883.97  15
   3   4  -1 96877.6 1878.19  12
  -2  -3   1 6193.17 140.523  26
  -2  -3   1 6560.67 145.109   9
  -2  -3   1 6407.28 148.933  15
  -2  -3   1 6176.80 144.732  19
   2   3  -1 6258.78 145.374  12
   1   2  -1 960.160 28.4867   6
   1   2  -1 664.749 20.4217  11
  -1  -2   1 601.669 29.4232   9
  -1  -2   1 1112.51 31.5635  20
  -1  -2   1 623.571 19.9142   5
  -1  -2   1 726.434 28.5672  19
   1   2  -1 929.311 31.1613  12
   0   1  -1 73946.2 1373.12   5
   0  -1   1 77285.7 1373.05   5
   1   0   1 817.408 23.8882   3
  -1   0  -1 745.989 23.1387   3
  -2  -1  -1 5096.09 113.205   7
  -2  -1  -1 5086.33 104.136   6
   2   1   1 5612.54 111.179  11
   2   1   1 5107.09 106.655   1
   2   1   1 5564.09 111.327  12
   3   2   1 32420.3 619.628  11
  -3  -2  -1 32662.7 621.193  26
  -3  -2  -1 31294.3 625.928  19
  -3  -2  -1 32598.3 635.298  15
  -4  -3  -1 80764.4 1503.26  15
  -4  -3  -1 79540.3 1490.83  19
   4   3   1 79672.6 1480.82  11
   5   4   1 14489.0 274.209  58
   5   4   1 14579.0 285.774  60
   5   5  -1 740.957 32.5114  60
  -5  -5   1 841.168 28.9698  53
   4   4  -1 4455.31 125.435  60
   4   4  -1 4641.94 142.589  56
  -3  -3   1 4675.41 113.541  35
   3   3  -1 4279.25 118.451  12
  -3  -3   1 4088.53 116.793  19
  -3  -3   1 4570.79 117.108  26
  -3  -3   1 4250.45 123.352  15
  -2  -2   1 35452.0 649.155   9
   2   2  -1 34944.7 640.159  11
  -2  -2   1 33299.4 647.901  20
  -2  -2   1 35848.8 650.203  26
   2   2  -1 32991.2 649.537  12
   1   1  -1 229836. 4172.51  12
  -1  -1   1 231562. 4167.03   4
  -1  -1   1 229204. 4168.84   3
  -1  -1  -1 103621. 1877.81   6
   2   2   1 3752.03 81.0102  12
   2   2   1 2939.38 71.1608  11
  -2  -2  -1 2931.87 72.7734   7
  -2  -2  -1 3350.08 67.5670   6
  -2  -2  -1 3320.46 71.3053  20
  -2  -2  -1 2802.47 79.2732  15
  -2  -2  -1 2673.86 73.5707  19
   3   3   1 1787.28 54.3570  11
  -3  -3  -1 1609.76 54.0976  26
  -3  -3  -1 1620.40 67.3424  15
   3   3   1 1675.40 58.7597  12
  -3  -3  -1 1672.49 61.3166  19
  -4  -4  -1 9045.19 224.778  27
   4   4   1 8575.58 214.861  45
  -4  -4  -1 9382.12 219.688  15
   4   4   1 10126.9 218.697  60
   4   4   1 9423.73 204.432  11
   4   4   1 9901.09 203.692  58
  -4  -4  -1 8778.94 224.279  18
   5   5   1 14092.6 267.919  60
   5   5   1 11622.1 260.069  45
   5   4  -1 45108.8 839.864  60
   5   4  -1 44400.9 826.667  58
   4   3  -1 38328.6 692.053  60
  -4  -3   1 32959.5 692.212  15
   4   3  -1 34343.4 673.621  58
  -4  -3   1 38181.6 678.948  35
   4   3  -1 30756.3 704.502  56
  -4  -3   1 35314.1 689.067  19
  -4  -3   1 35491.6 681.427  26
   3   2  -1 37998.0 703.733  11
  -3  -2   1 38300.3 712.912  20
  -3  -2   1 36842.1 714.251  26
   3   2  -1 38502.0 717.458  12
  -2  -1   1 14023.2 262.597  21
   2   1  -1 13113.4 260.722  11
   2   1  -1 13676.5 266.365  12
   1   0  -1 63221.9 1162.63   3
  -1   0   1 64724.3 1162.77   3
   0  -1  -1 52975.9 956.196   6
   0   1   1 52402.3 956.055   6
  -1  -2  -1 320351. 5837.31   6
   1   2   1 325066. 5844.03  12
  -1  -2  -1 323577. 5835.66   7
   2   3   1 213148. 3948.51  11
  -2  -3  -1 211001. 3952.26   9
  -2  -3  -1 227778. 3950.52  26
   2   3   1 213224. 3958.08  12
  -2  -3  -1 214744. 3956.19  19
   2   3   1 226065. 3950.61  22
  -2  -3  -1 214048. 3962.61  15
  -3  -4  -1 65368.2 1234.08  19
   3   4   1 65357.0 1222.31  11
  -3  -4  -1 63881.8 1238.63  15
   3   4   1 63836.1 1233.15  12
  -4  -5  -1 42364.7 782.546  27
  -4  -5  -1 41475.1 779.445  18
   4   5   1 42853.6 812.192  39
   5   6   1 3535.71 87.9284  60
   5   3  -1 3825.81 100.945  58
   5   3  -1 4356.62 112.302  60
  -4  -2   1 39624.1 759.565  26
  -4  -2   1 36345.5 765.659  15
   4   2  -1 37858.7 746.633  61
  -4  -2   1 38061.9 762.152  19
  -4  -2   1 40951.5 753.866  20
   4   2  -1 40557.1 745.299  11
   4   2  -1 41948.4 767.048  60
  -3  -1   1 27560.5 538.723  21
   3   1  -1 28773.8 539.765  11
  -3  -1   1 27064.1 544.679  20
  -2   0   1 101528. 1689.46  13
  -2   0   1 89110.7 1676.74   3
  -2   0   1 103568. 1685.51  16
   2   0  -1 89825.6 1679.18  12
   2   0  -1 83893.2 1677.60  11
  -1   1   1 24739.7 433.207   6
   1  -1  -1 22289.4 433.551   3
   0   2   1 21344.8 399.954   2
   0  -2  -1 22723.0 406.248   6
   1   3   1 758.262 29.4107   6
  -1  -3  -1 751.425 32.4097   9
   1   3   1 791.713 33.3314  12
   2   4   1 5463.09 134.745  12
  -2  -4  -1 5710.95 131.523   9
   2   4   1 5709.17 133.536  22
  -2  -4  -1 5380.19 135.014  15
   2   4   1 5943.82 126.027  11
  -3  -5  -1 2777.23 97.5926  27
  -3  -5  -1 3110.11 98.9643  18
   3   5   1 3399.65 98.4142  12
   3   5   1 2569.88 102.630  39
  -4  -6  -1 36009.9 679.771  27
   4   6   1 34233.6 700.641  39
   4   6   1 33244.7 677.768  45
   4   6   1 36993.6 678.701  60
   5   2  -1 5987.81 148.109  58
  -4  -1   1 880.437 45.6734  20
   4   1  -1 608.422 36.3754  11
   3   0  -1 774.352 35.5677  11
  -3   0   1 648.952 36.8042  21
   2  -1  -1 27052.8 535.387  12
   2  -1  -1 25839.0 538.192  11
  -2   1   1 27291.5 551.062  13
  -1   2   1 999999. 18081.4  13
   0   3   1 168949. 3118.92  12
   0   3   1 165181. 3117.27   6
   0   3   1 172717. 3109.93   2
  -1  -4  -1 34493.4 612.686  18
  -1  -4  -1 32779.5 616.158   9
   1   4   1 33450.6 616.873  12
  -1  -4  -1 32649.9 613.948  27
  -2  -5  -1 90344.7 1663.51  27
   2   5   1 89721.4 1661.59  12
  -2  -5  -1 87739.2 1659.75  18
  -2  -5  -1 90773.6 1657.21   9
  -3  -6  -1 40918.6 828.667  18
   3   6   1 44339.2 827.668  60
   3   6   1 44569.5 837.988  12
  -3  -6  -1 45644.9 820.561  53
   3   6   1 41869.7 852.208  39
  -3  -6  -1 42952.8 834.989  27
   3   6   1 47834.4 837.684  56
   3   6   1 38908.7 833.777  45
   4   7   1 2966.20 79.5449  45
  -4  -7  -1 3088.98 79.3094  44
   4   7   1 3034.83 84.4370  60
   6   2  -1 13510.1 263.134  58
   5   1  -1 18991.3 381.628  61
   5   1  -1 19069.1 393.602  58
  -5  -1   1 18136.9 377.941  26
  -4   0   1 61883.5 1184.56  21
   4   0  -1 64831.7 1187.33  11
   3  -1  -1 36346.9 699.906  11
  -3   1   1 35596.4 710.017  13
   2  -2  -1 120559. 2293.71  11
  -2   2   1 130991. 2283.49  14
   2  -2  -1 127629. 2285.89  12
  -2   2   1 115303. 2305.68  13
  -1   3   1 16138.4 311.852   6
  -1   3   1 16083.0 321.162  13
  -1   3   1 16469.2 309.403   2
   1  -3  -1 16096.3 310.992   9
  -1   3   1 16279.7 317.121  16
   0   4   1 47652.9 841.165  25
   0  -4  -1 42688.5 844.894   9
   1   5   1 42053.8 774.607  22
   1   5   1 39625.8 771.748  12
  -1  -5  -1 39583.4 770.484   9
  -1  -5  -1 41757.4 765.277  27
  -1  -5  -1 40500.8 758.432  18
  -2  -6  -1 80010.1 1443.73   9
   2   6   1 77985.4 1449.51  12
  -2  -6  -1 78870.6 1441.85  27
   3   7   1 24998.7 506.798  39
   3   7   1 24350.1 493.568  45
   3   7   1 24256.1 488.119  60
  -3  -7  -1 24633.5 490.234  27
  -3  -7  -1 26286.1 483.771  53
  -4  -8  -1 12418.4 236.092  44
   4   8   1 11707.6 238.393  60
   6   1  -1 2644.88 73.9557  58
   5   0  -1 215.301 23.6764  43
  -5   0   1 92.0585 30.5310  26
  -4   1   1 81651.8 1575.09  21
   4  -1  -1 87752.0 1577.54  11
  -3   2   1 183127. 3474.02  16
  -3   2   1 190984. 3475.96  13
  -3   2   1 181069. 3464.65  29
  -2   3   1 28086.5 558.468  23
   2  -3  -1 28138.9 560.520  11
  -1   4   1 59645.6 1056.07  23
   1  -4  -1 60592.0 1058.83  24
   0   5   1 10935.4 218.735  22
   0   5   1 10690.2 217.265  25
   0  -5  -1 10172.8 225.131   9
  -1  -6  -1 7954.55 160.916  27
   1   6   1 6345.65 167.143  12
   1   6   1 8067.53 168.944  22
  -1  -6  -1 6331.55 166.274   9
  -2  -7  -1 3338.11 87.7982  53
   2   7   1 3282.70 99.3548  46
   2   7   1 3157.04 88.2021  60
  -2  -7  -1 3331.11 95.9247   9
   2   7   1 3141.22 99.4068  39
   2   7   1 3273.04 95.1394  45
   3   8   1 2957.20 81.2530  60
  -3  -8  -1 3105.01 78.2098  53
   3   8   1 2704.89 86.6712  39
   3   8   1 2662.19 77.7230  45
  -3  -8  -1 3342.02 83.6295  44
   6   0  -1 9232.23 206.340  58
   5  -1  -1 20859.1 394.294  43
   5  -1  -1 22246.1 420.369  61
  -4   2   1 30938.5 623.447  16
  -4   2   1 29759.3 619.790  13
  -3   3   1 31.4311 34.2905  13
  -3   3   1 112.176 39.2318  16
  -3   3   1 93.2697 31.2770  29
  -2   4   1 17850.9 375.555  16
   2  -4  -1 18119.1 377.419  11
  -2   4   1 18802.6 379.878  13
  -2   4   1 18674.7 371.919  23
   1  -5  -1 19539.9 412.809   9
  -1   5   1 21798.0 410.942  29
   1  -5  -1 19834.6 412.190  24
  -1   5   1 21673.9 404.388  25
  -1   5   1 21671.3 407.169  23
   0  -6  -1 160355. 2969.55  24
   0   6   1 167063. 2968.05  22
   0   6   1 165717. 2969.83  25
   1   7   1 72055.0 1320.49  39
   1   7   1 73984.0 1318.63  22
  -2  -8  -1 22910.6 438.991  53
   2   8   1 22440.5 451.544  39
   2   8   1 22615.2 444.125  45
  -2  -8  -1 22198.2 442.432  44
   2   8   1 22196.6 438.403  60
   3   9   1 7990.83 170.411  39
  -3  -9  -1 7984.21 166.639  51
  -3  -9  -1 8308.31 167.794  44
   6  -1  -1 10284.4 223.743  58
   5  -2  -1 27096.9 546.437  61
   5  -2  -1 27922.7 520.983  43
   4  -3  -1 96089.2 1577.05  11
  -4   3   1 72789.4 1556.17  16
   3  -4  -1 26708.5 551.548  11
  -3   4   1 28259.5 549.434  13
  -3   4   1 27076.5 542.855  29
  -3   4   1 25876.7 547.621  16
  -3   4   1 28312.3 534.898  23
   3  -4  -1 26692.7 532.573  31
   2  -5  -1 195.303 28.5753  11
  -2   5   1 223.219 29.7527  16
  -2   5   1 1192.44 44.5915  23
   2  -5  -1 416.892 32.2541  31
   1  -6  -1 33905.3 669.038   9
  -1   6   1 34306.4 653.607  25
   1  -6  -1 33204.7 664.992  24
   1  -6  -1 35085.4 657.572  31
   0  -7  -1 2235.43 71.1895  24
   0  -7  -1 2196.13 78.8882   9
   0  -7  -1 2133.41 66.4638  38
  -1  -8  -1 22454.4 430.898  24
   1   8   1 21315.0 433.760  46
   1   8   1 21627.2 434.388  39
  -1  -8  -1 20766.2 429.078  44
  -1  -8  -1 23335.1 446.427   9
   2   9   1 33586.0 627.398  39
   2   9   1 32131.0 618.302  45
  -2  -9  -1 32716.0 618.459  51
  -2  -9  -1 32809.1 622.150  44
   6  -2  -1 852.137 34.1538  43
   5  -3  -1 118.795 29.0008  43
   5  -3  -1 82.9834 36.6576  61
   4  -4  -1 11848.2 236.537  42
   4  -4  -1 10853.9 267.694  11
  -4   4   1 10720.7 243.440  29
  -4   4   1 10199.2 253.223  16
   4  -4  -1 12699.8 259.488  43
   3  -5  -1 59774.7 1138.60  31
  -3   5   1 58044.4 1141.91  16
  -3   5   1 60611.6 1140.78  29
  -3   5   1 63627.1 1127.75  23
   3  -5  -1 63356.1 1141.74  38
  -2   6   1 23287.4 465.867  16
  -2   6   1 23853.1 463.261  23
  -2   6   1 23523.3 471.440  29
   2  -6  -1 22386.1 469.730  31
  -1   7   1 39991.7 730.391  29
   1  -7  -1 39072.1 733.948  31
  -1   7   1 37313.6 732.105  22
   1  -7  -1 39084.2 738.528  38
   1  -7  -1 37189.9 741.933  24
  -1   7   1 39436.1 731.939  25
   1  -7  -1 38073.3 748.230   9
   0   8   1 56267.7 1041.05  39
   0  -8  -1 54192.7 1045.38  24
   0  -8  -1 56336.0 1059.30   9
   0  -8  -1 54331.1 1039.44  38
   0  -8  -1 54424.1 1042.03  44
   0   8   1 57921.6 1044.33  46
   0   8   1 56582.3 1042.39  22
   1   9   1 10427.5 225.117  45
  -1  -9  -1 10838.6 228.568  44
   1   9   1 10803.0 230.115  39
   1   9   1 10614.4 230.238  46
  -2 -10  -1 924.946 33.3587  44
   2  10   1 897.559 33.2594  39
   6  -3  -1 5473.63 151.787  61
   6  -3  -1 8229.63 151.912  43
   5  -4  -1 4847.27 129.654  43
   5  -4  -1 3831.51 117.332  61
  -4   5   1 19356.9 417.981  16
   4  -5  -1 20613.7 426.098  38
   4  -5  -1 18168.6 426.797  11
   4  -5  -1 22480.4 448.942  43
  -4   5   1 20313.5 415.574  29
   3  -6  -1 17598.9 384.362  40
  -3   6   1 18302.9 370.413  29
  -3   6   1 18690.1 356.965  23
   3  -6  -1 16907.0 374.326  38
   3  -6  -1 16426.6 368.465  31
  -3   6   1 17288.2 365.229  16
  -2   7   1 725.361 35.9209  50
   2  -7  -1 640.064 43.9726  40
   2  -7  -1 630.756 40.1465  31
   2  -7  -1 602.064 42.3252  38
  -2   7   1 604.878 32.7314  25
  -2   7   1 606.245 31.6054  52
  -1   8   1 1820.64 59.0129  50
  -1   8   1 1765.41 60.7393  22
   1  -8  -1 2096.53 69.6901  38
   1  -8  -1 1805.79 63.2095  44
   1  -8  -1 1837.26 69.8298  24
   1  -8  -1 1957.60 76.8494   9
  -1   8   1 2081.83 65.0738  25
   0   9   1 11410.9 235.394  39
   0   9   1 11170.8 238.135  46
   0   9   1 11076.9 233.949  22
   0  -9  -1 11846.4 240.942  24
   0  -9  -1 11017.2 236.898  44
   1  10   1 18103.6 356.307  45
   1  10   1 19016.9 361.506  39
  -1 -10  -1 18874.4 361.176  44
   6  -4  -1 10042.2 205.444  43
   5  -5  -1 8506.11 211.581  43
   4  -6  -1 17009.1 379.477  38
   4  -6  -1 16535.7 408.239  43
  -3   7   1 46872.6 850.356  29
   3  -7  -1 42649.2 859.390  38
   3  -7  -1 44487.8 855.613  31
  -3   7   1 45290.3 842.418  50
   3  -7  -1 41901.1 866.173  40
   2  -8  -1 27249.6 522.246  31
   2  -8  -1 26146.6 528.366  38
   2  -8  -1 26175.2 530.087  40
  -2   8   1 26563.5 515.237  22
  -2   8   1 25842.1 513.038  50
  -2   8   1 27783.0 512.483  25
  -2   8   1 26214.9 513.457  29
   1  -9  -1 6554.55 144.663  44
   1  -9  -1 6327.27 147.669  38
  -1   9   1 5958.71 138.327  50
  -1   9   1 6364.03 144.388  46
   1  -9  -1 6010.20 149.214  40
   0 -10  -1 743.107 37.8928  40
   0 -10  -1 715.859 33.8012  44
   0  10   1 770.659 36.1313  46
   5  -6  -1 1912.99 78.1566  43
   4  -7  -1 361.684 47.2906  43
   4  -7  -1 290.461 39.9086  38
  -4   7   1 353.426 28.6167  50
  -4   7   1 413.929 31.7557  29
   3  -8  -1 7004.72 173.658  38
  -3   8   1 7186.41 161.158  50
  -3   8   1 7302.96 163.038  29
   2  -9  -1 12877.8 279.774  40
  -2   9   1 12943.1 267.624  50
   2  -9  -1 13392.7 278.607  38
   1 -10  -1 8657.84 194.873  40
  -1  10   1 8996.10 185.742  50
  -1  10   1 9422.84 191.984  46
   1 -10  -1 9753.38 193.011  38
   0 -11  -1 8600.99 172.132  40
  -5   7   1 2007.75 55.5529  37
   5  -7  -1 1881.75 60.3945  43
  -4   8   1 8915.47 181.454  50
   4  -8  -1 8768.91 194.672  38
   4  -8  -1 8357.85 194.013  43
   3  -9  -1 6483.16 146.555  38
   3  -9  -1 6078.69 145.426  43
  -3   9   1 6233.81 137.184  50
   2 -10  -1 883.460 38.5934  40
  -2  10   1 933.255 33.5932  46
   2 -10  -1 816.515 35.8331  38
  -1  11   1 1241.62 34.0659  45
   1 -11  -1 1348.46 39.3466  40
  -1  11   1 1329.98 37.0090  46
   4  -9  -1 6703.79 142.771  43
  -4   9   1 6646.91 135.508  48
   3 -10  -1 10800.1 221.488  43
  -3  10   1 11759.9 219.815  50
  -2  10  -2 12750.5 243.342  46
  -3   9  -2 6679.53 137.599  50
   3  -9   2 7198.70 146.784  38
  -4   8  -2 280.827 19.4169  50
   4  -8   2 180.714 21.5782  38
   5  -7   2 1982.77 52.1903  43
  -5   7  -2 2212.43 53.0814  50
   1 -10   2 7279.40 145.733  40
  -1  10  -2 7344.17 146.676  46
   2  -9   2 5205.81 124.920  38
   2  -9   2 5282.18 120.395  40
   3  -8   2 2957.19 82.5784  31
  -3   8  -2 2875.72 75.1638  52
   3  -8   2 2743.52 83.4232  38
  -3   8  -2 2835.00 74.2605  50
   4  -7   2 8577.27 199.062  38
   4  -7   2 8908.09 198.175  31
   5  -6   2 16932.4 308.520  42
   5  -6   2 13945.0 312.006  43
   6  -5   2 8194.29 167.977  43
   0 -10   2 12672.9 247.243  40
   0  10  -2 13163.0 248.181  39
   1  -9   2 2361.47 66.4471  40
  -1   9  -2 2282.95 64.3090  39
  -1   9  -2 2383.64 65.5504  46
   1  -9   2 2353.61 68.9679  38
  -2   8  -2 15042.8 292.381  39
  -2   8  -2 14678.3 294.574  52
   2  -8   2 13905.0 302.862  38
   2  -8   2 14271.2 300.862  31
  -2   8  -2 15401.9 296.483  25
   2  -8   2 14571.3 299.846  40
  -3   7  -2 10712.7 220.535  25
   3  -7   2 10321.0 227.902  43
  -3   7  -2 10625.3 226.620  29
  -3   7  -2 10540.1 221.399  23
  -3   7  -2 10394.8 219.995  52
   3  -7   2 10056.8 231.403  31
   3  -7   2 10139.1 234.728  38
   4  -6   2 866.294 51.6591  31
   4  -6   2 751.619 42.5411  42
  -4   6  -2 972.481 41.1654  52
  -4   6  -2 819.747 48.4720  29
   4  -6   2 778.929 54.8674  38
   4  -6   2 666.863 48.0043  43
   5  -5   2 644.297 41.1562  42
   5  -5   2 643.682 51.1526  43
   6  -4   2 1412.43 59.2578  43
   0   9  -2 6475.93 141.715  39
   0  -9   2 6620.43 142.834  38
   0   9  -2 6224.82 137.789  46
  -1   8  -2 1639.61 56.1229  39
   1  -8   2 1526.56 59.6628  38
   1  -8   2 1743.83 58.2717  31
   1  -8   2 1483.58 56.8184  24
  -1   8  -2 1643.53 55.8200  25
  -2   7  -2 3604.94 92.2600  39
  -2   7  -2 3344.89 91.1352  50
   2  -7   2 3566.46 104.451  38
   2  -7   2 3893.05 103.691  40
  -2   7  -2 3699.21 95.0522  52
   2  -7   2 3620.09 103.878  31
  -2   7  -2 3703.49 96.5696  25
   3  -6   2 39457.8 738.415  42
  -3   6  -2 38681.6 739.478  23
  -3   6  -2 39411.7 732.479  52
  -3   6  -2 36906.1 744.459  29
   3  -6   2 38102.1 747.823  31
   3  -6   2 37370.7 752.575  38
   4  -5   2 21157.2 411.370  42
  -4   5  -2 21297.3 410.654  23
  -4   5  -2 21262.6 415.645  13
   4  -5   2 19018.2 417.391  31
   4  -5   2 20545.1 429.833  38
  -4   5  -2 20138.6 417.708  29
  -4   5  -2 18255.3 408.213  16
  -5   4  -2 17384.6 372.540  29
   5  -4   2 16887.8 387.088  43
   6  -3   2 2926.05 92.6004  43
  -1  -9   2 24174.2 439.238  38
   1   9  -2 21991.9 440.468  39
   0  -8   2 25250.4 470.929  24
   0   8  -2 23744.6 468.532  39
   0  -8   2 23503.9 469.133  38
   0   8  -2 23879.4 465.076  46
   1  -7   2 20838.8 424.850  38
  -1   7  -2 21839.6 418.199  39
   1  -7   2 20412.0 421.771  31
   1  -7   2 21653.4 430.315   9
  -1   7  -2 22349.9 415.140  22
   1  -7   2 21113.3 424.515  24
  -1   7  -2 21281.4 416.195  52
  -1   7  -2 20926.0 418.391  25
  -2   6  -2 48802.4 895.954  39
   2  -6   2 48334.6 912.553  38
   2  -6   2 47447.7 914.546  24
   2  -6   2 49214.4 911.605  31
  -2   6  -2 49676.1 908.151  29
  -3   5  -2 690.072 49.1431  23
   3  -5   2 649.671 49.7905  31
   3  -5   2 674.488 52.1514  38
   4  -4   2 6881.20 152.277  59
   4  -4   2 6106.64 166.884  42
   4  -4   2 5948.37 150.178  62
  -4   4  -2 6545.16 169.574  23
   4  -4   2 6722.55 177.856  43
   4  -4   2 6637.92 172.372  31
  -4   4  -2 5514.92 167.345  13
   5  -3   2 7268.77 192.163  43
   5  -3   2 7532.47 177.613  59
   5  -3   2 7830.77 185.397  62
   6  -2   2 16724.9 337.860  43
   6  -2   2 15851.3 337.028  59
  -2  -9   2 33.8910 9.63385  44
  -1  -8   2 7403.40 158.729  44
  -1  -8   2 7567.65 162.192  38
   0  -7   2 70100.9 1295.48  24
   0   7  -2 68237.2 1291.88  39
   0  -7   2 68466.6 1294.29  38
   0  -7   2 71951.1 1307.84   9
   0  -7   2 68665.5 1290.37  53
   0  -7   2 72818.8 1292.37  31
   0   7  -2 67845.5 1289.61  25
  -1   6  -2 21723.6 431.890  25
   1  -6   2 22822.1 443.345   9
   1  -6   2 22282.6 437.127  24
  -1   6  -2 22388.4 427.272  23
   1  -6   2 21388.9 434.190  31
   1  -6   2 22086.5 435.405  38
   2  -5   2 34392.2 681.135  24
  -2   5  -2 34349.7 668.906  23
   2  -5   2 35503.0 671.121  31
  -3   4  -2 53916.1 986.459  23
   3  -4   2 51659.3 985.667  31
  -4   3  -2 975.513 57.6473  23
   4  -3   2 1084.28 52.3081  31
  -4   3  -2 982.202 64.4557  13
   5  -2   2 1695.73 69.9317  42
   5  -2   2 1821.52 76.3843  62
   5  -2   2 1757.00 68.8721  59
   5  -2   2 1651.84 69.6738  43
   6  -1   2 3053.29 90.5855  43
   6  -1   2 2933.21 96.2542  59
  -2  -8   2 9570.92 197.898  53
  -2  -8   2 9527.78 196.783  44
  -2  -8   2 9973.04 194.925  38
   2   8  -2 9783.29 195.007  56
   1   7  -2 53796.0 1004.72  39
  -1  -7   2 52548.6 1000.07  53
  -1  -7   2 52529.3 1000.03  38
  -1  -7   2 54869.5 999.573  44
   0  -6   2 14650.7 314.710   9
   0   6  -2 15677.8 301.269  39
   0  -6   2 14842.0 301.775  38
   0  -6   2 14633.1 300.683  31
   0   6  -2 14694.0 299.854  25
   1  -5   2 5936.87 140.343  24
   1  -5   2 5808.63 138.102  31
   1  -5   2 5700.90 142.458   9
   2  -4   2 247.412 32.6327  24
   2  -4   2 286.857 27.5105  31
  -2   4  -2 268.516 32.3963  13
  -3   3  -2 39392.4 724.255  14
  -3   3  -2 37786.4 723.286  28
   3  -3   2 37979.0 732.038  31
   3  -3   2 40299.5 732.175  10
  -4   2  -2 3614.05 108.272  23
   4  -2   2 3428.13 102.403  11
  -4   2  -2 3421.40 96.1127  14
   5  -1   2 25379.3 480.839  42
   5  -1   2 22854.5 471.252  58
   5  -1   2 24922.9 481.043  59
   5  -1   2 27321.2 498.366  62
   5  -1   2 22415.5 479.170  61
   5  -1   2 21859.6 472.122  43
   6   0   2 55492.1 1089.83  59
   6   0   2 52715.8 1083.53  58
  -3  -8   2 5525.59 115.371  44
  -3  -8   2 5507.14 115.161  53
   2   7  -2 5614.49 138.557  39
   2   7  -2 5845.63 135.795  56
  -2  -7   2 5833.40 132.204  38
  -2  -7   2 5510.15 134.147  53
  -1  -6   2 21093.6 434.975   9
  -1  -6   2 21479.4 420.703  53
   1   6  -2 21685.1 431.902  12
  -1  -6   2 21584.2 421.471  38
   1   6  -2 21414.9 425.146  39
   0  -5   2 169403. 3088.11  31
   0  -5   2 166708. 3102.04   9
   0   5  -2 175536. 3093.54  12
   0   5  -2 166304. 3087.26  25
   1  -4   2 61511.7 1109.64   9
  -1   4  -2 57891.2 1106.48  23
  -2   3  -2 25774.1 488.920  28
   2  -3   2 26464.5 493.095  24
   2  -3   2 26315.7 489.973  10
  -3   2  -2 1908.70 62.8537  28
   3  -2   2 2412.89 76.7022  10
  -3   2  -2 1987.66 65.6560  14
   3  -2   2 2472.94 67.9432  11
  -4   1  -2 6331.60 143.889   8
  -4   1  -2 6157.43 144.957  14
   4  -1   2 6253.84 154.368  11
   5   0   2 2440.77 90.7224  58
   5   0   2 2875.01 92.7584  11
   5   0   2 2889.70 94.9447  61
   5   0   2 2719.71 92.1980  59
   5   0   2 2590.33 82.6179  43
   6   1   2 22619.4 453.356  59
   6   1   2 23156.8 459.010  58
  -3  -7   2 11090.4 220.662  53
   3   7  -2 10379.9 222.063  56
   3   7  -2 10714.3 218.083  60
   2   6  -2 772.545 44.0841  39
   2   6  -2 823.505 47.3571  12
   2   6  -2 716.672 40.2293  60
  -2  -6   2 661.070 40.4233  53
  -2  -6   2 814.271 41.0137  38
  -1  -5   2 455.813 37.0727   9
   1   5  -2 449.153 35.2696  12
   0  -4   2 88429.1 1693.74   9
   0   4  -2 94589.4 1686.78  12
  -1   3  -2 159211. 3008.00  23
   1  -3   2 171327. 3009.08   9
   2  -2   2 22473.9 410.628  11
  -2   2  -2 22019.5 413.684  28
   2  -2   2 21706.6 421.622  10
   3  -1   2 164129. 2944.27  10
   3  -1   2 160627. 2932.74  11
  -3   1  -2 167421. 2930.37   8
   4   0   2 62109.9 1127.88  11
  -4   0  -2 58434.7 1117.75   8
   5   1   2 13972.0 314.852  58
   5   1   2 14240.8 311.379  59
   5   1   2 14606.0 300.553  43
   6   2   2 5275.71 131.550  58
  -4  -7   2 3448.09 74.7971  44
   3   6  -2 25607.9 510.677  60
  -3  -6   2 25841.5 511.452  53
   3   6  -2 25427.3 517.007  56
   2   5  -2 70656.7 1352.65  39
  -2  -5   2 73696.0 1346.79  35
  -2  -5   2 71136.6 1349.26   9
   2   5  -2 72278.5 1354.05  12
  -2  -5   2 73181.9 1341.10  38
  -1  -4   2 68640.0 1296.63   9
   1   4  -2 67456.5 1290.96  12
  -1  -4   2 70424.5 1284.28  15
   1   4  -2 71088.2 1285.63  25
   0  -3   2 23775.1 463.762   9
   0   3  -2 24415.1 457.765  12
   1  -2   2 11692.3 233.809   2
  -1   2  -2 11197.3 229.708  14
   1  -2   2 11442.8 231.934   9
  -1   2  -2 12015.0 234.117   5
   2  -1   2 13851.5 263.653  10
  -2   1  -2 13730.9 250.451  17
   2  -1   2 12593.8 252.142  11
  -2   1  -2 12586.1 252.508   8
   3   0   2 954.493 40.0964  11
  -3   0  -2 1027.91 41.9076   8
   3   0   2 1011.04 44.7516  10
   4   1   2 30907.8 577.846  11
  -4  -1  -2 28716.5 576.066   8
   5   2   2 10723.0 238.429  58
   5   2   2 10359.3 232.924  45
   5   2   2 10726.5 225.025  43
   6   3   2 19509.1 380.913  58
   4   6  -2 2327.12 64.3162  60
  -4  -6   2 2373.95 63.1687  53
  -3  -5   2 180.322 27.1587  35
   3   5  -2 150.879 28.3678  56
   3   5  -2 142.197 27.8585  60
   2   4  -2 18679.8 383.753  12
  -2  -4   2 19139.3 382.526   9
  -2  -4   2 19281.9 379.003  35
  -2  -4   2 18810.6 381.738  26
  -2  -4   2 18497.3 382.514  15
  -1  -3   2 21856.2 427.487  26
   1   3  -2 22662.1 430.424  12
  -1  -3   2 22801.7 435.494   9
  -1  -3   2 21291.4 426.552  19
  -1  -3   2 23007.6 428.792  15
   0   2  -2 150664. 2739.22  12
   0   2  -2 156004. 2740.77   4
  -1   1  -2 403141. 7185.24  14
  -1   1  -2 389179. 7189.43   5
  -2   0  -2 299952. 5277.85   8
  -2   0  -2 291464. 5276.22   3
   2   0   2 287166. 5280.80  10
   2   0   2 288925. 5276.45  11
  -2   0  -2 289064. 5276.12   5
   2   0   2 291187. 5278.63   2
   3   1   2 94918.8 1789.82  11
  -3  -1  -2 101285. 1796.50   7
  -4  -2  -2 832.683 45.7051  15
   4   2   2 52.1400 25.1129  11
   5   3   2 10523.7 226.251  58
   5   3   2 9505.08 230.975  45
   6   4   2 4919.35 106.949  58
   4   5  -2 50545.2 997.969  60
  -4  -5   2 55732.2 992.222  35
  -3  -4   2 66918.0 1238.71  38
  -3  -4   2 67178.3 1249.17  26
   3   4  -2 66767.8 1244.21  60
  -3  -4   2 66770.3 1250.89  19
   3   4  -2 65014.1 1249.80  12
   3   4  -2 70742.4 1260.44  56
  -3  -4   2 68544.5 1245.54  35
  -2  -3   2 31203.3 617.781  15
  -2  -3   2 33297.7 611.126  35
  -2  -3   2 31798.6 615.292  19
  -2  -3   2 31449.3 611.708  26
   2   3  -2 30692.4 613.479  12
  -2  -3   2 33509.5 616.500   9
  -1  -2   2 5662.81 129.171   9
   1   2  -2 5492.18 124.275  12
  -1  -2   2 5561.72 123.578  26
  -1  -2   2 5677.89 123.897  19
   0  -1   2 101220. 1900.10   9
   0  -1   2 100504. 1895.89   5
  -1   0  -2 47365.3 862.564   5
  -1   0  -2 49217.3 861.985   8
   1   0   2 48072.4 860.600   3
  -2  -1  -2 21844.5 401.888   5
   2   1   2 20149.6 409.316  10
   2   1   2 21182.9 408.952  11
   2   1   2 21934.6 409.054   1
   2   1   2 21048.7 402.122   2
  -2  -1  -2 22804.8 408.007   6
   3   2   2 106746. 1937.39  22
   3   2   2 100783. 1935.30  11
  -3  -2  -2 107034. 1937.93   7
  -3  -2  -2 110462. 1940.41  19
  -3  -2  -2 104124. 1949.79  15
  -4  -3  -2 64471.7 1123.52  19
   4   3   2 61828.6 1115.53  11
  -4  -3  -2 58673.3 1129.70  15
  -4  -3  -2 54156.5 1135.57  18
  -4  -3  -2 56142.9 1133.29  27
   5   4   2 8480.91 191.872  60
   5   4   2 8666.23 184.420  58
   5   5  -2 984.866 31.4394  60
   4   4  -2 17541.3 379.249  56
  -4  -4   2 18511.6 359.204  35
   4   4  -2 17252.8 363.970  60
  -3  -3   2 21552.2 446.274  15
  -3  -3   2 22009.7 442.751  19
  -3  -3   2 22008.3 434.893  35
   3   3  -2 21852.4 441.092  12
  -3  -3   2 21671.6 437.574  26
  -2  -2   2 26673.8 509.676   9
  -2  -2   2 26728.9 510.582  26
  -2  -2   2 27188.0 508.276  20
  -2  -2   2 25684.8 509.572  19
   2   2  -2 26291.9 510.112  12
  -1  -1   2 103798. 1877.77   3
  -1  -1   2 99497.3 1879.36   4
   1   1  -2 104298. 1873.62   1
  -1  -1   2 102310. 1889.02   9
   1   1  -2 105971. 1875.42   6
  -1  -1   2 105512. 1886.00  20
   1   1  -2 99000.2 1885.77  12
   0   0  -2 149507. 2709.18   4
   1   1   2 152790. 2733.30   5
  -1  -1  -2 150475. 2730.86   4
  -1  -1  -2 149357. 2734.25   6
   2   2   2 29566.0 573.471  11
   2   2   2 29064.3 573.205  22
   2   2   2 29243.4 570.855  10
  -2  -2  -2 31255.0 570.474   6
  -2  -2  -2 33898.5 577.141  19
   2   2   2 31349.8 577.155  12
  -2  -2  -2 33290.6 584.664  15
  -2  -2  -2 30912.1 574.808   7
   3   3   2 15608.4 304.288  22
  -3  -3  -2 15112.2 305.709  19
  -3  -3  -2 15521.3 317.320  15
   4   4   2 13640.5 286.197  11
   4   4   2 14309.4 296.566  60
  -4  -4  -2 13264.7 305.024  18
  -4  -4  -2 14070.8 302.524  15
   4   4   2 14285.9 286.084  58
   4   4   2 13179.9 302.435  45
  -4  -4  -2 13327.5 303.946  27
   5   5   2 9880.86 198.798  60
   5   5   2 9052.65 181.295  58
   5   4  -2 20397.3 393.099  60
  -4  -3   2 23063.6 437.829  26
  -4  -3   2 21970.2 426.937  38
  -4  -3   2 21753.5 440.425  19
   4   3  -2 20392.9 421.978  58
  -4  -3   2 22647.1 433.159  35
   4   3  -2 19210.1 458.156  56
   4   3  -2 21552.1 437.783  60
  -3  -2   2 1147.14 49.5510  20
   3   2  -2 1068.26 49.9732  12
  -3  -2   2 1023.46 52.7082  26
   2   1  -2 346.878 18.6013  11
  -2  -1   2 176.408 19.2267   9
  -2  -1   2 129.883 18.0875  21
  -2  -1   2 312.197 25.1918  20
   2   1  -2 382.013 24.4751  12
  -1   0   2 141.095 10.1100   3
  -1   0   2 130.685 16.3866   9
   1   2   2 273910. 4958.56  11
   2   3   2 118696. 2120.68  11
  -2  -3  -2 114802. 2114.55   7
  -2  -3  -2 115297. 2130.47  15
   2   3   2 112231. 2127.23  12
   2   3   2 113807. 2121.80  22
  -3  -4  -2 49064.6 933.461  27
   3   4   2 49056.7 922.790  12
  -3  -4  -2 49205.9 927.790  15
  -3  -4  -2 48257.3 933.555  18
   3   4   2 48252.5 912.617  11
  -4  -5  -2 26234.4 513.156  18
   4   5   2 26633.5 508.327  60
  -4  -5  -2 26855.4 515.864  27
   5   6   2 2842.56 77.2053  60
   5   6   2 2493.18 73.4464  45
   5   3  -2 32070.3 612.357  58
   5   3  -2 33326.3 623.101  60
  -4  -2   2 95665.9 1740.89  26
   4   2  -2 94317.6 1726.59  61
  -4  -2   2 93018.4 1743.67  19
  -3  -1   2 38588.9 730.270  32
  -3  -1   2 41126.2 731.457  21
   3   1  -2 39519.2 726.116  11
   3   1  -2 38431.5 736.863  12
  -2   0   2 26634.7 508.771   9
  -2   0   2 26609.4 511.909  21
   2   0  -2 25112.3 510.618  12
   2   0  -2 26121.6 507.123  11
   1  -1  -2 495558. 9587.49   9
  -1   1   2 522458. 9414.56   9
   0  -2  -2 27668.2 516.973   6
   0   2   2 28513.3 517.040   6
  -1  -3  -2 128370. 2213.63   6
   1   3   2 122678. 2223.20  12
  -1  -3  -2 123236. 2205.34   7
  -1  -3  -2 126896. 2221.25  18
   1   3   2 121051. 2202.31   2
  -1  -3  -2 124094. 2218.60   9
   1   3   2 129374. 2217.43   6
   2   4   2 36877.0 695.868  12
  -2  -4  -2 36717.6 697.841  18
  -2  -4  -2 35890.8 697.464  27
  -2  -4  -2 35185.2 689.114   9
   3   5   2 54333.9 1035.89  12
  -3  -5  -2 53521.8 1036.95  18
  -3  -5  -2 56362.2 1043.02  27
   4   6   2 24510.5 463.288  60
  -4  -6  -2 24400.6 463.647  27
  -5  -7  -2 12319.7 238.524  51
   5   2  -2 228.189 29.3624  60
   5   2  -2 135.124 26.4241  58
   4   1  -2 1516.82 53.6016  11
   4   1  -2 1568.56 57.1726  61
   4   1  -2 1648.65 72.9446  60
  -4  -1   2 1413.56 61.7038  20
  -4  -1   2 1379.65 62.7827  26
   3   0  -2 67872.2 1257.11  11
  -3   0   2 65843.3 1259.06  21
   2  -1  -2 53326.7 1025.13  11
   2  -1  -2 54067.9 1025.97  12
   1  -2  -2 46949.7 912.942   9
  -1   2   2 48600.4 908.118   6
   0  -3  -2 69581.1 1225.94   6
   0   3   2 67081.2 1225.36   6
  -1  -4  -2 793.391 35.0597  18
  -1  -4  -2 837.864 38.6809   9
   1   4   2 880.279 40.9206  12
   1   4   2 756.136 37.6457  22
  -2  -5  -2 32194.3 619.737  18
  -2  -5  -2 31344.5 622.168  27
   2   5   2 32433.1 640.886  22
   2   5   2 32613.7 625.222  12
  -2  -5  -2 32563.9 619.391   9
  -3  -6  -2 11594.6 261.307  18
   3   6   2 11397.3 280.562  39
   3   6   2 11219.7 279.229  45
   4   7   2 1480.66 56.5136  60
  -4  -7  -2 1497.44 49.2393  44
   5   1  -2 13519.2 300.177  58
   5   1  -2 14583.6 293.260  61
   4   0  -2 78693.6 1430.70  11
  -4   0   2 75264.0 1438.03  20
  -4   0   2 77099.8 1432.03  21
   4   0  -2 76428.4 1432.38  61
  -3   1   2 77096.9 1493.65  21
   3  -1  -2 79938.9 1490.86  11
   2  -2  -2 13359.8 260.057  12
  -2   2   2 12613.5 274.154  13
   2  -2  -2 12785.6 262.604  11
  -1   3   2 85004.8 1621.69  16
  -1   3   2 89538.6 1612.48   6
   1  -3  -2 89529.1 1615.23   9
   0  -4  -2 144147. 2615.04   9
   0   4   2 140735. 2610.26  22
   0   4   2 145092. 2600.10   2
   0   4   2 142005. 2606.66  25
  -1  -5  -2 259849. 4602.41  18
  -1  -5  -2 254344. 4605.97  27
  -1  -5  -2 259761. 4614.64   9
   2   6   2 73077.2 1386.77  22
  -2  -6  -2 70730.6 1357.54  18
  -2  -6  -2 73435.1 1365.30  27
   3   7   2 55352.3 1010.13  60
   3   7   2 50438.2 1018.57  45
  -3  -7  -2 54809.2 1010.29  27
   3   7   2 55790.7 1030.17  39
  -3  -7  -2 50391.2 1000.98  18
  -3  -7  -2 55238.7 1005.88  44
   4   8   2 14753.4 296.684  45
  -4  -8  -2 15648.3 294.629  44
   6   1  -2 176.020 18.2445  58
   5   0  -2 3537.10 98.1891  61
  -5   0   2 2766.29 91.3535  26
  -4   1   2 51630.3 1012.80  21
   4  -1  -2 54312.0 1011.08  11
   4  -1  -2 54212.5 1012.92  61
   3  -2  -2 225862. 4095.61  11
  -3   2   2 223068. 4104.28  16
  -2   3   2 7161.77 156.624  23
  -2   3   2 6937.41 170.255  16
   2  -3  -2 7247.22 165.572  11
  -2   3   2 7239.98 164.859  29
   1  -4  -2 1088.10 43.4127   9
  -1   4   2 1118.33 38.1735  23
   0  -5  -2 35172.6 646.008  24
   0   5   2 34637.1 647.327  22
   0   5   2 34842.4 645.882  25
  -1  -6  -2 179.060 29.9871   9
   1   6   2 87.2975 25.2593  22
   2   7   2 101.361 28.9297  46
  -2  -7  -2 187.416 29.6536   9
  -2  -7  -2 138.071 26.7322  27
   2   7   2 150.479 27.2700  45
   2   7   2 154.930 25.4655  60
  -2  -7  -2 188.490 22.3023  53
   3   8   2 21653.6 424.871  39
   3   8   2 20476.8 415.625  45
   3   8   2 20350.8 410.855  60
  -3  -8  -2 21160.4 409.958  44
   6   0  -2 2781.93 76.1991  58
   5  -1  -2 3922.02 116.183  61
  -4   2   2 18743.3 383.218  16
   4  -2  -2 19359.6 387.086  11
   4  -2  -2 18060.5 385.351  61
  -4   2   2 17314.2 382.211  21
  -3   3   2 10208.6 245.740  16
  -3   3   2 10117.7 232.236  29
   2  -4  -2 207403. 3662.91  11
  -2   4   2 195319. 3650.84  16
  -2   4   2 202048. 3635.84  23
  -2   4   2 195478. 3645.46  29
   1  -5  -2 32809.0 632.253  24
  -1   5   2 32104.1 628.461  29
   1  -5  -2 32101.4 636.640   9
  -1   5   2 31805.7 619.718  25
   0  -6  -2 77212.6 1439.22  24
   0  -6  -2 77250.5 1452.85   9
   0   6   2 78209.4 1440.90  22
   0   6   2 78935.5 1440.33  25
  -1  -7  -2 78052.6 1425.96   9
   1   7   2 76288.6 1416.64  22
  -1  -7  -2 74680.8 1403.04  27
  -2  -8  -2 22415.2 456.907  44
   2   8   2 24446.1 470.519  39
   2   8   2 22624.5 455.807  60
   2   8   2 24580.3 466.646  45
  -2  -8  -2 23046.2 451.290  53
  -3  -9  -2 10940.9 223.139  51
  -3  -9  -2 11308.2 222.330  44
   3   9   2 11426.8 228.558  39
   6  -1  -2 1819.18 62.7335  58
   5  -2  -2 12697.2 287.695  61
   4  -3  -2 43255.9 845.108  61
   4  -3  -2 41769.1 815.933  43
  -3   4   2 72904.7 1450.48  16
  -3   4   2 77545.7 1445.43  29
  -2   5   2 6185.81 139.651  23
   2  -5  -2 5642.99 159.309  11
   2  -5  -2 6509.67 146.566  31
  -2   5   2 6238.42 150.350  29
  -2   5   2 5920.24 147.841  16
   1  -6  -2 14306.9 313.413  24
   1  -6  -2 14834.1 320.793   9
  -1   6   2 15850.1 302.867  25
   1  -6  -2 15170.1 305.330  31
  -1   6   2 15723.8 308.505  29
   0  -7  -2 5046.65 126.614  24
   0   7   2 5204.43 126.739  22
   0  -7  -2 5198.17 139.481   9
   0   7   2 5327.66 128.419  25
  -1  -8  -2 31957.7 617.878  24
   1   8   2 33455.2 625.768  39
   1   8   2 33361.8 624.955  22
  -1  -8  -2 31277.6 616.879  51
  -1  -8  -2 31026.4 619.829  44
  -1  -8  -2 33286.4 637.794   9
   1   8   2 32286.1 626.622  46
   2   9   2 22488.1 426.691  39
  -2  -9  -2 21460.7 418.905  51
  -2  -9  -2 21608.3 420.467  44
  -3 -10  -2 23089.1 430.020  44
   6  -2  -2 976.419 36.4323  58
   5  -3  -2 7073.95 204.197  61
   5  -3  -2 8664.76 183.048  43
  -4   4   2 37754.9 789.956  16
   4  -4  -2 35904.6 804.037  61
   4  -4  -2 46375.9 829.812  11
   4  -4  -2 44060.9 791.369  43
   3  -5  -2 65506.1 1171.89  38
  -3   5   2 62035.9 1174.21  16
  -3   5   2 63530.7 1169.72  29
   2  -6  -2 65605.3 1272.36  31
   2  -6  -2 68867.9 1277.91  38
  -2   6   2 74009.2 1272.54  16
   2  -6  -2 62882.9 1271.72  11
  -2   6   2 69564.4 1273.51  29
   1  -7  -2 25522.8 516.488  24
  -1   7   2 25610.3 505.474  22
   1  -7  -2 25995.9 509.725  38
   1  -7  -2 25040.5 523.156   9
  -1   7   2 26971.0 505.640  29
  -1   7   2 26837.6 503.827  25
   0   8   2 31104.7 593.662  22
   0   8   2 29381.3 585.157  50
   0  -8  -2 30309.9 593.444  24
   0   8   2 32335.9 593.084  46
   0  -8  -2 31223.8 609.847   9
   0  -8  -2 30117.8 592.585  44
  -1  -9  -2 2627.37 74.3430  24
   1   9   2 2679.83 77.7896  39
   1   9   2 2540.48 79.3300  46
   2  10   2 628.143 29.8023  39
  -2 -10  -2 577.223 24.4406  51
   2  10   2 534.770 25.6623  45
  -2 -10  -2 577.418 29.7735  44
   6  -3  -2 4924.58 122.572  61
  -5   4   2 5014.17 125.417  37
   5  -4  -2 5428.53 128.029  43
  -4   5   2 5581.37 150.042  16
  -4   5   2 5497.37 141.650  29
   3  -6  -2 9619.95 232.859  11
   3  -6  -2 9923.80 232.501  38
  -3   6   2 10077.5 225.039  16
  -3   6   2 10049.9 224.311  29
  -3   6   2 9644.16 213.909  50
   2  -7  -2 4663.84 132.764  40
   2  -7  -2 4829.51 126.142  31
  -2   7   2 4987.38 119.532  50
   2  -7  -2 4794.53 129.981  38
  -2   7   2 4607.16 121.998  29
  -1   8   2 15984.2 331.171  22
   1  -8  -2 16814.5 341.406  40
   1  -8  -2 17572.4 354.681   9
   1  -8  -2 16607.2 336.688  38
  -1   8   2 16853.8 331.103  25
   1  -8  -2 16164.3 336.581  44
  -1   8   2 15450.4 327.379  50
   0  -9  -2 16967.8 340.917  24
   0   9   2 17356.7 339.212  22
   0   9   2 17085.1 333.752  50
   0   9   2 16126.2 338.480  46
   0  -9  -2 16387.2 339.729  44
   1  10   2 20545.9 387.210  39
   1  10   2 19209.5 385.336  45
  -1 -10  -2 20116.4 388.644  44
  -5   5   2 6695.66 158.445  37
   5  -5  -2 6168.41 154.112  61
  -4   6   2 9841.73 220.170  29
   4  -6  -2 10282.5 255.341  43
  -3   7   2 19986.7 400.031  50
   3  -7  -2 18794.4 416.849  38
   2  -8  -2 28063.5 575.537  40
  -2   8   2 28292.6 558.683  50
  -2   8   2 28795.0 560.562  29
  -2   8   2 29391.3 559.854  22
   2  -8  -2 28016.8 571.624  38
   2  -8  -2 29416.4 570.050  44
   1  -9  -2 11094.7 237.965  44
  -1   9   2 11781.8 236.993  22
  -1   9   2 11066.2 233.027  46
  -1   9   2 10749.4 231.043  50
   1  -9  -2 11690.8 238.740  38
   1  -9  -2 10620.5 241.383  40
   0 -10  -2-1.42959 20.4736  40
   0  10   2 6.85094 19.5146  46
  -1 -11  -2 10132.6 194.692  44
  -1 -11  -2 10502.8 194.274  40
   5  -6  -2 57.6360 26.2808  43
  -5   6   2 45.8136 19.2129  37
  -4   7   2 5854.76 136.152  29
  -4   7   2 5842.50 130.385  50
  -3   8   2 18387.1 357.972  29
   3  -8  -2 17271.0 368.534  38
  -3   8   2 17671.6 354.034  50
   2  -9  -2 22644.6 441.792  38
  -2   9   2 22151.5 433.412  50
   2  -9  -2 22063.2 446.718  40
   1 -10  -2 18351.2 359.420  44
   1 -10  -2 18185.0 365.185  40
  -1  10   2 18008.7 356.188  50
  -1  10   2 19072.2 359.765  46
   0 -11  -2 20621.4 376.617  40
   0 -11  -2 19983.8 373.296  44
  -5   7   2 3533.97 82.0983  48
   5  -7  -2 3687.67 89.8589  43
  -4   8   2 9899.55 197.501  50
  -4   8   2 9607.31 200.929  37
   4  -8  -2 9518.30 212.962  43
  -3   9   2 2567.85 66.4896  48
   3  -9  -2 2686.95 78.3706  38
  -3   9   2 2611.08 70.8687  50
   2 -10  -2 459.458 31.1088  40
  -2  10   2 433.158 25.2774  50
   2 -10  -2 399.688 26.7113  38
   1 -11  -2 293.005 21.0524  40
  -1  11   2 262.891 14.6076  50
  -1  11   2 255.550 16.2031  46
   4  -9  -2 5298.63 115.211  43
  -4   9   2 5272.22 108.026  50
  -4   9   2 5121.34 107.910  48
   3 -10  -2 16458.7 325.798  43
  -3  10   2 17229.7 321.745  50
  -4   8  -3 71.7971 10.8132  50
  -5   7  -3 822.461 25.9969  50
  -2   9  -3 776.793 27.8558  39
   2  -9   3 735.749 31.3365  38
  -3   8  -3 4892.18 107.977  52
   3  -8   3 4729.35 112.775  31
  -3   8  -3 4794.36 103.892  50
   3  -8   3 4515.07 112.954  38
   4  -7   3 5172.79 118.990  42
   4  -7   3 5041.87 124.835  38
   4  -7   3 5467.32 126.973  31
  -4   7  -3 5090.28 119.603  50
  -4   7  -3 5629.26 118.568  52
   5  -6   3 10850.6 212.985  42
   5  -6   3 10011.2 208.494  43
  -1   9  -3 11567.4 234.562  46
   1  -9   3 11838.7 234.428  40
  -1   9  -3 12213.4 237.817  39
   1  -9   3 12463.6 241.399  38
  -2   8  -3 15998.0 304.996  39
   2  -8   3 14979.8 312.248  38
  -2   8  -3 14932.7 303.787  52
   2  -8   3 15737.3 311.715  31
   3  -7   3 6617.18 150.861  42
  -3   7  -3 6789.94 144.457  39
  -3   7  -3 6808.89 149.797  52
   3  -7   3 6221.52 157.618  38
   3  -7   3 6268.75 155.896  31
   4  -6   3 293.700 29.3490  42
  -4   6  -3 349.973 27.8009  52
   4  -6   3 313.505 37.4583  38
   4  -6   3 231.768 32.2322  31
   5  -5   3 37.5332 22.3113  43
   5  -5   3 66.2870 26.9942  42
  -5   5  -3 74.9168 16.7073  52
   6  -4   3 3584.96 91.1224  43
   0   9  -3 5514.33 120.686  39
   0  -9   3 5616.14 121.708  38
  -1   8  -3 11236.3 231.705  39
   1  -8   3 11575.9 234.971  31
   1  -8   3 10878.1 235.822  38
   2  -7   3 13822.9 280.493  42
   2  -7   3 13187.5 285.393  38
  -2   7  -3 13255.4 274.929  52
   2  -7   3 13354.8 284.362  31
  -2   7  -3 13950.0 276.030  39
  -2   7  -3 13597.5 277.595  25
   3  -6   3 18441.2 381.814  42
  -3   6  -3 18455.5 379.336  23
  -3   6  -3 19701.5 370.940  39
   3  -6   3 18440.9 390.240  38
   3  -6   3 18675.3 387.004  31
  -3   6  -3 18111.0 385.367  29
  -3   6  -3 18522.9 376.152  52
   4  -5   3 7834.62 191.121  42
   4  -5   3 7643.69 195.636  31
  -4   5  -3 8103.09 196.431  29
   5  -4   3 6717.46 172.241  42
  -5   4  -3 6264.79 163.597  29
   6  -3   3 1754.80 65.7371  43
   1   9  -3 11335.0 220.747  39
   0   8  -3 15836.3 314.367  39
   0  -8   3 15819.5 315.755  38
   0  -8   3 16007.0 310.958  31
   0   8  -3 15294.4 307.719  46
   1  -7   3 16204.6 316.071  24
  -1   7  -3 15371.8 311.186  39
   1  -7   3 15027.8 315.891  38
  -1   7  -3 15029.6 306.871  52
   1  -7   3 15833.6 317.421  31
  -1   7  -3 15284.2 310.046  25
   2  -6   3 5906.65 143.095  24
   2  -6   3 5446.32 137.602  42
  -2   6  -3 5420.45 132.659  23
  -2   6  -3 5573.29 132.358  39
   2  -6   3 5877.64 143.907  31
   2  -6   3 5430.50 140.132  38
  -2   6  -3 5662.86 133.420  52
   3  -5   3 3367.77 100.646  42
  -3   5  -3 2577.36 93.4895  23
  -3   5  -3 2420.11 90.0176  13
  -3   5  -3 3156.26 85.9666  39
   3  -5   3 2914.58 98.2717  31
   3  -5   3 2895.61 102.959  38
   4  -4   3 21177.1 408.486  62
  -4   4  -3 20540.8 426.637  23
   4  -4   3 21706.8 436.806  31
  -4   4  -3 19306.1 427.673  13
   4  -4   3 20489.1 432.495  42
   4  -4   3 18313.4 419.254  43
  -5   3  -3 2770.62 95.4625  23
   5  -3   3 3070.87 90.7531  59
   5  -3   3 3110.08 98.4002  62
   5  -3   3 2644.81 99.0597  43
   6  -2   3 12380.9 256.766  59
   6  -2   3 11650.6 258.667  43
   1   8  -3 11376.0 236.568  39
  -1  -8   3 11847.2 236.794  38
   0   7  -3 8139.81 188.395  39
   0  -7   3 8182.79 191.626  38
   0   7  -3 8478.51 185.938  25
  -1   6  -3 28211.6 568.956  25
   1  -6   3 29623.3 574.007  24
   1  -6   3 30088.4 582.763   9
  -1   6  -3 31186.3 571.071  39
   1  -6   3 29838.1 575.998  38
  -1   6  -3 29856.3 566.565  52
   1  -6   3 29482.4 575.692  31
   2  -5   3 86005.1 1586.33  31
   2  -5   3 87563.0 1587.23  38
   2  -5   3 89141.6 1594.40  24
  -3   4  -3 66793.9 1317.72  13
   3  -4   3 69728.4 1321.68  31
   4  -3   3 881.093 55.5965  42
  -4   3  -3 854.713 56.0178  23
   4  -3   3 986.134 43.7496  59
  -4   3  -3 970.859 50.7875  28
   5  -2   3 3210.38 109.350  62
   5  -2   3 3413.33 106.418  42
   5  -2   3 3324.50 96.0693  59
   5  -2   3 3083.00 100.326  43
   6  -1   3 631.525 47.3766  59
   6  -1   3 570.680 41.2650  43
   2   8  -3 16443.6 310.403  56
  -2  -8   3 16181.9 309.984  44
   1   7  -3 392.563 31.2065  39
   1   7  -3 981.799 37.4365  56
  -1  -7   3 446.996 32.3098  53
  -1  -7   3 796.780 39.8993  38
   0  -6   3 1085.05 56.2101   9
   0   6  -3 1119.66 44.9507  39
   0  -6   3 1109.60 47.5549  38
   0  -6   3 1138.60 48.2401  31
   0   6  -3 1048.84 42.9395  25
  -1   5  -3 6150.36 139.322  23
   1  -5   3 6096.23 150.909   9
   1  -5   3 6084.79 145.849  31
   2  -4   3 46424.8 854.311  31
  -2   4  -3 45314.7 853.161  13
   3  -3   3 64878.1 1230.81  31
   3  -3   3 67570.3 1225.47  10
  -3   3  -3 66223.5 1219.24  28
  -4   2  -3 40537.9 808.416  23
  -4   2  -3 41307.4 795.713  14
   4  -2   3 41601.2 819.018  10
  -4   2  -3 43461.2 797.734  28
   5  -1   3 3743.55 108.288  42
   5  -1   3 3839.67 109.006  59
   5  -1   3 4031.37 123.127  62
   5  -1   3 3767.45 106.997  43
   6   0   3 16550.7 328.157  59
   6   0   3 15879.3 319.196  43
  -2  -7   3 16050.4 311.871  38
   2   7  -3 15100.8 312.416  39
  -2  -7   3 15792.0 312.461  53
   2   7  -3 15854.0 313.673  56
  -1  -6   3 49409.5 895.660   9
   1   6  -3 44500.5 877.585  39
   1   6  -3 46672.0 876.926  56
  -1  -6   3 44786.9 877.516  38
  -1  -6   3 48465.2 875.794  31
  -1  -6   3 45080.8 874.775  53
   1   6  -3 48706.7 887.565  12
   0  -5   3 61269.5 1164.05   9
   0  -5   3 60150.8 1148.56  31
   0   5  -3 63621.0 1145.01  25
  -1   4  -3 106364. 2005.58  23
   1  -4   3 108071. 2011.36   9
   1  -4   3 108706. 2004.75  31
  -1   4  -3 113003. 1998.73  30
  -2   3  -3 19675.0 405.477  23
  -2   3  -3 20432.8 401.179  28
   2  -3   3 21142.4 402.307  10
  -3   2  -3 9303.75 202.724  14
  -3   2  -3 9119.01 202.249  28
   4  -1   3 4816.90 122.993  11
  -4   1  -3 4885.29 123.477  14
  -4   1  -3 4885.64 121.633  28
   5   0   3 7255.56 167.747  42
   5   0   3 7016.43 173.315  11
   5   0   3 7751.55 181.662  62
   5   0   3 6491.89 167.425  58
   5   0   3 7303.74 174.160  59
   5   0   3 6678.66 164.643  43
   6   1   3 1670.91 68.8652  59
   6   1   3 1493.99 64.3312  58
  -3  -7   3 1361.34 41.0009  53
  -3  -7   3 1275.96 39.7436  44
   2   6  -3 994.996 45.5518  39
   2   6  -3 941.027 41.4503  60
   2   6  -3 955.043 45.0071  56
  -2  -6   3 940.936 45.3191  53
  -1  -5   3 36148.8 688.216   9
   1   5  -3 34814.3 671.169  39
  -1  -5   3 36664.5 672.885  38
   1   5  -3 36475.7 682.330  12
   0  -4   3 30625.2 613.062   9
   0   4  -3 32299.3 601.091  30
   0   4  -3 31878.1 603.299  12
  -1   3  -3 33110.4 621.244  23
   1  -3   3 32600.7 623.801   9
   2  -2   3 133019. 2489.22  10
  -2   2  -3 135062. 2480.28  14
  -2   2  -3 139150. 2481.10  28
  -3   1  -3 136615. 2428.67   8
   3  -1   3 128003. 2427.79  11
   3  -1   3 135134. 2447.64  10
  -3   1  -3 139846. 2424.43  17
  -3   1  -3 124518. 2430.46  14
  -4   0  -3 42318.1 788.318   8
   4   0   3 40698.8 790.406  11
  -4   0  -3 41730.4 784.496  17
   5   1   3 1089.25 60.3717  58
   5   1   3 1223.37 62.0403  59
   5   1   3 1277.94 54.9780  45
   5   1   3 1064.27 49.8077  43
   6   2   3 816.138 45.9113  59
   6   2   3 876.988 47.1827  58
   3   6  -3 20507.3 403.771  60
   3   6  -3 20587.8 409.598  56
  -3  -6   3 21264.0 401.261  38
  -3  -6   3 20597.3 404.357  53
  -2  -5   3 152885. 2876.53   9
   2   5  -3 155276. 2867.98  60
   2   5  -3 154546. 2865.17  49
  -2  -5   3 158682. 2875.36  35
   2   5  -3 156946. 2874.22  56
   2   5  -3 159153. 2881.23  12
  -2  -5   3 160264. 2870.06  38
  -1  -4   3 107571. 1942.39  35
  -1  -4   3 105142. 1954.30   9
   1   4  -3 103781. 1946.34  12
   0  -3   3 16657.8 342.526   9
   0   3  -3 17518.6 334.136  12
   1  -2   3 26112.9 508.820   9
  -1   2  -3 27684.4 507.148  28
  -2   1  -3 9398.96 180.945  17
   2  -1   3 8495.96 194.880  10
   3   0   3 333.378 23.3692  11
   3   0   3 229.360 30.7672  10
  -3   0  -3 358.045 25.6568  17
  -3   0  -3 266.834 24.8746   8
   4   1   3 45608.9 863.959  11
  -4  -1  -3 44626.9 861.476   8
  -4  -1  -3 46817.3 866.019  17
   5   2   3 64405.7 1219.22  59
   5   2   3 67991.2 1221.89  58
   5   2   3 66391.9 1215.01  45
   5   2   3 65433.6 1206.19  43
   6   3   3 9388.45 201.507  58
   4   6  -3 5240.84 112.466  60
  -4  -6   3 5539.43 112.302  53
  -3  -5   3 1954.69 65.7399  35
   3   5  -3 1707.41 63.7798  60
  -3  -5   3 1851.46 61.6887  38
   3   5  -3 1758.17 67.9397  56
  -2  -4   3 857.667 45.7950   9
  -2  -4   3 918.282 44.2984  38
  -2  -4   3 908.663 47.8723  35
   2   4  -3 1040.48 51.4126  12
  -1  -3   3 83859.8 1606.21   9
  -1  -3   3 87684.9 1596.28  19
   1   3  -3 83725.9 1599.14  12
  -1  -3   3 85452.2 1597.69  26
   0   2  -3 66683.5 1264.37  12
   0  -2   3 67460.7 1272.95   9
  -1   1  -3 30661.8 584.765  14
   1  -1   3 31541.2 580.164   3
   1  -1   3 31375.4 588.231   9
  -1   1  -3 31779.6 588.747   5
  -2   0  -3 75342.6 1433.96   3
   2   0   3 81913.9 1435.43  11
  -2   0  -3 80983.4 1436.79  17
  -2   0  -3 75494.7 1436.06   8
   2   0   3 80481.9 1446.68  10
  -2   0  -3 81554.3 1436.21   5
   2   0   3 74408.4 1442.66   2
  -3  -1  -3 36594.7 728.838   8
   3   1   3 38233.0 727.385  11
   3   1   3 38560.4 732.460  10
  -3  -1  -3 38927.4 733.512   7
   4   2   3 280.535 28.7819  11
  -4  -2  -3 245.990 36.5554  18
   5   3   3 23375.4 457.307  58
   5   3   3 23398.5 465.100  45
   6   4   3 4122.36 110.801  45
   4   5  -3 43004.4 812.259  60
  -4  -5   3 43898.2 810.751  53
  -3  -4   3 26461.5 563.462  15
  -3  -4   3 30252.2 567.782  35
   3   4  -3 28146.3 564.018  49
   3   4  -3 29270.2 574.785  56
   3   4  -3 28526.9 564.022  60
  -3  -4   3 30594.3 563.903  38
  -2  -3   3 51607.4 1003.80  19
  -2  -3   3 55872.2 1005.09  35
  -2  -3   3 54784.0 1007.97  15
  -2  -3   3 53748.0 1008.20   9
   2   3  -3 52697.7 1006.49  12
  -2  -3   3 52062.1 1003.51  26
  -1  -2   3 17092.9 321.110  19
  -1  -2   3 17049.9 330.466   9
   1   2  -3 15714.3 322.495  12
  -1  -2   3 16136.3 322.059  26
   0   1  -3 315178. 5569.11   1
   0  -1   3 311815. 5571.24   5
   0  -1   3 295841. 5577.43   9
   0   1  -3 307752. 5574.46   4
   0   1  -3 303239. 5570.91  12
   1   0   3 4955.32 100.045   1
  -1   0  -3 5148.14 100.378   4
   1   0   3 5096.53 102.871   5
   2   1   3 137849. 2599.01  22
   2   1   3 145213. 2599.41  11
  -2  -1  -3 133276. 2599.27   8
   2   1   3 134625. 2601.26  10
  -2  -1  -3 144885. 2593.02   4
   2   1   3 145385. 2601.13   2
  -3  -2  -3 233582. 4384.89  18
   3   2   3 238444. 4371.71  22
   3   2   3 243518. 4370.33  11
  -3  -2  -3 237245. 4369.87   7
  -3  -2  -3 248585. 4378.88  15
  -3  -2  -3 240652. 4380.47  27
   4   3   3 90559.8 1622.55  11
  -4  -3  -3 91775.0 1634.84  15
  -4  -3  -3 86143.3 1635.91  27
   5   4   3 17442.7 390.879  45
   5   4   3 18852.9 369.768  58
   4   4  -3 25364.1 528.225  56
  -4  -4   3 28378.5 514.484  38
  -4  -4   3 27709.3 518.502  35
   4   4  -3 25207.1 519.544  60
   3   3  -3 47795.8 917.614  60
  -3  -3   3 49169.8 919.072  35
  -3  -3   3 46383.6 911.026  38
  -3  -3   3 47644.6 924.676  15
  -3  -3   3 46691.9 919.760  19
   3   3  -3 47456.4 920.875  12
   3   3  -3 50141.5 935.357  56
  -3  -3   3 48000.1 919.048  26
  -2  -2   3 33578.6 671.007  19
   2   2  -3 33214.6 671.187  12
  -2  -2   3 34384.8 671.951  26
  -1  -1   3 136973. 2479.74  20
  -1  -1   3 138202. 2486.41   9
   1   1  -3 133882. 2481.48  12
  -1  -1   3 135979. 2480.01  26
   0   0  -3 23899.6 446.310  12
   0   0   3 24413.9 451.026   9
   0   0  -3 23798.8 447.904   4
  -1  -1  -3 2147.25 50.6287   8
  -1  -1  -3 2146.17 48.8259   3
   1   1   3 2120.93 53.1964   1
   2   2   3 482.880 24.2548  22
   2   2   3 483.153 22.0074  10
  -2  -2  -3 409.489 25.2909  15
  -2  -2  -3 498.454 32.0781  18
   3   3   3 26767.8 515.594  11
   3   3   3 26616.2 518.094  22
  -3  -3  -3 27412.2 530.714  27
  -3  -3  -3 27133.9 525.755  15
  -3  -3  -3 26278.4 532.519  18
   4   4   3 10313.0 236.024  11
   4   4   3 10796.2 240.766  60
  -4  -4  -3 9925.24 245.271  18
  -4  -4  -3 11107.0 251.850  27
   4   4   3 11129.9 252.793  45
   5   5   3 16049.8 306.735  58
   5   5   3 16196.2 319.912  60
   5   4  -3 15107.8 300.377  60
  -5  -4   3 16437.1 299.262  53
   4   3  -3 6696.86 164.695  60
  -4  -3   3 7101.19 158.232  38
  -4  -3   3 6838.51 161.673  35
  -4  -3   3 7159.52 165.604  26
  -3  -2   3 19065.3 416.118  19
  -3  -2   3 20539.8 419.270  26
   3   2  -3 19615.7 414.940  12
  -2  -1   3 1263.99 47.3178   9
   2   1  -3 1226.02 47.6784  12
  -2  -1   3 1187.51 47.3501  20
   1   0  -3 13991.2 260.413  11
  -1   0   3 13575.7 271.672   9
  -1   0   3 14015.3 267.728  20
   1   0  -3 13613.2 269.228  12
   0   1   3 356999. 6463.36   9
  -1  -2  -3 138083. 2542.14   6
   1   2   3 141004. 2541.00   5
  -1  -2  -3 141075. 2542.80   9
   2   3   3 92386.6 1598.01  11
   2   3   3 83620.6 1596.45  22
  -2  -3  -3 81671.7 1604.36  18
  -2  -3  -3 87950.7 1604.77  27
  -2  -3  -3 88487.5 1589.99   7
   3   4   3 61487.4 1118.17  11
   3   4   3 63426.9 1128.18  22
  -3  -4  -3 57480.4 1129.91  18
  -3  -4  -3 56527.6 1127.85  27
   4   5   3 5022.46 132.494  60
   4   5   3 5113.69 120.710  58
   4   5   3 4773.87 152.205  45
  -4  -5  -3 5126.05 136.936  27
  -5  -6  -3 54.3018 19.9506  33
   5   6   3 87.9540 23.0714  60
   5   6   3 44.0034 24.4297  45
   5   3  -3 21758.2 411.595  58
   5   3  -3 22292.0 421.570  60
   4   2  -3 56405.6 1075.06  60
  -4  -2   3 56346.6 1074.71  19
  -4  -2   3 58362.0 1071.32  35
  -4  -2   3 55736.2 1070.05  26
  -3  -1   3 34337.1 622.204  32
  -3  -1   3 32557.9 626.924  20
   3   1  -3 32265.4 628.446  12
   2   0  -3 40898.1 742.139  11
  -2   0   3 39934.1 748.887  21
  -2   0   3 39817.6 750.038   9
   2   0  -3 38919.6 750.466  12
   1  -1  -3 186004. 3396.26  12
   1  -1  -3 190201. 3390.44  11
   1  -1  -3 182288. 3384.28   3
  -1   1   3 196656. 3395.43  21
  -1   1   3 186165. 3397.93   9
   0  -2  -3 1741.65 46.0885   9
   0   2   3 1658.68 43.1660   4
   1   3   3 69628.4 1300.90  22
  -1  -3  -3 67928.5 1301.58   9
   2   4   3 101155. 1764.83  22
  -2  -4  -3 96939.5 1764.61  27
  -3  -5  -3 98711.4 1916.26  18
  -3  -5  -3 102179. 1921.54  27
   4   6   3 36692.4 678.297  60
  -4  -6  -3 36914.4 676.893  27
  -5  -7  -3 13360.6 258.646  51
   5   7   3 13270.7 263.509  45
   5   2  -3 219.983 23.6951  60
   5   2  -3 105.786 19.7882  58
  -4  -1   3 10767.6 255.378  19
   4   1  -3 10982.9 240.693  61
   4   1  -3 11584.0 273.226  49
  -4  -1   3 12112.6 244.418  32
   4   1  -3 11693.4 261.398  60
  -4  -1   3 12101.1 253.980  20
  -4  -1   3 11181.9 255.854  26
   3   0  -3 79843.9 1445.23  11
  -3   0   3 81326.7 1452.66  21
   3   0  -3 78240.4 1454.83  12
   2  -1  -3 113527. 2068.79  11
  -2   1   3 112208. 2070.14   9
  -2   1   3 113491. 2075.84  21
   2  -1  -3 114141. 2074.30  12
   1  -2  -3 155763. 2718.15   3
   1  -2  -3 148724. 2725.41  12
  -1   2   3 156866. 2726.27  21
   1  -2  -3 145708. 2724.70   9
  -1   2   3 147514. 2728.27   9
  -1   2   3 146377. 2713.82   6
   0  -3  -3 101438. 1803.91   6
   0  -3  -3 98003.2 1807.54   9
   0   3   3 97496.9 1802.74   6
  -1  -4  -3 573.956 31.2724  27
  -1  -4  -3 725.804 35.0475   9
  -2  -5  -3 96.1165 24.6339   9
   2   5   3 125.630 28.8394  22
  -2  -5  -3 203.955 28.8970  18
  -2  -5  -3 142.903 29.0068  27
   3   6   3 943.836 68.2769  45
   3   6   3 941.086 56.4566  39
   3   6   3 1275.57 54.1585  60
  -3  -6  -3 983.195 50.5469  18
  -3  -6  -3 1162.56 56.0343  27
   4   7   3 3579.92 100.457  60
   4   7   3 3484.86 107.002  45
   5   1  -3 8538.24 188.994  58
  -5  -1   3 8296.11 181.696  35
   4   0  -3 3081.74 92.1172  61
  -4   0   3 3134.83 99.1115  20
   3  -1  -3 3133.92 92.5418  11
   3  -1  -3 3403.97 97.1371  12
   2  -2  -3 23901.2 459.793  12
   2  -2  -3 24766.7 460.758  11
  -2   2   3 22446.7 461.811  21
  -2   2   3 22684.3 455.352   9
   1  -3  -3 5413.75 120.996   9
  -1   3   3 5602.98 113.140   6
   0   4   3 163098. 2916.10  22
   0  -4  -3 156676. 2919.90   9
  -1  -5  -3 120458. 2260.86  27
   1   5   3 120289. 2271.85  22
  -2  -6  -3 40664.9 764.367  18
  -2  -6  -3 41758.5 770.009  27
  -2  -6  -3 42611.4 776.639   9
   3   7   3 48335.0 961.674  39
   3   7   3 48152.2 964.955  45
   3   7   3 51402.6 948.431  60
  -3  -7  -3 50400.7 945.771  27
  -3  -7  -3 50454.3 938.923  44
  -4  -8  -3 16366.9 319.613  51
   4   8   3 15853.6 321.256  45
   5   0  -3 20488.8 406.425  61
   4  -1  -3 44342.4 868.027  61
   4  -1  -3 48142.2 866.504  11
  -4   1   3 42371.2 870.190  20
  -4   1   3 46892.1 870.394  21
  -3   2   3 74187.8 1403.39  21
   3  -2  -3 75922.2 1397.07  11
   2  -3  -3 231619. 4033.72  12
   2  -3  -3 230004. 4039.46  11
  -2   3   3 210317. 4038.93  16
   2  -3  -3 225283. 4028.75   9
  -2   3   3 221139. 4030.61  29
  -2   3   3 211763. 4029.32   9
  -1   4   3 86821.7 1611.49  29
   1  -4  -3 88600.5 1613.39   9
   0  -5  -3 714.119 32.0696  24
   0   5   3 661.967 33.2289  22
   0  -5  -3 617.559 41.9993   9
  -1  -6  -3 676.416 30.2951  24
   1   6   3 673.658 41.1449  22
  -1  -6  -3 598.511 34.5693  27
   2   7   3 6547.95 166.110  39
   2   7   3 6702.54 172.765  22
   2   7   3 6891.83 172.619  45
   2   7   3 7104.71 161.080  60
  -2  -7  -3 6499.88 158.246  27
  -2  -7  -3 7035.10 170.518   9
  -2  -7  -3 6747.73 156.854  44
   3   8   3 17813.8 365.688  39
  -3  -8  -3 17076.4 355.079  33
   3   8   3 17382.0 354.050  60
   3   8   3 17534.5 362.549  45
  -3  -8  -3 17807.8 349.501  44
  -4  -9  -3 31341.1 564.377  51
   4   9   3 29506.9 561.759  45
   5  -1  -3 3189.76 95.5578  61
  -4   2   3 4507.92 131.750  21
   4  -2  -3 4828.13 136.980  61
   3  -3  -3 38701.7 712.646  11
  -3   3   3 34394.7 706.245  16
  -2   4   3 43285.2 835.184   9
   2  -4  -3 49105.9 842.436  12
   2  -4  -3 46752.1 857.938  11
  -2   4   3 41465.0 841.348  16
   2  -4  -3 46186.7 834.679   9
  -2   4   3 40835.6 834.359  29
  -1   5   3 87331.7 1608.22  22
  -1   5   3 86527.2 1612.57  29
   1  -5  -3 88993.1 1620.93   9
   0  -6  -3 45611.1 855.901  24
   0   6   3 46536.3 859.609  22
   0  -6  -3 44408.6 871.454   9
  -1  -7  -3 35725.7 659.318  24
   1   7   3 34338.1 674.572  22
  -1  -7  -3 33495.6 678.816   9
   2   8   3 4882.07 131.215  39
   2   8   3 5090.19 130.337  22
   2   8   3 4794.85 131.468  45
  -2  -8  -3 5099.21 125.557  33
  -2  -8  -3 4880.53 125.817  51
  -2  -8  -3 4935.34 123.988  44
   3   9   3 66.9920 21.3894  39
  -3  -9  -3 64.6277 19.8257  51
   3   9   3 129.375 21.4062  45
   5  -2  -3 31109.4 580.581  61
  -5   2   3 27697.7 562.540  32
   4  -3  -3 58505.3 1131.46  61
  -4   3   3 52141.2 1115.81  21
  -3   4   3 3014.74 101.548  16
  -3   4   3 2962.74 90.6082  29
  -2   5   3 21980.7 425.229  16
  -2   5   3 21210.7 421.887  29
   1  -6  -3 42.1521 26.2709   9
  -1   6   3 25.6220 18.7400  22
   0  -7  -3 28216.1 549.743  24
   0   7   3 28600.4 553.923  22
   0  -7  -3 28484.2 568.560   9
   1   8   3 24865.2 487.972  39
  -1  -8  -3 24029.0 485.055  51
   1   8   3 24839.2 486.024  50
   1   8   3 24749.3 493.267  46
  -1  -8  -3 26196.9 507.446   9
   1   8   3 25304.6 494.811  22
  -1  -8  -3 24525.1 488.052  44
   2   9   3 27538.8 521.679  39
  -2  -9  -3 26080.4 514.774  51
   2   9   3 27007.5 520.849  45
  -2  -9  -3 26224.7 515.956  44
  -3 -10  -3 22986.4 433.467  51
   3  10   3 22121.9 432.518  45
   5  -3  -3 1122.81 64.8195  61
   4  -4  -3 51803.2 992.722  61
  -4   4   3 48907.6 967.408  21
   3  -5  -3 20077.6 408.563  38
   3  -5  -3 19822.3 447.708  11
  -3   5   3 19834.6 404.139  29
  -2   6   3 9763.99 202.558  22
   2  -6  -3 9767.71 213.037  38
  -2   6   3 9340.06 209.863  29
  -1   7   3 84207.3 1526.60  22
   1  -7  -3 79744.2 1545.77   9
   0  -8  -3 32462.9 644.041  24
   0   8   3 34260.9 648.575  22
   0   8   3 32472.8 640.407  50
   0   8   3 34582.9 643.667  46
   0  -8  -3 35497.5 668.801   9
   0  -8  -3 32688.2 645.819  44
  -1  -9  -3 620.819 35.3474  51
   1   9   3 738.718 38.3368  22
   1   9   3 831.678 37.9095  50
   1   9   3 772.325 43.2505  46
  -1  -9  -3 665.598 39.8365  44
   2  10   3 10175.6 204.231  39
  -2 -10  -3 9881.30 200.392  51
   2  10   3 9467.78 202.985  45
  -2 -10  -3 10128.3 204.577  44
  -5   4   3 15739.2 301.589  37
   5  -4  -3 13061.5 325.380  61
  -4   5   3 373.802 46.4330  21
   4  -5  -3 503.401 52.5837  61
   3  -6  -3 55472.3 1084.88  38
   3  -6  -3 55388.8 1102.53  11
  -3   6   3 57411.4 1063.55  50
  -3   6   3 58465.9 1074.85  29
   3  -6  -3 56893.5 1091.89  44
   2  -7  -3 15272.3 325.957  40
   2  -7  -3 14061.7 310.420  11
  -2   7   3 15356.3 306.115  22
  -2   7   3 15843.9 307.701  50
  -2   7   3 15140.2 312.676  29
   2  -7  -3 15223.6 318.957  38
   2  -7  -3 14073.2 322.367  44
   1  -8  -3 18539.6 373.114  40
  -1   8   3 18376.3 364.644  22
  -1   8   3 17955.9 361.836  50
   1  -8  -3 17878.1 383.248   9
   1  -8  -3 17620.5 370.773  44
   0  -9  -3 36479.4 720.002  44
   0   9   3 37142.9 713.591  50
   0   9   3 37224.6 717.963  46
   1  10   3 26762.2 493.702  39
   1  10   3 25485.5 497.003  45
  -1 -10  -3 25235.9 497.754  44
   5  -5  -3 3266.34 99.8661  61
  -5   5   3 3940.63 96.1190  37
   4  -6  -3 29335.2 614.650  61
  -4   6   3 30230.5 617.635  37
   3  -7  -3 8635.41 209.560  38
  -3   7   3 8975.01 191.097  50
  -3   7   3 8905.69 198.106  29
   2  -8  -3 11062.6 246.413  40
  -2   8   3 11087.9 227.560  22
  -2   8   3 10711.5 227.723  50
  -2   8   3 10444.7 223.979  48
   2  -8  -3 10538.6 236.337  38
   2  -8  -3 10194.8 238.232  44
   1  -9  -3 15909.9 342.093  40
   1  -9  -3 15894.9 340.305  44
  -1   9   3 16542.5 333.820  50
  -1   9   3 16868.1 332.639  46
   0 -10  -3 1911.79 62.1165  40
   0  10   3 2070.97 62.8170  46
   0  10   3 1847.97 57.0467  50
   0 -10  -3 2010.06 63.6106  44
  -1 -11  -3 8951.94 178.722  44
  -1 -11  -3 9261.25 175.390  40
   5  -6  -3 92.2139 18.4728  43
   5  -6  -3 108.330 14.4021  61
  -5   6   3 80.4539 16.7621  37
  -5   6   3 69.5775 15.7871  48
  -4   7   3 4530.77 117.713  37
   4  -7  -3 4784.73 131.321  43
   3  -8  -3 31828.0 625.842  38
  -3   8   3 32505.1 613.503  37
  -3   8   3 31779.9 610.019  50
   2  -9  -3 11518.3 249.799  40
   2  -9  -3 11496.6 242.047  38
  -2   9   3 11044.5 235.497  50
  -2   9   3 11457.8 230.085  48
   2  -9  -3 11259.9 242.050  44
   1 -10  -3 18113.1 354.064  40
  -1  10   3 16949.7 344.977  50
  -1  10   3 18482.5 345.763  46
   1 -10  -3 17199.8 349.385  44
   0 -11  -3 16358.5 305.915  40
   0  11   3 15306.6 304.459  45
   0 -11  -3 15765.7 305.711  44
  -5   7   3 3884.67 84.3705  48
  -4   8   3 15410.6 308.273  48
  -4   8   3 16146.3 310.293  37
   4  -8  -3 15657.1 319.353  43
   3  -9  -3 486.324 35.6542  43
   3  -9  -3 462.129 31.4141  38
  -3   9   3 534.900 28.2488  50
  -3   9   3 497.498 26.1288  48
   2 -10  -3 9003.89 180.426  38
  -2  10   3 8610.37 179.459  50
   2 -10  -3 8367.65 178.625  44
  -1  11   3 3770.34 85.1607  50
   1 -11  -3 3774.18 85.8609  44
  -4   9   3 3096.82 69.2269  48
   4  -9  -3 3068.38 73.4592  43
   3 -10  -3 15157.3 299.966  43
  -3  10   3 15666.2 295.178  50
  -2  11   3 4950.39 102.303  50
  -2   9  -4 3189.76 69.1537  46
  -3   8  -4 8962.45 169.156  39
   3  -8   4 7826.26 172.168  38
  -4   7  -4 92.6682 15.6906  50
  -4   7  -4 72.7849 15.3642  52
   5  -6   4 2201.36 59.7255  42
  -5   6  -4 2306.06 54.7726  52
  -1   9  -4 12299.7 237.455  39
  -2   8  -4 17845.9 332.804  39
   2  -8   4 17543.9 336.464  31
   3  -7   4 310.937 26.6431  42
  -3   7  -4 313.030 21.8550  39
  -3   7  -4 288.127 25.3966  52
   3  -7   4 325.681 27.7731  38
   3  -7   4 295.960 27.5672  31
   4  -6   4 1131.42 49.5782  42
   4  -6   4 1160.07 50.4911  31
  -4   6  -4 1209.67 46.2825  52
   5  -5   4 205.695 29.0298  42
  -5   5  -4 201.560 21.8615  52
   6  -4   4 5844.93 120.261  43
  -1   8  -4 8183.68 174.055  39
   1  -8   4 8029.87 176.549  38
   1  -8   4 8552.81 175.861  31
   2  -7   4 11344.8 237.362  42
  -2   7  -4 11897.6 234.546  39
   2  -7   4 11161.7 239.431  38
   2  -7   4 11215.1 239.304  31
  -2   7  -4 11396.6 231.721  25
   3  -6   4 19279.4 399.972  42
  -3   6  -4 19351.3 391.729  23
   3  -6   4 19434.3 402.734  38
   3  -6   4 19185.8 401.893  31
  -3   6  -4 20162.0 393.707  52
   4  -5   4 9738.30 228.203  42
   4  -5   4 9483.49 228.952  31
   5  -4   4 7116.03 174.895  42
   5  -4   4 7193.30 152.001  62
   6  -3   4-0.34057 17.8752  43
   0   8  -4 1353.49 45.7994  39
   0  -8   4 1448.43 48.6953  38
  -1   7  -4 129.286 17.8578  25
   1  -7   4 76.1935 19.9002  42
  -1   7  -4 80.8439 20.2243  39
   1  -7   4 183.838 25.2854  31
   1  -7   4 181.529 25.3011  38
   2  -6   4 424.807 34.2997  42
  -2   6  -4 373.121 30.4311  39
   2  -6   4 354.058 31.6453  38
  -2   6  -4 343.199 28.3600  52
   2  -6   4 394.051 35.5813  31
   3  -5   4 12419.4 271.216  42
  -3   5  -4 11644.6 264.879  23
  -3   5  -4 12602.5 256.808  39
   3  -5   4 11979.5 272.615  38
   3  -5   4 11175.4 263.803  31
   4  -4   4 15306.8 348.147  42
   4  -4   4 14059.9 341.563  31
  -4   4  -4 15443.7 336.053  23
  -4   4  -4 16498.4 318.670  39
   4  -4   4 15861.8 319.913  62
  -4   4  -4 14154.1 332.327  13
   5  -3   4 5379.34 155.553  42
   5  -3   4 5193.58 124.289  59
   5  -3   4 5467.82 138.060  62
   6  -2   4 6516.89 140.203  59
   6  -2   4 5156.46 136.431  43
   1   8  -4 12533.9 258.623  39
  -1  -8   4 14255.9 262.511  38
   0  -7   4 15144.6 301.280  24
   0   7  -4 14828.6 303.012  39
   0  -7   4 14926.1 305.756  38
   0  -7   4 15303.8 304.930  31
   1  -6   4 23484.0 451.558   9
  -1   6  -4 22391.4 437.506  39
   1  -6   4 21896.5 442.096  38
  -1   6  -4 22415.9 431.756  52
   1  -6   4 22417.1 444.303  31
  -1   6  -4 21957.4 434.729  25
  -2   5  -4 71950.6 1341.28  23
  -2   5  -4 71898.7 1337.79  39
   2  -5   4 70277.4 1344.36  38
   2  -5   4 69662.1 1344.01  31
  -3   4  -4 35658.5 708.528  23
  -3   4  -4 37822.6 696.609  39
   3  -4   4 37679.8 713.531  31
   4  -3   4 1585.79 80.4610  42
   4  -3   4 1773.94 73.2889  10
   4  -3   4 1623.69 68.1289  62
  -4   3  -4 1619.19 65.7121  28
   5  -2   4 1350.86 69.3999  42
  -5   2  -4 1181.85 62.2640  23
   5  -2   4 1330.58 67.8743  62
   5  -2   4 1334.11 56.2244  59
   5  -2   4 1127.55 54.7547  43
   6  -1   4 7527.51 163.558  59
   6  -1   4 6258.23 157.340  43
   1   7  -4 45.6148 17.8708  39
  -1  -7   4 8.23954 16.2618  53
   0  -6   4 9043.89 211.763   9
   0   6  -4 8846.05 197.283  39
   0  -6   4 9049.44 201.468  38
   0  -6   4 9389.40 195.348  53
   1  -5   4 9015.09 189.709  24
   1  -5   4 8793.93 198.448   9
  -1   5  -4 8915.55 188.245  39
   1  -5   4 8215.05 189.388  38
   1  -5   4 8446.05 192.476  31
   2  -4   4 40428.3 740.507  10
   2  -4   4 39391.9 748.089  31
  -3   3  -4 69416.1 1279.24  23
   3  -3   4 68787.6 1274.53  10
  -3   3  -4 72085.4 1271.47  28
   4  -2   4 24023.1 506.899  10
  -4   2  -4 24399.4 485.224  14
   4  -2   4 24095.0 500.148  62
  -4   2  -4 24730.0 485.272  28
   5  -1   4 11394.8 240.408  42
   5  -1   4 11555.9 260.116  62
   5  -1   4 10852.7 230.736  59
   6   0   4 1140.44 59.6114  59
   6   0   4 1217.86 52.9091  43
   2   7  -4 16040.9 312.404  56
  -2  -7   4 16621.5 312.500  38
  -2  -7   4 15447.0 309.362  53
  -2  -7   4 16029.6 307.878  44
   1   6  -4 62659.5 1182.22  39
  -1  -6   4 63705.2 1184.98  38
   1   6  -4 62569.7 1183.03  56
  -1  -6   4 62607.4 1179.89  53
  -1  -6   4 66395.6 1182.92  31
   0  -5   4 38401.1 744.607   9
   0   5  -4 37797.0 723.828  39
   0  -5   4 38084.1 727.582  38
   0  -5   4 39256.2 730.379  31
   1  -4   4 8868.66 207.373   9
   1  -4   4 9110.33 201.194  31
  -2   3  -4 1118.19 52.3423  23
  -2   3  -4 1237.84 42.3060  30
   2  -3   4 1244.35 50.0262  10
  -3   2  -4 32214.6 619.514  14
   3  -2   4 32106.6 637.983  10
  -3   2  -4 32462.9 622.335  28
  -4   1  -4 5275.28 135.660  14
  -4   1  -4 5263.62 134.233  28
   5   0   4 8662.70 190.337  42
   5   0   4 8393.67 193.420  59
  -5   0  -4 8069.16 187.256  14
   5   0   4 9152.88 208.741  62
   5   0   4 7852.28 185.781  58
   5   0   4 7778.70 186.155  43
   6   1   4 25318.4 505.431  59
  -2  -6   4 41.0246 20.1846  38
  -2  -6   4 16.1813 19.6141  53
   1   5  -4 174.959 26.2484  12
   1   5  -4 75.7811 17.9874  39
   1   5  -4 130.987 22.7891  56
  -1  -5   4 150.039 25.3462  38
  -1  -5   4 61.1839 19.9631  53
   0  -4   4 19526.1 421.456   9
   0   4  -4 21808.1 410.196  30
   1  -3   4 59439.2 1138.92   9
   1  -3   4 61313.7 1134.15  31
  -1   3  -4 62238.7 1130.06  30
   2  -2   4 211088. 3926.62  10
  -2   2  -4 213221. 3911.00  14
  -2   2  -4 219334. 3905.07  30
  -2   2  -4 213853. 3913.57  28
   3  -1   4 34603.3 684.434  10
  -3   1  -4 33783.3 655.356  30
   4   0   4 3400.93 96.4407  11
  -4   0  -4 3403.43 95.2512   8
  -4   0  -4 3485.34 92.5253  17
   5   1   4 25418.8 524.215  58
  -5  -1  -4 24810.6 515.604  14
   5   1   4 25827.3 517.583  45
   5   1   4 25393.7 514.925  43
   6   2   4 636.371 42.3238  58
   6   2   4 553.701 48.1959  59
   3   6  -4 30342.2 588.573  60
   3   6  -4 31257.5 594.988  56
  -3  -6   4 31116.1 590.269  53
  -2  -5   4 20818.2 399.539  38
  -2  -5   4 20068.2 400.630  35
   2   5  -4 19449.9 400.501  56
   2   5  -4 20129.6 395.793  60
  -2  -5   4 19255.3 395.015  53
  -1  -4   4 44046.2 850.002   9
  -1  -4   4 42127.6 833.635  35
   1   4  -4 44123.3 840.649  12
   0  -3   4 12157.4 263.208   9
   0   3  -4 12685.0 254.183  30
   0   3  -4 12421.6 252.557  12
   1  -2   4 112465. 2086.14   9
  -1   2  -4 111090. 2079.69  28
  -1   2  -4 117815. 2080.34  23
   2  -1   4 54392.7 973.955  10
  -2   1  -4 49722.6 946.093  14
   3   0   4 135786. 2481.51  11
  -3   0  -4 133562. 2483.35   8
  -3   0  -4 133560. 2481.60  17
   4   1   4 32067.7 620.572  11
  -4  -1  -4 31807.2 619.185   8
  -4  -1  -4 32494.6 620.325  17
   5   2   4 39612.0 758.844  59
   5   2   4 38719.2 752.543  58
   5   2   4 40363.6 747.973  45
   5   2   4 38765.6 742.150  43
   6   3   4 12333.9 256.205  59
   3   5  -4 13234.0 290.194  56
   3   5  -4 13476.0 284.971  60
  -3  -5   4 15177.8 288.702  35
  -3  -5   4 16001.9 287.663  38
  -3  -5   4 12884.5 283.091  53
  -2  -4   4 11600.9 259.048   9
  -2  -4   4 11573.3 252.391  38
  -2  -4   4 11162.2 253.723  35
   2   4  -4 11672.2 249.926  49
   2   4  -4 12590.7 259.408  56
   2   4  -4 11969.2 251.922  60
   2   4  -4 12151.5 261.923  12
  -1  -3   4 80876.5 1488.74  35
  -1  -3   4 82711.0 1503.20   9
   1   3  -4 79424.3 1490.41  30
   1   3  -4 80529.8 1492.34  12
  -1  -3   4 79556.6 1490.02  26
   0   2  -4 207535. 3716.19  30
   0  -2   4 200839. 3724.59   9
   0   2  -4 203798. 3713.41  12
   1  -1   4 8469.99 178.568   9
  -1   1  -4 8716.68 172.808  14
  -1   1  -4 8704.75 173.482  28
  -2   0  -4 104501. 1935.17  17
   2   0   4 108910. 1952.63  10
   3   1   4 5095.08 113.555  11
  -3  -1  -4 4756.88 116.077  17
   3   1   4 4862.93 119.792  10
   4   2   4 3117.06 89.7532  11
  -4  -2  -4 2837.93 94.3303  17
   5   3   4 602.703 45.4521  58
   5   3   4 599.382 45.3156  45
   6   4   4 15733.3 334.785  45
  -4  -5   4 11133.5 210.304  53
   4   5  -4 10303.0 210.510  60
  -3  -4   4 11854.9 253.435  35
   3   4  -4 11526.9 250.627  60
  -3  -4   4 12103.4 250.754  38
   3   4  -4 11467.0 256.219  56
  -2  -3   4 1732.63 66.8260   9
  -2  -3   4 1630.52 64.3410  35
  -2  -3   4 1631.80 63.2176  19
  -2  -3   4 1703.31 61.5425  38
   2   3  -4 1648.35 65.4881  12
  -1  -2   4 1317.61 45.0000  19
   1   2  -4 1433.44 52.5463  30
  -1  -2   4 1314.63 55.9981   9
   0  -1   4 35128.7 679.286   9
   0   1  -4 36732.6 671.997  12
  -1   0  -4 40661.3 733.758  12
   1   0   4 38837.5 741.156   9
   2   1   4 131356. 2448.61  11
   2   1   4 131769. 2450.22  22
   2   1   4 135835. 2456.57  10
  -2  -1  -4 131325. 2448.15   8
   3   2   4 199860. 3661.82  22
   3   2   4 202136. 3658.92  11
  -3  -2  -4 191013. 3659.46   8
   3   2   4 200280. 3658.45  10
  -4  -3  -4 4721.91 133.688  18
  -4  -3  -4 4621.26 130.725   8
   5   4   4 2521.10 96.0518  45
   5   4   4 2766.21 82.6527  58
   6   5   4 180.888 24.1153  45
  -4  -4   4 20903.7 388.475  38
   4   4  -4 18938.6 394.843  56
   4   4  -4 19557.6 392.971  60
  -4  -4   4 21217.1 391.469  35
  -3  -3   4 146941. 2669.22  35
   3   3  -4 143759. 2677.02  56
  -3  -3   4 142992. 2666.15  19
   3   3  -4 143227. 2666.87  60
  -3  -3   4 147967. 2664.21  38
   3   3  -4 147726. 2669.00  49
  -3  -3   4 142847. 2667.51  26
   2   2  -4 112675. 2114.64  12
  -2  -2   4 117207. 2118.40   9
  -2  -2   4 112222. 2109.91  19
  -2  -2   4 111133. 2111.96  26
  -1  -1   4 48841.0 896.530   9
   1   1  -4 48883.9 891.125  12
   0   0  -4 27793.8 524.294  12
   0   0   4 28357.2 531.079   9
   1   1   4 92.5683 14.9449   9
  -1  -1  -4 87.1110 8.77639   3
   1   1   4 100.411 14.2285   5
  -1  -1  -4 126.554 15.6703  17
   2   2   4 26164.1 502.231  10
  -2  -2  -4 26576.3 502.958   8
   2   2   4 26362.7 505.308  11
   2   2   4 23972.5 501.249  22
  -2  -2  -4 29608.4 504.784  27
  -2  -2  -4 28336.2 508.901  17
   3   3   4 80566.4 1447.91  11
   3   3   4 79223.0 1450.47  22
  -3  -3  -4 78442.5 1451.72  27
   4   4   4 118040. 2366.27  60
   4   4   4 136957. 2365.26  58
  -4  -4  -4 120985. 2374.51  18
   4   4   4 140963. 2383.14  45
  -4  -4  -4 128097. 2375.83  27
  -5  -5  -4 16101.3 349.126  33
   5   5   4 18769.5 389.492  45
  -4  -3   4 638.771 35.9851  38
  -4  -3   4 676.562 37.2951  35
   3   2  -4 434.136 42.0865  56
  -3  -2   4 451.937 37.8750  19
   3   2  -4 679.897 45.6870  49
   3   2  -4 648.540 44.3696  60
  -3  -2   4 555.556 43.6300  35
   3   2  -4 456.373 38.0387  12
  -3  -2   4 406.326 37.5477  26
  -2  -1   4 51618.6 1016.36  20
  -2  -1   4 57219.1 1022.87   9
  -2  -1   4 57119.1 1014.92  32
   2   1  -4 52857.6 1017.89  12
  -2  -1   4 53108.6 1017.11  26
  -1   0   4 66582.0 1216.42   9
  -1   0   4 64902.3 1207.71  20
   1   0  -4 65816.6 1211.35  12
   0  -1  -4 87178.5 1664.65  12
   0  -1  -4 93404.0 1658.67   6
   0   1   4 91581.2 1670.50   9
   0   1   4 91546.4 1659.16   1
   1   2   4 1655.31 50.7254   9
  -1  -2  -4 1897.35 45.7965   8
   1   2   4 1851.45 49.0920   5
  -1  -2  -4 1881.01 49.7159  17
  -1  -2  -4 1650.85 48.8976   9
   2   3   4 20851.5 424.685  22
  -2  -3  -4 22248.5 431.980  18
  -3  -4  -4 21269.2 448.177  18
  -3  -4  -4 22322.9 449.379  27
   4   5   4 8760.09 203.247  60
   4   5   4 8523.76 189.032  58
  -4  -5  -4 8398.05 201.926  27
  -4  -5  -4 8463.94 202.506  18
  -5  -6  -4 162.066 24.6405  33
   5   6   4 107.716 37.5899  45
  -4  -2   4 25064.8 478.515  38
  -4  -2   4 23662.2 481.277  35
   4   2  -4 24419.2 485.648  60
  -3  -1   4 30909.6 616.857  20
   3   1  -4 30904.8 622.400  12
  -3  -1   4 31624.7 624.059  26
  -2   0   4 3415.90 96.4371   9
  -2   0   4 3438.46 95.8833  20
   2   0  -4 3601.07 98.7850  12
   1  -1  -4 3348.76 82.1451  12
  -1   1   4 3473.76 81.4532  21
   1  -1  -4 3143.29 71.8766  11
  -1   1   4 3222.52 84.0450   9
   0  -2  -4 43703.4 832.689   9
   0  -2  -4 46000.4 824.779   6
   0   2   4 44504.5 836.073   9
   1   3   4 50681.7 969.698  22
  -1  -3  -4 49410.2 971.543   9
   2   4   4 187373. 3318.72  22
  -2  -4  -4 176381. 3317.09  27
  -3  -5  -4 175696. 3242.41  27
  -3  -5  -4 169910. 3239.84  18
   4   6   4 53812.4 1036.17  60
   4   6   4 53044.8 1090.07  45
  -4  -6  -4 56362.4 1035.02  27
  -5  -7  -4 5830.33 123.611  51
   5   7   4 5917.55 134.644  45
   5   2  -4 246.552 20.8826  60
   5   2  -4 154.755 15.5637  58
   4   1  -4 16773.4 373.531  49
   4   1  -4 17019.9 366.946  60
  -4  -1   4 16503.3 361.783  26
  -3   0   4 56662.3 1089.70  20
  -3   0   4 58640.7 1089.18  32
   3   0  -4 58457.0 1092.42  12
   2  -1  -4 169952. 3025.38  11
  -2   1   4 162242. 3033.87   9
  -2   1   4 163866. 3034.10  21
   2  -1  -4 167589. 3036.40  12
   1  -2  -4 162376. 3043.88  12
  -1   2   4 172540. 3042.24  21
  -1   2   4 166105. 3047.41   9
   0   3   4 50169.1 902.350  22
   0  -3  -4 47562.3 909.853   9
   1   4   4 4896.21 115.056  22
  -1  -4  -4 5003.04 116.558   9
   2   5   4 1507.54 63.6781  22
  -2  -5  -4 1391.62 55.9292   9
  -2  -5  -4 1429.44 56.8231  27
   3   6   4 534.661 45.0373  39
   3   6   4 453.492 37.9542  60
   3   6   4 429.373 52.1969  22
   3   6   4 493.445 56.9863  45
  -3  -6  -4 546.680 41.7381  27
   4   7   4 15582.0 350.610  45
  -4  -7  -4 15847.1 333.820  33
  -4  -7  -4 16558.5 329.250  51
  -5  -1   4 10624.3 213.724  38
   5   1  -4 10477.5 216.136  58
  -4   0   4 5262.28 132.667  20
   4   0  -4 4987.75 139.945  60
   4   0  -4 4803.24 122.351  61
  -4   0   4 5017.15 126.395  32
   4   0  -4 4653.29 148.006  49
  -4   0   4 4836.18 134.127  26
   3  -1  -4 2795.63 77.9250  11
  -3   1   4 2745.11 85.9187  21
  -3   1   4 2608.09 87.1090  20
   3  -1  -4 2712.43 86.9332  12
   2  -2  -4 2067.46 66.0648  12
  -2   2   4 1937.28 64.7022  21
   2  -2  -4 2166.68 62.8545  11
  -2   2   4 1989.03 63.9160   9
  -1   3   4 58346.4 1098.59   9
   1  -3  -4 59417.1 1094.50  12
   1  -3  -4 55888.7 1092.34   9
   0   4   4 204406. 3666.83  22
   0  -4  -4 198416. 3672.32   9
   1   5   4 95461.8 1812.56  22
  -1  -5  -4 101129. 1814.67   9
   2   6   4 36390.2 772.186  22
  -2  -6  -4 39069.0 751.690  27
   3   7   4 19029.2 410.903  39
   3   7   4 20164.4 424.060  22
   3   7   4 19515.2 400.939  60
  -3  -7  -4 20077.8 399.189  27
  -3  -7  -4 19341.2 405.328  33
   3   7   4 20187.8 428.020  45
  -4  -8  -4 1155.23 44.3582  33
  -4  -8  -4 1050.53 43.2965  51
   4   8   4 1203.38 50.0887  45
   5   0  -4 16341.6 307.322  61
  -5   0   4 14594.8 307.941  35
   4  -1  -4 34332.8 660.207  61
  -4   1   4 33894.7 664.546  20
  -4   1   4 33927.7 661.966  32
  -3   2   4 45384.2 904.210  21
   3  -2  -4 47325.8 900.180  11
   2  -3  -4 93967.1 1698.10  12
   2  -3  -4 96902.5 1697.65  11
  -2   3   4 89839.1 1696.88  21
  -2   3   4 87456.7 1692.03   9
  -1   4   4 37501.6 689.473  22
   1  -4  -4 36274.9 701.042   9
   0   5   4 965.296 41.9643  22
   0  -5  -4 1138.93 50.3690   9
  -1  -6  -4 9002.14 194.480  33
  -1  -6  -4 9498.60 210.650   9
   2   7   4 11288.6 257.913  39
  -2  -7  -4 12418.0 268.215   9
   2   7   4 10880.1 269.808  22
  -2  -7  -4 11667.0 258.324  33
  -2  -7  -4 12173.9 257.461  51
   2   7   4 12311.3 273.558  45
  -2  -7  -4 12467.3 251.499  44
   3   8   4 28256.3 548.013  39
   3   8   4 27990.8 551.255  45
  -3  -8  -4 26810.8 538.868  33
  -3  -8  -4 26804.4 538.541  51
  -3  -8  -4 28177.3 531.532  44
  -4  -9  -4 36699.2 670.023  51
   4   9   4 35450.8 670.784  45
   5  -1  -4 2603.66 76.6459  61
   4  -2  -4 5294.05 139.691  61
  -4   2   4 5341.47 137.936  21
  -3   3   4 43798.8 878.459  21
  -3   3   4 45046.8 870.795  37
   2  -4  -4 57112.4 1039.43  12
  -2   4   4 51592.4 1034.93  21
   2  -4  -4 58201.8 1048.32  11
   2  -4  -4 56444.3 1034.30   9
  -2   4   4 52211.8 1027.75  29
  -2   4   4 56963.2 1037.70   9
  -1   5   4 125870. 2358.72  22
   1  -5  -4 134525. 2376.35   9
   0   6   4 107671. 1969.27  22
   0  -6  -4 105792. 1981.17   9
   1   7   4 15579.1 333.872  22
  -1  -7  -4 16041.0 341.576   9
   2   8   4 2195.19 77.5492  39
   2   8   4 2400.94 84.6779  22
  -2  -8  -4 2325.63 74.8858  33
  -2  -8  -4 2373.82 77.5945  51
   2   8   4 2532.37 79.0982  50
   2   8   4 2558.70 85.8291  45
  -2  -8  -4 2480.64 77.3704  44
  -3  -9  -4 501.739 31.7747  51
  -3  -9  -4 499.030 27.6688  33
   3   9   4 475.031 34.0343  45
  -3  -9  -4 513.876 27.9143  44
   5  -2  -4 11857.6 243.996  61
  -5   2   4 10817.3 233.793  32
   4  -3  -4 25543.5 502.703  61
  -4   3   4 23251.1 488.591  21
   3  -4  -4 1601.55 73.4436  11
  -3   4   4 1055.96 64.2462  21
  -2   5   4 13730.8 291.396   9
   2  -5  -4 14709.9 296.176  12
   2  -5  -4 12711.2 304.019  11
  -2   5   4 12514.2 279.135  29
   2  -5  -4 14214.0 289.599   9
  -1   6   4 26689.0 513.443  22
   1  -6  -4 26432.3 532.869   9
   0   7   4 45914.0 838.211  22
   0  -7  -4 41392.9 849.606   9
   1   8   4 19744.4 408.130  22
  -1  -8  -4 19226.1 397.487  51
   1   8   4 19545.1 400.768  50
   1   8   4 20232.0 404.139  46
  -1  -8  -4 19739.2 399.979  44
   2   9   4 26866.9 522.275  39
  -2  -9  -4 26320.2 519.871  51
   2   9   4 26815.8 526.246  45
  -2  -9  -4 27335.8 520.369  44
  -3 -10  -4 28414.8 527.458  51
   3  10   4 27965.7 528.239  45
  -3 -10  -4 28181.0 524.947  44
   5  -3  -4 1422.57 61.7930  61
  -5   3   4 1259.96 51.2158  32
   4  -4  -4 18201.1 401.704  61
  -4   4   4 17309.8 380.262  21
  -3   5   4 68756.7 1221.57  29
   3  -5  -4 70910.3 1237.45  44
   2  -6  -4 31028.7 579.982  38
   2  -6  -4 27863.6 594.294  11
  -2   6   4 28347.1 577.362  37
  -2   6   4 30816.1 578.835  29
  -1   7   4 47224.8 866.855  22
   1  -7  -4 43776.1 886.913   9
   0  -8  -4 30929.4 620.242  51
   0  -8  -4 33620.2 624.655  40
   0   8   4 32235.9 628.224  22
   0  -8  -4 33096.6 647.841   9
   0   8   4 32488.6 620.957  46
   0   8   4 32754.7 624.394  50
   0  -8  -4 31689.8 628.303  44
  -1  -9  -4 233.600 26.4322  51
   1   9   4 188.174 22.8511  50
  -1  -9  -4 155.208 28.3800  44
   2  10   4 5850.47 126.673  39
  -2 -10  -4 5657.24 126.426  51
   2  10   4 5553.81 129.591  45
  -2 -10  -4 5679.76 128.078  44
   5  -4  -4 3726.18 110.063  61
   4  -5  -4-2.25199 42.7634  61
  -4   5   4 26.1583 18.3550  48
   3  -6  -4 27935.3 582.269  11
  -3   6   4 27654.0 552.407  37
   3  -6  -4 27757.6 563.141  44
   2  -7  -4 40128.8 736.440  40
   2  -7  -4 35926.7 723.702  38
  -2   7   4 39815.5 714.253  22
   2  -7  -4 34994.8 724.152  11
  -2   7   4 38491.8 715.190  50
  -2   7   4 38130.4 719.496  37
   2  -7  -4 34515.5 733.603  44
   1  -8  -4 15911.1 335.188  40
  -1   8   4 16699.9 330.942  22
  -1   8   4 16557.2 326.916  50
  -1   8   4 15894.5 320.418  48
   1  -8  -4 16074.3 349.884   9
   0  -9  -4 37363.6 692.911  40
   0   9   4 38021.6 695.950  22
   0   9   4 34826.4 689.340  50
   0   9   4 36062.0 690.118  46
   0  -9  -4 34826.6 695.188  44
  -1 -10  -4 15342.3 300.338  51
   1  10   4 15120.7 300.386  50
   1  10   4 15028.5 305.406  45
  -1 -10  -4 15226.7 306.838  44
   2  11   4 6637.15 139.032  45
  -2 -11  -4 7336.94 140.789  44
   5  -5  -4 12045.5 276.400  61
  -5   5   4 14401.2 267.340  37
  -4   6   4 10983.7 232.701  37
  -4   6   4 11025.3 226.354  48
  -3   7   4 20053.4 383.431  37
   3  -7  -4 17001.5 390.725  44
   2  -8  -4 1859.21 68.5676  38
  -2   8   4 1933.37 63.0020  22
  -2   8   4 1803.21 62.4800  50
  -2   8   4 1953.18 62.5512  37
  -2   8   4 1848.38 62.3689  48
   1  -9  -4 524.994 37.3387  40
  -1   9   4 576.568 32.8374  22
   1  -9  -4 478.132 37.7048  44
   0  10   4 8535.01 187.391  50
   0  10   4 8939.68 188.876  46
   0 -10  -4 8622.90 192.939  44
   1  11   4 15615.5 306.712  45
  -1 -11  -4 16252.4 308.647  44
   5  -6  -4 3311.14 78.7816  61
   4  -7  -4 617.924 32.9350  61
  -4   7   4 587.795 35.3541  37
  -4   7   4 553.146 32.7243  48
   4  -7  -4 609.573 39.4642  43
  -3   8   4 5104.31 120.822  37
  -3   8   4 5026.37 115.791  50
  -3   8   4 4798.13 118.838  48
  -2   9   4 18876.6 363.407  50
  -2   9   4 18113.3 357.868  48
   2  -9  -4 17945.4 370.942  44
   1 -10  -4 15707.4 321.178  44
  -1  10   4 15487.6 316.079  50
   0  11   4 11008.8 225.259  50
   0  11   4 11341.6 228.269  45
   0 -11  -4 11452.9 230.538  44
   4  -8  -4 136.934 19.1489  43
  -4   8   4 102.557 17.0462  37
   3  -9  -4 1145.87 48.1259  43
  -3   9   4 1082.28 36.6589  37
  -3   9   4 1168.47 39.2392  50
  -3   9   4 998.105 38.0157  48
   3  -9  -4 964.073 39.2679  44
  -2  10   4 8591.17 176.825  50
   2 -10  -4 8366.53 178.175  44
  -1  11   4 10682.2 211.567  50
   1 -11  -4 10785.6 213.163  44
  -4   9   4 4123.72 86.6099  48
   3 -10  -4 8073.32 161.321  43
  -3  10   4 8258.52 157.395  50
   2 -11  -4 4828.56 105.808  43
  -2  11   4 5247.98 104.514  50
   4  -7   5 5065.56 110.910  42
  -4   7  -5 5567.09 111.112  52
   5  -6   5 790.999 27.3452  42
  -5   6  -5 761.200 24.2191  52
  -5   6  -5 754.912 24.7303  50
   2  -8   5 864.916 29.0330  42
  -2   8  -5 914.874 31.6090  39
   2  -8   5 878.567 31.7522  38
   3  -7   5 443.415 27.3329  42
  -3   7  -5 467.519 24.8839  39
  -3   7  -5 426.652 24.1319  52
   4  -6   5 1810.21 61.7917  42
  -4   6  -5 1963.49 58.6365  52
   5  -5   5 2234.57 69.4167  42
  -5   5  -5 2500.16 63.8002  52
  -1   8  -5 10712.0 210.183  39
   1  -8   5 10452.8 211.507  38
   2  -7   5 16001.5 306.279  42
  -2   7  -5 15529.8 301.248  39
   2  -7   5 14633.7 302.964  38
   2  -7   5 15581.8 306.059  31
  -2   7  -5 14560.5 295.628  52
   3  -6   5 13682.2 290.594  42
   3  -6   5 13408.4 288.845  31
  -3   6  -5 13723.6 282.536  52
   4  -5   5 28262.0 585.395  42
   4  -5   5 28373.8 582.580  31
  -4   5  -5 29346.9 584.605  29
   5  -4   5 4555.17 128.294  42
   5  -4   5 4252.71 107.035  62
   6  -3   5 402.882 37.4739  42
   0   8  -5 46.3875 11.5370  39
   0  -8   5 92.5533 14.5335  38
   1  -7   5 884.386 39.0563  42
  -1   7  -5 854.025 37.5408  39
   1  -7   5 867.822 39.7908  38
   1  -7   5 887.504 40.2781  31
   2  -6   5 16031.5 325.783  42
  -2   6  -5 16250.6 318.430  39
   2  -6   5 15828.0 322.183  38
  -2   6  -5 15284.1 312.276  52
   2  -6   5 15524.4 324.092  31
   3  -5   5 10821.3 240.134  42
  -3   5  -5 10511.5 225.156  39
   3  -5   5 10436.1 233.392  31
   4  -4   5 8546.36 219.551  42
  -4   4  -5 7614.78 199.561  23
  -4   4  -5 9289.16 196.104  39
   4  -4   5 8357.53 191.230  62
  -5   3  -5 16425.9 325.135  39
   5  -3   5 16222.9 336.949  62
   6  -2   5 2951.13 71.1853  59
   6  -2   5 1908.00 61.3511  43
   0  -7   5 12520.3 237.952  42
   0   7  -5 10730.6 233.017  39
   0  -7   5 11164.5 236.775  38
   0  -7   5 12182.9 238.131  31
  -1   6  -5 19062.9 382.803  39
   1  -6   5 18817.3 385.948  38
   1  -6   5 19586.1 390.201  31
   2  -5   5 24182.7 464.256  42
  -2   5  -5 23176.5 452.047  39
   2  -5   5 21973.6 456.093  31
   2  -5   5 24064.1 457.151  38
  -2   5  -5 21868.0 447.076  52
   3  -4   5 4347.11 135.307  42
  -3   4  -5 3914.13 120.969  23
   3  -4   5 4241.75 112.589  62
   3  -4   5 3987.53 121.872  31
   4  -3   5 4203.13 148.343  42
  -4   3  -5 4259.28 129.122  23
   4  -3   5 4287.67 122.670  62
  -4   3  -5 4197.21 121.543  28
   5  -2   5 4511.39 136.142  42
   5  -2   5 4194.50 107.497  59
   5  -2   5 3999.63 129.684  62
  -5   2  -5 4337.07 114.130  28
   6  -1   5 15089.2 272.677  59
   6  -1   5 11525.7 264.768  43
  -1  -7   5 1095.02 40.0165  38
   1   7  -5 1174.92 37.9895  56
   0   6  -5 7474.91 170.272  39
   0  -6   5 7605.37 174.451  38
   0  -6   5 7830.62 176.006  31
   1  -5   5 2128.86 77.1848   9
  -1   5  -5 2302.80 68.5995  39
   1  -5   5 2263.09 71.1293  38
  -1   5  -5 2343.88 68.2101  30
  -2   4  -5 40274.5 763.842  39
   2  -4   5 41346.5 762.921  10
   2  -4   5 38620.0 767.471  31
  -3   3  -5 66365.6 1317.67  23
   3  -3   5 74476.0 1321.08  10
   3  -3   5 66687.6 1326.63  31
  -3   3  -5 72299.2 1314.52  28
   4  -2   5 28447.8 566.873  42
  -4   2  -5 25215.5 550.098  23
   4  -2   5 27816.3 561.400  62
   4  -2   5 28895.2 571.664  10
  -4   2  -5 26799.8 540.279  14
   4  -2   5 26570.9 538.706  47
  -4   2  -5 28844.9 545.992  28
   5  -1   5 9498.43 208.938  42
  -5   1  -5 8101.30 203.398  23
   5  -1   5 9258.55 228.386  62
  -5   1  -5 8710.50 195.620  28
   5  -1   5 8674.30 191.492  59
   5  -1   5 7794.97 189.349  43
   6   0   5 762.457 47.1636  59
   2   7  -5 23078.2 431.396  56
   1   6  -5 28363.8 558.441  39
  -1  -6   5 30015.7 565.450  38
   1   6  -5 29891.5 564.321  56
  -1  -6   5 29078.6 556.253  53
  -1  -6   5 30237.1 562.740  31
   0  -5   5 4634.00 129.496   9
   0   5  -5 4539.13 112.067  39
   0  -5   5 4691.00 116.893  38
   0   5  -5 4709.04 115.613  56
   0  -5   5 4650.97 119.186  31
  -1   4  -5 4413.09 110.205  39
   1  -4   5 4368.42 121.836   9
   1  -4   5 4536.64 111.560  38
   1  -4   5 4115.81 112.600  31
   2  -3   5 656.805 40.5314  10
   2  -3   5 768.753 42.9673  31
  -2   3  -5 774.008 36.3820  30
   3  -2   5 70449.1 1335.08  10
  -3   2  -5 67625.2 1305.99  14
  -3   2  -5 68884.2 1313.10  28
   4  -1   5 29919.7 580.230  62
   4  -1   5 30898.9 590.445  10
  -4   1  -5 28069.1 544.951  14
   4  -1   5 28591.1 553.435  47
  -4   1  -5 26503.2 544.359  28
   4  -1   5 25941.5 528.393  59
   5   0   5 10154.8 206.896  42
   5   0   5 8920.60 203.253  59
   5   0   5 10151.0 228.742  62
  -5   0  -5 8195.31 198.518  28
   5   0   5 8386.29 197.944  43
   6   1   5 19035.8 388.404  59
  -2  -6   5 8219.82 168.936  38
   2   6  -5 8095.58 170.991  56
  -2  -6   5 7713.22 163.929  53
  -1  -5   5 16347.6 321.926  53
  -1  -5   5 16063.1 328.964  38
   1   5  -5 16304.0 331.483  56
   0   4  -5 20684.9 404.978  39
   0  -4   5 21056.2 430.531   9
   0   4  -5 21188.8 413.522  30
   0  -4   5 20514.9 409.596  38
   1  -3   5 44464.2 855.424   9
   1  -3   5 45636.2 848.481  31
  -1   3  -5 44912.8 844.868  30
   2  -2   5 99327.4 1785.13  10
   2  -2   5 92095.8 1772.66  31
  -2   2  -5 94904.3 1762.94  14
  -2   2  -5 99124.3 1760.76  30
  -2   2  -5 94376.6 1767.31  28
  -3   1  -5 26782.4 499.185  30
   3  -1   5 27258.8 543.195  10
  -4   0  -5 198.562 25.3090  17
  -4   0  -5 134.042 24.3926  30
   4   0   5 183.103 37.5421  10
  -4   0  -5 118.087 32.6922  14
   5   1   5 1499.00 63.9577  62
   5   1   5 1555.32 63.3478  58
   5   1   5 1322.02 61.3396  59
  -5  -1  -5 1283.45 53.4663  30
   5   1   5 1253.13 53.8030  45
   5   1   5 1288.60 52.9626  43
   6   2   5 705.250 53.5962  59
   3   6  -5 9153.20 180.320  56
   2   5  -5 20892.6 394.893  60
  -2  -5   5 20602.7 398.329  38
   2   5  -5 19852.4 401.257  56
  -2  -5   5 19411.1 391.659  53
  -1  -4   5 11884.2 261.906   9
  -1  -4   5 11076.5 243.343  38
   1   4  -5 11437.7 246.017  56
  -1  -4   5 11232.2 245.060  35
   1   4  -5 12066.8 252.412  12
   0  -3   5 1301.49 60.6961   9
   0   3  -5 1264.81 51.4988  30
   0  -3   5 1357.52 48.7016  35
   1  -2   5 17217.5 337.123   9
  -1   2  -5 16582.2 326.422  30
  -1   2  -5 16073.7 325.278  28
   2  -1   5 40684.8 825.572  10
  -2   1  -5 41818.1 791.852  14
  -2   1  -5 41195.0 793.093  28
   3   0   5 113498. 2120.80  10
  -3   0  -5 114590. 2096.05  30
  -4  -1  -5 52879.5 1049.93   8
  -4  -1  -5 54895.8 1049.61  17
   5   2   5 11117.3 255.461  58
  -5  -2  -5 11154.7 249.623  17
   5   2   5 11639.1 248.821  45
   6   3   5 11820.1 255.755  59
  -3  -5   5 12110.6 245.265  53
   3   5  -5 12790.9 247.943  60
   3   5  -5 12347.6 251.889  56
  -3  -5   5 12693.0 247.440  38
   2   4  -5 71396.6 1311.03  60
  -2  -4   5 71047.2 1312.26  38
  -2  -4   5 70101.2 1313.62  35
   2   4  -5 70392.0 1309.40  49
   2   4  -5 68921.6 1315.31  56
  -1  -3   5 119899. 2139.53   9
  -1  -3   5 114135. 2119.84  38
  -1  -3   5 112109. 2120.98  35
   1   3  -5 111592. 2122.91  30
   1   3  -5 121361. 2128.50  12
   0  -2   5 46143.0 886.792   9
   0   2  -5 46272.8 875.309  30
   0   2  -5 47447.7 873.359  12
   1  -1   5 2154.78 68.0909   9
  -1   1  -5 2362.49 63.8210  30
   2   0   5 1057.56 62.6522  10
  -2   0  -5 1592.09 49.1411  30
   3   1   5 830.751 38.8653  11
  -3  -1  -5 955.021 42.6416   8
   3   1   5 973.328 49.7245  10
  -3  -1  -5 895.589 42.8548  17
   4   2   5 22948.4 470.296  11
  -4  -2  -5 24121.2 470.065   8
  -4  -2  -5 23988.5 474.578  17
   5   3   5 26044.9 522.087  58
   5   3   5 25450.7 535.552  59
   5   3   5 27077.7 521.610  45
   6   4   5 16234.6 334.757  59
   6   4   5 19363.5 360.193  45
   3   4  -5 5118.61 124.550  60
  -3  -4   5 5403.59 124.804  38
   3   4  -5 4938.36 127.378  56
  -3  -4   5 5422.35 126.742  35
  -2  -3   5 14087.8 291.341  38
   2   3  -5 13994.8 296.052  56
  -2  -3   5 13366.4 292.439  35
  -2  -3   5 13786.1 298.971   9
   2   3  -5 13982.7 291.773  49
   2   3  -5 14058.2 291.714  60
   2   3  -5 13816.4 297.003  12
  -2  -3   5 13693.5 292.007  26
  -1  -2   5 13759.2 290.993   9
  -1  -2   5 12988.9 272.764  35
   1   2  -5 13815.1 279.877  30
   1   2  -5 13863.6 280.170  12
  -1  -2   5 12741.7 271.769  26
   0   1  -5 91000.5 1697.02  30
   0  -1   5 92033.7 1707.11   9
   0   1  -5 94073.6 1696.15  12
   1   0   5 103927. 1894.52   9
  -1   0  -5 103072. 1881.88  14
  -2  -1  -5 11002.2 218.628  30
  -2  -1  -5 10226.5 216.328  17
   2   1   5 10813.6 227.794  10
   3   2   5 36909.4 711.956  11
   3   2   5 36689.8 712.829  22
  -3  -2  -5 35889.9 707.193   8
  -3  -2  -5 37244.7 713.675  17
   3   2   5 37468.7 711.398  10
   4   3   5 60286.2 1165.78  11
  -4  -3  -5 58398.6 1160.58   8
   4   3   5 64408.5 1163.81  58
  -4  -3  -5 65527.1 1164.73  33
  -4  -3  -5 61077.2 1171.68  17
   4   3   5 61710.5 1156.60  45
   5   4   5 1895.62 81.6510  59
   5   4   5 2086.33 80.2408  45
   6   5   5 194.137 27.2304  45
   4   4  -5 28872.7 539.948  60
  -4  -4   5 28941.8 537.507  53
   3   3  -5 10943.6 242.023  60
  -3  -3   5 11291.6 241.158  38
  -3  -3   5 11238.3 242.830  35
   3   3  -5 11542.3 244.055  49
   3   3  -5 10854.1 245.631  56
  -2  -2   5 56377.1 1058.58   9
  -2  -2   5 53215.2 1049.67  35
  -2  -2   5 55247.1 1048.71  26
  -1  -1   5 20802.8 391.008  32
   1   1  -5 20849.2 396.666  30
  -1  -1   5 19533.0 401.038   9
   1   1  -5 20247.7 394.549  12
   0   0   5 12920.7 265.797   9
   0   0  -5 13008.4 257.979  12
   1   1   5 483.415 21.5505  22
   1   1   5 337.601 25.1427   9
   2   2   5 22697.9 451.514  22
  -2  -2  -5 23751.4 454.398  17
   2   2   5 24273.1 453.681  10
  -2  -2  -5 23937.7 448.698   8
   3   3   5 76387.8 1408.06  22
  -3  -3  -5 77965.3 1407.05  33
  -3  -3  -5 73329.8 1409.46  17
  -3  -3  -5 71025.7 1401.38   8
  -3  -3  -5 79809.3 1403.32  27
   4   4   5 135529. 2421.70  58
  -4  -4  -5 125500. 2433.91  33
   4   4   5 135757. 2438.59  50
  -4  -4  -5 118992. 2435.78  17
   4   4   5 141257. 2431.51  45
  -4  -4  -5 131495. 2425.15  27
   5   5   5 31055.9 592.407  59
  -5  -5  -5 28313.4 593.669  33
   4   3  -5 390.903 28.5565  60
  -4  -3   5 396.098 25.7324  38
  -3  -2   5 1069.66 52.9587  38
   3   2  -5 1716.68 66.5456  56
  -3  -2   5 1014.75 54.6383  35
   3   2  -5 1032.81 54.4008  49
  -3  -2   5 1611.62 59.5503  19
   3   2  -5 1085.20 55.6092  60
  -3  -2   5 1009.81 50.8719  26
  -2  -1   5 72731.4 1339.92  19
  -2  -1   5 74028.2 1351.31   9
  -2  -1   5 71831.2 1340.18  32
   2   1  -5 68940.5 1343.78  12
  -2  -1   5 73048.4 1342.93  26
  -1   0   5 420403. 7502.85  20
  -1   0   5 424012. 7517.74   9
   1   0  -5 392155. 7512.30  30
  -1   0   5 415608. 7503.83  26
   1   0  -5 416540. 7509.97  12
   0  -1  -5 104694. 1941.37  12
   0   1   5 108240. 1948.83   9
  -1  -2  -5 57034.3 989.255   9
   1   2   5 55048.1 991.136   9
   2   3   5 12028.1 252.395  22
  -2  -3  -5 12373.1 247.083   8
   3   4   5 1429.28 62.6597  22
  -3  -4  -5 1371.42 67.0127  17
  -3  -4  -5 1472.78 60.4421  27
   4   5   5 1910.83 89.5377  22
  -4  -5  -5 1694.09 77.7038  33
   4   5   5 1971.82 82.2678  45
  -4  -5  -5 1985.54 72.4982  27
  -5  -6  -5 9321.95 205.075  34
  -5  -6  -5 9455.97 202.726  33
   5   6   5 9222.13 229.508  45
   4   2  -5 10704.7 230.807  60
  -4  -2   5 10639.5 227.286  38
  -4  -2   5 11297.2 230.653  35
  -3  -1   5 12582.9 284.316  19
  -3  -1   5 14221.4 285.836  32
  -3  -1   5 13800.8 277.010  54
   3   1  -5 13783.0 295.715  49
   3   1  -5 13650.5 289.679  12
  -3  -1   5 12377.4 284.116  26
   2   0  -5 160.110 28.4232  12
  -2   0   5 183.854 26.1960   9
  -2   0   5 123.990 26.9645  20
  -2   0   5 97.1649 22.1819  32
  -1   1   5 3877.68 90.8165  20
  -1   1   5 4029.97 104.065   9
   0  -2  -5 686.527 30.7168  12
   0   2   5 663.280 36.1881   9
  -1  -3  -5 63068.2 1073.89  17
  -1  -3  -5 60635.9 1076.76   9
   2   4   5 153482. 2805.70  22
  -2  -4  -5 157461. 2807.36  33
  -2  -4  -5 149365. 2804.25  17
   3   5   5 25756.4 507.442  22
  -3  -5  -5 24735.2 490.753  27
   4   6   5 15400.9 373.669  22
  -4  -6  -5 14940.2 331.899  33
  -4  -6  -5 15605.2 322.959  51
   4   6   5 16330.2 361.502  45
   5   7   5 4416.85 110.743  45
  -4  -1   5 79705.8 1500.33  35
   4   1  -5 81536.7 1509.65  49
   4   1  -5 81497.5 1505.16  60
  -3   0   5 71092.6 1343.57  20
   3   0  -5 71708.6 1347.26  51
  -3   0   5 72765.6 1344.75  32
   3   0  -5 74517.9 1362.85  49
   3   0  -5 72771.4 1350.32  12
  -3   0   5 69550.9 1348.19  26
  -2   1   5 62485.8 1191.85  20
  -2   1   5 63839.3 1194.18  32
  -2   1   5 65154.1 1197.40   9
   2  -1  -5 64816.6 1196.98  12
   1  -2  -5 207882. 3879.35  12
  -1   2   5 219309. 3885.62   9
   0   3   5 38352.0 720.089   9
   0  -3  -5 37623.0 714.470   9
   1   4   5 32502.2 629.526  22
  -1  -4  -5 33531.5 626.174  17
  -1  -4  -5 34144.5 634.964   9
  -2  -5  -5 3459.18 101.923  33
  -2  -5  -5 3346.92 97.8509  17
   3   6   5 41875.9 830.400  22
  -3  -6  -5 39148.3 803.642  33
  -3  -6  -5 41515.2 795.986  51
   3   6   5 40027.3 831.604  50
  -4  -7  -5 25628.9 503.833  33
  -4  -7  -5 25399.7 497.432  51
   4   7   5 25237.7 527.327  45
   5   1  -5 8384.57 165.756  58
   4   0  -5 158.523 32.7368  60
  -4   0   5 281.550 29.2567  32
   4   0  -5 184.057 34.6119  49
  -4   0   5 225.352 32.8568  26
   3  -1  -5 20502.0 394.699  61
  -3   1   5 19013.6 400.594  20
   3  -1  -5 20678.4 405.582  51
  -3   1   5 19388.4 403.977  32
   3  -1  -5 19398.8 422.380  49
   3  -1  -5 19674.8 405.594  12
  -2   2   5 519.114 35.9517   9
   2  -2  -5 533.675 27.9210  11
   2  -2  -5 556.726 37.1986  12
   1  -3  -5 69485.6 1304.12  12
  -1   3   5 72064.4 1298.77  21
   1  -3  -5 67771.9 1302.16   9
  -1   3   5 71994.1 1309.95   9
   0   4   5 108602. 1990.96  22
   0  -4  -5 109680. 2003.32   9
   1   5   5 63517.6 1139.93  22
  -1  -5  -5 61028.6 1136.50  33
  -1  -5  -5 64748.6 1143.58   9
   2   6   5 38642.0 744.862  22
  -2  -6  -5 37024.1 728.589  33
   3   7   5 520.537 48.1232  22
  -3  -7  -5 204.638 35.2449  33
  -3  -7  -5 238.593 31.9953  51
   3   7   5 229.463 32.9511  50
   3   7   5 502.420 49.1191  45
  -4  -8  -5 214.336 23.1500  51
   4   8   5 219.802 29.4912  45
  -5   0   5 16219.6 308.737  38
   5   0  -5 15645.5 310.589  58
   4  -1  -5 55585.4 1024.37  61
  -4   1   5 54776.6 1028.94  32
   4  -1  -5 55696.2 1042.11  60
  -4   1   5 52199.0 1034.46  26
   3  -2  -5 6520.30 158.977  61
   3  -2  -5 6798.90 168.590  12
  -2   3   5 2362.32 78.4857  21
  -2   3   5 2485.16 78.9404   9
   1  -4  -5 25851.6 508.924  12
   1  -4  -5 25346.6 508.219   9
   0   5   5 28393.5 532.413  22
   0  -5  -5 26877.5 542.649   9
   1   6   5 48913.5 919.912  22
  -1  -6  -5 51365.7 926.878   9
   2   7   5 43200.3 848.955  39
  -2  -7  -5 44185.5 852.883  33
  -2  -7  -5 45296.6 853.149  51
   2   7   5 45179.1 866.462  50
  -3  -8  -5 36271.6 719.373  33
  -3  -8  -5 38293.4 720.988  51
   3   8   5 38544.4 735.724  45
  -4  -9  -5 19016.6 361.748  51
   4   9   5 18982.5 364.481  45
   5  -1  -5 324.181 22.1514  61
  -5   1   5 365.404 21.6733  54
   4  -2  -5 8531.70 194.300  61
   4  -2  -5 8452.20 201.555  51
  -4   2   5 8113.75 195.287  32
   3  -3  -5 39728.6 748.914  11
  -3   3   5 38251.1 744.931  37
   3  -3  -5 39730.2 757.329  51
   2  -4  -5 30821.5 586.185  12
  -2   4   5 29779.0 577.248  37
   2  -4  -5 31639.6 584.754  11
  -2   4   5 29178.8 580.928   9
  -1   5   5 106747. 1927.36   9
   1  -5  -5 100957. 1915.24   9
   0   6   5 58502.0 1126.74  22
   0  -6  -5 62919.7 1144.94   9
   1   7   5 18702.0 397.861  22
  -1  -7  -5 19435.7 385.947  33
  -1  -7  -5 19702.3 407.530   9
   2   8   5 12569.5 272.071  39
   2   8   5 13037.9 286.293  22
  -2  -8  -5 12802.0 270.443  33
  -2  -8  -5 12297.5 272.855  51
   2   8   5 12876.2 279.922  50
  -2  -8  -5 12770.0 269.306  44
  -3  -9  -5 4189.02 106.061  51
  -3  -9  -5 4268.03 102.683  33
   3   9   5 4336.18 110.959  45
   5  -2  -5 3846.51 94.4646  61
   4  -3  -5 16740.8 355.012  61
  -3   4   5 1043.53 54.7973  21
  -3   4   5 936.422 50.3838  37
   3  -4  -5 1001.03 55.4481  11
   3  -4  -5 906.547 51.5511  51
   3  -4  -5 974.157 50.8281  44
   2  -5  -5 24549.5 472.051  12
   2  -5  -5 24444.0 477.025  11
   2  -5  -5 23549.4 464.744   9
  -1   6   5 83210.6 1575.99  37
  -1   6   5 87831.6 1574.82  22
   1  -6  -5 84114.0 1595.14   9
   0   7   5 78677.5 1462.41  22
   0  -7  -5 78272.5 1481.06   9
   1   8   5 22007.2 439.793  22
  -1  -8  -5 20587.8 428.853  51
   1   8   5 22091.5 435.789  50
  -1  -8  -5 23197.7 452.674   9
  -1  -8  -5 20401.0 429.068  44
   2   9   5 17356.1 355.928  39
  -2  -9  -5 17612.1 359.215  51
   2   9   5 18683.2 360.701  50
   2   9   5 17884.3 364.534  45
  -2  -9  -5 17888.5 357.401  44
  -3 -10  -5 11149.6 214.572  51
   3  10   5 11303.5 216.005  45
   5  -3  -5 7732.36 159.606  61
  -5   3   5 6628.13 144.994  55
   4  -4  -5 29614.8 615.816  61
  -4   4   5 31601.1 597.174  37
  -3   5   5 26177.5 524.801  37
  -3   5   5 25825.9 514.916  48
   3  -5  -5 27466.0 531.807  44
   2  -6  -5 13493.3 293.553  12
  -2   6   5 12708.3 276.472  37
  -2   6   5 13308.0 273.243  48
   2  -6  -5 13189.2 285.960  44
  -1   7   5 23627.2 449.934  22
  -1   7   5 24284.7 446.798  37
  -1   7   5 22416.3 446.064  50
   1  -7  -5 21128.3 468.525   9
  -1   7   5 22405.6 445.802  48
   1  -7  -5 21406.3 458.992  44
   0   8   5 2584.25 80.6581  22
   0  -8  -5 2243.29 75.8704  51
   0   8   5 2431.72 77.3505  50
   0  -8  -5 2439.61 93.2456   9
   0  -8  -5 2286.88 81.0323  44
  -1  -9  -5 4497.56 116.589  51
   1   9   5 4617.98 119.354  50
  -1  -9  -5 4324.30 118.541  44
  -2 -10  -5 12580.8 256.319  51
   2  10   5 12881.0 259.817  45
  -2 -10  -5 12831.5 256.690  44
   5  -4  -5 3826.95 97.1916  61
  -5   4   5 3524.69 85.9469  55
   4  -5  -5 1921.59 86.5049  61
  -4   5   5 2137.72 71.4294  37
  -3   6   5 17552.0 362.165  37
  -3   6   5 17163.8 353.772  48
   3  -6  -5 17304.6 370.870  44
  -2   7   5 22176.1 435.778  37
   2  -7  -5 21069.0 442.730  11
  -2   7   5 22182.7 427.589  50
  -2   7   5 22013.7 433.338  48
   2  -7  -5 20861.4 449.783  44
   1  -8  -5 36977.2 711.006  40
  -1   8   5 37983.3 706.548  22
  -1   8   5 37320.4 704.601  50
   1  -8  -5 36703.5 729.007   9
  -1   8   5 36663.1 700.306  48
   1  -8  -5 35122.8 716.798  44
   0   9   5 28234.9 529.628  22
   0  -9  -5 27329.5 523.333  51
   0   9   5 26494.5 525.289  50
   0  -9  -5 25673.0 529.411  44
  -1 -10  -5 9492.69 202.795  51
   1  10   5 9568.14 204.308  50
   1  10   5 10046.9 207.176  45
  -1 -10  -5 9898.22 208.450  44
   2  11   5 5319.92 113.539  45
  -2 -11  -5 5671.91 113.523  44
   5  -5  -5 14930.8 298.777  61
  -5   5   5 15176.5 292.737  55
  -4   6   5 17224.8 331.017  37
  -4   6   5 16775.8 323.199  48
  -3   7   5 116.368 25.0435  48
   3  -7  -5 52.5901 29.0930  44
  -2   8   5 805.316 38.6458  37
  -2   8   5 941.197 41.3830  50
  -2   8   5 798.379 41.2869  48
   2  -8  -5 883.447 53.6361  44
   1  -9  -5 5672.10 139.707  40
  -1   9   5 5808.74 136.430  50
  -1   9   5 5778.88 128.728  48
   0  10   5 21686.8 428.342  50
   0 -10  -5 22395.1 433.966  44
   1  11   5 27986.5 516.403  45
  -1 -11  -5 28594.4 518.188  44
  -4   7   5 21540.1 384.846  37
  -4   7   5 19763.9 378.726  48
   3  -8  -5 11728.5 235.116  43
  -3   8   5 11165.7 226.879  37
  -2   9   5 8027.38 172.296  50
  -2   9   5 7895.64 170.191  48
   2  -9  -5 7863.94 182.531  44
  -1  10   5 19708.9 384.659  50
   1 -10  -5 19738.3 390.647  44
   0  11   5 4765.53 105.612  50
   0  11   5 4858.59 105.820  45
   0 -11  -5 4827.25 109.052  44
  -4   8   5 81.5459 13.6672  48
   3  -9  -5 8274.57 167.830  43
  -3   9   5 8013.26 160.057  37
  -3   9   5 7712.56 162.948  48
   3  -9  -5 7385.42 165.932  44
  -2  10   5 1970.71 52.1055  48
   2 -10  -5 2027.65 60.6804  44
  -1  11   5 9038.76 181.486  50
   1 -11  -5 9120.18 183.514  44
   3  -7   6 10532.8 214.110  42
  -3   7  -6 10420.9 209.735  52
   4  -6   6 583.649 29.1014  42
  -4   6  -6 603.721 23.8876  39
  -4   6  -6 587.935 25.3842  52
   5  -5   6 1416.12 45.3666  42
  -5   5  -6 1491.80 41.2150  52
   2  -7   6 19380.7 364.894  42
  -2   7  -6 19118.3 361.287  39
   2  -7   6 18292.0 360.329  38
   3  -6   6 2492.08 74.8052  42
  -3   6  -6 2741.71 70.7362  39
  -3   6  -6 2536.26 67.4128  52
   3  -6   6 2481.19 72.0341  31
   4  -5   6 738.570 43.9834  42
  -4   5  -6 804.536 36.6611  39
  -4   5  -6 721.886 36.7923  52
   5  -4   6 14488.2 318.935  42
   5  -4   6 15279.7 305.360  62
   1  -7   6 750.672 32.9287  42
  -1   7  -6 731.744 29.4514  39
   1  -7   6 725.549 31.4474  38
   2  -6   6 14668.3 288.073  42
  -2   6  -6 14278.5 278.939  39
   2  -6   6 13697.7 278.905  38
  -2   6  -6 13347.5 270.765  52
   2  -6   6 13677.6 282.876  31
   3  -5   6 32975.3 628.579  42
  -3   5  -6 33213.3 615.484  39
  -3   5  -6 30903.1 611.211  52
   3  -5   6 31540.7 619.223  31
   4  -4   6 1281.34 70.0555  42
   4  -4   6 1359.73 55.8487  62
  -5   3  -6 13422.8 262.320  39
   5  -3   6 13309.9 270.770  62
   0  -7   6 13519.2 246.611  42
   0  -7   6 13004.5 246.366  38
  -1   6  -6 4667.99 110.675  39
   1  -6   6 4632.00 116.072  31
   1  -6   6 4757.53 114.166  38
   2  -5   6 5309.56 134.858  42
  -2   5  -6 5108.70 123.937  39
  -2   5  -6 5178.66 118.812  52
   2  -5   6 4873.55 127.435  31
   3  -4   6 3473.46 114.740  42
  -3   4  -6 3641.93 101.621  39
   3  -4   6 3667.99 99.6397  62
   3  -4   6 3519.72 105.809  31
  -4   3  -6 7441.35 186.431  23
  -4   3  -6 7609.70 175.715  39
   4  -3   6 7554.19 181.411  62
   5  -2   6 1391.05 72.6415  42
   5  -2   6 1270.55 67.9179  62
   6  -1   6 14474.0 333.200  62
   6  -1   6 16393.1 310.079  59
  -1  -7   6 5028.14 103.473  42
   0   6  -6 9578.85 207.603  39
   0  -6   6 9842.48 212.210  38
  -1   5  -6 2708.07 77.0850  39
   1  -5   6 2802.20 80.2316  38
   1  -5   6 2767.26 83.8882  31
   2  -4   6 27098.7 528.984  42
  -2   4  -6 24566.4 513.466  39
   2  -4   6 26838.0 514.212  62
   2  -4   6 25025.5 517.714  31
  -2   4  -6 28442.6 513.225  30
   3  -3   6 83654.5 1693.33  42
  -3   3  -6 86387.2 1657.96  23
  -3   3  -6 87739.2 1651.16  39
   3  -3   6 93092.5 1662.68  10
   3  -3   6 92383.4 1658.42  62
   4  -2   6 7427.00 208.409  42
  -4   2  -6 7424.42 192.479  23
   4  -2   6 7711.99 198.617  62
  -4   2  -6 7988.70 187.110  28
   5  -1   6 5625.21 145.231  42
   5  -1   6 5260.81 127.352  59
  -5   1  -6 5512.22 136.726  28
   6   0   6 3115.25 85.9170  59
   1   6  -6 11030.3 222.592  56
  -1  -6   6 10898.5 222.292  38
   0   5  -6 3120.02 81.6813  39
   0  -5   6 3031.35 86.5022  38
   0  -5   6 3100.69 89.0261  31
   1  -4   6 175.846 23.9499  41
   1  -4   6 158.387 32.7450   9
  -1   4  -6 58.8167 19.5331  39
   1  -4   6 140.399 22.5773  38
  -1   4  -6 141.125 23.6871  56
   1  -4   6 121.146 25.6860  31
  -1   4  -6 145.292 22.6673  30
  -2   3  -6 1148.20 49.7267  39
   2  -3   6 1197.46 54.8219  31
  -2   3  -6 1241.32 49.7140  30
  -3   2  -6 53711.8 1052.73  23
   3  -2   6 56458.1 1072.84  10
  -3   2  -6 58027.3 1036.82  30
  -3   2  -6 53082.3 1046.93  28
   4  -1   6 60674.7 1119.80  42
   4  -1   6 60821.5 1159.49  10
  -4   1  -6 57720.6 1102.85  14
  -4   1  -6 61066.1 1094.44  30
   4  -1   6 57568.7 1108.51  47
  -4   1  -6 57979.6 1106.85  28
   5   0   6 17587.1 370.699  62
  -5   0  -6 16783.5 340.918  28
   6   1   6 13332.0 279.194  59
  -2  -6   6 26219.1 477.461  38
   2   6  -6 24815.6 477.968  56
  -1  -5   6 25911.6 503.953  38
   1   5  -6 25898.3 506.078  56
  -1  -5   6 26640.3 505.495  31
   0  -4   6 29771.3 569.297  41
   0  -4   6 30626.8 591.138   9
   0  -4   6 28877.1 567.312  38
   0   4  -6 29798.0 570.746  56
   0  -4   6 29582.8 569.804  54
   0   4  -6 28868.0 570.586  30
  -1   3  -6 35406.4 689.174  39
   1  -3   6 37404.3 707.081   9
   1  -3   6 36148.7 695.399  31
  -1   3  -6 36995.2 694.954  30
   2  -2   6 45007.8 847.295  31
   2  -2   6 45933.9 859.208  10
  -2   2  -6 45415.6 837.125  30
   3  -1   6 11275.8 294.470  10
  -3   1  -6 11790.5 251.799  14
  -3   1  -6 12294.9 247.223  30
  -3   1  -6 11545.3 254.319  28
   4   0   6 12696.4 287.194  62
   4   0   6 10487.2 238.236  59
   4   0   6 12737.7 290.728  10
  -4   0  -6 11161.6 251.725  14
  -4   0  -6 11860.5 249.511  30
   4   0   6 12709.0 270.462  47
   5   1   6 4382.65 119.602  59
  -5  -1  -6 4095.73 113.402  30
   5   1   6 4328.04 149.355  47
   6   2   6 313.540 39.8206  59
  -2  -5   6 4757.79 108.950  38
   2   5  -6 4614.66 111.040  56
  -2  -5   6 4673.58 102.402  53
  -1  -4   6 155.765 24.7496  38
  -1  -4   6 162.185 23.2363  54
   0  -3   6 429.032 40.9071   9
   0  -3   6 350.743 27.0941  38
   0   3  -6 404.120 34.2760  30
   1  -2   6 9450.06 208.313   9
  -1   2  -6 8929.01 197.553  30
   2  -1   6 58187.6 1127.42  10
  -2   1  -6 59182.8 1082.90  14
  -2   1  -6 58845.8 1083.95  30
  -2   1  -6 57027.0 1086.33  28
  -3   0  -6 72165.0 1404.02  14
  -3   0  -6 76956.4 1405.77  30
   4   1   6 31379.3 604.299  62
  -4  -1  -6 29994.3 586.114  17
   4   1   6 31126.7 609.603  10
   4   1   6 30427.9 617.638  47
   5   2   6 14125.7 299.497  59
  -5  -2  -6 13153.2 291.541  30
   5   2   6 12763.5 329.853  47
   5   2   6 14041.4 282.073  45
   6   3   6 6276.76 159.336  59
   3   5  -6 16386.5 311.114  56
   2   4  -6 40361.8 734.163  60
  -2  -4   6 39147.0 735.195  38
  -2  -4   6 38161.8 727.004  53
   2   4  -6 37050.9 738.243  56
  -2  -4   6 38406.8 734.460  35
   2   4  -6 39863.8 733.981  49
  -1  -3   6 44727.7 845.369   9
  -1  -3   6 41437.2 822.831  38
  -1  -3   6 44363.8 823.577  54
   1   3  -6 43157.8 827.815  56
  -1  -3   6 42986.3 824.963  35
   1   3  -6 42367.9 822.981  49
   0  -2   6 40546.1 769.877   9
   0   2  -6 39014.1 753.600  30
   1  -1   6 17021.1 346.584   9
  -1   1  -6 17116.6 338.988  30
   2   0   6 7797.12 210.455  10
  -2   0  -6 7934.73 169.966  14
  -2   0  -6 8345.00 175.190  30
  -3  -1  -6 27634.3 535.368  34
   3   1   6 28761.2 562.189  10
  -3  -1  -6 28177.5 545.836  30
   4   2   6 19181.8 382.893  10
  -4  -2  -6 19180.9 376.336  34
  -4  -2  -6 18273.8 377.466  17
   4   2   6 18267.2 375.272  50
   5   3   6 29949.1 605.802  59
  -5  -3  -6 29344.4 586.440  34
   5   3   6 30589.0 582.058  45
   6   4   6 17184.5 340.699  59
  -3  -4   6 179.903 17.0360  53
   3   4  -6 215.354 20.6436  60
   3   4  -6 222.092 21.7814  56
   2   3  -6 1167.05 52.5597  60
  -2  -3   6 1042.94 51.8979  38
   2   3  -6 1095.97 53.1230  56
  -2  -3   6 1331.41 55.2081  35
   2   3  -6 1449.04 55.7434  49
  -1  -2   6 44148.8 866.323  38
  -1  -2   6 48181.5 889.288   9
  -1  -2   6 43226.3 865.983  35
   1   2  -6 46268.7 873.107  30
   1   2  -6 50100.6 877.935  12
   0  -1   6 132459. 2456.55   9
   0   1  -6 128889. 2443.57  30
   1   0   6 86820.3 1600.50   9
  -1   0  -6 86446.8 1591.75  30
  -2  -1  -6 52983.2 974.589  34
   2   1   6 51756.2 998.764  10
  -2  -1  -6 52529.4 980.833  30
  -3  -2  -6 12837.7 249.744  33
  -3  -2  -6 12152.2 256.413  17
   3   2   6 12236.6 258.861  10
  -3  -2  -6 12417.2 255.547  34
  -4  -3  -6 4090.50 115.885  34
  -4  -3  -6 3786.66 112.777  17
   4   3   6 3706.18 109.325  50
   4   3   6 3749.45 130.197  47
   5   4   6 49.3582 44.6323  59
  -5  -4  -6 45.7526 29.1185  34
   5   4   6 0.08669 22.9658  45
   3   3  -6 11140.8 230.339  60
  -3  -3   6 10956.4 228.552  38
   3   3  -6 10643.1 231.031  56
  -3  -3   6 11296.2 230.524  35
   3   3  -6 10762.8 230.505  49
  -2  -2   6 18987.5 398.686   9
  -2  -2   6 18898.5 389.731  38
  -2  -2   6 20155.3 386.749  54
   2   2  -6 19299.9 395.767  56
  -2  -2   6 19388.2 393.287  35
   2   2  -6 19167.7 394.189  49
   2   2  -6 20219.1 398.191  12
  -2  -2   6 18964.5 388.374  26
  -1  -1   6 5745.71 138.990  35
  -1  -1   6 5883.79 156.168   9
   1   1  -6 6098.75 147.209  12
   0   0   6 2847.31 85.3397   9
   0   0  -6 2594.19 75.3927  30
   0   0  -6 2740.30 75.3834  12
   1   1   6 5935.04 144.988   9
  -1  -1  -6 6883.67 141.983  30
  -2  -2  -6 14901.1 282.099  34
   2   2   6 14169.6 285.600  10
  -2  -2  -6 14582.6 285.751  30
   3   3   6 87809.1 1571.18  22
  -3  -3  -6 86139.8 1572.37  34
  -3  -3  -6 85234.6 1563.93  33
  -3  -3  -6 84244.6 1568.74  17
  -4  -4  -6 31128.3 604.487  34
  -4  -4  -6 30747.7 592.971  33
   4   4   6 30070.3 599.457  50
   4   4   6 30204.2 598.794  47
   4   4   6 30381.2 584.323  45
   5   5   6 26922.6 567.849  59
  -5  -5  -6 28518.5 569.702  34
  -5  -5  -6 28674.5 563.354  33
   4   3  -6 106.640 13.8794  60
   3   2  -6 23555.7 468.123  60
   3   2  -6 22766.4 467.849  56
  -3  -2   6 22780.6 463.726  38
  -3  -2   6 22964.3 465.186  35
   3   2  -6 23150.8 468.372  49
  -2  -1   6 104177. 1855.88   9
   2   1  -6 96739.1 1846.39  56
  -2  -1   6 102694. 1833.79  55
  -2  -1   6 92712.6 1840.01  35
   2   1  -6 100069. 1840.71  51
   2   1  -6 105459. 1850.48  49
  -2  -1   6 102226. 1836.87  54
   2   1  -6 102162. 1849.11  12
  -2  -1   6 92951.1 1836.70  26
  -1   0   6 179921. 3401.50  32
  -1   0   6 188491. 3417.41   9
   1   0  -6 190591. 3409.52  30
   1   0  -6 188658. 3407.26  12
   0  -1  -6 67038.2 1248.05  12
   0   1   6 65682.4 1257.57   9
   0  -1  -6 69359.4 1248.43  30
  -1  -2  -6 10172.6 201.500  12
   1   2   6 9802.83 210.258   9
   2   3   6 26299.2 551.089  22
  -2  -3  -6 30564.4 557.224  33
  -2  -3  -6 27996.0 555.122  17
  -2  -3  -6 32220.8 562.296  34
   3   4   6 8925.13 211.086  22
  -3  -4  -6 9251.75 215.455  34
  -3  -4  -6 9528.37 210.412  33
  -3  -4  -6 8794.03 209.220  17
  -4  -5  -6 28096.7 581.709  34
  -4  -5  -6 29332.7 578.839  33
   4   5   6 29033.5 594.497  50
   5   6   6 19012.3 366.199  59
  -5  -6  -6 18513.4 374.902  34
   5   6   6 18754.1 388.824  45
   4   2  -6 14925.7 303.640  60
  -4  -2   6 16074.4 303.139  38
   3   1  -6 5987.31 153.766  60
  -3  -1   6 5956.53 150.424  35
  -3  -1   6 5658.36 145.278  26
  -2   0   6 1717.14 68.2958   9
  -2   0   6 1593.64 62.1812  32
   2   0  -6 1749.37 66.5819  12
  -2   0   6 1649.12 61.5539  26
  -1   1   6 23978.8 470.203  32
  -1   1   6 24813.0 485.103   9
   1  -1  -6 24355.5 476.943  12
   0  -2  -6 84893.6 1605.78  12
   0   2   6 90814.9 1617.17   9
   1   3   6 3438.09 88.4462  22
  -1  -3  -6 4401.26 99.0216  34
  -1  -3  -6 3809.42 97.6998   9
  -1  -3  -6 4085.57 95.7769  30
   1   3   6 3911.07 102.576   9
   2   4   6 52347.0 998.659  22
  -2  -4  -6 54611.5 1004.23  34
  -2  -4  -6 55489.2 1003.00  33
  -2  -4  -6 51093.9 997.291  17
  -3  -5  -6 101452. 1991.81  34
  -3  -5  -6 99839.8 1986.19  17
   4   6   6 6774.22 190.113  22
  -4  -6  -6 6266.18 160.846  34
  -4  -6  -6 5837.48 156.975  33
   4   6   6 5597.94 176.048  50
   4   6   6 6537.11 169.468  45
   5   7   6 840.086 39.9687  45
   4   1  -6 9196.04 202.944  60
  -4  -1   6 9455.04 200.695  38
  -4  -1   6 9252.46 201.311  35
  -3   0   6 36045.7 668.935  55
  -3   0   6 35451.8 674.305  54
   3   0  -6 35079.5 682.219  51
  -3   0   6 35863.9 679.614  32
   3   0  -6 34017.1 689.249  49
  -3   0   6 33934.8 679.217  26
  -2   1   6 29264.7 545.176   9
  -2   1   6 25860.7 526.008  20
  -2   1   6 26459.8 533.024  32
   2  -1  -6 28289.2 540.030  12
   1  -2  -6 13601.8 289.342  12
  -1   2   6 14149.9 284.858  32
  -1   2   6 14495.5 298.271   9
   0  -3  -6 919.260 42.5000  12
   0   3   6 1040.23 50.3564   9
   1   4   6 2732.52 85.6777   9
   1   4   6 2604.62 72.7710  22
  -1  -4  -6 2758.11 80.3164   9
   2   5   6 3877.94 111.882  22
  -2  -5  -6 3716.50 109.215  34
  -2  -5  -6 4211.12 114.028  33
  -2  -5  -6 4224.32 108.173  17
   3   6   6 82017.4 1468.54  22
  -3  -6  -6 74309.3 1443.38  34
  -3  -6  -6 73069.4 1443.82  33
  -3  -6  -6 69184.7 1434.53  17
  -3  -6  -6 78887.8 1437.54  51
   3   6   6 78236.1 1468.14  50
   3   6   6 89206.9 1457.80  45
  -4  -7  -6 30990.5 601.135  33
  -4  -7  -6 31624.2 594.279  51
  -4  -7  -6 29670.1 597.284  34
   4   7   6 31211.5 602.638  50
   4   7   6 30822.6 615.270  45
   4   0  -6 1666.59 63.3137  60
  -4   0   6 1755.20 62.0348  35
  -4   0   6 1978.71 58.3640  54
   4   0  -6 1893.15 66.8201  49
  -3   1   6 12876.4 266.923  20
  -3   1   6 12700.6 262.279  55
   3  -1  -6 12693.8 272.763  51
  -3   1   6 12442.5 269.961  32
   3  -1  -6 12035.4 281.292  49
  -3   1   6 11909.3 269.032  26
  -2   2   6 91173.4 1608.95  37
  -2   2   6 88562.3 1626.24   9
   2  -2  -6 85901.9 1623.93  12
   1  -3  -6 76395.5 1445.45  12
  -1   3   6 79518.5 1453.69   9
   0  -4  -6 143969. 2668.58   9
   0   4   6 147411. 2677.12   9
   1   5   6 66872.0 1245.91  22
  -1  -5  -6 63963.5 1243.67  34
  -2  -6  -6 54935.0 1053.27  34
  -2  -6  -6 53949.4 1057.96  33
   3   7   6 19639.5 445.111  22
  -3  -7  -6 21132.2 425.007  34
  -3  -7  -6 21595.6 430.691  33
  -3  -7  -6 22152.7 426.126  51
   3   7   6 20211.1 442.452  50
   3   7   6 20698.6 439.488  45
  -4  -8  -6 5549.24 127.990  33
  -4  -8  -6 5383.57 125.292  51
   4   8   6 5585.88 135.902  45
   4  -1  -6 1138.10 53.7287  60
  -4   1   6 1216.59 48.5346  54
  -3   2   6 6056.32 154.686  20
  -3   2   6 6132.12 153.469  55
   3  -2  -6 6452.73 162.303  51
  -3   2   6 6308.28 162.678  32
   2  -3  -6 10375.9 239.753  12
  -2   3   6 10475.7 239.937   9
   1  -4  -6 305.177 33.4869  12
  -1   4   6 261.709 34.3311   9
  -1   4   6 295.051 27.6824  37
   0   5   6 114426. 2135.12   9
   0   5   6 115654. 2107.52  22
   0  -5  -6 114585. 2124.72   9
   1   6   6 100424. 1843.27  22
  -1  -6  -6 105439. 1853.87   9
   2   7   6 3753.56 116.551  22
  -2  -7  -6 3334.30 94.9131  34
  -2  -7  -6 3222.46 100.719  33
  -2  -7  -6 3342.88 100.599  51
   2   7   6 3117.46 106.856  50
   2   7   6 3992.66 111.371  45
  -3  -8  -6 17593.2 365.396  33
  -3  -8  -6 17696.4 364.615  51
   3   8   6 18862.4 372.950  50
   3   8   6 18185.2 376.272  45
  -4  -9  -6 12346.5 241.273  51
  -4  -9  -6 12001.8 241.919  57
   4   9   6 12849.4 245.114  45
   5  -1  -6 24873.8 465.110  58
   4  -2  -6 32376.4 614.371  61
  -4   2   6 32273.7 612.740  55
  -4   2   6 31613.9 619.281  32
   3  -3  -6 12459.6 265.896  61
  -3   3   6 13062.6 256.733  37
  -3   3   6 11341.6 260.936  20
   3  -3  -6 12252.9 270.536  51
  -3   3   6 11229.0 267.311  32
   2  -4  -6 43096.2 854.779  12
  -2   4   6 43961.2 846.471  37
  -2   4   6 44009.1 853.774   9
   1  -5  -6 62347.7 1180.22  12
  -1   5   6 62162.0 1171.44  37
   1  -5  -6 60387.4 1178.38   9
   0   6   6 81877.1 1516.53  22
   0  -6  -6 81659.2 1533.68   9
   1   7   6 6658.13 163.100  22
  -1  -7  -6 6118.92 154.182  51
   1   7   6 5795.53 155.299  50
  -1  -7  -6 6682.10 170.655   9
  -1  -7  -6 6293.11 151.038  44
  -2  -8  -6 343.480 31.3191  33
  -2  -8  -6 316.782 34.5115  51
   2   8   6 269.676 34.3537  50
   2   8   6 323.275 36.7990  45
  -3  -9  -6 10131.8 210.614  33
  -3  -9  -6 9905.07 213.396  51
   3   9   6 10228.3 210.480  50
   3   9   6 10488.1 219.172  45
   5  -2  -6 7237.75 149.807  58
   4  -3  -6 2689.79 82.4394  61
  -4   3   6 2441.03 76.8673  55
   4  -3  -6 2409.15 82.8574  51
  -4   3   6 2564.99 81.7203  32
  -3   4   6 5970.74 139.051  37
   3  -4  -6 4599.74 140.477  51
   2  -5  -6 13372.3 292.799  12
  -2   5   6 12200.2 278.157  37
   2  -5  -6 14064.2 291.181  11
   2  -5  -6 13319.5 287.190  51
  -2   5   6 12608.6 272.137  48
  -2   5   6 12959.2 288.246   9
   2  -5  -6 12906.1 279.453  44
  -1   6   6 67756.8 1248.82   9
   1  -6  -6 65444.2 1234.28  12
  -1   6   6 63310.7 1214.68  37
   1  -6  -6 64998.6 1235.00   9
   0   7   6 72463.5 1360.55  22
   0  -7  -6 71271.2 1363.80  51
   0   7   6 73224.8 1359.32  50
   0  -7  -6 74635.9 1384.04   9
   0   7   6 73856.6 1355.04  48
   0  -7  -6 72116.0 1362.71  44
   1   8   6 24360.6 499.926  22
  -1  -8  -6 24580.5 495.498  51
   1   8   6 24798.7 499.181  50
  -1  -8  -6 26357.6 515.679   9
  -1  -8  -6 24976.1 493.690  44
  -2  -9  -6 2743.23 77.2152  57
  -2  -9  -6 2587.80 81.0173  51
   2   9   6 2770.06 83.4083  50
   2   9   6 2570.06 82.7827  45
  -2  -9  -6 2881.98 79.1487  44
  -3 -10  -6 12952.7 244.561  51
   3  10   6 13068.6 245.295  45
   5  -3  -6 29978.4 538.155  61
  -5   3   6 27777.9 536.136  54
   4  -4  -6 17124.0 337.382  61
  -4   4   6 15048.1 329.390  32
  -3   5   6 4517.29 121.579  37
   3  -5  -6 4348.68 127.208  51
  -3   5   6 4437.56 112.339  48
   3  -5  -6 4062.99 122.224  44
   2  -6  -6 18008.6 374.288  12
  -2   6   6 16651.5 355.368  37
   2  -6  -6 17296.5 368.636  11
   2  -6  -6 16598.2 364.691  51
  -2   6   6 17123.4 351.978  48
   2  -6  -6 17789.0 364.472  44
  -1   7   6 3668.02 125.172   9
  -1   7   6 3569.97 95.8984  37
   1  -7  -6 3167.08 102.094  51
  -1   7   6 3520.44 95.6298  50
   1  -7  -6 3085.28 112.704   9
  -1   7   6 3438.46 95.9386  48
   1  -7  -6 3621.17 108.352  44
   0   8   6 7646.02 175.506  22
   0  -8  -6 6818.03 172.865  51
   0   8   6 7311.70 173.356  50
   0  -8  -6 7173.32 190.681   9
   0  -8  -6 6805.10 175.001  44
  -1  -9  -6 36732.7 718.429  51
   1   9   6 37274.7 721.938  50
  -1  -9  -6 36490.1 718.674  44
  -2 -10  -6 27188.6 520.495  51
   2  10   6 26834.9 518.180  50
   2  10   6 27452.6 521.590  45
  -2 -10  -6 27832.3 518.161  44
  -5   4   6 146.952 14.6179  54
   4  -5  -6 10110.6 227.954  61
  -4   5   6 10513.6 211.451  37
  -3   6   6 15573.0 320.892  37
  -3   6   6 15199.4 312.830  48
   3  -6  -6 14997.3 328.168  44
  -2   7   6 24287.1 463.241  37
  -2   7   6 22920.6 458.794  48
   2  -7  -6 23736.2 477.773  44
   1  -8  -6 21387.6 431.071  51
  -1   8   6 21780.1 426.901  50
  -1   8   6 21550.0 423.872  48
   1  -8  -6 21036.0 439.607  44
   0  -9  -6 22270.9 438.603  51
   0   9   6 21806.2 439.338  50
   0  -9  -6 22433.4 444.796  44
  -1 -10  -6 14451.3 290.643  51
   1  10   6 14144.9 291.857  50
   1  10   6 14494.1 290.814  45
  -1 -10  -6 14918.6 293.826  44
   2  11   6 2062.23 50.0486  45
   4  -6  -6 11221.1 258.407  61
  -4   6   6 13246.9 251.897  37
  -3   7   6 45.4915 22.3573  37
  -3   7   6 55.2244 20.0169  48
   3  -7  -6 81.6908 32.4636  44
  -2   8   6 4239.55 109.828  48
   2  -8  -6 4099.09 121.597  44
  -1   9   6 7885.48 174.577  50
  -1   9   6 7670.66 168.702  48
   1  -9  -6 8002.12 185.043  44
   0 -10  -6 18010.4 355.895  51
   0  10   6 18471.1 361.645  50
   0 -10  -6 18429.8 365.275  44
  -1 -11  -6 24245.2 462.617  51
   1  11   6 24500.1 465.321  50
   1  11   6 24915.7 465.835  45
  -1 -11  -6 25871.4 468.543  44
  -4   7   6 23796.2 438.316  37
  -4   7   6 23363.7 434.300  48
   3  -8  -6 13619.1 289.268  61
  -3   8   6 15250.9 289.586  37
  -3   8   6 15169.7 290.429  48
   3  -8  -6 13701.0 297.373  44
  -2   9   6 9990.38 209.939  48
   2  -9  -6 9793.86 220.372  44
  -1  10   6 5137.80 117.940  50
   1 -10  -6 5093.83 123.299  44
   0  11   6 60.5890 13.5600  50
   0 -11  -6 61.7932 15.9088  44
   3  -9  -6 2317.64 57.6318  61
  -3   9   6 2539.48 61.7966  48
   3  -9  -6 2418.16 64.8754  44
  -2  10   6 3211.98 75.7328  48
   2 -10  -6 3327.38 83.1985  44
  -1  11   6 7749.41 154.545  50
   1 -11  -6 7588.16 156.174  44
   2  -7   7 5061.45 104.654  42
   3  -6   7 1091.72 39.6925  42
  -3   6  -7 1076.47 32.0142  52
   4  -5   7 64.2842 19.8210  42
  -4   5  -7 27.9467 12.4946  39
  -4   5  -7 67.1466 14.5186  52
   5  -4   7 194.619 20.7753  42
  -5   4  -7 183.160 15.3775  39
   5  -4   7 187.656 16.1341  62
  -5   4  -7 217.388 18.0932  52
   1  -7   7 3073.40 69.1021  42
   2  -6   7 9905.17 202.110  42
  -2   6  -7 9497.00 194.091  39
   3  -5   7 10519.0 223.068  42
  -3   5  -7 10621.5 212.768  39
  -3   5  -7 9977.58 207.360  52
   3  -5   7 10135.9 213.867  31
   4  -4   7 17643.4 372.529  42
   4  -4   7 17570.9 358.201  62
  -5   3  -7 10054.5 192.974  39
   5  -3   7 9424.59 197.006  62
  -1   6  -7 4259.23 98.3002  39
   1  -6   7 4482.07 100.529  38
   2  -5   7 1907.78 67.9093  42
  -2   5  -7 1925.33 58.6539  39
   2  -5   7 1848.54 61.5479  31
   3  -4   7 302.329 39.5702  42
  -3   4  -7 349.964 31.8492  39
   3  -4   7 326.398 29.5457  62
  -4   3  -7 2783.02 85.4207  39
   4  -3   7 3070.06 91.1066  62
  -5   2  -7 12334.1 246.925  39
   5  -2   7 12217.7 260.202  62
   6  -1   7 8752.71 197.419  62
   0  -6   7 10700.9 217.725  42
   0  -6   7 10307.6 213.735  38
   1  -5   7 24048.4 470.137  42
  -1   5  -7 23067.9 457.241  39
   1  -5   7 23785.2 460.922  38
   1  -5   7 23321.1 465.040  31
   2  -4   7 15699.7 328.975  42
  -2   4  -7 14458.8 312.277  39
   2  -4   7 16129.5 318.071  62
   2  -4   7 14498.1 316.960  31
   3  -3   7 4725.21 147.531  42
  -3   3  -7 4821.94 127.421  39
   3  -3   7 5173.68 133.023  62
  -4   2  -7 17272.5 359.746  23
   4  -2   7 17228.8 367.537  62
  -4   2  -7 17340.1 353.724  28
   5  -1   7 176.213 28.0667  42
   5  -1   7 163.637 50.2421  62
   6   0   7 2383.74 64.5784  59
   1   6  -7 6824.34 137.697  56
   0  -5   7 686.552 32.1411  38
   0  -5   7 630.194 33.5255  31
   1  -4   7 55.1329 20.6549  41
  -1   4  -7 61.4582 16.6314  39
  -1   4  -7 99.0956 20.0925  56
   1  -4   7 69.1012 22.2287  31
   2  -3   7 8687.92 211.635  42
   2  -3   7 8231.03 198.703  41
  -2   3  -7 8124.90 194.505  39
   2  -3   7 9613.79 205.466  62
  -2   3  -7 9505.65 196.292  56
   2  -3   7 8966.05 202.811  10
   2  -3   7 8792.35 199.516  31
  -2   3  -7 9446.98 198.875  30
   3  -2   7 1080.17 74.1649  42
  -3   2  -7 1043.20 56.0006  23
  -3   2  -7 1251.85 48.9301  56
   3  -2   7 1352.09 67.7115  10
   3  -2   7 1240.11 62.7948  62
  -3   2  -7 1297.59 52.2377  30
  -3   2  -7 956.518 54.6702  28
   4  -1   7 33250.9 650.449  42
   4  -1   7 30269.2 673.051  62
  -4   1  -7 34521.3 626.236  30
   4  -1   7 31580.7 636.124  47
  -4   1  -7 32170.1 638.221  28
   5   0   7 46787.2 935.704  62
   5   0   7 48087.7 894.195  59
   6   1   7 6866.49 152.181  59
  -1  -5   7 37589.9 712.101  38
   1   5  -7 38834.1 715.988  56
   0  -4   7 18370.3 369.113  41
   0  -4   7 18250.4 364.817  38
   0   4  -7 19014.3 371.217  56
   0  -4   7 18490.5 370.737  31
   1  -3   7 37286.8 727.823  41
  -1   3  -7 37698.0 717.618  39
   1  -3   7 38558.8 738.327   9
  -1   3  -7 38949.2 725.806  56
   1  -3   7 37215.6 725.699  31
  -1   3  -7 38848.6 727.526  30
   2  -2   7 6378.19 175.232  42
   2  -2   7 6601.58 159.106  41
  -2   2  -7 6925.15 152.633  56
   2  -2   7 6851.37 169.555  10
  -2   2  -7 6807.01 155.306  30
   3  -1   7 14947.3 327.487  62
  -3   1  -7 14814.0 286.753  56
   3  -1   7 12898.5 336.549  10
  -3   1  -7 13377.5 287.508  14
  -3   1  -7 13929.6 287.533  30
  -3   1  -7 13690.3 295.733  28
   4   0   7 8426.75 233.565  62
   4   0   7 8574.39 232.815  10
  -4   0  -7 8228.02 192.440  14
  -4   0  -7 8288.35 186.061  30
   4   0   7 8560.09 204.793  47
  -4   0  -7 8153.86 194.572  28
   5   1   7 17888.8 370.925  62
   5   1   7 17236.4 351.169  59
  -5  -1  -7 16762.9 347.829  30
   5   1   7 18425.9 397.162  47
   6   2   7 10260.6 219.705  59
   2   5  -7 44.3290 12.5985  56
  -1  -4   7 7302.51 162.768  38
   1   4  -7 7259.85 166.894  56
  -1  -4   7 7740.84 163.512  54
   0  -3   7 2200.94 69.8631  41
   0  -3   7 1854.28 78.4638   9
   0  -3   7 2062.70 63.6857  38
   0   3  -7 2224.68 71.2219  56
   0  -3   7 1985.61 68.3774  54
   0   3  -7 1877.91 67.6685  30
   1  -2   7 9345.95 216.217   9
  -1   2  -7 9369.70 206.658  30
   2  -1   7 136568. 2535.37  10
  -2   1  -7 134880. 2502.44  30
  -2   1  -7 138099. 2502.28  28
   3   0   7 23432.0 507.411  10
  -3   0  -7 23033.3 450.868  14
  -3   0  -7 23392.2 451.086  30
  -3   0  -7 22011.8 453.962  28
   4   1   7 11055.0 256.784  62
  -4  -1  -7 10595.9 233.486  30
   4   1   7 11242.5 262.272  47
  -5  -2  -7 17293.0 359.663  30
   5   2   7 16437.8 406.321  47
   6   3   7 1201.21 56.3374  59
  -2  -4   7 16096.2 314.086  38
   2   4  -7 16648.7 313.164  49
  -1  -3   7 20724.0 395.389  41
  -1  -3   7 19234.4 393.115  38
   1   3  -7 19361.9 399.685  56
  -1  -3   7 20084.3 392.394  35
  -1  -3   7 20409.0 396.929  54
   1   3  -7 19834.7 394.998  49
   0  -2   7 2236.93 84.3382   9
   0   2  -7 2296.95 73.2375  56
   0  -2   7 2307.17 73.3358  54
   0   2  -7 2108.08 74.4237  30
   1  -1   7 10168.5 213.423  36
   1  -1   7 9912.70 227.222   9
  -1   1  -7 10260.9 219.079  30
   2   0   7 9417.83 203.566  36
  -2   0  -7 9180.58 197.876  30
  -2   0  -7 9258.81 195.658  28
   3   1   7 54100.4 1018.18  10
  -3  -1  -7 51430.1 989.039  30
  -3  -1  -7 52638.6 980.102  34
   4   2   7 15732.8 325.918  10
   4   2   7 14428.5 314.750  50
  -4  -2  -7 15278.7 311.185  34
  -4  -2  -7 15015.7 323.002  30
   4   2   7 15226.2 359.649  47
   5   3   7 23942.1 485.536  59
  -5  -3  -7 24382.9 465.259  34
  -5  -3  -7 23175.9 474.761  30
   5   3   7 22623.7 503.226  47
   6   4   7 13841.1 281.649  59
   2   3  -7 2193.30 66.7038  60
  -2  -3   7 2109.64 65.6433  38
   2   3  -7 2066.70 68.4540  56
  -2  -3   7 2136.09 65.0809  35
   2   3  -7 2232.46 67.5938  49
  -1  -2   7 53485.1 1014.99  38
   1   2  -7 54749.7 1020.81  56
  -1  -2   7 52320.1 1012.66  35
  -1  -2   7 54911.7 1017.63  54
   1   2  -7 52418.4 1019.31  30
   1   2  -7 52399.5 1017.84  49
   1   2  -7 56274.0 1023.39  12
   0  -1   7 117967. 2100.37   9
   0   1  -7 109769. 2082.21  30
   1   0   7 111543. 2075.96  36
   1   0   7 115909. 2090.04   9
  -1   0  -7 112924. 2078.83  30
   2   1   7 99766.8 1904.83  10
  -2  -1  -7 99841.4 1875.69  30
  -3  -2  -7 284.763 26.9305  34
  -3  -2  -7 238.271 32.1465  30
  -4  -3  -7 3663.35 109.838  17
   4   3   7 3687.93 108.816  50
  -4  -3  -7 3707.69 114.999  30
   4   3   7 3481.88 138.931  47
   5   4   7 67.8380 47.5446  59
  -5  -4  -7 39.3207 22.8138  34
  -5  -4  -7 25.6091 26.5751  30
   3   3  -7 6924.34 143.813  60
  -3  -3   7 7012.34 142.927  38
   3   3  -7 6553.99 142.941  56
   2   2  -7 2222.88 72.7921  60
  -2  -2   7 1967.68 68.8873  38
   2   2  -7 2049.30 72.1191  56
  -2  -2   7 2199.12 71.3752  35
   2   2  -7 2186.97 74.4808  49
  -1  -1   7 522.420 33.3139  38
   1   1  -7 631.682 37.7843  56
  -1  -1   7 651.891 49.9025   9
  -1  -1   7 692.220 36.5227  55
  -1  -1   7 644.533 38.1292  54
   1   1  -7 827.475 43.5292  30
   1   1  -7 719.605 40.3320  49
   1   1  -7 692.305 41.5830  12
   0   0   7 20663.9 398.897  36
   0   0   7 20318.9 421.587   9
   0   0  -7 20038.7 407.761  30
   0   0  -7 21273.7 408.354  12
   1   1   7 6558.11 155.708   9
  -1  -1  -7 6477.57 147.414  30
  -2  -2  -7 36134.1 675.951  34
   2   2   7 35776.1 685.902  10
  -2  -2  -7 34814.0 678.075  30
   3   3   7 43475.2 901.377  36
  -3  -3  -7 47255.3 872.817  34
  -3  -3  -7 46957.9 872.236  17
  -3  -3  -7 44366.4 875.402  30
  -4  -4  -7 19685.6 399.001  57
  -4  -4  -7 20514.6 413.261  34
  -4  -4  -7 21003.3 405.157  33
  -4  -4  -7 18407.3 404.944  17
   4   4   7 20421.4 412.493  50
   4   4   7 18310.9 418.540  47
   5   5   7 16331.9 370.493  59
  -5  -5  -7 15573.7 362.292  30
   3   2  -7 7794.65 164.590  60
  -3  -2   7 6934.25 159.047  38
  -3  -2   7 7157.93 159.727  35
  -3  -2   7 7648.61 156.733  54
   3   2  -7 7618.85 165.104  49
  -2  -1   7 27403.9 555.517  38
   2   1  -7 29216.6 563.721  56
  -2  -1   7 27607.9 557.150  35
  -2  -1   7 30214.8 555.788  55
  -2  -1   7 29847.2 557.658  54
   2   1  -7 27952.0 564.133  49
  -1   0   7 124729. 2309.93   9
   1   0  -7 123205. 2296.58  30
   1   0  -7 126515. 2298.60  12
   0   1   7 60298.4 1164.15   9
   0  -1  -7 61977.1 1152.20  30
   0  -1  -7 62923.8 1153.24  12
  -1  -2  -7 2949.09 80.7894  30
   1   2   7 3196.66 91.3864   9
   2   3   7 3393.32 92.4153  22
  -2  -3  -7 3510.81 98.6685  30
   3   4   7 2264.15 79.3644  22
  -3  -4  -7 2216.24 81.0823  34
  -3  -4  -7 2249.03 78.8971  33
  -3  -4  -7 2091.27 77.4856  17
   3   4   7 2237.89 76.3299  50
  -4  -5  -7 27110.7 526.298  33
   4   5   7 27411.7 540.782  50
   5   6   7 20576.4 414.478  59
  -5  -6  -7 20769.1 414.177  57
   3   1  -7 291.282 31.8961  60
  -3  -1   7 251.950 27.0923  38
  -3  -1   7 228.577 25.9994  35
  -3  -1   7 296.518 25.2748  54
   3   1  -7 248.736 29.8735  49
  -2   0   7 7208.56 172.337   9
  -2   0   7 6491.27 156.900  54
   2   0  -7 6404.42 158.600  51
   2   0  -7 7186.09 170.390  49
  -2   0   7 6397.44 154.175  55
   2   0  -7 7115.11 166.117  12
  -1   1   7 83506.2 1567.70  32
  -1   1   7 87144.3 1585.66   9
   1  -1  -7 84242.4 1572.75  12
   0  -2  -7 99566.6 1805.30  12
   0   2   7 95901.7 1815.85   9
  -1  -3  -7 46086.4 861.135  12
  -1  -3  -7 45678.0 859.227  30
   1   3   7 46159.1 873.212   9
   2   4   7 73137.6 1392.93  22
   2   4   7 76202.1 1418.94  36
  -2  -4  -7 76899.5 1399.80  34
  -2  -4  -7 74847.8 1399.22  30
   3   5   7 59113.1 1014.99  22
  -3  -5  -7 54501.9 1003.99  33
  -3  -5  -7 47176.9 993.082  17
   3   5   7 57385.1 1010.45  50
  -3  -5  -7 51260.6 1002.14  34
   3   5   7 47447.6 1026.58  48
   3   5   7 52152.1 999.730  47
  -4  -6  -7 1248.37 61.1984  34
   4   6   7 1128.61 67.6338  50
  -5  -7  -7 2230.87 60.7611  57
   5   7   7 2486.45 64.4067  45
   4   1  -7 12537.9 245.429  60
  -3   0   7 21307.9 416.085  54
   3   0  -7 20466.5 425.430  49
  -2   1   7 30459.4 584.373  54
  -2   1   7 31058.3 597.469   9
   2  -1  -7 29286.9 585.309  51
   2  -1  -7 30894.5 598.267  49
  -2   1   7 30402.6 582.196  55
   2  -1  -7 31143.8 594.442  12
   1  -2  -7 4600.69 123.469  12
  -1   2   7 4920.85 119.156  32
  -1   2   7 4598.14 130.825   9
   0  -3  -7 251.099 25.7958  12
   0   3   7 200.077 34.7375   9
   1   4   7 8718.10 190.780  22
  -1  -4  -7 9727.68 202.586  34
  -1  -4  -7 9350.41 205.481   9
   1   4   7 8890.18 208.901   9
   2   5   7 31424.7 604.205  22
  -2  -5  -7 30175.1 601.527  34
  -2  -5  -7 29553.3 600.376  30
  -3  -6  -7 19772.6 415.670  34
  -3  -6  -7 19904.7 418.460  33
  -3  -6  -7 19807.8 407.938  51
   3   6   7 20105.9 430.989  50
  -4  -7  -7 21159.2 433.102  34
  -4  -7  -7 22662.5 439.603  33
   4   7   7 21718.0 446.748  50
   4   7   7 22827.6 443.704  45
   4   0  -7 12334.4 259.452  60
  -4   0   7 12896.5 258.400  38
  -3   1   7 37623.6 715.346  55
  -3   1   7 37907.3 719.896  54
   3  -1  -7 36884.9 724.812  51
  -3   1   7 38349.2 723.213  32
   3  -1  -7 37373.7 731.986  49
  -2   2   7 30483.9 584.776  55
   2  -2  -7 29955.5 587.836  51
  -2   2   7 30585.6 597.896   9
   2  -2  -7 30411.3 597.891  49
   2  -2  -7 31543.0 594.992  12
   1  -3  -7 29819.2 604.442  12
  -1   3   7 31607.4 599.123  32
  -1   3   7 31824.2 615.849   9
   0  -4  -7 35707.4 693.971  12
   0   4   7 36770.0 707.831   9
   1   5   7 81662.5 1526.56  22
  -1  -5  -7 79098.5 1529.50  34
   1   5   7 82671.1 1548.96   9
   2   6   7 19248.7 383.823  22
  -2  -6  -7 16879.6 366.227  34
  -2  -6  -7 17517.3 375.859  33
  -2  -6  -7 18702.1 371.842  51
   2   6   7 19887.7 385.484  50
   2   6   7 17166.9 378.137  48
  -2  -6  -7 17760.2 373.143  57
   3   7   7 353.593 44.6103  22
  -3  -7  -7 482.150 36.4643  34
  -3  -7  -7 360.340 38.4776  33
  -3  -7  -7 426.623 33.4516  51
   3   7   7 260.468 39.4015  50
   3   7   7 553.872 39.8313  45
  -4  -8  -7 9318.96 204.747  57
  -4  -8  -7 9494.45 199.945  51
   4   8   7 9993.04 202.015  50
   4   8   7 10236.6 207.893  45
   4  -1  -7 24301.7 494.071  60
  -4   1   7 27215.9 492.165  54
  -3   2   7 8153.49 185.172  55
   3  -2  -7 8304.24 193.256  51
  -3   2   7 8442.46 190.969  32
  -2   3   7 7039.14 170.649  55
   2  -3  -7 7407.34 176.458  51
  -2   3   7 7440.47 176.155  32
  -2   3   7 7674.25 181.736   9
   2  -3  -7 6931.03 179.687  49
   2  -3  -7 7428.19 180.052  12
   1  -4  -7 26135.6 523.137  12
  -1   4   7 26381.4 532.140   9
   0  -5  -7 52764.0 996.359  12
   0  -5  -7 51187.2 998.921   9
   0   5   7 53722.4 1012.26   9
   1   6   7 61343.9 1196.43   9
   1   6   7 62745.2 1175.79  22
  -1  -6  -7 60800.1 1165.78  34
   2   7   7 69490.7 1281.89  22
  -2  -7  -7 66213.2 1267.18  57
  -2  -7  -7 68917.5 1258.07  34
  -2  -7  -7 68877.5 1268.23  51
  -3  -8  -7 16249.7 333.250  57
  -3  -8  -7 16122.3 322.447  34
  -3  -8  -7 16576.1 332.831  33
  -3  -8  -7 16073.3 330.998  51
   3   8   7 15682.3 338.466  50
   3   8   7 16641.8 335.989  45
  -4  -9  -7 7641.95 159.815  57
  -4  -9  -7 7840.58 158.249  51
  -4   2   7 41585.6 748.949  55
  -4   2   7 40941.0 753.118  54
   3  -3  -7 10565.0 221.381  61
  -3   3   7 9665.51 221.119  55
   3  -3  -7 10291.9 229.431  51
  -3   3   7 9564.94 223.496  32
   2  -4  -7 4237.26 118.100  12
  -2   4   7 3978.66 106.729  37
   2  -4  -7 3699.89 110.259  51
  -2   4   7 3477.51 106.763  32
  -2   4   7 3781.52 115.253   9
   2  -4  -7 3426.56 102.051  44
   1  -5  -7 12768.1 268.906  12
  -1   5   7 11169.8 254.494  37
   1  -5  -7 11661.0 259.361  51
  -1   5   7 12217.4 253.725  48
  -1   5   7 11779.3 274.308   9
   0  -6  -7 2999.36 103.503   9
   0   6   7 3262.96 114.855   9
   1   7   7 781.580 43.3699  22
  -1  -7  -7 537.871 43.0567  51
   1   7   7 675.078 44.3904  50
  -1  -7  -7 841.355 55.7796   9
  -1  -7  -7 605.122 39.0920  57
   1   7   7 562.027 36.7539  48
   2   8   7 25769.1 505.566  22
  -2  -8  -7 24327.1 490.536  57
  -2  -8  -7 24485.5 493.692  51
   2   8   7 24183.1 501.361  50
   2   8   7 25813.4 493.759  45
  -3  -9  -7 22810.1 453.837  57
  -3  -9  -7 24052.8 456.737  51
   3   9   7 23060.5 455.054  50
   3   9   7 24684.3 457.761  45
   4  -3  -7 437.600 27.8515  61
  -4   3   7 468.827 29.6204  55
   3  -4  -7 12853.9 265.394  61
   3  -4  -7 12344.9 268.446  51
  -2   5   7 11463.9 260.392  37
   2  -5  -7 11854.7 270.345  51
  -2   5   7 11485.4 254.459  48
   2  -5  -7 11545.1 260.625  44
   1  -6  -7 76051.8 1378.07  12
  -1   6   7 68155.9 1354.64  37
   1  -6  -7 75412.4 1369.95  51
   1  -6  -7 73725.1 1375.41   9
  -1   6   7 70012.2 1354.09  48
   1  -6  -7 72375.0 1359.35  44
  -1   6   7 77722.4 1389.92   9
   0   7   7 52182.6 988.818   9
   0  -7  -7 48776.1 956.726  51
   0   7   7 48691.9 948.444  50
   0  -7  -7 53997.0 977.835   9
   0   7   7 48799.3 947.982  48
   0  -7  -7 51074.9 953.848  44
   1   8   7 34644.0 680.329  22
  -1  -8  -7 34956.9 669.496  57
  -1  -8  -7 34832.0 680.380  51
   1   8   7 34281.2 681.571  50
   1   8   7 36919.9 670.767  48
  -1  -8  -7 34208.8 673.577  44
  -2  -9  -7 32369.6 627.400  57
  -2  -9  -7 32355.2 634.472  51
   2   9   7 33159.3 638.764  50
   2   9   7 34576.3 633.864  45
  -3 -10  -7 3202.15 72.2141  51
   3  10   7 3076.55 69.7552  45
   4  -4  -7 16708.9 323.381  61
  -4   4   7 15640.4 319.793  55
   3  -5  -7 11886.9 249.868  61
  -3   5   7 11464.2 235.879  37
  -2   6   7 10560.0 232.484  37
   2  -6  -7 10999.0 245.814  51
  -2   6   7 10063.7 227.288  48
   2  -6  -7 10604.2 237.951  44
   1  -7  -7 3248.78 106.008  51
  -1   7   7 3494.46 99.6175  48
   0   8   7 30321.9 575.055  22
   0  -8  -7 29055.9 580.673  51
   0   8   7 29495.4 576.522  50
   0   8   7 29487.4 571.734  48
   0  -8  -7 29266.1 581.269  44
  -1  -9  -7 6550.37 157.923  51
   1   9   7 6405.02 158.619  50
   1   9   7 7039.41 152.652  45
  -1  -9  -7 6668.38 155.742  44
  -2 -10  -7 24871.7 473.057  51
   2  10   7 23932.8 471.501  50
   2  10   7 25392.8 470.389  45
   4  -5  -7 12060.2 243.801  61
  -4   5   7 11322.4 237.471  55
  -3   6   7 32657.1 583.957  37
   3  -6  -7 28167.7 584.110  51
  -3   6   7 26593.9 580.045  32
  -3   6   7 32815.8 577.652  48
  -2   7   7 28015.7 535.777  37
   2  -7  -7 26152.3 541.493  51
  -2   7   7 27098.2 533.780  48
   2  -7  -7 28653.8 549.824  44
   1  -8  -7 39705.6 785.700  51
  -1   8   7 40389.9 779.272  48
   1  -8  -7 40664.0 792.781  44
   0  -9  -7 5474.10 134.014  51
   0   9   7 5691.40 134.949  50
   0   9   7 5420.82 125.225  48
   0  -9  -7 5191.23 136.029  44
   1  10   7 464.548 30.5145  50
   1  10   7 568.172 28.2438  45
  -1 -10  -7 515.511 30.2674  44
   4  -6  -7 7996.79 168.402  61
  -4   6   7 7731.79 163.736  55
   3  -7  -7 613.193 38.9462  61
  -3   7   7 554.855 30.3961  48
   3  -7  -7 502.229 40.0550  44
  -2   8   7 1596.55 56.3712  48
   2  -8  -7 1486.30 64.3629  44
   1  -9  -7 8171.42 179.060  51
  -1   9   7 8670.84 180.492  50
  -1   9   7 8044.05 176.117  48
   1  -9  -7 8078.84 187.726  44
   0 -10  -7 16193.8 323.174  51
   0  10   7 16603.5 326.752  50
   0 -10  -7 16782.1 329.582  44
  -1 -11  -7 8497.28 169.690  51
   1  11   7 8518.43 171.804  50
  -1 -11  -7 8898.72 171.837  44
   4  -7  -7 11991.3 232.903  61
   3  -8  -7 15264.3 309.982  61
  -3   8   7 14935.6 303.899  55
  -3   8   7 16989.1 309.071  48
   3  -8  -7 16299.0 317.157  44
  -2   9   7 8810.20 181.709  48
   2  -9  -7 8626.47 189.891  44
  -1  10   7 674.647 30.2832  50
  -1  10   7 642.294 26.1952  48
   1 -10  -7 678.770 35.1201  44
   0  11   7 11070.4 215.554  50
   0 -11  -7 10911.2 216.234  44
  -3   9   7 8435.66 166.432  48
  -2  10   7 3257.25 72.4370  48
   2 -10  -7 3301.74 77.5982  44
   4  -5   8 714.006 25.6132  42
   2  -6   8 11411.9 222.164  42
   3  -5   8 7088.20 155.025  42
  -3   5  -8 7425.72 149.352  39
   4  -4   8 3816.55 97.7589  42
   4  -4   8 3895.05 91.3583  62
  -4   4  -8 3930.92 89.7585  52
  -5   3  -8 4801.80 96.2910  39
   5  -3   8 4455.41 98.3950  62
   1  -6   8 6696.46 136.842  42
   2  -5   8 1128.44 44.8078  42
  -2   5  -8 1030.75 34.9602  39
   3  -4   8 9670.42 213.082  42
  -3   4  -8 9896.90 201.919  39
   3  -4   8 10134.9 204.783  62
  -3   4  -8 9412.23 195.284  52
   4  -3   8 605.800 41.7558  42
  -4   3  -8 651.297 35.8314  39
   4  -3   8 605.692 37.1401  62
  -5   2  -8 6648.56 139.192  39
   5  -2   8 6887.92 147.569  62
   1  -5   8 19050.7 384.725  42
  -1   5  -8 20514.8 380.152  56
   2  -4   8 22816.0 459.053  42
  -2   4  -8 21642.5 444.209  39
   2  -4   8 24248.5 451.502  62
  -2   4  -8 24936.5 449.177  56
   2  -4   8 21558.9 448.466  31
  -2   4  -8 24747.2 449.912  30
   3  -3   8 158.531 33.4917  42
  -3   3  -8 78.2345 23.3252  39
   3  -3   8 134.037 28.9615  62
   4  -2   8 20.3378 26.6221  42
  -4   2  -8 148.616 27.9347  39
   5  -1   8 56.5673 32.9320  62
   0  -5   8 3376.50 81.2578  42
   0   5  -8 3462.45 79.6539  56
   1  -4   8 875.960 43.9877  42
   1  -4   8 907.262 39.0493  62
  -1   4  -8 1005.69 40.8081  56
   1  -4   8 1020.72 42.2675  31
  -1   4  -8 886.169 37.7556  30
   2  -3   8 6569.70 161.824  42
   2  -3   8 6607.96 155.062  62
  -2   3  -8 6650.26 149.128  56
  -2   3  -8 6598.11 150.047  30
   3  -2   8 32198.7 602.730  62
  -3   2  -8 33040.9 582.885  56
  -3   2  -8 32583.8 585.360  30
   4  -1   8 13606.8 333.438  62
  -4   1  -8 15448.1 299.564  56
  -4   1  -8 15234.4 300.652  30
   4  -1   8 14640.7 305.546  47
  -4   1  -8 14184.6 309.040  28
   5   0   8 19181.6 413.606  62
   6   1   8 6778.39 140.097  59
   1   5  -8 24978.9 466.151  56
   0  -4   8 10249.2 208.422  41
   0  -4   8 9929.02 202.996  38
   0   4  -8 9917.91 209.258  56
   0  -4   8 9900.26 207.983  31
   1  -3   8 5746.38 139.903  41
  -1   3  -8 5626.86 136.277  56
   1  -3   8 5594.81 135.080  31
  -1   3  -8 5841.68 138.437  30
   2  -2   8 21316.4 464.578  42
   2  -2   8 22486.7 453.941  41
  -2   2  -8 21958.1 444.222  39
  -2   2  -8 23401.8 448.161  56
  -2   2  -8 23948.7 450.435  30
   3  -1   8 2696.45 103.580  62
  -3   1  -8 2847.51 81.1390  56
  -3   1  -8 2690.87 81.4734  30
  -4   0  -8 12321.4 254.586  56
  -4   0  -8 11897.5 254.794  30
   4   0   8 12905.6 272.194  47
  -4   0  -8 12450.0 264.918  28
   5   1   8 10331.2 233.336  62
   5   1   8 10415.4 213.563  59
   6   2   8 15485.1 303.625  59
  -1  -4   8 12262.3 244.379  38
   1   4  -8 12695.7 250.447  56
   0  -3   8 28030.5 547.677  41
   0   3  -8 28744.1 547.653  56
   0  -3   8 28462.2 547.643  54
   0  -3   8 28231.8 546.064  31
   0   3  -8 27977.3 545.962  30
   1  -2   8 20304.0 421.296  41
   1  -2   8 21855.3 432.214   9
  -1   2  -8 21791.9 420.425  56
   1  -2   8 20300.0 421.365  54
   1  -2   8 21349.6 417.775  31
  -1   2  -8 20895.5 420.457  30
   2  -1   8 57012.2 1056.94  41
  -2   1  -8 58074.7 1048.45  56
   2  -1   8 57397.4 1073.56  10
  -2   1  -8 56871.1 1050.65  30
   3   0   8 58705.4 1185.10  62
  -3   0  -8 62190.0 1125.90  56
   3   0   8 57716.5 1181.49  10
  -3   0  -8 60486.4 1127.03  30
   3   0   8 60424.9 1134.34  47
  -3   0  -8 59309.2 1129.37  28
   4   1   8 629.037 57.2629  62
  -4  -1  -8 635.356 38.4768  30
  -4  -1  -8 585.979 41.5877  28
   5   2   8 116.469 27.7024  59
  -5  -2  -8 91.5840 21.1752  30
   5   2   8 95.5215 50.9093  47
   6   3   8 2807.70 76.5275  59
   2   4  -8 17360.8 328.367  56
  -1  -3   8 3537.38 88.3988  41
  -1  -3   8 3474.03 85.6384  38
   1   3  -8 3207.39 90.2855  56
  -1  -3   8 3368.81 89.0578  54
   1   3  -8 3570.39 87.8764  49
   0  -2   8 473.473 35.0210  41
   0   2  -8 447.890 33.7549  56
   0  -2   8 351.891 32.4720  54
   0   2  -8 469.738 37.3460  30
   1  -1   8 75.4388 22.6089  41
   1  -1   8 74.5308 29.4122   9
   1  -1   8 81.5734 19.9593  36
  -1   1  -8 93.8329 21.7310  56
   1  -1   8 100.449 25.3381  54
  -1   1  -8 75.0181 24.6855  30
   2   0   8 7608.82 176.047  41
   2   0   8 7092.33 171.730  36
  -2   0  -8 7171.57 167.946  30
   3   1   8 35690.1 734.266  62
   3   1   8 35449.3 728.402  10
  -3  -1  -8 35468.9 695.868  30
  -4  -2  -8 36154.8 724.015  30
   4   2   8 36371.0 764.180  47
   5   3   8 7030.42 161.151  59
  -5  -3  -8 6420.17 152.877  30
   6   4   8 8088.87 168.943  59
   2   3  -8 11544.7 224.616  60
  -2  -3   8 10954.3 224.210  38
   2   3  -8 10757.7 227.949  56
   2   3  -8 11450.1 226.820  49
  -1  -2   8 30097.4 569.407  41
   1   2  -8 30397.9 568.010  60
  -1  -2   8 29369.4 563.567  38
   1   2  -8 28710.9 570.513  56
  -1  -2   8 28942.4 569.931  54
   1   2  -8 29724.2 570.620  49
   0   1  -8 72248.9 1387.04  56
   0  -1   8 71744.6 1388.07  54
   0   1  -8 75127.0 1391.44  30
   0   1  -8 75330.9 1384.89  49
   1   0   8 41082.4 795.776  36
  -1   0  -8 41562.0 798.893  30
   2   1   8 9858.67 243.487  10
  -2  -1  -8 9876.49 218.165  30
  -3  -2  -8 95.4702 21.5568  34
   3   2   8 52.5451 19.2343  50
  -3  -2  -8 59.8613 17.0768  49
  -3  -2  -8 34.2301 27.4322  30
   3   2   8 122.133 40.6588  47
  -4  -3  -8 10310.7 217.309  34
   4   3   8 9710.47 219.581  50
  -4  -3  -8 9614.82 223.361  30
   5   4   8 6271.91 160.888  59
  -5  -4  -8 6444.13 141.705  34
  -5  -4  -8 5580.64 145.784  30
   5   4   8 5787.12 154.573  47
  -2  -2   8 112.057 16.4039  41
   2   2  -8 56.3998 19.8649  60
  -2  -2   8 127.513 18.3062  38
   2   2  -8 84.8137 20.0741  56
  -2  -2   8 124.102 17.9901  35
  -2  -2   8 118.899 19.7381  54
   2   2  -8 83.3363 20.2201  49
   1   1  -8 986.719 46.1325  56
  -1  -1   8 1160.46 49.3979  54
   0   0  -8 17140.8 346.724  56
   0   0   8 16827.4 346.985  55
   0   0   8 16747.7 346.709  54
   0   0   8 17242.7 363.027   9
   0   0  -8 16801.9 347.516  30
   0   0  -8 17393.3 345.615  49
   1   1   8 92501.2 1720.62  36
   1   1   8 96879.0 1734.09   9
  -1  -1  -8 91023.1 1719.59  30
   2   2   8 38636.7 754.390  10
  -2  -2  -8 36998.2 741.644  30
  -3  -3  -8 41789.1 756.878  57
   3   3   8 39579.4 799.658  36
  -3  -3  -8 41019.5 763.296  34
  -3  -3  -8 40341.1 761.005  49
  -3  -3  -8 39071.7 770.147  30
   3   3   8 40718.3 822.027  47
  -4  -4  -8 28314.9 531.809  34
   4   4   8 27286.7 533.364  50
  -4  -4  -8 25685.7 535.387  30
   4   4   8 24552.8 551.217  47
   5   5   8 5372.86 143.325  59
   3   2  -8 3535.87 80.1061  60
  -2  -1   8 22942.8 456.888  38
   2   1  -8 23241.3 461.562  56
  -2  -1   8 23984.2 457.131  35
  -2  -1   8 24375.3 460.787  54
   2   1  -8 23349.6 465.323  49
   1   0  -8 26941.7 526.522  56
  -1   0   8 25770.3 522.844  55
  -1   0   8 28625.2 545.977   9
  -1   0   8 25638.1 524.068  54
   1   0  -8 26745.7 529.411  49
   1   0  -8 28231.2 528.821  12
   0   1   8 9843.65 230.522   9
   0  -1  -8 9778.68 215.450  30
   0  -1  -8 9932.47 214.202  12
   1   2   8 2824.37 85.7934  36
   1   2   8 3047.44 94.6525   9
  -1  -2  -8 2910.57 84.4878  30
  -2  -3  -8 4231.69 112.841  34
  -2  -3  -8 3677.00 108.076  30
  -3  -4  -8 4971.85 128.171  57
   3   4   8 4516.84 126.942  50
   3   4   8 4493.98 142.604  48
  -3  -4  -8 4606.27 135.134  30
   3   4   8 4375.82 153.397  47
  -4  -5  -8 23230.0 443.165  57
  -4  -5  -8 22009.5 444.134  34
   4   5   8 23279.6 456.948  50
   4   5   8 21975.9 446.597  47
   5   6   8 16180.6 329.660  59
  -5  -6  -8 17174.0 325.318  57
   3   1  -8 1148.89 42.9263  60
  -3  -1   8 1174.30 39.6690  38
   3   1  -8 1144.95 43.1186  49
  -2   0   8 9458.31 209.288  38
  -2   0   8 10092.4 212.705  55
  -2   0   8 9921.74 213.995  54
   2   0  -8 9861.71 213.575  51
   2   0  -8 9702.48 220.487  49
  -1   1   8 72147.4 1366.47  55
  -1   1   8 72140.2 1367.82  54
  -1   1   8 81127.2 1394.03   9
   1  -1  -8 68257.0 1362.30  51
   1  -1  -8 72641.9 1374.21  49
   1  -1  -8 79709.5 1376.98  12
   0  -2  -8 83137.3 1541.14  12
   0   2   8 83005.6 1555.07   9
  -1  -3  -8 97225.5 1768.32  30
   1   3   8 94222.6 1782.28   9
   2   4   8 40349.6 765.252  22
   2   4   8 40156.6 788.663  36
  -2  -4  -8 41888.0 773.202  34
  -2  -4  -8 38627.8 767.307  30
  -3  -5  -8 15676.4 324.388  57
  -3  -5  -8 14886.8 323.531  34
   3   5   8 15460.1 326.704  50
   3   5   8 13930.5 341.864  48
  -3  -5  -8 14498.3 323.785  30
   3   5   8 14753.0 330.641  47
  -4  -6  -8 3287.57 94.1755  34
   4   6   8 3098.85 104.804  50
  -5  -7  -8 509.121 22.5626  57
  -5  -7  -8 522.697 23.6218  49
   3   0  -8 13663.8 285.802  60
  -3   0   8 13162.6 279.093  38
  -3   0   8 13665.1 279.758  35
  -3   0   8 15401.1 280.155  55
  -3   0   8 14797.0 282.339  54
   3   0  -8 13696.4 286.714  49
  -2   1   8 18692.9 370.219  55
  -2   1   8 18293.5 372.044  54
   2  -1  -8 17956.2 371.853  51
   2  -1  -8 18672.8 382.023  49
   1  -2  -8 201.533 26.6732  12
  -1   2   8 52.2454 29.8555   9
  -1   2   8 218.718 25.5855  55
  -1   2   8 154.887 23.8617  54
  -1   2   8 286.583 27.9992  32
   1  -2  -8 113.228 21.2650  51
   1  -2  -8 41.8052 23.3641  49
   0  -3  -8 9545.54 211.658  12
   0   3   8 9474.18 223.749   9
  -1  -4  -8 37545.6 696.756  12
   1   4   8 34758.3 707.385   9
   2   5   8 50600.6 953.625  22
  -2  -5  -8 52798.6 960.105  57
  -2  -5  -8 50428.0 956.985  34
   2   5   8 50637.7 954.905  50
  -2  -5  -8 48788.3 954.785  49
   2   5   8 51644.0 972.161  48
   2   5   8 48036.6 964.993  47
  -3  -6  -8 33652.6 675.155  57
  -3  -6  -8 34338.2 671.160  34
   3   6   8 35092.1 685.182  50
   3   6   8 35064.1 681.634  48
  -4  -7  -8 22847.3 432.265  57
  -4  -7  -8 21775.3 424.154  34
  -3   1   8 16367.0 346.792  38
  -3   1   8 19265.2 350.819  55
  -3   1   8 16878.9 348.963  35
  -3   1   8 18551.5 352.767  54
   3  -1  -8 17730.0 358.239  49
  -2   2   8 45637.5 854.887  55
  -2   2   8 43358.5 852.962  54
   2  -2  -8 44771.1 856.001  51
  -2   2   8 45865.9 855.092  32
   2  -2  -8 45286.4 865.881  49
   1  -3  -8 36563.7 684.225  12
  -1   3   8 35169.1 675.404  55
   1  -3  -8 34792.9 674.844  51
   1  -3  -8 35610.8 682.551  49
   0  -4  -8 2311.34 78.4085  12
   0   4   8 2351.58 88.1696   9
  -1  -5  -8 12549.2 270.496  12
  -1  -5  -8 12481.0 269.575  57
  -1  -5  -8 12338.9 265.096  51
  -1  -5  -8 12698.3 267.755  49
   1   5   8 12991.8 275.168  48
   1   5   8 12487.7 282.797   9
   2   6   8 14019.2 288.816  22
  -2  -6  -8 13154.4 288.680  57
  -2  -6  -8 12918.8 280.864  34
  -2  -6  -8 13645.5 284.518  51
   2   6   8 14324.7 293.519  50
  -2  -6  -8 12502.1 280.760  49
   2   6   8 12314.0 290.478  48
   2   6   8 13633.9 283.589  47
  -3  -7  -8 2624.71 87.5030  57
  -3  -7  -8 2541.26 77.6208  34
  -3  -7  -8 2678.38 80.8897  51
  -4  -8  -8 12537.3 242.499  57
   4   8   8 12252.6 241.680  50
  -3   2   8 3776.92 95.7558  55
  -3   2   8 3567.69 95.3779  54
   3  -2  -8 3445.60 98.8195  51
  -3   2   8 3742.80 96.6213  32
  -2   3   8 253.684 30.7222  55
  -2   3   8 244.386 28.3354  54
   2  -3  -8 373.880 34.5460  51
  -2   3   8 264.070 27.8985  32
   2  -3  -8 403.202 37.3347  49
   1  -4  -8 31144.7 598.640  12
  -1   4   8 29170.4 586.940  55
   1  -4  -8 29573.8 590.294  51
   1  -4  -8 31123.5 595.452  49
  -1   4   8 31035.6 609.504   9
  -1   4   8 29994.8 580.058  48
   0  -5  -8 59491.1 1081.81  12
   0  -5  -8 55582.0 1071.11  51
   0  -5  -8 54080.3 1067.75  49
   0   5   8 57061.6 1071.67  48
   0   5   8 60418.7 1098.00   9
  -1  -6  -8 65479.7 1205.55  57
  -1  -6  -8 65317.2 1205.31  51
   1   6   8 66382.9 1202.16  50
  -1  -6  -8 68690.7 1219.15   9
   1   6   8 65831.0 1225.28   9
   2   7   8 72943.7 1293.20  22
  -2  -7  -8 67658.5 1285.19  57
  -2  -7  -8 70646.2 1275.28  34
  -2  -7  -8 67936.3 1284.13  51
   2   7   8 66176.8 1292.00  50
  -2  -7  -8 65555.7 1274.00  49
   2   7   8 69058.5 1284.00  48
  -3  -8  -8 15966.9 326.255  57
  -3  -8  -8 15787.2 314.987  34
   3   8   8 15657.8 331.990  50
  -3  -8  -8 15453.1 316.436  49
  -4  -9  -8 620.007 23.1795  57
  -4   2   8 28907.0 539.287  54
  -3   3   8 21302.0 418.207  55
  -3   3   8 20397.8 416.001  54
   3  -3  -8 21807.3 425.317  51
  -3   3   8 21217.3 418.535  32
  -2   4   8 11887.7 261.871  55
  -2   4   8 11900.0 257.983  32
   1  -5  -8 12072.4 256.326  12
  -1   5   8 10510.9 237.837  55
   1  -5  -8 11210.5 247.991  51
  -1   5   8 11181.5 239.551  48
  -1   5   8 12189.8 266.138   9
   1  -5  -8 10382.0 234.766  44
   0   6   8 68.2421 40.7770   9
   0  -6  -8 72.5206 27.7064  51
   1   7   8 6175.42 148.490  22
  -1  -7  -8 5658.45 145.472  57
  -1  -7  -8 5826.68 151.761  51
   1   7   8 5992.24 149.930  50
   1   7   8 5780.58 147.517  48
  -2  -8  -8 7208.86 168.790  57
  -2  -8  -8 7504.98 173.201  51
   2   8   8 7167.87 177.474  50
  -3  -9  -8 25311.6 487.625  57
  -3  -9  -8 25674.5 489.500  51
   3   9   8 26011.6 491.856  50
  -4   3   8 12003.9 231.667  55
  -4   3   8 11798.1 233.346  54
  -3   4   8 7301.87 170.030  55
  -3   4   8 6879.15 164.044  54
   3  -4  -8 7566.27 175.837  51
  -3   4   8 7233.81 167.799  32
   2  -5  -8 10914.4 242.762  51
  -2   5   8 11260.7 226.462  48
   2  -5  -8 10588.3 232.699  44
  -1   6   8 45171.8 892.651  48
   1  -6  -8 46999.5 894.170  44
   0   7   8 56828.6 1040.21  50
   0   7   8 54664.5 1043.04  48
   0  -7  -8 56595.4 1042.81  44
  -1  -8  -8 6481.05 150.848  57
  -1  -8  -8 6222.66 158.981  51
   1   8   8 6502.14 158.843  50
   1   8   8 6566.84 152.490  48
  -2  -9  -8 1976.33 58.9598  57
  -2  -9  -8 2019.87 65.6360  51
   2   9   8 1836.33 65.3814  50
  -3 -10  -8 78.8809 11.7880  51
  -4   4   8 7725.25 152.809  55
  -4   4   8 7276.04 151.663  54
  -3   5   8 8646.67 187.821  55
   3  -5  -8 8639.74 192.168  51
  -3   5   8 8081.73 180.881  32
   2  -6  -8 2213.22 79.0981  51
  -2   6   8 2159.63 66.5878  48
   2  -6  -8 1986.78 72.9661  44
   1  -7  -8 222.499 34.3854  51
  -1   7   8 243.286 27.6024  48
   1  -7  -8 307.222 34.0034  44
   0  -8  -8 13773.1 300.353  51
   0   8   8 14861.0 295.719  50
   0   8   8 13626.2 291.652  48
   0  -8  -8 14520.4 298.639  44
  -1  -9  -8 25153.0 494.442  51
   1   9   8 25420.8 495.156  50
  -2 -10  -8 20432.5 389.838  51
   2  10   8 20183.2 389.790  50
  -4   5   8 9805.98 192.901  55
  -3   6   8 9034.28 199.603  55
   3  -6  -8 9099.22 201.753  51
  -2   7   8 19337.5 394.751  55
   2  -7  -8 19378.5 406.111  51
  -2   7   8 20969.9 400.503  48
   2  -7  -8 21727.9 412.167  44
   1  -8  -8 21405.2 427.512  51
  -1   8   8 21246.8 420.795  48
   1  -8  -8 21427.0 429.031  44
   0  -9  -8 1708.14 63.1382  51
   0   9   8 1805.33 61.8960  50
   0   9   8 1875.61 58.9773  48
  -1 -10  -8 12666.6 257.715  51
   1  10   8 12987.0 259.095  50
  -1 -10  -8 12985.2 254.529  44
   3  -7  -8 4063.12 101.754  61
  -3   7   8 4067.86 96.5084  55
  -3   7   8 4342.68 94.5632  48
   2  -8  -8 6998.11 156.159  51
  -2   8   8 7321.86 156.325  48
   2  -8  -8 6994.30 163.066  44
   1  -9  -8 7305.60 159.988  51
  -1   9   8 7365.54 157.415  48
   1  -9  -8 7238.40 164.474  44
   0 -10  -8 20561.9 402.510  51
   0  10   8 20557.1 396.266  48
   0 -10  -8 21338.0 405.652  44
   3  -8  -8 10937.6 221.874  61
  -3   8   8 11581.1 218.705  48
  -2   9   8 1441.70 43.5170  48
   2  -9  -8 1493.43 48.6039  44
  -1  10   8 982.226 31.0967  50
  -1  10   8 913.725 30.1330  48
   1 -10  -8 901.662 34.4440  44
   2  -5   9 3958.72 86.4311  42
   3  -4   9 6800.20 146.393  42
  -3   4  -9 6763.52 139.062  39
   3  -4   9 7030.99 141.359  62
   4  -3   9 441.161 26.1007  42
  -4   3  -9 485.380 24.1122  39
   4  -3   9 494.990 27.5031  62
  -4   3  -9 461.244 20.3502  52
  -5   2  -9 6695.03 136.173  39
   5  -2   9 6641.83 140.011  62
   1  -5   9 18364.4 346.851  42
   2  -4   9 13091.3 268.184  42
  -2   4  -9 12555.4 256.740  39
   2  -4   9 14204.9 263.318  62
  -2   4  -9 14076.1 261.397  56
   3  -3   9 89.7142 23.6451  42
  -3   3  -9 98.8782 17.1009  39
   3  -3   9 141.647 23.4058  62
  -4   2  -9 129.863 21.0852  39
   4  -2   9 143.372 27.3634  62
  -5   1  -9 1840.96 53.5570  39
   5  -1   9 1811.53 60.6454  62
   1  -4   9 11288.2 234.535  42
  -1   4  -9 11999.5 232.463  56
   2  -3   9 16506.1 347.969  42
  -2   3  -9 16557.4 333.615  39
   2  -3   9 17942.6 347.074  62
  -2   3  -9 17534.7 341.583  56
  -2   3  -9 18464.2 343.360  30
   3  -2   9 7711.94 174.117  62
  -3   2  -9 7860.29 162.497  56
  -4   1  -9 4241.28 112.885  39
   4  -1   9 4430.25 129.146  62
  -4   1  -9 4846.47 109.800  56
  -4   1  -9 4737.06 109.837  30
   5   0   9 6707.63 163.276  62
   0  -4   9 9446.50 194.236  42
   0   4  -9 9901.98 194.375  56
   1  -3   9 2936.46 82.6439  42
   1  -3   9 2828.12 81.1667  41
  -1   3  -9 2950.51 79.7744  56
   1  -3   9 2914.25 76.5310  31
  -1   3  -9 2956.98 78.6793  30
   2  -2   9 198.951 32.4462  42
   2  -2   9 229.548 29.1850  41
   2  -2   9 311.571 35.2209  62
  -2   2  -9 319.676 26.2911  30
   3  -1   9 195.651 39.5498  62
  -3   1  -9 697.500 36.7134  56
  -3   1  -9 767.983 36.2485  30
  -4   0  -9 5554.62 127.507  56
  -4   0  -9 5464.93 127.190  30
   4   0   9 5585.82 134.620  47
  -5  -1  -9 21979.6 412.931  56
   5   1   9 24239.0 438.901  47
   1   4  -9 6295.50 126.439  56
   0  -3   9 16111.4 316.083  41
   0   3  -9 15884.7 316.262  56
   0  -3   9 15899.8 312.360  31
   1  -2   9 36595.7 707.400  41
  -1   2  -9 36257.3 703.769  56
  -1   2  -9 38161.5 706.862  30
   2  -1   9 21747.7 445.424  41
  -2   1  -9 22400.5 440.013  56
  -2   1  -9 22534.9 440.856  30
   3   0   9 10287.0 261.253  62
  -3   0  -9 10743.0 232.133  56
  -3   0  -9 11072.1 234.412  30
   3   0   9 11035.4 235.645  47
   4   1   9 3559.03 122.873  62
  -4  -1  -9 3911.21 102.820  56
  -4  -1  -9 3843.24 102.194  30
   5   2   9 1151.90 42.6739  59
  -5  -2  -9 1121.64 44.6274  56
  -1  -3   9 1447.13 40.6402  41
   1   3  -9 1231.18 42.1945  56
   0  -2   9 1164.83 48.7174  41
   0   2  -9 1228.14 48.4637  56
   0  -2   9 1186.37 50.2403  54
   0   2  -9 1143.06 46.3860  30
   1  -1   9 1975.56 71.8541  41
  -1   1  -9 2338.49 72.4036  56
   1  -1   9 2090.94 73.1352  54
  -1   1  -9 2241.55 72.8059  30
   2   0   9 51405.2 954.922  41
  -2   0  -9 50319.9 945.401  56
  -2   0  -9 49001.5 945.962  30
  -3  -1  -9 41339.1 773.282  56
  -3  -1  -9 40852.7 774.558  30
   3   1   9 41627.7 786.818  47
  -4  -2  -9 21770.9 437.999  30
  -4  -2  -9 21564.0 436.752  28
   5   3   9 7261.28 153.656  59
   5   3   9 5670.60 175.951  47
  -1  -2   9 8545.57 179.442  41
   1   2  -9 8178.84 179.628  56
  -1  -2   9 8489.00 180.023  54
   1   2  -9 8524.22 178.420  49
   0  -1   9 6016.43 149.273  41
   0   1  -9 6288.86 149.715  56
   0  -1   9 6160.74 150.212  54
   0   1  -9 6468.55 149.782  30
   0   1  -9 6528.81 147.095  49
   1   0   9 57751.2 1112.16  41
   1   0   9 59901.1 1106.74  36
  -1   0  -9 59079.9 1108.81  56
   1   0   9 60807.5 1115.19  54
  -1   0  -9 58750.6 1109.54  30
  -1   0  -9 58723.7 1102.81  49
   2   1   9 7818.98 188.788  36
  -2  -1  -9 8021.84 182.652  56
  -2  -1  -9 8203.79 176.748  49
  -2  -1  -9 7973.07 184.022  30
   3   2   9 727.728 48.3160  62
  -3  -2  -9 650.558 35.2580  49
   3   2   9 742.938 54.4611  47
  -4  -3  -9 707.793 36.0805  49
  -4  -3  -9 520.488 38.9789  30
  -5  -4  -9 8319.82 174.567  49
   5   4   9 7873.56 191.514  47
   2   2  -9 301.322 17.0905  60
   2   2  -9 287.440 17.3643  56
  -2  -2   9 292.507 18.3825  54
   2   2  -9 330.381 19.4149  49
   1   1  -9 16484.5 324.453  56
  -1  -1   9 15873.8 324.438  54
   1   1  -9 15849.3 324.227  49
   0   0  -9 18039.0 373.269  56
   0   0   9 18009.4 375.519  54
   0   0  -9 18565.4 373.281  49
   1   1   9 69552.4 1336.16  36
  -1  -1  -9 71999.8 1334.95  56
   1   1   9 72282.8 1340.89  54
   1   1   9 73347.9 1348.08   9
  -1  -1  -9 68780.2 1334.87  30
  -1  -1  -9 70947.9 1331.78  49
   1   1   9 75822.6 1337.28  47
   2   2   9 130042. 2421.67  36
  -2  -2  -9 130465. 2408.74  56
  -2  -2  -9 131128. 2405.04  49
  -2  -2  -9 128996. 2408.97  30
   2   2   9 129784. 2409.28  48
   2   2   9 138915. 2429.19  47
   3   3   9 16076.6 336.338  50
  -3  -3  -9 15842.1 342.768  30
  -4  -4  -9 3387.63 94.1449  34
   4   4   9 3241.86 96.4870  50
  -4  -4  -9 3268.30 91.9413  49
  -4  -4  -9 2900.22 93.8130  30
   4   4   9 2669.90 110.202  47
   5   5   9 115.611 28.3273  59
  -5  -5  -9 104.948 18.7026  49
  -2  -1   9 19308.9 357.118  41
   2   1  -9 18525.1 358.891  60
  -2  -1   9 17989.6 351.891  38
  -2  -1   9 18873.9 359.104  54
   2   1  -9 17821.5 360.469  49
   1   0  -9 6414.88 148.723  56
  -1   0   9 6662.49 152.838  55
  -1   0   9 6232.02 150.041  54
   1   0  -9 6141.03 151.954  49
   0   1   9 835.313 41.2368  36
   0  -1  -9 1039.90 45.9495  56
   0   1   9 804.837 44.5739  55
   0   1   9 900.930 46.9680  54
   0  -1  -9 992.594 43.4103  30
   0  -1  -9 885.018 45.7395  49
   1   2   9 22003.9 446.766  36
  -1  -2  -9 21840.5 440.634  56
   1   2   9 22441.2 454.550   9
  -1  -2  -9 22285.9 441.612  49
  -1  -2  -9 22632.3 442.912  30
   1   2   9 21236.6 434.500  48
   2   3   9 21908.0 425.543  36
  -2  -3  -9 19200.4 400.968  56
  -2  -3  -9 20136.8 403.223  49
  -2  -3  -9 19277.9 403.001  30
   2   3   9 20354.5 409.875  48
   2   3   9 21913.7 434.759  47
  -3  -4  -9 43112.5 795.934  57
   3   4   9 39795.1 819.768  36
  -3  -4  -9 45936.2 805.291  34
   3   4   9 40617.3 794.057  50
  -3  -4  -9 43063.3 800.532  49
  -3  -4  -9 40268.2 798.716  30
   3   4   9 37827.1 830.177  47
  -4  -5  -9 8702.05 178.727  57
  -4  -5  -9 8080.40 180.918  34
   4   5   9 7976.01 186.780  50
  -4  -5  -9 7812.92 180.675  49
  -4  -5  -9 6911.04 178.028  30
   4   5   9 7417.02 185.613  47
   5   6   9 10999.8 226.902  59
  -5  -6  -9 11633.1 224.643  49
  -2   0   9 15906.6 316.776  54
   2   0  -9 15817.4 321.291  49
  -1   1   9 61656.7 1180.99  55
  -1   1   9 62487.5 1180.93  54
   1  -1  -9 64204.2 1175.19  51
   1  -1  -9 64294.7 1187.51  49
   0   2   9 14644.1 306.914  36
   0   2   9 14516.1 310.609  55
   0   2   9 14857.8 309.102  54
   0   2   9 15785.9 329.753   9
   0  -2  -9 14827.9 311.994  49
   0  -2  -9 15440.2 309.511  12
   1   3   9 8733.02 207.701  36
   1   3   9 9307.64 214.962   9
  -1  -3  -9 8968.07 201.963  49
   1   3   9 9238.87 200.158  48
  -2  -4  -9 19637.6 389.987  57
   2   4   9 19227.4 406.671  36
  -2  -4  -9 19283.3 390.378  49
   2   4   9 20467.3 400.773  48
  -2  -4  -9 18823.3 384.094  30
   2   4   9 17855.0 409.660  47
  -3  -5  -9 659.614 42.8939  34
   3   5   9 627.675 42.5630  50
  -3  -5  -9 625.323 43.9971  49
  -3  -5  -9 573.695 39.9808  30
   3   5   9 602.508 46.1529  47
  -4  -6  -9 104.369 24.9831  57
  -4  -6  -9 154.472 23.7659  34
   4   6   9 75.2535 27.4996  50
  -4  -6  -9 55.9082 25.0608  49
   3   0  -9 5582.08 121.647  60
   3   0  -9 5566.40 121.577  49
  -2   1   9 27959.0 519.932  55
  -2   1   9 26442.1 518.372  54
   2  -1  -9 26486.5 517.371  51
   2  -1  -9 26441.3 524.280  49
  -1   2   9 1338.61 54.4465  55
  -1   2   9 1270.62 53.1978  54
   1  -2  -9 1310.59 52.1879  51
   1  -2  -9 1131.93 56.2926  49
   0   3   9 39694.0 770.269  55
   0  -3  -9 38669.1 763.695  51
   0   3   9 42305.2 791.167   9
   0  -3  -9 41061.6 775.553  49
   0  -3  -9 41507.5 774.058  12
  -1  -4  -9 27956.8 535.730  49
   1   4   9 27152.2 535.332  48
   1   4   9 26379.1 545.587   9
  -2  -5  -9 70475.9 1278.32  57
   2   5   9 67348.7 1284.04  36
   2   5   9 65618.1 1268.63  50
  -2  -5  -9 69796.4 1277.41  49
   2   5   9 69214.6 1288.32  48
   2   5   9 66250.0 1288.99  47
  -3  -6  -9 62629.9 1192.05  57
  -3  -6  -9 63400.5 1187.05  34
   3   6   9 66000.5 1196.74  50
  -3  -6  -9 61138.3 1186.16  49
   3   6   9 64079.4 1189.08  47
  -4  -7  -9 16703.6 325.502  57
  -4  -7  -9 16737.9 323.176  49
   3  -1  -9 25222.2 486.594  60
   3  -1  -9 24499.2 484.957  49
  -2   2   9 37809.5 713.387  55
  -2   2   9 38113.3 713.561  54
   2  -2  -9 36522.8 713.052  51
   2  -2  -9 37347.2 720.216  49
  -1   3   9 15435.3 319.094  55
  -1   3   9 15381.0 315.982  54
   1  -3  -9 15190.5 318.022  51
   1  -3  -9 15694.0 326.688  49
   0  -4  -9 7988.94 183.429  12
   0  -4  -9 7483.61 175.991  51
   0  -4  -9 7710.22 182.812  49
   0   4   9 8230.33 200.578   9
   0   4   9 7612.24 174.737  48
   1   5   9 152.398 37.6385   9
  -1  -5  -9 110.412 23.2698  51
  -1  -5  -9 187.238 27.9447  49
   1   5   9 174.371 28.3133  48
  -2  -6  -9 2535.53 89.5484  57
   2   6   9 2755.74 88.1490  50
  -2  -6  -9 2642.77 84.9125  49
   2   6   9 2480.22 90.6648  48
   2   6   9 2729.66 88.2624  47
  -3  -7  -9 12320.2 264.807  57
  -3  -7  -9 12546.8 257.377  34
   3   7   9 11807.9 268.236  50
  -3  -7  -9 12781.9 259.580  49
  -4  -8  -9 16157.9 306.137  57
   4   8   9 16652.4 308.083  50
   3  -2  -9 72.0889 20.4498  60
  -3   2   9 59.8728 17.2146  55
  -3   2   9 59.0342 17.4072  54
   3  -2  -9 32.4189 16.5547  49
  -2   3   9 4596.68 117.663  55
  -2   3   9 4459.72 113.759  54
   2  -3  -9 4565.68 119.066  51
   2  -3  -9 4620.85 122.073  49
  -1   4   9 36256.8 718.742  55
   1  -4  -9 38044.0 724.425  51
   1  -4  -9 38811.0 729.060  49
   0  -5  -9 64403.1 1218.59  51
   0  -5  -9 64035.4 1218.35  49
   0   5   9 66717.4 1219.62  48
  -1  -6  -9 29986.5 589.237  49
   1   6   9 30203.1 600.562  48
   1   6   9 29853.0 595.386  47
  -2  -7  -9 27695.2 568.306  57
  -2  -7  -9 29732.8 568.101  51
   2   7   9 29891.6 572.755  50
  -2  -7  -9 28914.9 560.721  49
   2   7   9 29106.9 569.616  48
  -3  -8  -9 10642.6 226.304  57
   3   8   9 10468.9 229.913  50
  -3  -8  -9 10680.2 219.061  49
  -3   3   9 14282.6 272.355  55
   3  -3  -9 13728.9 275.990  51
  -2   4   9 8477.33 189.653  55
  -2   4   9 8246.55 183.043  54
   2  -4  -9 8734.56 195.174  51
  -1   5   9 5002.70 124.488  55
   1  -5  -9 4879.59 131.895  51
  -1   5   9 5065.70 123.174  48
   0  -6  -9 2623.74 87.0293  51
   0   6   9 2503.31 82.5202  48
  -1  -7  -9 7482.99 179.507  51
   1   7   9 7041.80 175.238  48
   1   7   9 7455.65 168.957  47
  -2  -8  -9 18128.0 369.679  57
  -2  -8  -9 18962.5 374.053  51
   2   8   9 18076.1 375.393  50
  -2  -8  -9 18264.6 360.483  49
  -3  -9  -9 34469.2 645.863  57
  -3  -9  -9 35430.8 646.461  51
   3   9   9 34025.8 649.144  50
  -3   4   9 17768.2 332.733  55
   3  -4  -9 17621.7 337.373  51
  -2   5   9 24397.6 493.345  55
   2  -5  -9 26766.4 505.550  51
   1  -6  -9 31059.8 613.458  51
  -1   6   9 31080.8 602.707  48
   1  -6  -9 31558.0 601.334  44
   0  -7  -9 18356.2 370.845  51
   0   7   9 17343.4 361.885  48
  -1  -8  -9 4881.91 128.165  51
   1   8   9 4994.23 125.686  50
   1   8   9 5149.82 124.623  48
  -2  -9  -9 147.943 19.0501  57
  -2  -9  -9 138.021 23.0892  51
   2   9   9 153.986 22.2209  50
  -3   5   9 92.8138 17.2694  55
  -3   5   9 104.556 13.4717  54
   3  -5  -9 82.8800 19.1859  51
  -2   6   9 952.312 41.0784  55
   2  -6  -9 1079.42 52.8965  51
  -2   6   9 1105.59 41.1781  48
   1  -7  -9 5271.48 138.686  51
  -1   7   9 5424.03 131.794  48
   1  -7  -9 5632.89 133.455  44
   0  -8  -9 15411.2 334.502  51
   0   8   9 17192.7 331.654  48
  -1  -9  -9 25312.2 485.978  51
   1   9   9 25297.2 483.817  50
   1   9   9 24700.8 476.667  48
  -2 -10  -9 23918.3 442.525  51
   2  10   9 23072.2 441.722  50
  -3   6   9 9443.86 193.006  55
   3  -6  -9 9049.79 194.483  51
   2  -7  -9 26040.8 523.347  51
  -2   7   9 28093.2 517.281  48
   1  -8  -9 15421.3 319.066  51
  -1   8   9 15777.9 314.144  48
   1  -8  -9 15968.5 316.938  44
   0   9   9 117.460 17.8582  50
   0   9   9 79.2875 17.4050  48
   0  -9  -9 127.130 18.7256  44
  -1 -10  -9 2313.52 60.9723  51
   1  10   9 2336.28 60.0523  50
   2  -8  -9 13906.5 282.245  51
  -2   8   9 15051.6 282.722  48
   1  -9  -9 23119.9 446.730  51
  -1   9   9 23684.0 445.243  48
   1  -9  -9 23540.6 447.935  44
   0 -10  -9 8530.83 170.591  51
   0  10   9 8818.48 168.903  50
   0 -10  -9 8646.95 168.281  44
   3  -3  10 1252.91 38.9972  62
  -4   2 -10 395.748 18.8684  39
   4  -2  10 400.693 23.9719  62
   2  -3  10 16220.8 311.433  62
  -2   3 -10 16718.9 309.423  56
  -3   2 -10 4988.80 109.655  39
   3  -2  10 5315.77 121.937  62
  -3   2 -10 5248.68 114.408  56
  -4   1 -10 2539.89 68.7725  39
   4  -1  10 2745.75 78.7585  62
   5   0  10 2980.26 75.0482  62
   1  -3  10 525.459 25.4120  42
   1  -3  10 524.376 25.0766  62
  -1   3 -10 539.298 25.4942  56
   2  -2  10 7137.72 159.243  62
  -2   2 -10 7053.00 153.435  56
  -3   1 -10 1510.30 48.4887  39
   3  -1  10 1464.66 61.0011  62
  -3   1 -10 1629.54 53.4622  56
  -3   1 -10 1708.32 53.2024  30
  -4   0 -10 5017.47 122.432  39
   4   0  10 4851.84 136.335  62
  -4   0 -10 5650.70 123.306  56
   4   0  10 5989.08 126.449  47
   5   1  10 9847.53 221.527  62
  -5  -1 -10 12316.8 219.695  56
   0  -3  10 10023.0 204.318  42
   0   3 -10 10331.2 206.287  56
   1  -2  10 18327.3 365.667  41
  -1   2 -10 18935.1 363.790  56
   2  -1  10 13084.6 276.458  41
   2  -1  10 13719.9 285.194  62
  -2   1 -10 13092.7 273.431  56
  -2   1 -10 13773.0 274.358  30
   3   0  10 5654.49 152.320  62
  -3   0 -10 5720.45 135.512  56
  -3   0 -10 5954.18 136.541  30
  -4  -1 -10 2111.24 63.6953  56
   4   1  10 2175.27 71.3129  47
  -5  -2 -10 909.463 34.8461  56
   5   2  10 1041.23 47.6246  47
   0  -2  10 6151.15 130.795  42
   0  -2  10 6009.00 133.342  41
   0   2 -10 6088.64 132.784  56
   1  -1  10 9478.18 211.590  41
  -1   1 -10 9931.28 210.797  56
  -1   1 -10 10229.4 211.138  30
   2   0  10 30722.3 593.456  41
   2   0  10 31446.2 606.050  62
  -2   0 -10 30415.9 589.315  56
  -2   0 -10 30168.7 588.771  30
  -3  -1 -10 27613.4 525.409  56
  -3  -1 -10 27364.5 524.623  30
   3   1  10 28598.2 531.492  47
  -4  -2 -10 17306.2 355.699  56
  -4  -2 -10 17775.3 355.104  30
   5   3  10 9428.82 181.490  59
  -5  -3 -10 8967.51 185.209  56
  -1  -2  10 14365.0 259.186  41
   1   2 -10 12662.6 258.073  56
   0  -1  10 3111.46 84.7010  41
   0   1 -10 3006.64 81.3478  56
   0  -1  10 2963.48 82.9504  54
   0   1 -10 3270.50 80.9676  49
   1   0  10 2847.87 89.8086  41
  -1   0 -10 3007.02 88.3582  56
   1   0  10 3001.91 89.3466  54
   2   1  10 2467.54 83.0154  36
  -2  -1 -10 2394.54 77.3741  56
  -2  -1 -10 2706.62 74.5741  49
  -2  -1 -10 2598.49 79.3636  30
   2   1  10 2720.63 80.7452  47
   3   2  10 4299.80 124.197  62
  -3  -2 -10 4428.63 116.262  56
  -3  -2 -10 4710.40 110.558  49
  -3  -2 -10 4256.53 114.774  30
   3   2  10 4814.71 130.926  47
  -4  -3 -10 11764.7 256.616  56
  -4  -3 -10 13029.7 251.889  49
  -4  -3 -10 12141.0 255.674  30
   4   3  10 12580.0 284.403  47
  -5  -4 -10 11086.3 229.073  56
   5   4  10 11356.3 238.450  47
  -1  -1  10 9816.40 198.089  41
   1   1 -10 9396.20 194.933  56
  -1  -1  10 9870.36 198.294  54
   1   1 -10 9600.77 196.824  49
   0   0  10 19740.3 400.724  41
   0   0 -10 20817.2 399.503  56
   0   0  10 19792.3 400.511  54
   0   0 -10 20017.7 395.921  30
   0   0 -10 20873.4 399.619  49
   1   1  10 14508.4 310.149  41
   1   1  10 15394.5 308.573  36
  -1  -1 -10 14553.2 306.420  56
   1   1  10 14636.9 308.819  54
  -1  -1 -10 15057.8 306.873  30
  -1  -1 -10 15559.3 306.315  49
   2   2  10 36028.0 739.052  62
   2   2  10 38953.7 737.914  36
  -2  -2 -10 37391.5 725.156  56
  -2  -2 -10 38003.0 722.504  49
  -2  -2 -10 37415.4 725.293  30
  -3  -3 -10 21192.0 428.048  56
  -3  -3 -10 21953.2 425.305  49
  -3  -3 -10 21008.3 427.548  30
  -4  -4 -10 1492.97 52.5028  49
   4   4  10 1319.07 66.8430  47
   5   5  10 518.160 26.2277  59
  -5  -5 -10 565.568 25.5412  56
  -1   0  10 6396.49 140.888  54
   1   0 -10 5985.40 139.834  49
   0   1  10 964.909 39.5024  36
   0   1  10 986.608 44.5256  54
   0  -1 -10 869.484 44.0557  49
   1   2  10 17695.1 368.624  36
  -1  -2 -10 17934.5 363.650  56
  -1  -2 -10 18759.2 364.039  30
  -1  -2 -10 17757.5 363.727  49
   1   2  10 18182.0 369.205  47
   2   3  10 50290.5 968.220  36
  -2  -3 -10 49606.9 953.243  56
  -2  -3 -10 50688.2 953.944  49
  -2  -3 -10 50349.4 952.935  30
   2   3  10 52996.6 975.756  47
  -3  -4 -10 48242.5 908.108  56
   3   4  10 49090.8 904.756  50
  -3  -4 -10 50788.9 910.407  49
  -3  -4 -10 47124.3 907.158  30
   4   5  10 15237.5 305.006  50
  -4  -5 -10 15432.0 301.488  49
  -2   0  10 12066.6 229.711  41
   2   0 -10 11409.6 229.897  60
  -2   0  10 11835.5 231.089  54
   2   0 -10 11665.3 232.129  49
  -1   1  10 16989.2 344.032  54
   1  -1 -10 17627.9 349.187  49
   0   2  10 35340.3 667.709  36
   0   2  10 34796.7 672.544  55
   0   2  10 34993.6 668.361  54
   0  -2 -10 34511.0 672.192  49
   1   3  10 3903.19 111.857  36
  -1  -3 -10 3811.78 106.379  49
   1   3  10 3841.36 101.562  48
   1   3  10 4104.62 114.871  47
   2   4  10 2865.13 94.3563  36
  -2  -4 -10 2849.13 82.2820  56
  -2  -4 -10 2661.05 83.9713  49
   2   4  10 2597.01 87.6567  48
   2   4  10 2555.51 96.0610  47
  -3  -5 -10 1328.33 51.9897  56
   3   5  10 1597.17 57.3670  50
  -3  -5 -10 1388.02 52.8758  30
   3   5  10 1549.20 67.6930  47
   4   6  10 1435.53 53.8930  50
  -4  -6 -10 1555.31 51.2465  49
   4   6  10 1400.57 47.3781  47
  -2   1  10 890.216 35.4277  54
   2  -1 -10 827.907 36.0679  49
  -1   2  10 278.036 25.7196  54
   1  -2 -10 322.377 24.6331  51
   1  -2 -10 304.447 31.2115  49
   0   3  10 35869.3 694.068  36
   0   3  10 35571.0 694.110  55
   0  -3 -10 37383.4 699.603  49
   1   4  10 72386.9 1354.66  36
  -1  -4 -10 73549.4 1349.37  49
   1   4  10 71336.5 1344.72  48
   1   4  10 71602.4 1358.31  47
  -2  -5 -10 32111.3 602.141  49
   2   5  10 32449.1 610.769  48
   3   6  10 24029.3 473.843  50
  -3  -6 -10 23189.1 471.274  49
   3   6  10 23527.9 474.726  47
   4   7  10 6429.26 144.356  50
  -4  -7 -10 6856.27 140.794  49
  -2   2  10 24799.7 494.943  54
   2  -2 -10 26510.4 496.580  51
   2  -2 -10 25182.6 499.937  49
  -1   3  10 14115.2 278.167  36
  -1   3  10 13312.2 281.484  55
  -1   3  10 13250.0 277.188  54
   1  -3 -10 13724.9 280.042  51
   1  -3 -10 13866.6 287.890  49
   0  -4 -10 22646.8 457.299  51
   0  -4 -10 23299.4 466.177  49
   0   4  10 24108.8 455.657  48
   1   5  10 185.780 28.7992  36
  -1  -5 -10 515.426 31.8365  51
  -1  -5 -10 395.406 36.1227  49
   1   5  10 289.188 32.5793  48
   1   5  10 421.306 37.7179  47
   2   6  10 10168.7 208.603  50
  -2  -6 -10 9431.40 209.745  49
   2   6  10 8953.78 216.865  48
   2   6  10 9693.45 216.111  47
  -3  -7 -10 10541.0 220.730  57
   3   7  10 10391.2 221.226  50
  -3  -7 -10 10182.9 215.058  49
  -2   3  10 23618.7 467.067  54
   2  -3 -10 24827.0 472.172  51
   2  -3 -10 24053.4 473.456  49
  -1   4  10 17177.1 349.761  55
   1  -4 -10 17627.9 353.262  51
   1  -4 -10 17742.0 356.565  49
   0  -5 -10 15647.5 323.164  51
   0  -5 -10 15387.4 323.459  49
   0   5  10 16186.3 322.252  48
   1   6  10 16234.2 341.290  36
  -1  -6 -10 16357.3 338.279  49
   1   6  10 16947.9 347.518  48
   1   6  10 16278.5 343.518  47
  -2  -7 -10 5116.24 118.474  51
   2   7  10 4740.72 117.618  50
  -2  -7 -10 4552.76 112.088  49
   2   7  10 4278.63 117.781  48
   2   7  10 4836.40 115.215  47
   3   8  10 1471.28 48.4532  50
  -3  -8 -10 1395.86 42.0323  49
  -2   4  10 7932.31 169.553  55
  -2   4  10 7536.03 162.823  54
  -1   5  10 2053.81 63.4942  55
   1  -5 -10 2093.29 66.0940  49
   0  -6 -10 1586.18 55.8001  49
   0   6  10 1662.42 61.5807  48
   1   7  10 13551.8 268.951  36
  -1  -7 -10 14000.0 278.976  51
  -1  -7 -10 13131.3 266.107  49
   1   7  10 12490.2 275.727  48
   1   7  10 12813.0 270.744  47
  -2  -8 -10 32153.5 599.217  51
   2   8  10 31071.7 598.704  50
  -2  -8 -10 31114.9 588.836  49
   2   8  10 31752.0 596.835  48
   3   9  10 27335.8 509.242  50
  -2   5  10 19045.3 386.685  55
   2  -5 -10 21663.1 396.972  51
   1  -6 -10 6792.49 159.907  51
  -1   6  10 6720.92 150.187  48
   0  -7 -10 12992.3 271.643  51
   0   7  10 12671.7 266.567  48
  -1  -8 -10 8390.24 180.512  51
   1   8  10 8064.71 172.646  50
   1   8  10 8000.30 176.123  48
  -2  -9 -10 2988.71 74.4836  51
   2   9  10 3059.31 74.4565  50
   2  -6 -10 14686.0 270.288  61
   2  -6 -10 14005.3 276.714  51
   1  -7 -10 27532.5 540.749  51
  -1   7  10 28374.9 533.940  48
   0   8  10 11847.5 235.836  36
   0  -8 -10 12075.5 248.198  51
   0   8  10 11968.2 243.584  48
   0   8  10 11803.7 235.893  47
  -1  -9 -10 11386.7 225.054  51
   1   9  10 11116.7 219.257  50
   1   9  10 10709.8 218.220  48
   2  -7 -10 19843.2 370.992  61
   2  -7 -10 19095.3 372.929  51
   1  -8 -10 6254.28 135.519  51
  -1   8  10 6350.31 131.884  48
   0  -9 -10 258.178 21.2629  51
   0   9  10 301.736 19.0174  48
  -1   9  10 14675.1 279.518  48
   2  -2  11 12328.8 239.808  62
  -2   2 -11 12281.7 237.243  56
   3  -1  11 15087.1 295.455  62
  -3   1 -11 14952.2 289.731  56
   4   0  11 7670.93 172.414  62
  -4   0 -11 8918.74 168.133  56
   1  -2  11 8798.42 170.725  62
  -1   2 -11 8299.75 168.795  56
   2  -1  11 6203.56 137.848  62
  -2   1 -11 6092.49 132.239  56
   3   0  11 52.2723 21.5463  62
  -3   0 -11 89.1658 18.6603  56
  -4  -1 -11 1504.98 45.2799  56
   4   1  11 1580.87 46.1822  47
   1  -1  11 6740.95 148.511  41
  -1   1 -11 6969.37 147.501  56
   2   0  11 21135.4 415.009  41
   2   0  11 21988.1 424.531  62
  -2   0 -11 21497.0 415.984  56
  -3  -1 -11 21935.2 415.534  56
   3   1  11 22931.2 415.283  47
  -4  -2 -11 20677.4 408.069  56
   4   2  11 22154.3 417.564  47
   0  -1  11 191.858 17.4254  41
   0   1 -11 172.516 15.2313  56
   1   0  11 108.742 20.6597  41
  -1   0 -11 106.758 15.9077  49
  -2  -1 -11 209.152 24.9678  56
  -2  -1 -11 232.204 22.1192  30
  -2  -1 -11 283.368 23.0382  49
   3   2  11 9211.00 210.766  62
  -3  -2 -11 9533.67 207.292  56
   3   2  11 9844.64 214.498  47
  -4  -3 -11 12386.4 249.437  56
   4   3  11 12373.6 261.529  47
   0   0  11 9606.93 197.031  41
   0   0 -11 9255.45 192.123  56
   0   0 -11 9779.16 194.208  49
   1   1  11 14339.6 288.618  41
  -1  -1 -11 13871.7 285.617  56
  -1  -1 -11 14457.5 285.453  49
  -2  -2 -11 21967.1 439.334  56
  -2  -2 -11 23011.2 438.906  30
  -2  -2 -11 22960.5 438.063  49
  -3  -3 -11 5286.30 126.077  56
  -3  -3 -11 5342.93 123.119  49
   3   3  11 5330.84 138.179  47
  -4  -4 -11 73.3582 19.1427  56
  -4  -4 -11 101.213 15.9259  49
  -1   0  11 89.5883 13.3846  41
   1   0 -11 97.3080 13.0743  49
   0   1  11 149.190 21.4761  41
   0   1  11 125.292 19.0957  54
   0  -1 -11 179.706 21.8700  49
   1   2  11 4745.33 117.968  41
   1   2  11 4846.60 120.196  36
  -1  -2 -11 5066.17 117.638  56
  -1  -2 -11 4722.06 118.849  49
   1   2  11 5105.60 119.024  47
   2   3  11 29903.4 578.085  36
  -2  -3 -11 29069.0 565.348  56
  -2  -3 -11 29377.5 567.131  49
   2   3  11 30045.6 579.469  47
  -3  -4 -11 29967.1 580.788  56
   3   4  11 28342.0 595.668  47
  -4  -5 -11 19043.1 386.668  56
   4   5  11 19927.1 395.388  47
  -1   1  11 20850.2 396.987  41
  -1   1  11 20497.1 394.936  54
   1  -1 -11 20950.1 397.981  49
   0   2  11 9143.66 196.663  54
   0  -2 -11 9156.91 201.934  49
   1   3  11 9541.59 208.499  36
   1   3  11 10070.8 211.844  47
   2   4  11 206.213 31.4995  36
  -2  -4 -11 272.317 25.3625  56
  -2  -4 -11 291.648 31.0524  49
   2   4  11 212.758 35.0219  47
  -3  -5 -11 10044.5 216.680  56
   3   5  11 11609.9 219.201  50
  -3  -5 -11 11212.6 225.210  49
   3   5  11 9704.90 229.920  47
  -4  -6 -11 10370.5 199.359  49
   4   6  11 9655.86 197.368  47
  -1   2  11 7952.90 168.583  54
   1  -2 -11 8480.43 175.206  49
   0   3  11 3418.22 89.9508  36
   0  -3 -11 3317.09 93.1850  49
   0   3  11 3522.62 91.2944  47
   1   4  11 17611.4 362.600  36
  -1  -4 -11 17551.4 358.863  49
   1   4  11 18205.2 354.773  48
   1   4  11 17990.0 365.725  47
   2   5  11 27533.7 569.927  36
  -2  -5 -11 31044.6 571.154  49
   2   5  11 31409.5 575.402  48
   2   5  11 28074.3 575.598  47
   3   6  11 7946.84 164.250  50
  -3  -6 -11 7698.15 166.346  49
   3   6  11 7470.92 168.125  47
  -1   3  11 8475.34 181.521  54
   1  -3 -11 9189.15 184.092  51
   1  -3 -11 8712.10 190.462  49
  -1   3  11 9598.77 185.430  47
   0   4  11 1723.17 59.7008  36
   0  -4 -11 1777.34 54.9003  51
   0  -4 -11 1733.77 61.7092  49
   0   4  11 1887.73 62.7014  47
   1   5  11 6529.65 155.912  36
  -1  -5 -11 6708.24 153.752  49
   1   5  11 7037.88 154.323  48
   2   6  11 19112.8 367.337  36
  -2  -6 -11 18694.7 367.983  49
   2   6  11 18598.2 374.288  48
   2   6  11 18083.5 372.498  47
   3   7  11 15097.2 288.886  50
  -3  -7 -11 14482.8 287.121  49
  -1   4  11 42450.1 811.479  55
   1  -4 -11 44043.6 811.948  51
   0   5  11 10753.3 230.218  36
   0  -5 -11 11590.3 228.369  51
   0  -5 -11 10129.3 227.391  49
   0   5  11 11515.5 224.851  48
   0   5  11 10572.4 230.989  47
   1   6  11 11655.0 258.118  36
  -1  -6 -11 13522.5 258.407  51
  -1  -6 -11 12606.1 257.285  49
   1   6  11 12892.7 262.408  48
   1   6  11 12282.7 262.086  47
  -2  -7 -11 11093.0 226.104  49
   2   7  11 11346.9 232.815  48
   2   7  11 11285.5 228.348  47
  -1   5  11 24938.0 457.059  36
  -1   5  11 23143.1 450.602  55
   1  -5 -11 25008.8 459.107  51
   1  -5 -11 22817.5 452.488  49
   0   6  11 29235.7 581.141  36
   0  -6 -11 32579.8 585.657  51
   0  -6 -11 29879.5 577.453  49
   0   6  11 31686.0 581.490  48
   0   6  11 29848.7 583.264  47
   1   7  11 4296.49 100.379  36
  -1  -7 -11 4567.08 106.214  51
  -1  -7 -11 4235.42 98.5545  49
   1   7  11 4347.07 106.154  48
   1   7  11 4239.30 102.929  47
   2   8  11 12987.2 251.579  50
  -2  -8 -11 12500.5 248.449  49
  -1   6  11 46087.0 877.845  36
   1  -6 -11 48948.2 883.200  51
   0   7  11 9577.93 197.745  36
   0   7  11 9789.93 199.977  48
   0   7  11 9168.61 197.683  47
  -1  -8 -11 390.238 24.5672  51
   1   8  11 511.913 25.5892  48
  -1   7  11 17979.4 339.590  48
  -1   7  11 17308.3 341.546  47
   0  -8 -11 11261.7 213.486  51
   0   8  11 11198.0 210.015  48
   2   0  12 6456.48 136.090  62
  -2   0 -12 6644.44 133.790  56
   3   1  12 6465.06 142.419  62
  -3  -1 -12 7409.68 143.153  56
   1   0  12 1209.68 36.7785  62
   2   1  12 9261.80 193.779  62
  -2  -1 -12 9635.52 190.404  56
  -3  -2 -12 14495.2 286.509  56
   3   2  12 15077.8 286.545  47
   1   1  12 16495.4 315.806  41
   1   1  12 17122.8 321.321  62
  -1  -1 -12 17194.8 315.557  49
   2   2  12 1853.98 55.2096  62
  -2  -2 -12 1894.49 53.9068  56
  -2  -2 -12 1943.15 53.0144  49
   2   2  12 2009.60 53.3719  47
  -3  -3 -12 1044.02 37.5194  56
  -3  -3 -12 1138.81 35.9373  49
   3   3  12 1182.82 42.7081  47
   0   1  12 44.8033 11.0911  41
   0  -1 -12 77.8411 11.3796  49
   1   2  12 4647.85 110.401  62
  -1  -2 -12 5208.61 111.181  49
  -2  -3 -12 21583.0 419.102  56
  -2  -3 -12 22130.6 422.370  49
   2   3  12 22587.0 426.764  47
  -3  -4 -12 26950.5 477.595  49
   3   4  12 25693.6 485.139  47
   0   2  12 4279.54 94.8388  41
   0  -2 -12 4363.99 97.0605  49
   1   3  12 7407.67 155.970  36
  -1  -3 -12 7025.43 154.911  49
   1   3  12 7245.72 154.120  47
  -2  -4 -12 1169.29 43.5385  49
   2   4  12 1195.90 47.3805  47
  -3  -5 -12 11130.2 211.978  49
   3   5  12 9847.82 213.944  47
   0   3  12 10806.9 215.502  41
   0  -3 -12 11237.6 221.465  49
   1   4  12 29092.3 544.864  36
  -1  -4 -12 28640.5 544.102  49
   1   4  12 28058.7 544.560  47
  -2  -5 -12 14046.9 272.386  49
   2   5  12 13157.3 275.466  47
  -3  -6 -12 913.496 31.3855  49
   3   6  12 847.946 31.1070  47
   0  -4 -12 666.302 30.3463  49
   0   4  12 623.974 28.8171  47
   1   5  12 4792.69 110.608  36
  -1  -5 -12 4778.40 109.819  49
   1   5  12 4592.73 111.588  47
  -2  -6 -12 9154.97 187.123  49
   2   6  12 9260.92 190.774  47
   0  -5 -12 20289.0 392.190  49
   0   5  12 20916.8 394.674  47
  -1  -6 -12 9228.09 189.139  49
   1   6  12 9552.04 193.729  47
  -2  -7 -12 98.3555 12.2759  49
   2   7  12 255.459 15.7959  47
   0   6  12 11582.0 228.709  47
   1   7  12 13803.3 260.494  48
   1   7  12 13030.4 258.641  47
   0   0   0    0.00    0.00   0
TITL 2018_01_03_DT_J34_N in P-1
REM P-1 (#2 in standard setting)
CELL 1.54184   5.523525   9.438481  10.463318  70.7693  75.9843  89.6240
ZERR    2.00   0.000234   0.000380   0.000453   0.0038   0.0037   0.0034
LATT  1
SFAC C H N O As
UNIT 14.00 24.00 2.00 10.00 2.00
TREF
HKLF 4
END
;
_shelx_hkl_checksum              95304
_shelx_res_file
;
TITL 2018_01_03_dt_j34_n_a.res in P-1
    2018_01_03_DT_J34_N.res
    created by SHELXL-2018/3 at 16:51:04 on 18-Dec-2018
REM Old TITL 2018_01_03_DT_J34_N in P1 #1
REM SHELXT solution in P-1
REM R1 0.154, Rweak 0.022, Alpha 0.052, Orientation as input
REM Formula found by SHELXT: C11 N O As
CELL 1.54184 5.523525 9.438481 10.463318 70.7693 75.9843 89.624
ZERR 2 0.000234 0.00038 0.000453 0.0038 0.0037 0.0034
LATT 1
SFAC C H N O As
UNIT 14 24 2 10 2
DFIX 0.82 0.01 O5 H5a
DFIX 0.82 0.01 O4 H4a
DFIX 0.87 0.01 N1 H1a
DFIX 0.87 0.01 N1 H1c
DFIX 0.87 0.01 N1 H1b
ISOR 0.002 0.002 C2
ISOR 0.002 0.002 C3
ISOR 0.002 0.002 C4
L.S. 8
PLAN  20
BOND $H
LIST 4
MORE -1
CONF
fmap 2 53
acta
SHEL 100 0.837
REM <olex2.extras>
REM <HklSrc "%.\\2018_01_03_DT_J34_N.hkl">
REM </olex2.extras>
WGHT    0.029800    1.581400
FVAR       8.06631   0.46733
C1    1    0.359910    0.590019    0.215080    11.00000    0.02865    0.02070 =
         0.02645   -0.01057    0.00741   -0.00311
C2    1    0.228423    0.566226    0.128122    11.00000    0.04702    0.05292 =
         0.04440   -0.02880   -0.00050   -0.01510
AFIX  43
H2    2    0.104266    0.487460    0.161277    11.00000   -1.20000
AFIX   0
C3    1    0.282072    0.661081   -0.010724    11.00000    0.05168    0.07121 =
         0.04416   -0.02828   -0.01164   -0.00862
AFIX  43
H3    2    0.192238    0.646967   -0.070721    11.00000   -1.20000
AFIX   0
C4    1    0.467244    0.774930   -0.058355    11.00000    0.03457    0.04891 =
         0.02815   -0.01131   -0.00624    0.00372
AFIX  43
H4    2    0.502557    0.837980   -0.151204    11.00000   -1.20000
AFIX   0
C5    1    0.603414    0.798295    0.028919    11.00000    0.02415    0.02395 =
         0.02376   -0.00387   -0.00073   -0.00042
AFIX  43
H5    2    0.729597    0.876006   -0.005196    11.00000   -1.20000
AFIX   0
C6    1    0.550281    0.704965    0.167600    11.00000    0.01942    0.02133 =
         0.02231   -0.00770   -0.00321    0.00343
C7    1    0.848367    0.838892    0.224744    11.00000    0.02756    0.07074 =
         0.04114   -0.02793   -0.00428   -0.01228
AFIX 137
H7A   2    0.978574    0.836834    0.145870    11.00000   -1.50000
H7B   2    0.919249    0.832393    0.301500    11.00000   -1.50000
H7C   2    0.768607    0.931172    0.199874    11.00000   -1.50000
AFIX   0
N1    3    0.301819    0.497923    0.362562    11.00000    0.04935    0.01788 =
         0.03322   -0.00302    0.01894    0.00657
H1A   2    0.418575    0.438327    0.378819    11.00000   -1.20000
H1B   2    0.163590    0.442199    0.384014    11.00000   -1.20000
H1C   2    0.282424    0.555029    0.414288    11.00000   -1.20000
O1    4    0.667491    0.714080    0.264977    11.00000    0.02336    0.04769 =
         0.02429   -0.00737   -0.00714   -0.00292
AS1   5    0.247795    0.815560    0.543686    11.00000    0.02401    0.02259 =
         0.01829   -0.00942    0.00011   -0.00798
PART 2
O2A   4    0.211389    0.632954    0.551172   -21.00000    0.02076    0.02166 =
         0.02004   -0.00666   -0.00334   -0.00168
PART 0
H4A   2   -0.035353    0.912624    0.652331    11.00000   -1.50000
H5A   2    0.577390    0.872850    0.590528    11.00000   -1.50000
PART 1
O2B   4    0.116965    0.674100    0.521380    21.00000    0.01354    0.01501 =
         0.02003   -0.00740   -0.00518    0.00012
PART 0
O3    4    0.275830    0.964366    0.400696    11.00000    0.02112    0.04887 =
         0.01629   -0.00199   -0.00472    0.00158
O4    4    0.049538    0.845092    0.684657    11.00000    0.02393    0.03766 =
         0.01661   -0.00700   -0.00497    0.00898
O5    4    0.525368    0.792847    0.588774    11.00000    0.02668    0.02636 =
         0.03175   -0.00273   -0.00673    0.01291
HKLF 4
REM  2018_01_03_dt_j34_n_a.res in P-1
REM wR2 = 0.0830, GooF = S = 1.092, Restrained GooF = 1.201 for all data
REM R1 = 0.0346 for 1769 Fo > 4sig(Fo) and 0.0348 for all 1778 data
REM 153 parameters refined using 23 restraints
END
WGHT      0.0298      1.5814
REM Highest difference peak  1.181,  deepest hole -0.623,  1-sigma level  0.092
Q1    1   0.3057  0.5956  0.0121  11.00000  0.05    1.18
Q2    1   0.2599  0.7203 -0.0267  11.00000  0.05    0.89
Q3    1   0.1830  0.6165  0.1021  11.00000  0.05    0.87
Q4    1   0.2765  0.5181  0.1548  11.00000  0.05    0.83
Q5    1   0.2170  0.7154  0.5589  11.00000  0.05    0.63
Q6    1   0.4700  0.7007 -0.0494  11.00000  0.05    0.58
Q7    1   0.4766  0.8341 -0.0658  11.00000  0.05    0.40
Q8    1   0.2962  0.9308  0.4920  11.00000  0.05    0.39
Q9    1   0.3142  0.4044  0.3645  11.00000  0.05    0.31
Q10   1   0.4113  0.6734  0.2013  11.00000  0.05    0.31
Q11   1   0.4781  0.6186  0.1936  11.00000  0.05    0.29
Q12   1   0.1401  0.4207  0.1990  11.00000  0.05    0.27
Q13   1   0.7573  0.9988  0.1563  11.00000  0.05    0.24
Q14   1   0.6376  0.7218  0.1044  11.00000  0.05    0.23
Q15   1   0.4484  0.4393  0.1477  11.00000  0.05    0.22
Q16   1   0.0358  0.4575  0.3585  11.00000  0.05    0.22
Q17   1   0.1989  0.4174  0.2734  11.00000  0.05    0.22
Q18   1   0.7696  0.7621  0.2384  11.00000  0.05    0.22
Q19   1   0.3159  1.0214  0.3859  11.00000  0.05    0.20
Q20   1   0.0990  0.6250  0.5749  11.00000  0.05    0.20
;
_shelx_res_checksum              67556
loop_
_space_group_symop_operation_xyz
'x, y, z'
'-x, -y, -z'
loop_
_atom_site_type_symbol
_atom_site_label
_atom_site_fract_x
_atom_site_fract_y
_atom_site_fract_z
_atom_site_U_iso_or_equiv
_atom_site_adp_type
_atom_site_calc_flag
_atom_site_occupancy
_atom_site_disorder_assembly
_atom_site_disorder_group
C C1 0.3599(7) 0.5900(4) 0.2151(4) 0.0272(7) Uani d 1 . .
C C2 0.2284(9) 0.5662(5) 0.1281(5) 0.0469(10) Uani d 1 . .
H H2 0.104266 0.487460 0.161277 0.056 Uiso calc 1 . .
C C3 0.2821(9) 0.6611(6) -0.0107(5) 0.0535(11) Uani d 1 . .
H H3 0.192238 0.646967 -0.070721 0.064 Uiso calc 1 . .
C C4 0.4672(7) 0.7749(5) -0.0584(4) 0.0380(9) Uani d 1 . .
H H4 0.502557 0.837980 -0.151204 0.046 Uiso calc 1 . .
C C5 0.6034(6) 0.7983(4) 0.0289(4) 0.0260(7) Uani d 1 . .
H H5 0.729597 0.876006 -0.005196 0.031 Uiso calc 1 . .
C C6 0.5503(6) 0.7050(4) 0.1676(3) 0.0213(7) Uani d 1 . .
C C7 0.8484(8) 0.8389(6) 0.2247(5) 0.0449(10) Uani d 1 . .
H H7A 0.978574 0.836834 0.145870 0.067 Uiso calc 1 . .
H H7B 0.919249 0.832393 0.301500 0.067 Uiso calc 1 . .
H H7C 0.768607 0.931172 0.199874 0.067 Uiso calc 1 . .
N N1 0.3018(7) 0.4979(3) 0.3626(4) 0.0403(9) Uani d 1 . .
H H1A 0.419(6) 0.438(4) 0.379(5) 0.048 Uiso d 1 . .
H H1B 0.164(5) 0.442(5) 0.384(5) 0.048 Uiso d 1 . .
H H1C 0.282(9) 0.555(4) 0.414(4) 0.048 Uiso d 1 . .
O O1 0.6675(5) 0.7141(3) 0.2650(2) 0.0328(6) Uani d 1 . .
As As1 0.24779(6) 0.81556(4) 0.54369(3) 0.02194(15) Uani d 1 . .
O O2A 0.211(3) 0.6330(13) 0.5512(10) 0.021(3) Uani d 0.53(4) A 2
H H4A -0.035(7) 0.913(3) 0.652(4) 0.032 Uiso d 1 . .
H H5A 0.577(8) 0.873(3) 0.591(4) 0.032 Uiso d 1 . .
O O2B 0.117(3) 0.6741(13) 0.5214(11) 0.016(3) Uani d 0.47(4) A 1
O O3 0.2758(4) 0.9644(3) 0.4007(2) 0.0311(6) Uani d 1 . .
O O4 0.0495(4) 0.8451(3) 0.6847(2) 0.0267(5) Uani d 1 . .
O O5 0.5254(5) 0.7928(3) 0.5888(3) 0.0303(6) Uani d 1 . .
loop_
_atom_site_aniso_label
_atom_site_aniso_U_11
_atom_site_aniso_U_22
_atom_site_aniso_U_33
_atom_site_aniso_U_12
_atom_site_aniso_U_13
_atom_site_aniso_U_23
C1 0.0287(18) 0.0207(16) 0.0264(17) -0.0031(13) 0.0074(14) -0.0106(14)
C2 0.0470(18) 0.0529(18) 0.0444(17) -0.0151(14) -0.0005(14) -0.0288(14)
C3 0.0517(19) 0.071(2) 0.0442(17) -0.0086(15) -0.0116(14) -0.0283(15)
C4 0.0346(16) 0.0489(17) 0.0282(15) 0.0037(13) -0.0062(12) -0.0113(13)
C5 0.0242(17) 0.0240(16) 0.0238(17) -0.0004(13) -0.0007(13) -0.0039(14)
C6 0.0194(15) 0.0213(16) 0.0223(16) 0.0034(12) -0.0032(13) -0.0077(13)
C7 0.028(2) 0.071(3) 0.041(2) -0.0123(19) -0.0043(17) -0.028(2)
N1 0.049(2) 0.0179(15) 0.0332(18) 0.0066(14) 0.0189(16) -0.0030(13)
O1 0.0234(12) 0.0477(16) 0.0243(12) -0.0029(11) -0.0071(10) -0.0074(11)
As1 0.0240(2) 0.0226(2) 0.0183(2) -0.00798(14) 0.00011(14) -0.00942(15)
O2A 0.021(5) 0.022(3) 0.020(3) -0.002(4) -0.003(3) -0.007(3)
O2B 0.014(5) 0.015(4) 0.020(3) 0.000(3) -0.005(3) -0.007(3)
O3 0.0211(12) 0.0489(15) 0.0163(11) 0.0016(11) -0.0047(9) -0.0020(11)
O4 0.0239(12) 0.0377(14) 0.0166(11) 0.0090(10) -0.0050(9) -0.0070(10)
O5 0.0267(13) 0.0264(12) 0.0317(13) 0.0129(10) -0.0067(10) -0.0027(11)
loop_
_atom_type_symbol
_atom_type_description
_atom_type_scat_dispersion_real
_atom_type_scat_dispersion_imag
_atom_type_scat_source
C C 0.0181 0.0091 'International Tables Vol C Tables 4.2.6.8 and 6.1.1.4'
H H 0.0000 0.0000 'International Tables Vol C Tables 4.2.6.8 and 6.1.1.4'
N N 0.0311 0.0180 'International Tables Vol C Tables 4.2.6.8 and 6.1.1.4'
O O 0.0492 0.0322 'International Tables Vol C Tables 4.2.6.8 and 6.1.1.4'
As As -0.9300 1.0051 'International Tables Vol C Tables 4.2.6.8 and 6.1.1.4'
loop_
_exptl_crystal_face_index_h
_exptl_crystal_face_index_k
_exptl_crystal_face_index_l
_exptl_crystal_face_perp_dist
-2 5 2 0.2057
0 6 4 0.0852
0 6 1 0.0706
-4 0 -1 0.2754
0 3 -4 0.0775
0 1 6 0.1037
3 2 4 0.2629
3 2 -1 0.2084
-3 -3 0 0.2219
0 -2 -7 0.1084
4 -1 -1 0.2179
3 -1 3 0.2342
0 -5 2 0.0576
3 -3 2 0.2109
0 -6 -1 0.0492
3 -3 -2 0.1751
2 -5 0 0.1520
-3 -4 -4 0.2364
loop_
_geom_angle_atom_site_label_1
_geom_angle_atom_site_label_2
_geom_angle_atom_site_label_3
_geom_angle
C2 C1 C6 121.6(3)
C2 C1 N1 121.1(4)
C6 C1 N1 117.3(3)
C1 C2 C3 119.3(4)
C1 C2 H2 120.3
C3 C2 H2 120.3
C4 C3 C2 119.7(4)
C4 C3 H3 120.2
C2 C3 H3 120.2
C3 C4 C5 121.3(4)
C3 C4 H4 119.4
C5 C4 H4 119.4
C4 C5 C6 119.5(3)
C4 C5 H5 120.2
C6 C5 H5 120.2
O1 C6 C5 126.1(3)
O1 C6 C1 115.2(3)
C5 C6 C1 118.7(3)
O1 C7 H7A 109.5
O1 C7 H7B 109.5
H7A C7 H7B 109.5
O1 C7 H7C 109.5
H7A C7 H7C 109.5
H7B C7 H7C 109.5
C1 N1 H1A 110(3)
C1 N1 H1B 109(3)
H1A N1 H1B 107(5)
C1 N1 H1C 110(3)
H1A N1 H1C 111(5)
H1B N1 H1C 109(5)
C6 O1 C7 117.2(3)
O2B As1 O3 108.2(6)
O2B As1 O5 118.0(8)
O3 As1 O5 110.12(12)
O3 As1 O2A 124.7(4)
O5 As1 O2A 93.7(7)
O2B As1 O4 106.3(3)
O3 As1 O4 110.58(12)
O5 As1 O4 103.41(12)
O2A As1 O4 111.1(2)
As1 O4 H4A 106(3)
As1 O5 H5A 109(3)
loop_
_geom_bond_atom_site_label_1
_geom_bond_atom_site_label_2
_geom_bond_distance
C1 C2 1.365(6)
C1 C6 1.392(5)
C1 N1 1.456(5)
C2 C3 1.392(7)
C2 H2 0.9300
C3 C4 1.365(6)
C3 H3 0.9300
C4 C5 1.384(5)
C4 H4 0.9300
C5 C6 1.387(5)
C5 H5 0.9300
C6 O1 1.357(4)
C7 O1 1.431(5)
C7 H7A 0.9600
C7 H7B 0.9600
C7 H7C 0.9600
N1 H1A 0.864(10)
N1 H1B 0.869(10)
N1 H1C 0.871(10)
As1 O2B 1.631(6)
As1 O3 1.656(2)
As1 O5 1.703(2)
As1 O2A 1.710(8)
As1 O4 1.714(2)
O4 H4A 0.819(10)
O5 H5A 0.817(10)
loop_
_geom_hbond_atom_site_label_D
_geom_hbond_atom_site_label_H
_geom_hbond_atom_site_label_A
_geom_hbond_site_symmetry_A
_geom_hbond_distance_DH
_geom_hbond_distance_HA
_geom_hbond_distance_DA
_geom_hbond_angle_DHA
_geom_hbond_publ_flag
N1 H1A O2A 2_666 0.87(4) 2.35(4) 3.159(17) 154(4) yes
N1 H1A O5 2_666 0.87(4) 2.12(4) 2.825(4) 137(3) yes
N1 H1B O2A 2_566 0.87(4) 2.07(4) 2.905(16) 162(4) yes
N1 H1C O2A . 0.87(4) 1.78(4) 2.634(6) 167(5) yes
O4 H4A O3 2_576 0.82(4) 1.82(4) 2.634(3) 168(4) yes
O5 H5A O3^iv^ 2_676 0.82(3) 1.78(3) 2.594(4) 173(4) yes
loop_
_geom_torsion_atom_site_label_1
_geom_torsion_atom_site_label_2
_geom_torsion_atom_site_label_3
_geom_torsion_atom_site_label_4
_geom_torsion
C6 C1 C2 C3 -1.4(6)
N1 C1 C2 C3 177.1(4)
C1 C2 C3 C4 0.9(7)
C2 C3 C4 C5 -0.1(7)
C3 C4 C5 C6 -0.3(6)
C4 C5 C6 O1 179.9(3)
C4 C5 C6 C1 -0.1(5)
C2 C1 C6 O1 -179.1(3)
N1 C1 C6 O1 2.4(4)
C2 C1 C6 C5 1.0(5)
N1 C1 C6 C5 -177.5(3)
C5 C6 O1 C7 5.6(5)
C1 C6 O1 C7 -174.3(3)

_cod_database_fobs_code 2021440
