#------------------------------------------------------------------------------
#$Date: 2018-11-16 05:33:15 +0200 (Fri, 16 Nov 2018) $
#$Revision: 212002 $
#$URL: file:///home/coder/svn-repositories/cod/cif/2/02/13/2021349.cif $
#------------------------------------------------------------------------------
#
# This file is available in the Crystallography Open Database (COD),
# http://www.crystallography.net/. The original data for this entry
# were provided by IUCr Journals, http://journals.iucr.org/.
#
# The file may be used within the scientific community so long as
# proper attribution is given to the journal article from which the
# data were obtained.
#
data_2021349
loop_
_publ_author_name
'Dwivedi, Bhavna'
'Das, Dinabandhu'
_publ_section_title
;
 Polymorphism in some new bis-hydrazone compounds
;
_journal_issue                   12
_journal_name_full               'Acta Crystallographica Section C'
_journal_page_first
;
;
_journal_paper_doi               10.1107/S2053229618014286
_journal_volume                  74
_journal_year                    2018
_chemical_formula_iupac          'C34 H34 N4'
_chemical_formula_moiety         'C34 H34 N4'
_chemical_formula_sum            'C34 H34 N4'
_chemical_formula_weight         498.65
_chemical_name_systematic
;
Butane-2,3-dione 2,3-bis{[bis(4-methylphenyl)methylidene]hydrazone}
;
_space_group_crystal_system      triclinic
_space_group_IT_number           1
_space_group_name_Hall           'P 1'
_space_group_name_H-M_alt        'P 1'
_symmetry_space_group_name_Hall  'P 1'
_symmetry_space_group_name_H-M   'P 1'
_atom_sites_solution_hydrogens   geom
_audit_creation_method           SHELXL-2016/6
_cell_angle_alpha                97.989(7)
_cell_angle_beta                 96.215(7)
_cell_angle_gamma                106.294(7)
_cell_formula_units_Z            1
_cell_length_a                   7.7270(15)
_cell_length_b                   8.9264(17)
_cell_length_c                   10.491(2)
_cell_measurement_reflns_used    9982
_cell_measurement_temperature    100(2)
_cell_measurement_theta_max      28.31
_cell_measurement_theta_min      2.78
_cell_volume                     679.5(2)
_computing_cell_refinement
;
SAINT (Bruker, 2012)
;
_computing_data_collection
;
APEX3 (Bruker, 2012)
;
_computing_data_reduction
;
SAINT (Bruker, 2012)
;
_computing_molecular_graphics
;
X-SEED (Barbour, 2001)
;
_computing_structure_refinement
;
SHELXL2014 (Sheldrick, 2015)
;
_computing_structure_solution
;
SHELXS97 (Sheldrick, 2008)
;
_diffrn_ambient_temperature      100(2)
_diffrn_measured_fraction_theta_full 1.000
_diffrn_measured_fraction_theta_max 0.997
_diffrn_measurement_device_type  'Bruker APEXII CMOS detector'
_diffrn_measurement_method       'phi and omega scans'
_diffrn_radiation_type           MoK\a
_diffrn_radiation_wavelength     0.71073
_diffrn_reflns_av_R_equivalents  0.0364
_diffrn_reflns_av_unetI/netI     0.0371
_diffrn_reflns_limit_h_max       10
_diffrn_reflns_limit_h_min       -10
_diffrn_reflns_limit_k_max       11
_diffrn_reflns_limit_k_min       -11
_diffrn_reflns_limit_l_max       13
_diffrn_reflns_limit_l_min       -13
_diffrn_reflns_number            28324
_diffrn_reflns_theta_full        25.000
_diffrn_reflns_theta_max         28.331
_diffrn_reflns_theta_min         2.415
_diffrn_source                   microfocus
_exptl_absorpt_coefficient_mu    0.072
_exptl_absorpt_correction_T_max  0.992
_exptl_absorpt_correction_T_min  0.974
_exptl_absorpt_correction_type   multi-scan
_exptl_absorpt_process_details
;
(SADABS; Bruker, 2012)
;
_exptl_crystal_colour            yellow
_exptl_crystal_density_diffrn    1.219
_exptl_crystal_description       plate
_exptl_crystal_F_000             266
_exptl_crystal_size_max          0.420
_exptl_crystal_size_mid          0.310
_exptl_crystal_size_min          0.110
_refine_diff_density_max         0.265
_refine_diff_density_min         -0.194
_refine_ls_abs_structure_details
;
Flack <i>x</i> determined using 2626 quotients [(I+)-(I-)]/[(I+)+(I-)]
(Parsons <i>et al.</i>,  2013)
;
_refine_ls_extinction_coef       0.024(5)
_refine_ls_extinction_expression Fc^*^=kFc[1+0.001xFc^2^\l^3^/sin(2\q)]^-1/4^
_refine_ls_extinction_method
;
SHELXL2016 (Sheldrick, 2015)
;
_refine_ls_goodness_of_fit_ref   1.047
_refine_ls_hydrogen_treatment    constr
_refine_ls_matrix_type           full
_refine_ls_number_parameters     350
_refine_ls_number_reflns         6741
_refine_ls_number_restraints     3
_refine_ls_restrained_S_all      1.047
_refine_ls_R_factor_all          0.0495
_refine_ls_R_factor_gt           0.0402
_refine_ls_shift/su_max          0.000
_refine_ls_shift/su_mean         0.000
_refine_ls_structure_factor_coef Fsqd
_refine_ls_weighting_details
'w=1/[\s^2^(Fo^2^)+(0.0465P)^2^+0.1308P] where P=(Fo^2^+2Fc^2^)/3'
_refine_ls_weighting_scheme      calc
_refine_ls_wR_factor_gt          0.0922
_refine_ls_wR_factor_ref         0.0960
_reflns_number_gt                6027
_reflns_number_total             6741
_reflns_threshold_expression     'I > 2\s(I)'
_cod_data_source_file            uk3160sup1.cif
_cod_data_source_block           3b
_cod_database_code               2021349
_shelx_space_group_comment
;
The symmetry employed for this shelxl refinement is uniquely defined
by the following loop, which should always be used as a source of
symmetry information in preference to the above space-group names.
They are only intended as comments.
;
_shelx_estimated_absorpt_t_min   0.970
_shelx_estimated_absorpt_t_max   0.992
_shelx_hkl_file
;
  -1   0   0    0.32    0.06
  -1   0   0    0.26    0.06
  -1   0   0    0.28    0.05
  -1   0   0    0.42    0.06
  -1   0   0    0.31    0.06
   1   0   0    0.40    0.06
   1   0   0    0.45    0.06
   1   0   0    0.36    0.04
   1   0   0    0.31    0.06
   1   0   0    0.40    0.06
   1   0   0    0.31    0.06
   1   0   0    0.32    0.05
  -2   0   0  231.33    7.34
  -2   0   0  228.42    7.33
  -2   0   0  226.19    7.32
  -2   0   0  225.97    7.34
  -2   0   0  235.31    7.33
  -2   0   0  230.93    7.30
   2   0   0  241.26    7.34
   2   0   0  229.03    7.35
   2   0   0  230.83    7.30
   2   0   0  229.36    7.34
   2   0   0  225.76    7.32
   2   0   0  228.04    7.33
  -3   0   0   22.83    0.87
  -3   0   0   24.46    0.88
  -3   0   0   24.08    0.86
  -3   0   0   23.79    0.83
  -3   0   0   21.95    0.90
  -3   0   0   24.62    0.87
   3   0   0   23.29    0.78
   3   0   0   23.99    0.88
   3   0   0   23.88    0.86
   3   0   0   23.72    0.82
   3   0   0   24.21    0.83
   3   0   0   20.29    0.92
   3   0   0   23.66    0.87
  -4   0   0   10.68    0.51
  -4   0   0   11.22    0.53
  -4   0   0   11.60    0.52
  -4   0   0   11.24    0.51
  -4   0   0   11.17    0.54
  -4   0   0   11.22    0.48
   4   0   0   10.91    0.51
   4   0   0   10.86    0.41
   4   0   0   10.80    0.47
   4   0   0   11.14    0.54
   4   0   0   11.16    0.55
   4   0   0   11.45    0.46
   4   0   0   11.34    0.55
  -5   0   0    6.24    0.40
  -5   0   0    6.39    0.43
  -5   0   0    6.07    0.39
  -5   0   0    6.49    0.38
  -5   0   0    6.38    0.28
  -5   0   0    6.15    0.42
  -5   0   0    6.66    0.45
   5   0   0    6.30    0.40
   5   0   0    6.46    0.47
   5   0   0    6.09    0.46
   5   0   0    6.14    0.27
   5   0   0    6.15    0.35
   5   0   0    5.99    0.42
   5   0   0    6.00    0.33
  -6   0   0    4.05    0.39
  -6   0   0    4.99    0.42
  -6   0   0    4.83    0.46
  -6   0   0    5.24    0.47
  -6   0   0    5.14    0.42
  -6   0   0    5.30    0.49
   6   0   0    5.39    0.46
   6   0   0    5.35    0.34
   6   0   0    4.85    0.37
   6   0   0    5.37    0.44
   6   0   0    4.77    0.52
  -7   0   0    1.47    0.32
  -7   0   0    1.65    0.33
  -7   0   0    1.28    0.36
  -7   0   0    1.51    0.31
   7   0   0    1.83    0.25
   7   0   0    1.56    0.28
   7   0   0    1.73    0.32
   7   0   0    0.98    0.32
  -8   0   0    1.19    0.32
  -8   0   0    0.46    0.33
  -8   0   0    1.51    0.39
   8   0   0    1.33    0.28
   8   0   0    1.33    0.39
   8   0   0    0.95    0.37
  -9   0   0    8.19    0.77
  -9   0   0    9.01    0.90
  -9   0   0    8.62    0.86
   9   0   0    7.05    0.62
   9   0   0    8.93    0.83
  10  -1   0    0.07    0.38
  10  -1   0   -0.08    0.41
 -10   1   0    0.80    0.58
   9  -1   0    0.26    0.41
   9  -1   0    0.57    0.27
  -9   1   0    1.69    0.46
  -9   1   0    1.02    0.37
  -9   1   0    1.05    0.45
   8  -1   0    1.49    0.38
   8  -1   0    1.39    0.39
   8  -1   0    2.02    0.29
  -8   1   0    1.55    0.34
  -8   1   0    1.93    0.38
  -8   1   0    1.88    0.38
   7  -1   0    3.74    0.43
   7  -1   0    3.69    0.33
   7  -1   0    3.96    0.34
   7  -1   0    3.29    0.39
  -7   1   0    4.12    0.48
  -7   1   0    2.92    0.41
  -7   1   0    3.65    0.43
  -7   1   0    3.56    0.44
  -7   1   0    3.06    0.44
  -7   1   0    3.76    0.45
   6  -1   0   12.99    0.74
   6  -1   0   14.08    0.69
   6  -1   0   13.72    0.66
   6  -1   0   12.82    0.55
   6  -1   0   13.06    0.57
  -6   1   0   12.71    0.68
  -6   1   0   12.98    0.61
  -6   1   0   13.16    0.71
  -6   1   0   12.84    0.68
  -6   1   0   12.88    0.64
  -6   1   0   12.07    0.66
   5  -1   0   20.67    0.88
   5  -1   0   21.34    0.78
   5  -1   0   21.26    0.76
   5  -1   0   20.22    0.70
   5  -1   0   20.15    0.89
   5  -1   0   21.31    0.85
  -5   1   0   19.54    0.86
  -5   1   0   20.99    0.87
  -5   1   0   20.55    0.80
  -5   1   0   21.60    0.86
  -5   1   0   21.11    0.84
  -5   1   0   20.46    0.88
   4  -1   0   12.40    0.56
   4  -1   0   12.25    0.55
   4  -1   0   12.47    0.54
   4  -1   0   12.17    0.49
   4  -1   0   12.81    0.58
   4  -1   0   12.27    0.57
   4  -1   0   12.77    0.48
  -4   1   0   12.57    0.50
  -4   1   0   12.76    0.56
  -4   1   0   12.66    0.56
  -4   1   0   12.41    0.55
  -4   1   0   12.67    0.54
  -4   1   0   13.15    0.57
   3  -1   0    2.98    0.21
   3  -1   0    2.72    0.16
   3  -1   0    3.08    0.20
   3  -1   0    3.06    0.20
   3  -1   0    3.15    0.22
   3  -1   0    3.03    0.20
  -3   1   0    2.66    0.21
  -3   1   0    2.87    0.19
  -3   1   0    2.95    0.20
  -3   1   0    3.18    0.21
  -3   1   0    3.00    0.20
  -3   1   0    2.99    0.17
  -3   1   0    2.90    0.20
   2  -1   0  211.37    6.99
   2  -1   0  223.44    7.07
   2  -1   0  213.91    6.99
   2  -1   0  219.22    7.00
   2  -1   0  225.81    7.01
   2  -1   0  217.53    7.02
  -2   1   0  229.09    7.08
  -2   1   0  218.13    7.00
  -2   1   0  216.29    6.99
  -2   1   0  219.61    7.02
  -2   1   0  218.19    7.00
  -2   1   0  237.15    7.10
  -2   1   0  213.07    7.00
   1  -1   0   44.16    1.41
   1  -1   0   43.25    1.40
   1  -1   0   43.21    1.40
   1  -1   0   39.07    1.42
   1  -1   0   43.15    1.43
   1  -1   0   43.98    1.41
   1  -1   0   40.38    1.40
  -1   1   0   43.36    1.41
  -1   1   0   42.71    1.41
  -1   1   0   41.87    1.40
  -1   1   0   43.88    1.43
  -1   1   0   44.39    1.38
  -1   1   0   48.40    1.44
  -1   1   0   44.10    1.40
  -1   1   0   43.76    1.40
  -1   1   0   46.97    1.40
   0  -1   0    0.12    0.02
   0  -1   0    0.13    0.03
   0  -1   0    0.12    0.03
   0  -1   0    0.06    0.02
   0  -1   0    0.12    0.03
   0  -1   0    0.09    0.03
   0   1   0    0.15    0.03
   0   1   0    0.16    0.03
   0   1   0    0.15    0.03
   0   1   0    0.14    0.03
   0   1   0    0.11    0.02
   0   1   0    0.14    0.03
   0   1   0    0.18    0.04
   0   1   0    0.19    0.04
  -1  -1   0  184.24    6.08
  -1  -1   0  191.54    6.10
  -1  -1   0  191.73    6.15
  -1  -1   0  187.26    6.09
  -1  -1   0  193.14    6.11
  -1  -1   0  186.35    6.09
  -1  -1   0  202.91    6.13
   1   1   0  195.37    6.10
   1   1   0  187.77    6.09
   1   1   0  176.64    6.09
   1   1   0  183.92    6.09
   1   1   0  205.98    6.13
   1   1   0  186.01    6.09
   1   1   0  193.41    6.17
   1   1   0  206.00    6.11
  -2  -1   0   76.19    2.45
  -2  -1   0   76.85    2.44
  -2  -1   0   68.89    2.47
  -2  -1   0   74.10    2.42
  -2  -1   0   73.12    2.41
  -2  -1   0   73.30    2.38
   2   1   0   74.85    2.41
   2   1   0   75.25    2.43
   2   1   0   74.12    2.44
   2   1   0   72.13    2.42
   2   1   0   73.95    2.41
   2   1   0   71.49    2.38
  -3  -1   0  221.74    7.12
  -3  -1   0  212.26    7.04
  -3  -1   0  224.60    7.09
  -3  -1   0  215.35    7.12
  -3  -1   0  215.91    7.09
  -3  -1   0  227.08    7.14
  -3  -1   0  231.71    7.15
   3   1   0  216.18    7.12
   3   1   0  230.26    7.10
   3   1   0  223.98    7.13
   3   1   0  226.35    7.09
   3   1   0  218.40    7.05
   3   1   0  217.57    7.13
  -4  -1   0   15.89    0.66
  -4  -1   0   15.06    0.67
  -4  -1   0   16.84    0.71
  -4  -1   0   15.81    0.70
  -4  -1   0   15.49    0.64
  -4  -1   0   15.04    0.68
   4   1   0   15.10    0.69
   4   1   0   15.65    0.70
   4   1   0   15.62    0.71
   4   1   0   15.63    0.63
   4   1   0   15.15    0.64
   4   1   0   16.07    0.68
   4   1   0   15.66    0.58
  -5  -1   0   19.67    0.88
  -5  -1   0   19.57    0.88
  -5  -1   0   18.77    0.80
  -5  -1   0   18.00    0.84
  -5  -1   0   20.50    0.86
  -5  -1   0   19.36    0.82
   5   1   0   18.87    0.79
   5   1   0   19.60    0.77
   5   1   0   18.89    0.70
   5   1   0   17.89    0.87
   5   1   0   20.56    0.88
   5   1   0   18.72    0.88
   5   1   0   19.62    0.85
  -6  -1   0    3.46    0.43
  -6  -1   0    3.44    0.40
  -6  -1   0    2.75    0.32
  -6  -1   0    3.20    0.42
  -6  -1   0    2.91    0.35
   6   1   0    3.01    0.38
   6   1   0    3.05    0.39
   6   1   0    3.96    0.46
   6   1   0    3.53    0.46
   6   1   0    3.06    0.23
   6   1   0    3.15    0.31
  -7  -1   0    3.35    0.49
  -7  -1   0    2.72    0.41
  -7  -1   0    3.28    0.41
  -7  -1   0    1.98    0.42
   7   1   0    3.38    0.38
   7   1   0    3.03    0.43
   7   1   0    3.52    0.56
   7   1   0    3.69    0.48
  -8  -1   0    1.81    0.43
  -8  -1   0    2.29    0.44
  -8  -1   0    2.52    0.49
   8   1   0    2.96    0.49
   8   1   0    1.13    0.46
  -9  -1   0    0.24    0.42
  -9  -1   0    0.06    0.45
  -9  -1   0    0.34    0.46
   9   1   0    0.97    0.35
   9   1   0    0.82    0.49
  10  -2   0    7.08    0.79
  10  -2   0    8.53    0.70
  10  -2   0    8.36    0.98
 -10   2   0    7.18    0.83
 -10   2   0    6.80    0.78
 -10   2   0    6.49    0.74
   9  -2   0    2.31    0.46
   9  -2   0    2.35    0.42
   9  -2   0    2.32    0.33
  -9   2   0    1.91    0.42
  -9   2   0    1.80    0.38
  -9   2   0    2.80    0.51
   8  -2   0    0.65    0.21
   8  -2   0    1.28    0.33
   8  -2   0    0.44    0.34
   8  -2   0    0.57    0.25
   8  -2   0    0.56    0.15
  -8   2   0    0.77    0.27
  -8   2   0    0.72    0.31
  -8   2   0    1.15    0.36
   7  -2   0    5.41    0.36
   7  -2   0    4.70    0.48
   7  -2   0    5.57    0.30
   7  -2   0    5.50    0.51
   7  -2   0    5.99    0.42
  -7   2   0    5.31    0.55
  -7   2   0    4.98    0.47
  -7   2   0    4.64    0.55
  -7   2   0    4.72    0.44
  -7   2   0    3.99    0.41
  -7   2   0    5.51    0.54
  -7   2   0    5.14    0.41
  -7   2   0    5.44    0.52
   6  -2   0    0.63    0.12
   6  -2   0    0.90    0.20
   6  -2   0    0.37    0.36
   6  -2   0    0.75    0.11
   6  -2   0    0.76    0.15
   6  -2   0    0.68    0.11
   6  -2   0    0.39    0.32
  -6   2   0    0.88    0.24
  -6   2   0    0.87    0.22
  -6   2   0    0.64    0.16
  -6   2   0    0.70    0.23
  -6   2   0    0.51    0.17
  -6   2   0    0.72    0.23
  -6   2   0    0.55    0.19
  -6   2   0    0.45    0.16
   5  -2   0    5.20    0.32
   5  -2   0    4.36    0.21
   5  -2   0    4.34    0.20
   5  -2   0    4.50    0.26
   5  -2   0    4.86    0.38
   5  -2   0    4.02    0.35
   5  -2   0    4.82    0.29
   5  -2   0    4.39    0.33
   5  -2   0    4.86    0.39
  -5   2   0    3.92    0.32
  -5   2   0    4.73    0.33
  -5   2   0    4.39    0.28
  -5   2   0    4.65    0.30
  -5   2   0    4.59    0.35
  -5   2   0    4.45    0.35
  -5   2   0    4.40    0.35
   4  -2   0   11.85    0.49
   4  -2   0   11.59    0.49
   4  -2   0   11.09    0.51
   4  -2   0   11.46    0.53
   4  -2   0   11.07    0.45
   4  -2   0   11.34    0.54
   4  -2   0   11.81    0.39
   4  -2   0   11.00    0.40
   4  -2   0   11.15    0.49
  -4   2   0   11.28    0.50
  -4   2   0   11.03    0.50
  -4   2   0   11.13    0.47
  -4   2   0   11.87    0.50
  -4   2   0   11.41    0.46
  -4   2   0   12.07    0.54
  -4   2   0   11.32    0.51
   3  -2   0   23.49    0.80
   3  -2   0   23.27    0.83
   3  -2   0   24.23    0.84
   3  -2   0   19.50    0.80
   3  -2   0   23.91    0.87
   3  -2   0   23.10    0.82
   3  -2   0   23.01    0.83
   3  -2   0   24.25    0.84
  -3   2   0   22.49    0.82
  -3   2   0   21.92    0.82
  -3   2   0   22.50    0.83
  -3   2   0   22.45    0.81
  -3   2   0   26.85    0.88
  -3   2   0   21.76    0.86
  -3   2   0   23.25    0.80
   2  -2   0  112.69    3.44
   2  -2   0   95.98    3.43
   2  -2   0  107.93    3.45
   2  -2   0  111.36    3.49
   2  -2   0  107.28    3.46
   2  -2   0  111.03    3.49
   2  -2   0  113.71    3.44
   2  -2   0  112.31    3.45
  -2   2   0  111.44    3.44
  -2   2   0   98.47    3.51
  -2   2   0   98.50    3.42
  -2   2   0  108.59    3.45
  -2   2   0   97.17    3.44
  -2   2   0  112.95    3.40
  -2   2   0  109.01    3.44
  -2   2   0  111.27    3.46
  -2   2   0  108.02    3.45
   1  -2   0  935.23   29.68
   1  -2   0  914.38   29.65
   1  -2   0  921.05   29.47
   1  -2   0  974.97   29.65
   1  -2   0  972.29   29.51
   1  -2   0  908.20   29.49
   1  -2   0  942.10   29.69
   1  -2   0  878.01   29.71
   1  -2   0  919.07   29.52
  -1   2   0  934.35   29.50
  -1   2   0  903.55   29.50
  -1   2   0  915.64   29.48
  -1   2   0  949.19   29.64
  -1   2   0 1000.00   29.67
  -1   2   0  921.76   29.64
  -1   2   0  899.28   29.50
  -1   2   0  941.01   29.50
   0  -2   0   31.05    1.07
   0  -2   0   30.89    1.03
   0  -2   0   31.69    1.04
   0  -2   0   33.07    1.04
   0  -2   0   29.29    1.03
   0   2   0   31.45    1.06
   0   2   0   30.71    1.03
   0   2   0   31.85    1.06
   0   2   0   31.00    1.04
   0   2   0   32.42    1.05
   0   2   0   31.57    1.04
   0   2   0   30.70    1.06
   0   2   0   31.72    1.04
  -1  -2   0   53.24    1.77
  -1  -2   0   53.67    1.75
  -1  -2   0   56.43    1.72
  -1  -2   0   50.23    1.75
  -1  -2   0   52.96    1.76
  -1  -2   0   53.13    1.76
   1   2   0   51.52    1.80
   1   2   0   55.91    1.77
   1   2   0   56.02    1.75
   1   2   0   52.39    1.75
   1   2   0   54.18    1.76
   1   2   0   44.78    1.79
   1   2   0   51.23    1.75
   1   2   0   53.47    1.75
  -2  -2   0   15.99    0.65
  -2  -2   0   16.53    0.66
  -2  -2   0   13.63    0.65
  -2  -2   0   16.88    0.64
  -2  -2   0   14.36    0.68
  -2  -2   0   16.56    0.63
   2   2   0   16.20    0.65
   2   2   0   16.06    0.61
   2   2   0   15.87    0.64
   2   2   0   16.31    0.65
   2   2   0   17.04    0.66
   2   2   0   17.21    0.64
   2   2   0   18.31    0.58
   2   2   0   16.68    0.63
  -3  -2   0   40.89    1.36
  -3  -2   0   39.84    1.41
  -3  -2   0   39.02    1.39
  -3  -2   0   37.38    1.39
  -3  -2   0   37.65    1.31
  -3  -2   0   36.50    1.36
   3   2   0   36.78    1.36
   3   2   0   37.43    1.31
   3   2   0   39.40    1.39
   3   2   0   37.77    1.36
   3   2   0   38.09    1.39
  -4  -2   0    8.92    0.40
  -4  -2   0    9.43    0.52
  -4  -2   0    9.72    0.48
  -4  -2   0    8.74    0.48
  -4  -2   0    9.17    0.45
  -4  -2   0    9.66    0.54
  -4  -2   0    9.57    0.51
   4   2   0    8.14    0.51
   4   2   0    9.19    0.52
   4   2   0    8.45    0.51
   4   2   0    9.32    0.49
   4   2   0    9.07    0.49
   4   2   0    8.10    0.44
   4   2   0    9.05    0.45
  -5  -2   0    0.96    0.25
  -5  -2   0    0.65    0.20
  -5  -2   0    0.73    0.22
  -5  -2   0    0.74    0.22
  -5  -2   0    0.75    0.26
  -5  -2   0    0.79    0.25
   5   2   0    0.65    0.24
   5   2   0    0.77    0.22
   5   2   0    0.86    0.28
   5   2   0    0.71    0.22
   5   2   0    1.01    0.20
   5   2   0    0.80    0.22
   5   2   0    0.50    0.20
  -6  -2   0   14.23    0.78
  -6  -2   0   13.37    0.82
  -6  -2   0   13.74    0.72
  -6  -2   0   13.75    0.81
   6   2   0   13.79    0.66
   6   2   0   13.45    0.75
   6   2   0   12.60    0.84
   6   2   0   13.09    0.79
  -7  -2   0    0.35    0.36
  -7  -2   0    0.67    0.34
  -7  -2   0    0.25    0.29
   7   2   0    0.66    0.40
   7   2   0    0.47    0.22
   7   2   0    0.27    0.33
  -8  -2   0    2.08    0.46
  -8  -2   0    2.06    0.51
  -8  -2   0    1.92    0.44
   8   2   0    2.19    0.54
   8   2   0    1.67    0.34
   8   2   0    1.51    0.47
  -9  -2   0    0.99    0.54
  -9  -2   0    1.58    0.64
  -9  -2   0    1.72    0.55
   9   2   0    0.71    0.53
   9   2   0    1.22    0.41
  10  -3   0   -0.60    0.49
  10  -3   0    0.02    0.39
  10  -3   0    0.30    0.32
  10  -3   0    0.30    0.37
 -10   3   0    0.23    0.42
 -10   3   0   -0.11    0.48
 -10   3   0   -0.31    0.36
   9  -3   0    0.10    0.29
   9  -3   0    0.13    0.28
   9  -3   0    0.13    0.24
  -9   3   0    0.71    0.30
  -9   3   0    0.46    0.35
  -9   3   0    0.33    0.41
   8  -3   0    0.89    0.33
   8  -3   0    1.17    0.28
   8  -3   0    1.25    0.23
   8  -3   0    1.33    0.35
  -8   3   0    1.35    0.33
  -8   3   0    1.41    0.34
  -8   3   0    1.05    0.26
  -8   3   0    1.40    0.42
  -8   3   0    1.12    0.35
   7  -3   0   29.88    1.24
   7  -3   0   30.96    1.07
   7  -3   0   31.02    1.15
   7  -3   0   32.51    1.25
   7  -3   0   33.20    1.28
  -7   3   0   29.31    1.19
  -7   3   0   33.41    1.35
  -7   3   0   32.02    1.27
  -7   3   0   30.37    1.29
  -7   3   0   31.70    1.21
  -7   3   0   26.23    1.28
  -7   3   0   31.60    1.27
  -7   3   0   30.96    1.25
   6  -3   0   55.64    1.89
   6  -3   0   53.41    1.89
   6  -3   0   49.73    1.82
   6  -3   0   54.43    1.83
   6  -3   0   52.44    1.89
  -6   3   0   51.03    1.94
  -6   3   0   54.62    1.98
  -6   3   0   54.41    1.87
  -6   3   0   51.55    1.85
  -6   3   0   52.50    1.93
  -6   3   0   55.98    1.92
  -6   3   0   54.21    1.91
  -6   3   0   56.36    1.95
   5  -3   0    0.57    0.20
   5  -3   0    0.90    0.20
   5  -3   0    0.82    0.16
   5  -3   0    0.97    0.13
   5  -3   0    0.96    0.15
   5  -3   0    0.62    0.21
   5  -3   0    0.97    0.17
   5  -3   0    0.70    0.14
   5  -3   0    0.99    0.14
  -5   3   0    0.93    0.22
  -5   3   0    0.95    0.14
  -5   3   0    0.97    0.14
  -5   3   0    0.96    0.20
  -5   3   0    1.02    0.17
  -5   3   0    0.88    0.17
  -5   3   0    0.85    0.17
   4  -3   0    4.54    0.24
   4  -3   0    4.40    0.26
   4  -3   0    4.11    0.24
   4  -3   0    4.19    0.25
   4  -3   0    3.88    0.28
   4  -3   0    4.07    0.23
   4  -3   0    4.01    0.33
   4  -3   0    4.48    0.30
   4  -3   0    3.95    0.29
  -4   3   0    4.52    0.27
  -4   3   0    3.75    0.33
  -4   3   0    4.45    0.24
  -4   3   0    4.20    0.23
  -4   3   0    4.04    0.25
  -4   3   0    4.39    0.31
  -4   3   0    4.56    0.28
   3  -3   0    4.34    0.23
   3  -3   0    4.24    0.22
   3  -3   0    4.10    0.22
   3  -3   0    4.40    0.24
   3  -3   0    4.49    0.29
   3  -3   0    4.28    0.24
  -3   3   0    4.25    0.23
  -3   3   0    4.17    0.21
  -3   3   0    3.76    0.31
  -3   3   0    4.14    0.22
  -3   3   0    4.08    0.27
  -3   3   0    4.33    0.24
  -3   3   0    4.34    0.20
  -3   3   0    4.32    0.22
   2  -3   0   21.45    0.76
   2  -3   0   19.85    0.74
   2  -3   0   20.12    0.71
   2  -3   0   20.60    0.70
   2  -3   0   20.43    0.74
   2  -3   0   17.68    0.78
  -2   3   0   21.11    0.76
  -2   3   0   21.16    0.69
  -2   3   0   19.99    0.80
  -2   3   0   21.02    0.71
  -2   3   0   21.18    0.70
  -2   3   0   20.90    0.70
  -2   3   0   21.45    0.74
  -2   3   0   20.72    0.68
  -2   3   0   19.01    0.71
   1  -3   0  209.26    6.84
   1  -3   0  221.30    6.83
   1  -3   0  209.96    6.86
   1  -3   0  207.30    6.81
   1  -3   0  205.18    6.84
   1  -3   0  231.91    6.93
  -1   3   0  221.69    6.86
  -1   3   0  208.60    6.86
  -1   3   0  214.15    6.82
  -1   3   0  219.16    6.86
  -1   3   0  214.18    6.84
  -1   3   0  211.86    6.87
  -1   3   0  221.15    6.90
  -1   3   0  208.95    6.83
  -1   3   0  213.65    6.84
   0  -3   0    9.24    0.40
   0  -3   0   10.40    0.38
   0  -3   0    9.67    0.43
   0  -3   0    9.92    0.40
   0   3   0   10.18    0.45
   0   3   0   10.01    0.38
   0   3   0    9.79    0.39
   0   3   0    9.99    0.38
   0   3   0    9.74    0.37
   0   3   0   10.22    0.39
   0   3   0   10.02    0.41
   0   3   0    8.91    0.44
   0   3   0    8.92    0.45
  -1  -3   0   26.03    0.97
  -1  -3   0   26.16    0.97
  -1  -3   0   27.00    0.94
  -1  -3   0   27.02    0.91
  -1  -3   0   25.62    0.95
  -1  -3   0   27.21    0.98
   1   3   0   25.82    0.97
   1   3   0   27.08    0.96
   1   3   0   26.43    0.97
   1   3   0   27.43    0.97
   1   3   0   25.91    0.96
   1   3   0   27.68    0.97
   1   3   0   26.44    0.95
   1   3   0   28.02    0.97
  -2  -3   0   95.76    3.16
  -2  -3   0   93.53    3.14
  -2  -3   0   97.06    3.10
  -2  -3   0   92.25    3.18
  -2  -3   0   97.00    3.17
  -2  -3   0   94.10    3.15
   2   3   0   94.71    3.15
   2   3   0   94.62    3.16
   2   3   0   91.12    3.15
   2   3   0   97.40    3.18
   2   3   0  102.47    3.18
   2   3   0   95.97    3.16
   2   3   0   97.00    3.14
   2   3   0   91.51    3.11
  -3  -3   0   10.22    0.51
  -3  -3   0    9.14    0.47
  -3  -3   0    9.75    0.53
  -3  -3   0    8.98    0.49
  -3  -3   0    9.56    0.45
   3   3   0    9.09    0.45
   3   3   0    9.00    0.50
   3   3   0    8.81    0.49
   3   3   0    9.02    0.49
   3   3   0    9.35    0.48
   3   3   0    9.18    0.51
   3   3   0    8.88    0.46
  -4  -3   0    3.09    0.36
  -4  -3   0    2.77    0.31
  -4  -3   0    3.02    0.37
  -4  -3   0    2.81    0.33
  -4  -3   0    2.18    0.31
  -4  -3   0    2.87    0.26
  -4  -3   0    2.45    0.28
   4   3   0    2.66    0.35
   4   3   0    3.10    0.37
   4   3   0    2.99    0.32
   4   3   0    2.87    0.36
   4   3   0    3.05    0.29
   4   3   0    2.88    0.37
   4   3   0    2.87    0.30
  -5  -3   0    2.32    0.29
  -5  -3   0    2.04    0.30
  -5  -3   0    2.55    0.25
  -5  -3   0    2.21    0.35
  -5  -3   0    1.84    0.31
   5   3   0    2.34    0.38
   5   3   0    2.37    0.32
   5   3   0    2.42    0.32
   5   3   0    2.60    0.37
   5   3   0    2.34    0.33
  -6  -3   0    1.08    0.38
  -6  -3   0    1.20    0.29
   6   3   0    1.27    0.27
   6   3   0    1.70    0.36
   6   3   0    0.95    0.35
  -7  -3   0    0.65    0.37
  -7  -3   0    0.11    0.39
  -7  -3   0    0.11    0.32
   7   3   0    0.29    0.37
   7   3   0    0.74    0.25
   7   3   0    0.19    0.35
  -8  -3   0    1.84    0.50
  -8  -3   0    1.90    0.62
  -8  -3   0    1.53    0.47
   8   3   0    1.65    0.59
   8   3   0    2.33    0.49
   8   3   0    1.42    0.36
  10  -4   0    1.37    0.45
  10  -4   0    1.12    0.54
 -10   4   0    0.93    0.37
 -10   4   0    1.48    0.57
 -10   4   0    0.42    0.40
   9  -4   0    2.54    0.37
   9  -4   0    2.28    0.39
   9  -4   0    2.68    0.48
  -9   4   0    3.73    0.53
  -9   4   0    2.07    0.36
  -9   4   0    2.49    0.39
   8  -4   0    6.41    0.47
   8  -4   0    6.57    0.60
   8  -4   0    6.28    0.56
   8  -4   0    7.57    0.56
   8  -4   0    6.01    0.44
  -8   4   0    6.39    0.66
  -8   4   0    6.79    0.66
  -8   4   0    6.25    0.55
  -8   4   0    5.53    0.45
   7  -4   0   13.76    0.67
   7  -4   0   15.99    0.67
   7  -4   0   16.06    0.75
   7  -4   0   16.33    0.76
   7  -4   0   15.58    0.98
  -7   4   0   16.37    0.81
  -7   4   0   14.07    0.91
  -7   4   0   16.55    0.74
  -7   4   0   15.95    0.89
  -7   4   0   17.07    0.83
   6  -4   0    5.97    0.41
   6  -4   0    6.36    0.37
   6  -4   0    6.84    0.42
   6  -4   0    6.77    0.37
   6  -4   0    6.83    0.41
  -6   4   0    6.35    0.44
  -6   4   0    6.47    0.40
  -6   4   0    7.33    0.50
  -6   4   0    6.23    0.44
  -6   4   0    6.27    0.54
  -6   4   0    5.90    0.56
  -6   4   0    5.79    0.39
   5  -4   0    3.69    0.28
   5  -4   0    3.07    0.26
   5  -4   0    4.23    0.36
   5  -4   0    3.71    0.32
   5  -4   0    3.42    0.28
   5  -4   0    3.62    0.33
   5  -4   0    4.18    0.43
   5  -4   0    4.08    0.29
  -5   4   0    3.48    0.26
  -5   4   0    3.58    0.23
  -5   4   0    3.87    0.31
  -5   4   0    3.22    0.33
  -5   4   0    3.63    0.26
  -5   4   0    3.33    0.29
  -5   4   0    2.69    0.41
   4  -4   0    5.07    0.36
   4  -4   0    5.86    0.30
   4  -4   0    5.70    0.40
   4  -4   0    5.62    0.34
   4  -4   0    5.49    0.32
   4  -4   0    5.83    0.33
   4  -4   0    5.51    0.32
  -4   4   0    5.49    0.32
  -4   4   0    6.00    0.27
  -4   4   0    5.75    0.31
  -4   4   0    5.60    0.44
  -4   4   0    5.68    0.30
  -4   4   0    5.74    0.29
  -4   4   0    6.04    0.37
  -4   4   0    5.76    0.31
   3  -4   0   52.53    1.81
   3  -4   0   51.23    1.79
   3  -4   0   52.42    1.76
   3  -4   0   53.42    1.84
   3  -4   0   51.02    1.74
   3  -4   0   51.90    1.74
   3  -4   0   54.65    1.87
   3  -4   0   54.22    1.79
   3  -4   0   53.81    1.76
  -3   4   0   49.64    1.74
  -3   4   0   54.90    1.89
  -3   4   0   52.45    1.78
  -3   4   0   54.27    1.76
  -3   4   0   52.35    1.74
  -3   4   0   51.85    1.75
  -3   4   0   52.24    1.69
  -3   4   0   50.18    1.82
  -3   4   0   53.28    1.72
   2  -4   0    8.79    0.35
   2  -4   0    9.46    0.37
   2  -4   0    9.18    0.36
   2  -4   0    8.55    0.48
   2  -4   0    9.63    0.37
   2  -4   0    9.74    0.42
   2  -4   0    9.39    0.43
   2  -4   0    9.17    0.43
  -2   4   0    9.22    0.36
  -2   4   0    9.05    0.40
  -2   4   0    9.12    0.36
  -2   4   0    9.05    0.36
  -2   4   0    9.36    0.40
  -2   4   0    9.32    0.36
  -2   4   0    9.29    0.42
  -2   4   0    9.71    0.35
   1  -4   0    3.08    0.16
   1  -4   0    2.94    0.23
   1  -4   0    2.75    0.20
   1  -4   0    2.67    0.17
   1  -4   0    3.11    0.30
   1  -4   0    2.54    0.20
   1  -4   0    2.79    0.15
  -1   4   0    2.60    0.16
  -1   4   0    3.06    0.16
  -1   4   0    2.73    0.22
  -1   4   0    2.92    0.16
  -1   4   0    2.58    0.19
  -1   4   0    2.93    0.16
  -1   4   0    2.67    0.22
  -1   4   0    2.89    0.27
  -1   4   0    3.06    0.21
  -1   4   0    3.07    0.19
   0  -4   0   17.09    0.63
   0  -4   0   16.74    0.63
   0  -4   0   16.93    0.62
   0  -4   0   16.59    0.70
   0  -4   0   17.51    0.66
   0   4   0   16.12    0.63
   0   4   0   17.89    0.64
   0   4   0   17.78    0.65
   0   4   0   16.69    0.67
   0   4   0   17.29    0.67
   0   4   0   17.18    0.63
   0   4   0   17.22    0.69
   0   4   0   16.99    0.65
   0   4   0   16.34    0.72
  -1  -4   0    5.26    0.33
  -1  -4   0    5.58    0.30
  -1  -4   0    5.27    0.34
  -1  -4   0    5.37    0.27
  -1  -4   0    5.79    0.31
  -1  -4   0    5.58    0.34
   1   4   0    6.02    0.35
   1   4   0    5.08    0.30
   1   4   0    5.40    0.32
   1   4   0    5.41    0.32
   1   4   0    6.20    0.31
   1   4   0    5.82    0.36
   1   4   0    6.12    0.33
   1   4   0    5.27    0.33
  -2  -4   0   48.79    1.71
  -2  -4   0   47.59    1.65
  -2  -4   0   50.36    1.76
  -2  -4   0   49.12    1.73
  -2  -4   0   49.66    1.77
  -2  -4   0   49.24    1.74
   2   4   0   49.53    1.72
   2   4   0   49.69    1.73
   2   4   0   49.61    1.71
   2   4   0   46.89    1.73
   2   4   0   50.43    1.75
   2   4   0   48.57    1.73
   2   4   0   47.84    1.74
   2   4   0   50.82    1.76
  -3  -4   0    1.67    0.28
  -3  -4   0    1.56    0.20
  -3  -4   0    0.90    0.22
  -3  -4   0    1.23    0.22
  -3  -4   0    1.54    0.21
  -3  -4   0    1.45    0.24
   3   4   0    1.49    0.24
   3   4   0    1.37    0.23
   3   4   0    1.41    0.25
   3   4   0    1.34    0.25
   3   4   0    1.59    0.26
   3   4   0    1.53    0.28
   3   4   0    1.45    0.21
   3   4   0    1.43    0.23
  -4  -4   0   21.18    1.00
  -4  -4   0   23.02    0.91
  -4  -4   0   22.41    1.01
  -4  -4   0   23.76    1.05
   4   4   0   22.13    1.00
   4   4   0   21.88    1.01
   4   4   0   23.08    0.93
   4   4   0   22.89    0.95
   4   4   0   21.72    0.96
   4   4   0   21.26    0.99
  -5  -4   0   18.50    0.83
  -5  -4   0   19.36    0.96
  -5  -4   0   18.57    0.80
  -5  -4   0   19.37    1.02
   5   4   0   18.68    0.97
   5   4   0   15.96    1.10
   5   4   0   18.63    0.84
   5   4   0   19.45    0.88
   5   4   0   18.95    0.97
  -6  -4   0    5.26    0.72
  -6  -4   0    5.78    0.53
  -6  -4   0    5.68    0.68
   6   4   0    5.63    0.61
   6   4   0    4.66    0.65
  -7  -4   0    2.78    0.45
  -7  -4   0    2.39    0.53
  -7  -4   0    2.54    0.59
   7   4   0    1.70    0.48
   7   4   0    2.18    0.47
   7   4   0    2.55    0.39
  -8  -4   0    1.20    0.69
  -8  -4   0    3.11    0.65
   8   4   0    2.81    0.69
   8   4   0    2.39    0.46
   8   4   0    2.08    0.58
  10  -5   0    1.54    0.48
 -10   5   0    0.68    0.40
 -10   5   0    1.01    0.36
 -10   5   0    1.15    0.56
   9  -5   0    2.27    0.40
   9  -5   0    1.97    0.43
   9  -5   0    2.24    0.40
  -9   5   0    1.83    0.36
  -9   5   0    2.15    0.32
  -9   5   0    1.76    0.47
   8  -5   0    7.27    0.58
   8  -5   0    6.08    0.55
   8  -5   0    6.00    0.51
   8  -5   0    7.33    0.49
  -8   5   0    6.27    0.45
  -8   5   0    7.46    0.68
  -8   5   0    6.71    0.52
   7  -5   0   34.21    1.34
   7  -5   0   32.89    1.28
   7  -5   0   33.25    1.27
   7  -5   0   35.08    1.31
   7  -5   0   35.21    1.29
  -7   5   0   33.75    1.33
  -7   5   0   33.05    1.29
  -7   5   0   33.27    1.36
  -7   5   0   32.85    1.42
   6  -5   0    7.73    0.43
   6  -5   0    7.60    0.44
   6  -5   0    7.09    0.45
   6  -5   0    7.27    0.46
  -6   5   0    6.85    0.40
  -6   5   0    7.49    0.54
  -6   5   0    4.96    0.66
  -6   5   0    7.16    0.37
  -6   5   0    7.22    0.47
  -6   5   0    6.52    0.44
  -6   5   0    6.56    0.45
   5  -5   0    1.11    0.19
   5  -5   0    0.88    0.19
   5  -5   0    1.20    0.23
   5  -5   0    1.22    0.20
   5  -5   0    1.03    0.35
   5  -5   0    1.29    0.18
   5  -5   0    1.02    0.21
  -5   5   0    1.06    0.15
  -5   5   0    0.49    0.29
  -5   5   0    1.29    0.19
  -5   5   0    1.24    0.20
  -5   5   0    1.29    0.17
  -5   5   0    1.30    0.16
  -5   5   0    1.27    0.33
  -5   5   0    0.84    0.19
   4  -5   0    9.49    0.42
   4  -5   0    9.41    0.48
   4  -5   0   10.33    0.55
   4  -5   0    9.29    0.40
   4  -5   0    9.18    0.43
   4  -5   0    9.11    0.47
   4  -5   0    9.33    0.47
   4  -5   0    9.53    0.46
   4  -5   0    8.88    0.54
  -4   5   0   10.07    0.40
  -4   5   0    8.64    0.60
  -4   5   0    9.48    0.38
  -4   5   0    9.14    0.43
  -4   5   0    9.75    0.40
  -4   5   0    9.24    0.50
  -4   5   0    9.13    0.47
  -4   5   0    8.56    0.43
  -4   5   0    9.13    0.33
  -4   5   0    9.19    0.43
   3  -5   0   16.95    0.72
   3  -5   0   16.79    0.65
   3  -5   0   16.70    0.80
   3  -5   0   16.66    0.63
   3  -5   0   16.58    0.74
   3  -5   0   16.91    0.70
   3  -5   0   16.88    0.63
   3  -5   0   17.33    0.63
  -3   5   0   17.42    0.69
  -3   5   0   17.62    0.72
  -3   5   0   17.15    0.61
  -3   5   0   16.73    0.60
  -3   5   0   17.11    0.63
  -3   5   0   16.80    0.63
  -3   5   0   17.03    0.64
   2  -5   0   15.79    0.68
   2  -5   0   15.58    0.59
   2  -5   0   15.92    0.56
   2  -5   0   13.92    0.74
   2  -5   0   16.08    0.59
   2  -5   0   14.96    0.65
   2  -5   0   15.97    0.65
   2  -5   0   15.61    0.58
  -2   5   0   15.42    0.57
  -2   5   0   15.74    0.57
  -2   5   0   14.50    0.63
  -2   5   0   15.45    0.64
  -2   5   0   16.20    0.76
  -2   5   0   15.94    0.64
  -2   5   0   15.83    0.59
  -2   5   0   15.51    0.57
  -2   5   0   15.23    0.59
   1  -5   0   41.15    1.40
   1  -5   0   42.00    1.50
   1  -5   0   41.43    1.52
   1  -5   0   41.95    1.44
   1  -5   0   42.21    1.45
   1  -5   0   42.88    1.41
  -1   5   0   42.65    1.44
  -1   5   0   42.90    1.58
  -1   5   0   39.55    1.43
  -1   5   0   42.39    1.45
  -1   5   0   38.84    1.50
  -1   5   0   41.58    1.41
  -1   5   0   42.63    1.47
  -1   5   0   42.69    1.42
  -1   5   0   42.59    1.41
   0  -5   0    1.10    0.18
   0  -5   0    1.90    0.19
   0  -5   0    1.45    0.20
   0  -5   0    1.51    0.18
   0   5   0    1.77    0.19
   0   5   0    1.85    0.27
   0   5   0    1.57    0.17
   0   5   0    2.16    0.26
   0   5   0    1.66    0.22
   0   5   0    1.86    0.17
   0   5   0    1.69    0.18
   0   5   0    1.86    0.18
   0   5   0    1.77    0.22
  -1  -5   0   16.69    0.74
  -1  -5   0   16.10    0.63
  -1  -5   0   16.52    0.72
  -1  -5   0   16.35    0.67
  -1  -5   0   16.14    0.73
  -1  -5   0   17.45    0.69
   1   5   0   16.09    0.68
   1   5   0   17.09    0.69
   1   5   0   17.10    0.76
   1   5   0   16.35    0.72
   1   5   0   16.26    0.72
   1   5   0   17.19    0.72
   1   5   0   17.42    0.74
   1   5   0   16.57    0.73
   1   5   0   15.87    0.68
  -2  -5   0    6.97    0.44
  -2  -5   0    7.62    0.48
  -2  -5   0    7.98    0.55
  -2  -5   0    8.23    0.47
  -2  -5   0    8.82    0.51
   2   5   0    8.03    0.47
   2   5   0    7.37    0.49
   2   5   0    8.08    0.46
   2   5   0    7.84    0.49
   2   5   0    7.74    0.46
   2   5   0    8.27    0.48
   2   5   0    7.43    0.46
   2   5   0    7.43    0.48
  -3  -5   0   21.28    0.93
  -3  -5   0   22.96    1.03
  -3  -5   0   22.27    0.85
  -3  -5   0   21.12    0.99
   3   5   0   22.60    0.88
   3   5   0   21.14    0.96
   3   5   0   21.87    0.94
   3   5   0   21.06    0.93
   3   5   0   22.16    0.95
   3   5   0   22.32    0.98
   3   5   0   21.26    0.95
  -4  -5   0    2.72    0.38
  -4  -5   0    3.82    0.49
  -4  -5   0    4.27    0.51
  -4  -5   0    3.20    0.40
   4   5   0    3.28    0.46
   4   5   0    3.07    0.56
   4   5   0    3.59    0.42
   4   5   0    3.40    0.45
   4   5   0    4.31    0.51
   4   5   0    2.91    0.39
  -5  -5   0    6.73    0.76
  -5  -5   0    5.41    0.66
  -5  -5   0    7.49    0.52
  -5  -5   0    8.46    0.71
  -5  -5   0    7.46    0.52
   5   5   0    5.80    0.71
   5   5   0    8.17    0.62
   5   5   0    5.38    0.81
  -6  -5   0    1.63    0.47
  -6  -5   0    1.99    0.38
  -6  -5   0    0.91    0.46
  -6  -5   0    1.67    0.30
   6   5   0    1.21    0.46
   6   5   0    1.12    0.38
   6   5   0    1.76    0.37
  -7  -5   0    2.66    0.59
   7   5   0    1.76    0.41
   7   5   0    1.32    0.51
   7   5   0    1.36    0.52
   9  -6   0    2.14    0.42
  -9   6   0    2.05    0.36
  -9   6   0    2.19    0.53
  -9   6   0    2.03    0.30
   8  -6   0   22.96    1.05
   8  -6   0   19.67    0.99
   8  -6   0   22.99    1.00
   8  -6   0   21.32    0.98
  -8   6   0   21.83    1.16
  -8   6   0   22.12    0.96
  -8   6   0   21.48    0.88
   7  -6   0    1.62    0.28
   7  -6   0    1.58    0.26
   7  -6   0    1.46    0.30
   7  -6   0    1.52    0.33
  -7   6   0    1.93    0.41
  -7   6   0    1.56    0.24
  -7   6   0    1.84    0.22
  -7   6   0    1.95    0.33
  -7   6   0    1.62    0.33
   6  -6   0    3.33    0.39
   6  -6   0    4.66    0.35
   6  -6   0    4.49    0.44
   6  -6   0    4.08    0.40
   6  -6   0    4.19    0.34
   6  -6   0    4.99    0.48
  -6   6   0    4.21    0.41
  -6   6   0    3.88    0.45
  -6   6   0    4.04    0.27
  -6   6   0    4.20    0.31
   5  -6   0   12.43    0.53
   5  -6   0   11.33    0.67
   5  -6   0   13.34    0.55
   5  -6   0   12.47    0.65
   5  -6   0   12.19    0.62
   5  -6   0   10.27    0.59
  -5   6   0   13.22    0.68
  -5   6   0   13.24    0.50
  -5   6   0   12.30    0.57
  -5   6   0   12.66    0.53
  -5   6   0   12.66    0.57
  -5   6   0   10.03    0.81
  -5   6   0   11.89    0.62
   4  -6   0    0.49    0.19
   4  -6   0   -0.01    0.24
   4  -6   0    0.33    0.22
   4  -6   0    0.10    0.17
   4  -6   0    0.31    0.11
   4  -6   0    0.00    0.11
   4  -6   0    0.38    0.15
   4  -6   0    0.30    0.13
  -4   6   0    0.10    0.10
  -4   6   0    0.24    0.07
  -4   6   0    0.48    0.16
  -4   6   0    0.15    0.18
  -4   6   0    0.32    0.11
  -4   6   0    0.18    0.08
  -4   6   0    0.04    0.08
  -4   6   0    0.22    0.13
  -4   6   0    0.11    0.13
   3  -6   0    2.36    0.23
   3  -6   0    2.11    0.30
   3  -6   0    2.29    0.20
   3  -6   0    2.37    0.22
   3  -6   0    2.50    0.22
  -3   6   0    2.37    0.24
  -3   6   0    2.61    0.19
  -3   6   0    1.81    0.26
  -3   6   0    2.89    0.19
  -3   6   0    3.28    0.44
  -3   6   0    3.02    0.19
  -3   6   0    2.57    0.20
   2  -6   0   -0.14    0.25
   2  -6   0    0.30    0.10
   2  -6   0    0.40    0.18
   2  -6   0    0.24    0.16
   2  -6   0    0.40    0.14
   2  -6   0    0.36    0.13
   2  -6   0    0.26    0.13
   2  -6   0    0.23    0.11
  -2   6   0    0.44    0.10
  -2   6   0    0.59    0.17
  -2   6   0    0.18    0.22
  -2   6   0    0.30    0.12
  -2   6   0    0.15    0.09
  -2   6   0    0.17    0.15
  -2   6   0    0.36    0.10
  -2   6   0    0.39    0.12
  -2   6   0    0.25    0.08
   1  -6   0    2.05    0.29
   1  -6   0    3.83    0.31
   1  -6   0    3.10    0.22
   1  -6   0    3.04    0.23
   1  -6   0    2.53    0.40
  -1   6   0    3.01    0.33
  -1   6   0    3.06    0.24
  -1   6   0    2.52    0.35
  -1   6   0    3.25    0.28
  -1   6   0    3.18    0.23
  -1   6   0    3.28    0.21
  -1   6   0    2.99    0.21
  -1   6   0    3.34    0.25
  -1   6   0    3.57    0.31
   0  -6   0    4.86    0.30
   0  -6   0    5.02    0.32
   0  -6   0    4.65    0.39
   0  -6   0    5.27    0.34
   0  -6   0    4.03    0.37
   0  -6   0    5.16    0.38
   0   6   0    5.52    0.38
   0   6   0    4.80    0.38
   0   6   0    4.85    0.30
   0   6   0    4.53    0.33
   0   6   0    5.20    0.48
   0   6   0    5.19    0.32
   0   6   0    5.15    0.31
   0   6   0    5.07    0.29
  -1  -6   0   14.83    0.70
  -1  -6   0   14.41    0.59
  -1  -6   0   13.79    0.72
  -1  -6   0   13.66    0.71
  -1  -6   0   16.08    0.82
   1   6   0   12.99    0.69
   1   6   0   12.84    0.69
   1   6   0   14.63    0.64
   1   6   0   14.02    0.76
   1   6   0   14.18    0.68
   1   6   0   13.61    0.64
   1   6   0   15.18    0.70
   1   6   0   13.48    0.73
   1   6   0   14.19    0.64
  -2  -6   0    0.76    0.17
  -2  -6   0    0.48    0.26
  -2  -6   0    0.46    0.28
  -2  -6   0    0.70    0.22
   2   6   0    0.48    0.21
   2   6   0    0.66    0.22
   2   6   0    0.38    0.47
   2   6   0    0.54    0.19
   2   6   0    0.54    0.20
   2   6   0    1.24    0.23
   2   6   0    0.71    0.26
  -3  -6   0   17.63    0.90
  -3  -6   0   16.37    0.73
  -3  -6   0   17.46    0.85
  -3  -6   0   16.43    0.94
   3   6   0   18.35    0.90
   3   6   0   17.52    0.82
   3   6   0   16.74    0.85
   3   6   0   16.91    0.85
   3   6   0   18.16    0.88
  -4  -6   0    4.54    0.60
  -4  -6   0    4.91    0.61
  -4  -6   0    6.08    0.53
  -4  -6   0    5.15    0.68
   4   6   0    5.54    0.52
   4   6   0    5.02    0.54
   4   6   0    6.05    0.64
   4   6   0    5.71    0.62
  -5  -6   0    2.64    0.34
  -5  -6   0    1.88    0.36
  -5  -6   0    1.91    0.50
  -5  -6   0    2.32    0.52
   5   6   0    2.06    0.41
   5   6   0    2.85    0.50
   5   6   0    2.79    0.43
  -6  -6   0    1.47    0.53
  -6  -6   0    1.48    0.36
   6   6   0    1.44    0.46
   6   6   0    1.11    0.48
   6   6   0    1.87    0.40
   9  -7   0    6.74    0.74
  -9   7   0    7.09    0.49
  -9   7   0    6.66    0.87
   8  -7   0    6.77    0.67
   8  -7   0    7.57    0.65
   8  -7   0    5.72    0.64
  -8   7   0    6.34    0.74
  -8   7   0    6.51    0.41
  -8   7   0    6.18    0.46
   7  -7   0    0.46    0.28
   7  -7   0    0.65    0.25
   7  -7   0    0.28    0.32
   7  -7   0    1.06    0.36
   7  -7   0    0.13    0.29
  -7   7   0    0.63    0.17
  -7   7   0    0.96    0.31
  -7   7   0    0.78    0.18
   6  -7   0    3.61    0.37
   6  -7   0    3.63    0.34
   6  -7   0    4.26    0.45
   6  -7   0    3.50    0.45
   6  -7   0    4.19    0.51
   6  -7   0    3.47    0.53
  -6   7   0    4.18    0.42
  -6   7   0    4.06    0.28
  -6   7   0    4.19    0.48
  -6   7   0    4.18    0.30
  -6   7   0    3.66    0.40
   5  -7   0   22.58    0.88
   5  -7   0   22.73    1.03
   5  -7   0   21.69    0.98
   5  -7   0   22.17    1.07
   5  -7   0   21.25    0.85
  -5   7   0   22.49    0.89
  -5   7   0   23.39    0.86
  -5   7   0   22.64    0.75
  -5   7   0   22.20    0.90
  -5   7   0   22.86    0.83
  -5   7   0   22.86    1.02
   4  -7   0   13.71    0.60
   4  -7   0   14.10    0.75
   4  -7   0   12.52    0.80
   4  -7   0   13.93    0.69
  -4   7   0   14.15    0.60
  -4   7   0   14.69    0.58
  -4   7   0   14.66    0.60
  -4   7   0   14.04    0.56
  -4   7   0   14.31    0.53
  -4   7   0   14.77    0.71
  -4   7   0   12.81    0.59
   3  -7   0    1.88    0.24
   3  -7   0    1.96    0.26
   3  -7   0    2.37    0.31
   3  -7   0    2.52    0.41
   3  -7   0    2.23    0.32
   3  -7   0    2.23    0.33
   3  -7   0    2.10    0.24
  -3   7   0    2.08    0.28
  -3   7   0    2.09    0.26
  -3   7   0    1.89    0.22
  -3   7   0    1.75    0.20
  -3   7   0    1.99    0.21
  -3   7   0    1.90    0.20
  -3   7   0    2.07    0.21
   2  -7   0   35.25    1.30
   2  -7   0   35.41    1.33
   2  -7   0   33.57    1.37
   2  -7   0   31.29    1.17
   2  -7   0   32.54    1.47
   2  -7   0   32.26    1.24
  -2   7   0   34.57    1.24
  -2   7   0   33.44    1.18
  -2   7   0   34.12    1.32
  -2   7   0   33.43    1.25
  -2   7   0   33.69    1.18
  -2   7   0   32.83    1.22
  -2   7   0   35.35    1.21
   1  -7   0    3.33    0.38
   1  -7   0    2.58    0.34
   1  -7   0    1.89    0.38
   1  -7   0    3.06    0.32
  -1   7   0    2.38    0.22
  -1   7   0    2.56    0.27
  -1   7   0    2.83    0.26
  -1   7   0    2.71    0.26
  -1   7   0    2.36    0.23
  -1   7   0    2.70    0.40
  -1   7   0    2.46    0.31
   0  -7   0    4.75    0.44
   0  -7   0    4.74    0.40
   0  -7   0    4.88    0.42
   0   7   0    4.96    0.33
   0   7   0    4.66    0.42
   0   7   0    4.01    0.31
   0   7   0    3.84    0.31
   0   7   0    3.52    0.59
   0   7   0    4.20    0.33
   0   7   0    4.67    0.39
  -1  -7   0    0.69    0.24
  -1  -7   0    1.11    0.23
  -1  -7   0    0.69    0.26
  -1  -7   0    0.88    0.30
   1   7   0    0.98    0.21
   1   7   0    0.76    0.24
   1   7   0    0.74    0.34
   1   7   0    0.62    0.24
   1   7   0    0.74    0.21
   1   7   0    0.47    0.20
  -2  -7   0   12.02    0.76
  -2  -7   0   10.97    0.83
  -2  -7   0   12.39    0.74
  -2  -7   0   11.75    0.58
   2   7   0   12.12    0.68
   2   7   0   11.03    0.66
   2   7   0   12.02    0.65
   2   7   0    9.89    0.80
   2   7   0   10.42    0.76
  -3  -7   0    3.72    0.50
  -3  -7   0    3.91    0.52
  -3  -7   0    4.56    0.57
   3   7   0    4.25    0.56
   3   7   0    3.92    0.47
   3   7   0    3.42    0.52
   3   7   0    3.80    0.46
   3   7   0    4.70    0.55
  -4  -7   0    6.42    0.64
  -4  -7   0    8.17    0.80
  -4  -7   0    7.71    0.85
   4   7   0    6.05    0.66
   4   7   0    6.99    0.74
   4   7   0    6.65    0.64
  -5  -7   0    0.59    0.36
  -5  -7   0    0.84    0.53
   5   7   0   -0.12    0.38
   5   7   0    0.52    0.39
   5   7   0    0.65    0.42
  -6  -7   0    0.93    0.68
   6   7   0   -0.19    0.43
   6   7   0    0.70    0.54
   9  -8   0   -0.01    0.42
  -9   8   0    1.23    0.29
  -9   8   0    1.06    0.29
  -9   8   0    1.49    0.61
   8  -8   0    1.15    0.47
   8  -8   0    0.76    0.34
  -8   8   0    0.45    0.43
  -8   8   0    0.63    0.23
  -8   8   0    0.91    0.23
   7  -8   0    0.04    0.29
   7  -8   0   -0.54    0.59
   7  -8   0    0.30    0.38
  -7   8   0    0.12    0.16
  -7   8   0    0.30    0.34
  -7   8   0    0.05    0.17
   6  -8   0    2.02    0.44
   6  -8   0    2.08    0.28
   6  -8   0    2.23    0.42
   6  -8   0    1.84    0.33
  -6   8   0    2.37    0.39
  -6   8   0    1.63    0.22
  -6   8   0    2.09    0.36
  -6   8   0    1.92    0.25
   5  -8   0    0.98    0.24
   5  -8   0    0.60    0.26
   5  -8   0    1.21    0.25
   5  -8   0    0.50    0.32
   5  -8   0    1.31    0.37
  -5   8   0    0.88    0.21
  -5   8   0    1.06    0.18
  -5   8   0    1.16    0.20
  -5   8   0    1.25    0.38
  -5   8   0    1.29    0.20
  -5   8   0    1.02    0.13
  -5   8   0    1.27    0.23
   4  -8   0    2.99    0.38
   4  -8   0    3.26    0.36
   4  -8   0    4.07    0.60
   4  -8   0    3.99    0.52
   4  -8   0    4.21    0.59
  -4   8   0    3.02    0.29
  -4   8   0    3.38    0.28
  -4   8   0    3.37    0.25
  -4   8   0    3.37    0.31
  -4   8   0    3.40    0.30
  -4   8   0    3.86    0.41
  -4   8   0    2.95    0.35
   3  -8   0    0.71    0.25
   3  -8   0    0.92    0.34
   3  -8   0    0.37    0.33
   3  -8   0    0.75    0.35
   3  -8   0    0.93    0.23
   3  -8   0    0.81    0.24
  -3   8   0    1.01    0.17
  -3   8   0    1.06    0.18
  -3   8   0    1.11    0.19
  -3   8   0    1.38    0.23
  -3   8   0    1.18    0.20
  -3   8   0    0.83    0.27
  -3   8   0    1.09    0.19
   2  -8   0    1.47    0.27
   2  -8   0    1.08    0.31
   2  -8   0    0.91    0.26
   2  -8   0    1.03    0.26
   2  -8   0    1.70    0.47
   2  -8   0    1.02    0.31
  -2   8   0    1.06    0.19
  -2   8   0    1.27    0.18
  -2   8   0    0.97    0.16
  -2   8   0    1.17    0.21
  -2   8   0    1.12    0.22
  -2   8   0    1.38    0.23
   1  -8   0    1.24    0.45
   1  -8   0    1.21    0.28
   1  -8   0    1.11    0.29
   1  -8   0    0.62    0.40
  -1   8   0    1.08    0.22
  -1   8   0    0.94    0.20
  -1   8   0    0.84    0.32
  -1   8   0    0.99    0.17
  -1   8   0    0.89    0.23
   0  -8   0    0.81    0.28
   0  -8   0    0.23    0.30
   0  -8   0    0.90    0.29
   0  -8   0    0.86    0.32
   0   8   0    0.84    0.28
   0   8   0    0.67    0.19
   0   8   0    0.62    0.22
   0   8   0    0.49    0.17
   0   8   0    0.53    0.21
   0   8   0    0.64    0.19
  -1  -8   0   10.64    0.80
  -1  -8   0   10.92    0.64
  -1  -8   0   12.35    0.75
  -1  -8   0   11.68    0.77
   1   8   0   11.57    0.72
   1   8   0   11.37    0.64
   1   8   0   12.20    0.76
   1   8   0   10.37    0.60
   1   8   0    9.47    0.59
  -2  -8   0    5.89    0.65
  -2  -8   0    5.05    0.89
  -2  -8   0    5.49    0.60
   2   8   0    6.69    0.65
   2   8   0    5.46    0.53
   2   8   0    6.95    0.64
  -3  -8   0    2.25    0.46
  -3  -8   0    3.13    0.54
   3   8   0    2.48    0.48
   3   8   0    2.35    0.48
   3   8   0    2.79    0.44
  -4  -8   0    0.86    0.52
  -4  -8   0    0.70    0.39
   4   8   0    0.27    0.40
   4   8   0    0.25    0.42
   4   8   0    0.23    0.34
  -5  -8   0    0.59    0.48
  -5  -8   0    1.34    0.70
   5   8   0    1.24    0.54
   5   8   0    0.43    0.45
   8  -9   0    2.52    0.56
   8  -9   0    3.05    0.54
   8  -9   0    3.23    0.63
  -8   9   0    2.54    0.59
  -8   9   0    3.55    0.38
  -8   9   0    2.90    0.33
   7  -9   0    0.80    0.47
   7  -9   0    1.05    0.37
   7  -9   0    1.22    0.49
  -7   9   0    1.10    0.22
  -7   9   0    1.28    0.41
  -7   9   0    0.65    0.21
   6  -9   0    0.62    0.42
   6  -9   0   -0.29    0.28
   6  -9   0    0.50    0.42
  -6   9   0    0.22    0.18
  -6   9   0    0.10    0.18
  -6   9   0    0.26    0.33
   5  -9   0    0.30    0.37
   5  -9   0    0.60    0.26
   5  -9   0    0.27    0.28
   5  -9   0    0.61    0.42
  -5   9   0    0.19    0.26
  -5   9   0    0.34    0.17
  -5   9   0    0.46    0.19
   4  -9   0    0.90    0.29
   4  -9   0    1.23    0.41
   4  -9   0    0.80    0.29
   4  -9   0    1.41    0.46
  -4   9   0    1.21    0.21
  -4   9   0    1.25    0.22
  -4   9   0    1.51    0.28
  -4   9   0    1.30    0.20
  -4   9   0    1.41    0.25
   3  -9   0   11.95    0.82
   3  -9   0   10.72    0.71
   3  -9   0   10.54    0.65
   3  -9   0   10.48    0.89
  -3   9   0   10.09    0.58
  -3   9   0   10.78    0.54
  -3   9   0   10.70    0.68
  -3   9   0   10.98    0.53
  -3   9   0   12.01    0.64
   2  -9   0    4.32    0.60
   2  -9   0    3.41    0.48
   2  -9   0    3.76    0.42
   2  -9   0    3.68    0.65
  -2   9   0    3.67    0.30
  -2   9   0    3.08    0.39
  -2   9   0    3.62    0.40
  -2   9   0    3.02    0.35
   1  -9   0    0.42    0.31
   1  -9   0    0.18    0.33
   1  -9   0    0.19    0.45
   1  -9   0   -0.30    0.33
  -1   9   0   -0.12    0.23
  -1   9   0   -0.20    0.17
  -1   9   0   -0.16    0.21
  -1   9   0   -0.15    0.26
  -1   9   0   -0.15    0.19
   0  -9   0    0.11    0.34
   0  -9   0   -0.04    0.46
   0  -9   0    0.48    0.37
   0   9   0   -0.33    0.25
   0   9   0    0.72    0.33
   0   9   0    0.34    0.24
  -1  -9   0    1.06    0.40
  -1  -9   0    2.22    0.47
   1   9   0    1.44    0.33
   1   9   0    1.93    0.38
   1   9   0    1.53    0.45
  -2  -9   0    3.19    0.59
  -2  -9   0    2.73    0.48
   2   9   0    3.15    0.46
   2   9   0    3.54    0.52
   2   9   0    3.79    0.54
  -3  -9   0    1.16    0.47
  -3  -9   0    1.89    0.65
   3   9   0    1.12    0.40
   3   9   0    1.01    0.46
   3   9   0    0.68    0.48
   7 -10   0    1.14    0.47
   7 -10   0    2.63    0.61
   7 -10   0    0.63    0.58
  -7  10   0    0.96    0.27
  -7  10   0    1.00    0.47
  -7  10   0    1.41    0.28
   6 -10   0   14.51    1.06
   6 -10   0   14.77    0.98
   6 -10   0   14.05    1.14
  -6  10   0   13.73    0.71
  -6  10   0   14.36    0.68
  -6  10   0   14.33    0.93
   5 -10   0    4.03    0.67
   5 -10   0    2.89    0.61
   5 -10   0    3.74    0.52
  -5  10   0    3.73    0.42
  -5  10   0    3.85    0.41
  -5  10   0    5.05    0.59
   4 -10   0    3.62    0.67
   4 -10   0    4.31    0.63
   4 -10   0    4.52    0.61
  -4  10   0    3.73    0.44
  -4  10   0    4.49    0.42
  -4  10   0    4.77    0.55
   3 -10   0    0.89    0.55
   3 -10   0    0.75    0.46
  -3  10   0    0.31    0.28
  -3  10   0    0.42    0.26
  -3  10   0    0.11    0.22
   2 -10   0    0.22    0.50
   2 -10   0    0.32    0.40
  -2  10   0    0.09    0.25
  -2  10   0    0.47    0.26
  -2  10   0    0.41    0.28
   1 -10   0    1.18    0.43
   1 -10   0    0.92    0.61
  -1  10   0    1.32    0.30
  -1  10   0    1.38    0.29
  -1  10   0    1.83    0.40
  -1  10   0    1.00    0.31
   0 -10   0    7.41    0.87
   0 -10   0    8.71    1.09
   0  10   0    7.58    0.63
   0  10   0    6.89    0.69
   0  10   0    6.33    0.79
  -1 -10   0    3.26    0.56
  -1 -10   0    1.17    0.71
   1  10   0    2.19    0.52
   1  10   0    1.81    0.41
   1  10   0    1.65    0.47
  -2 -10   0    0.46    0.50
   2  10   0    1.80    0.53
   2  10   0    2.04    0.48
   2  10   0    1.98    0.51
   6 -11   0    3.79    0.74
   6 -11   0    3.83    0.78
   6 -11   0    4.68    0.69
  -6  11   0    4.57    0.53
  -6  11   0    3.79    0.53
  -6  11   0    4.58    0.61
   5 -11   0    1.23    0.61
   5 -11   0    3.07    0.59
   5 -11   0    1.19    0.64
  -5  11   0    1.69    0.35
  -5  11   0    3.15    0.51
  -5  11   0    1.91    0.31
   4 -11   0    0.81    0.65
   4 -11   0    1.42    0.61
   4 -11   0    1.93    0.53
  -4  11   0    1.76    0.40
  -4  11   0    1.06    0.32
  -4  11   0    1.38    0.33
   3 -11   0    2.03    0.63
   3 -11   0    0.63    0.70
  -3  11   0    0.73    0.32
  -3  11   0    0.75    0.35
  -3  11   0    0.45    0.33
   2 -11   0   -0.41    0.64
   2 -11   0    0.77    0.53
  -2  11   0   -0.26    0.32
  -2  11   0    0.47    0.34
  -2  11   0    0.48    0.32
  -2  11   0   -0.44    0.40
   1 -11   0    0.85    0.58
   1 -11   0    0.96    0.68
  -1  11   0    0.77    0.39
  -1  11   0    0.46    0.35
  -1  11   0    0.10    0.47
   0 -11   0    5.22    0.78
   0 -11   0    3.92    0.92
   0  11   0    3.64    0.56
   0  11   0    3.57    0.65
   0  11   0    3.86    0.53
   0  11  -1    2.22    0.49
   0  11  -1    3.66    0.45
   0  11  -1    2.37    0.57
   0 -11   1    3.94    0.69
   0 -11   1    4.50    0.92
  -1  11  -1    0.75    0.37
  -1  11  -1    0.62    0.33
  -1  11  -1   -0.30    0.45
   1 -11   1    0.49    0.55
   1 -11   1    1.69    0.76
  -2  11  -1    0.22    0.29
  -2  11  -1   -0.05    0.43
  -2  11  -1   -0.20    0.30
   2 -11   1    0.53    0.66
   2 -11   1    1.26    0.58
  -3  11  -1    1.44    0.30
  -3  11  -1    1.42    0.34
   3 -11   1    0.88    0.64
   3 -11   1    3.03    0.65
  -4  11  -1    0.84    0.32
  -4  11  -1    0.91    0.27
  -4  11  -1    1.30    0.39
   4 -11   1    1.96    0.67
   4 -11   1    1.67    0.52
   4 -11   1    2.32    0.63
  -5  11  -1    0.56    0.29
  -5  11  -1    0.19    0.39
  -5  11  -1    0.58    0.26
   5 -11   1    1.07    0.51
   5 -11   1    0.21    0.55
   5 -11   1    0.87    0.63
  -6  11  -1    0.08    0.41
  -6  11  -1    0.14    0.25
  -6  11  -1   -0.43    0.26
   6 -11   1    0.34    0.61
   6 -11   1   -0.38    0.60
   6 -11   1    0.19    0.51
   2  10  -1    0.96    0.45
   2  10  -1    0.75    0.38
   2  10  -1   -0.06    0.43
  -2 -10   1    1.18    0.53
  -2 -10   1    0.97    0.84
   1  10  -1    7.55    0.86
   1  10  -1    8.36    0.76
   1  10  -1    9.67    0.67
  -1 -10   1    8.39    0.86
  -1 -10   1    8.86    1.23
   0  10  -1    6.70    0.64
   0  10  -1    6.22    0.75
   0  10  -1    7.22    0.58
   0 -10   1    6.87    0.81
   0 -10   1    7.02    1.06
  -1  10  -1    0.74    0.31
  -1  10  -1    0.51    0.23
  -1  10  -1   -0.08    0.33
  -1  10  -1    0.43    0.27
   1 -10   1    0.01    0.40
   1 -10   1    0.41    0.57
  -2  10  -1    1.06    0.25
  -2  10  -1    0.94    0.26
  -2  10  -1    0.89    0.36
  -2  10  -1    1.22    0.29
   2 -10   1    0.56    0.53
   2 -10   1    0.98    0.46
  -3  10  -1    0.42    0.22
  -3  10  -1    0.24    0.26
  -3  10  -1    0.27    0.25
   3 -10   1   -0.41    0.42
   3 -10   1    0.40    0.53
  -4  10  -1    7.31    0.61
  -4  10  -1    7.29    0.50
  -4  10  -1    5.72    0.52
   4 -10   1    6.96    0.83
   4 -10   1    7.18    0.95
   4 -10   1    7.39    0.71
  -5  10  -1    5.32    0.59
  -5  10  -1    5.19    0.43
  -5  10  -1    5.28    0.40
   5 -10   1    6.14    0.71
   5 -10   1    4.11    0.57
   5 -10   1    6.53    0.88
  -6  10  -1    3.33    0.38
  -6  10  -1    4.25    0.40
  -6  10  -1    3.68    0.50
   6 -10   1    3.04    0.61
   6 -10   1    5.03    0.62
   6 -10   1    4.00    0.67
  -7  10  -1    1.18    0.25
  -7  10  -1    1.57    0.44
  -7  10  -1    0.42    0.24
   7 -10   1    0.84    0.45
   7 -10   1    0.81    0.57
   7 -10   1    0.45    0.58
   4   9  -1    0.40    0.47
   4   9  -1    0.24    0.50
   4   9  -1    1.00    0.49
  -4  -9   1    1.09    0.50
   3   9  -1    1.93    0.42
   3   9  -1    0.48    0.43
   3   9  -1    1.87    0.52
  -3  -9   1    1.74    0.65
  -3  -9   1    1.35    0.47
   2   9  -1    2.65    0.40
   2   9  -1    2.41    0.45
   2   9  -1    2.45    0.44
  -2  -9   1    2.30    0.50
  -2  -9   1    2.06    0.46
   1   9  -1   11.18    0.69
   1   9  -1   12.13    0.77
   1   9  -1   12.60    0.84
  -1  -9   1   11.27    1.09
  -1  -9   1   12.52    0.85
  -1  -9   1   12.07    0.84
   0   9  -1   -0.08    0.29
   0   9  -1    0.36    0.23
   0   9  -1    0.29    0.25
   0  -9   1    0.59    0.35
   0  -9   1    0.86    0.49
   0  -9   1    0.44    0.33
  -1   9  -1    0.20    0.15
  -1   9  -1   -0.11    0.17
  -1   9  -1   -0.29    0.25
  -1   9  -1   -0.48    0.17
  -1   9  -1   -0.30    0.26
  -1   9  -1    0.05    0.22
   1  -9   1    0.76    0.31
   1  -9   1   -0.22    0.29
   1  -9   1   -0.03    0.31
   1  -9   1    0.76    0.46
  -2   9  -1    0.62    0.19
  -2   9  -1    0.73    0.17
  -2   9  -1    0.55    0.15
  -2   9  -1    0.87    0.22
  -2   9  -1    0.57    0.21
   2  -9   1    0.40    0.33
   2  -9   1    0.40    0.41
   2  -9   1    0.65    0.34
  -3   9  -1   12.29    0.61
  -3   9  -1   12.16    0.63
  -3   9  -1   12.02    0.56
  -3   9  -1   11.94    0.56
  -3   9  -1   12.54    0.55
  -3   9  -1   12.69    0.67
   3  -9   1   12.83    0.95
   3  -9   1   12.74    0.79
   3  -9   1   12.78    0.69
   3  -9   1   12.99    0.85
  -4   9  -1    0.93    0.27
  -4   9  -1    0.69    0.17
  -4   9  -1    0.58    0.18
  -4   9  -1    0.72    0.18
   4  -9   1    0.41    0.26
   4  -9   1    0.70    0.38
   4  -9   1    0.80    0.43
   4  -9   1    0.85    0.32
  -5   9  -1    2.47    0.38
  -5   9  -1    2.00    0.24
  -5   9  -1    2.08    0.27
  -5   9  -1    1.88    0.25
   5  -9   1    2.73    0.48
   5  -9   1    2.07    0.37
   5  -9   1    2.01    0.44
  -6   9  -1    3.60    0.33
  -6   9  -1    3.51    0.47
  -6   9  -1    2.67    0.30
   6  -9   1    4.14    0.59
   6  -9   1    2.74    0.54
   6  -9   1    2.82    0.50
  -7   9  -1    0.60    0.19
  -7   9  -1    0.42    0.20
  -7   9  -1    0.83    0.40
   7  -9   1    0.44    0.46
   7  -9   1    0.06    0.35
   7  -9   1    0.07    0.45
  -8   9  -1    3.67    0.63
  -8   9  -1    4.17    0.40
  -8   9  -1    3.12    0.37
   8  -9   1    2.78    0.51
   8  -9   1    2.69    0.61
   5   8  -1   -0.58    0.45
   5   8  -1    0.07    0.44
   5   8  -1   -0.65    0.46
  -5  -8   1   -0.03    0.43
  -5  -8   1   -1.26    0.58
   4   8  -1   -0.28    0.33
   4   8  -1    0.09    0.36
   4   8  -1    0.27    0.39
  -4  -8   1    0.35    0.38
   3   8  -1    0.13    0.28
   3   8  -1    0.32    0.32
   3   8  -1    0.71    0.34
  -3  -8   1    0.32    0.33
  -3  -8   1   -0.39    0.40
   2   8  -1   15.42    0.87
   2   8  -1   15.18    0.90
   2   8  -1   15.44    0.79
  -2  -8   1   15.65    0.92
  -2  -8   1   16.16    0.93
   1   8  -1    1.47    0.33
   1   8  -1    1.05    0.28
   1   8  -1    1.31    0.25
   1   8  -1    1.17    0.27
   1   8  -1    1.53    0.27
  -1  -8   1    1.90    0.36
  -1  -8   1    1.08    0.35
  -1  -8   1    1.59    0.25
  -1  -8   1    0.87    0.47
   0   8  -1    0.72    0.18
   0   8  -1    0.75    0.27
   0   8  -1    0.97    0.17
   0   8  -1    0.64    0.18
   0   8  -1    1.01    0.21
   0   8  -1    0.66    0.24
   0  -8   1    0.76    0.42
   0  -8   1    0.56    0.28
   0  -8   1    0.66    0.30
   0  -8   1    0.79    0.25
   0  -8   1    0.67    0.41
  -1   8  -1    0.73    0.15
  -1   8  -1    0.63    0.14
  -1   8  -1    0.42    0.19
  -1   8  -1    0.27    0.23
  -1   8  -1    0.36    0.16
  -1   8  -1    0.41    0.16
   1  -8   1    0.93    0.26
   1  -8   1    0.20    0.24
   1  -8   1    0.82    0.26
   1  -8   1    0.63    0.25
   1  -8   1   -0.13    0.35
  -2   8  -1   14.04    0.62
  -2   8  -1   12.82    0.64
  -2   8  -1   13.17    0.54
  -2   8  -1   13.85    0.58
  -2   8  -1   13.43    0.62
  -2   8  -1   13.57    0.55
   2  -8   1   12.44    0.71
   2  -8   1   13.23    0.78
   2  -8   1   13.34    0.65
   2  -8   1   13.47    0.74
   2  -8   1   13.08    0.66
   2  -8   1   12.09    0.88
  -3   8  -1    2.13    0.29
  -3   8  -1    1.82    0.19
  -3   8  -1    1.77    0.22
  -3   8  -1    1.76    0.25
  -3   8  -1    2.24    0.23
  -3   8  -1    2.03    0.22
   3  -8   1    2.44    0.27
   3  -8   1    1.77    0.34
   3  -8   1    2.47    0.29
   3  -8   1    2.26    0.36
   3  -8   1    1.62    0.41
   3  -8   1    1.67    0.29
  -4   8  -1    1.69    0.22
  -4   8  -1    1.96    0.21
  -4   8  -1    2.34    0.35
  -4   8  -1    2.16    0.25
  -4   8  -1    1.73    0.29
  -4   8  -1    1.88    0.22
   4  -8   1    1.55    0.39
   4  -8   1    1.97    0.26
   4  -8   1    2.00    0.25
   4  -8   1    2.36    0.40
   4  -8   1    1.61    0.29
  -5   8  -1    1.32    0.18
  -5   8  -1    1.16    0.29
  -5   8  -1    1.04    0.20
  -5   8  -1    1.06    0.13
  -5   8  -1    1.24    0.17
  -5   8  -1    1.22    0.23
  -5   8  -1    0.86    0.21
   5  -8   1    1.69    0.35
   5  -8   1    1.16    0.23
   5  -8   1    1.55    0.31
   5  -8   1    1.72    0.38
   5  -8   1    0.95    0.23
  -6   8  -1    0.23    0.14
  -6   8  -1    0.34    0.14
  -6   8  -1    0.16    0.23
  -6   8  -1    0.40    0.31
   6  -8   1    0.08    0.25
   6  -8   1    0.34    0.34
   6  -8   1    0.29    0.33
   6  -8   1    0.30    0.26
  -7   8  -1    2.60    0.41
  -7   8  -1    1.68    0.23
   7  -8   1    1.44    0.38
   7  -8   1    1.70    0.43
   7  -8   1    1.51    0.42
   7  -8   1    1.89    0.44
  -8   8  -1    1.30    0.24
  -8   8  -1    0.83    0.21
  -8   8  -1    1.14    0.46
   8  -8   1    0.89    0.37
   8  -8   1    0.64    0.46
   8  -8   1    0.25    0.75
  -9   8  -1    1.84    0.56
  -9   8  -1    0.57    0.27
  -9   8  -1    0.46    0.25
   9  -8   1    0.32    0.42
   6   7  -1    1.90    0.51
   6   7  -1    2.05    0.59
   6   7  -1    2.01    0.48
  -6  -7   1    2.68    0.69
  -6  -7   1    2.13    0.48
   5   7  -1    0.54    0.40
   5   7  -1   -0.16    0.38
   5   7  -1    0.13    0.35
  -5  -7   1    0.28    0.32
  -5  -7   1   -0.09    0.46
   4   7  -1    1.98    0.43
   4   7  -1    1.57    0.37
   4   7  -1    1.80    0.36
  -4  -7   1    1.89    0.47
  -4  -7   1    1.89    0.37
   3   7  -1    3.56    0.45
   3   7  -1    4.56    0.52
   3   7  -1    4.45    0.55
   3   7  -1    4.08    0.46
   3   7  -1    4.60    0.56
  -3  -7   1    4.60    0.54
  -3  -7   1    4.63    0.61
  -3  -7   1    4.06    0.58
   2   7  -1   20.22    1.02
   2   7  -1   20.64    0.91
   2   7  -1   20.02    0.90
   2   7  -1   16.61    1.14
   2   7  -1   21.36    0.91
  -2  -7   1   22.08    1.00
  -2  -7   1   21.30    1.00
  -2  -7   1   20.36    1.02
  -2  -7   1   20.30    0.77
   1   7  -1    0.41    0.18
   1   7  -1    0.24    0.19
   1   7  -1    0.25    0.16
   1   7  -1   -0.42    0.29
   1   7  -1    0.06    0.19
   1   7  -1    0.30    0.21
  -1  -7   1    0.02    0.19
  -1  -7   1   -0.03    0.24
  -1  -7   1    0.13    0.16
  -1  -7   1    0.22    0.24
   0   7  -1    0.86    0.16
   0   7  -1    0.74    0.14
   0   7  -1    1.06    0.20
   0   7  -1    0.37    0.20
   0   7  -1    0.62    0.15
   0   7  -1    0.42    0.16
   0  -7   1    0.71    0.23
   0  -7   1    0.69    0.23
   0  -7   1    0.69    0.23
   0  -7   1    0.22    0.26
   0  -7   1    0.92    0.20
  -1   7  -1    0.03    0.11
  -1   7  -1    0.22    0.22
  -1   7  -1    0.01    0.08
  -1   7  -1    0.17    0.10
  -1   7  -1    0.06    0.12
  -1   7  -1    0.19    0.12
  -1   7  -1    0.10    0.17
   1  -7   1    0.00    0.17
   1  -7   1    0.13    0.28
   1  -7   1    0.01    0.13
   1  -7   1    0.08    0.18
   1  -7   1    0.14    0.18
   1  -7   1    0.26    0.19
  -2   7  -1    7.47    0.39
  -2   7  -1    7.68    0.43
  -2   7  -1    5.76    0.48
  -2   7  -1    7.70    0.36
  -2   7  -1    7.25    0.34
  -2   7  -1    7.52    0.40
  -2   7  -1    7.19    0.33
   2  -7   1    7.35    0.41
   2  -7   1    8.03    0.49
   2  -7   1    7.28    0.42
   2  -7   1    7.07    0.34
   2  -7   1    7.25    0.60
   2  -7   1    7.41    0.52
   2  -7   1    7.04    0.48
  -3   7  -1    5.54    0.29
  -3   7  -1    5.31    0.29
  -3   7  -1    5.91    0.31
  -3   7  -1    5.78    0.32
  -3   7  -1    6.30    0.41
  -3   7  -1    5.59    0.39
  -3   7  -1    5.15    0.29
   3  -7   1    5.17    0.56
   3  -7   1    5.58    0.46
   3  -7   1    5.73    0.34
   3  -7   1    5.12    0.34
   3  -7   1    4.94    0.30
   3  -7   1    5.68    0.43
   3  -7   1    5.82    0.49
  -4   7  -1    0.97    0.14
  -4   7  -1    1.43    0.24
  -4   7  -1    0.98    0.12
  -4   7  -1    0.94    0.16
  -4   7  -1    0.87    0.15
  -4   7  -1    1.29    0.20
  -4   7  -1    1.01    0.13
   4  -7   1    0.94    0.28
   4  -7   1    1.03    0.28
   4  -7   1    0.87    0.33
   4  -7   1    1.03    0.17
   4  -7   1    1.01    0.22
   4  -7   1    0.91    0.18
   4  -7   1    1.32    0.19
  -5   7  -1    2.25    0.21
  -5   7  -1    2.43    0.34
  -5   7  -1    1.88    0.23
  -5   7  -1    2.39    0.28
  -5   7  -1    1.85    0.18
  -5   7  -1    1.97    0.25
   5  -7   1    2.25    0.27
   5  -7   1    2.21    0.25
   5  -7   1    2.32    0.33
   5  -7   1    1.88    0.33
   5  -7   1    1.71    0.31
   5  -7   1    2.07    0.38
  -6   7  -1    8.17    0.50
  -6   7  -1    7.94    0.39
  -6   7  -1    7.68    0.50
  -6   7  -1    8.48    0.62
  -6   7  -1    8.37    0.42
   6  -7   1    7.75    0.61
   6  -7   1    8.27    0.66
   6  -7   1    8.28    0.45
   6  -7   1    8.53    0.58
   6  -7   1    9.36    0.61
   6  -7   1    8.60    0.48
  -7   7  -1    1.11    0.20
  -7   7  -1    1.28    0.19
  -7   7  -1    0.48    0.34
   7  -7   1    1.38    0.31
   7  -7   1    1.20    0.25
   7  -7   1    1.34    0.36
   7  -7   1    1.40    0.35
  -8   7  -1    0.35    0.18
  -8   7  -1   -0.34    0.35
   8  -7   1    0.54    0.32
   8  -7   1    0.01    0.37
   8  -7   1    0.38    0.35
  -9   7  -1    8.72    0.61
  -9   7  -1    8.55    0.53
  -9   7  -1    8.41    0.98
   9  -7   1    8.70    0.81
   7   6  -1    0.13    0.42
   6   6  -1    2.99    0.46
   6   6  -1    3.26    0.56
   6   6  -1    2.76    0.48
  -6  -6   1    3.21    0.61
   5   6  -1   -0.19    0.33
   5   6  -1    0.50    0.30
   5   6  -1    0.21    0.30
  -5  -6   1    0.23    0.28
  -5  -6   1   -0.11    0.48
  -5  -6   1    0.61    0.40
   4   6  -1    6.12    0.69
   4   6  -1    6.44    0.54
   4   6  -1    6.69    0.62
   4   6  -1    7.33    0.65
   4   6  -1    7.78    0.59
  -4  -6   1    5.34    0.41
  -4  -6   1    7.38    0.65
  -4  -6   1    7.21    0.56
  -4  -6   1    7.18    0.69
   3   6  -1    6.95    0.54
   3   6  -1    6.40    0.55
   3   6  -1    7.13    0.53
   3   6  -1    6.73    0.53
   3   6  -1    6.12    0.53
   3   6  -1    6.39    0.48
  -3  -6   1    5.64    0.78
  -3  -6   1    7.53    0.59
  -3  -6   1    6.17    0.36
  -3  -6   1    7.70    0.53
   2   6  -1    9.24    0.58
   2   6  -1    9.35    0.59
   2   6  -1    9.05    0.53
   2   6  -1    8.91    0.55
   2   6  -1    8.93    0.54
   2   6  -1    9.36    0.52
  -2  -6   1    8.96    0.41
  -2  -6   1    9.41    0.59
  -2  -6   1    9.97    0.58
  -2  -6   1    9.98    0.62
   1   6  -1   -0.03    0.21
   1   6  -1    0.00    0.13
   1   6  -1    0.07    0.14
   1   6  -1   -0.05    0.21
   1   6  -1    0.30    0.21
   1   6  -1    0.05    0.12
   1   6  -1    0.03    0.20
   1   6  -1    0.08    0.14
   1   6  -1    0.14    0.15
  -1  -6   1    0.02    0.12
  -1  -6   1    0.18    0.15
  -1  -6   1    0.11    0.18
  -1  -6   1    0.21    0.18
  -1  -6   1   -0.03    0.15
  -1  -6   1   -0.36    0.13
   0   6  -1   12.79    0.53
   0   6  -1   12.87    0.63
   0   6  -1   12.34    0.51
   0   6  -1   12.11    0.62
   0   6  -1   12.64    0.54
   0   6  -1   13.07    0.63
   0   6  -1   12.88    0.65
   0   6  -1   12.88    0.71
   0   6  -1   13.43    0.56
   0   6  -1   13.43    0.58
   0  -6   1   11.58    0.59
   0  -6   1   13.01    0.54
   0  -6   1   13.10    0.54
   0  -6   1   12.14    0.74
   0  -6   1   13.49    0.61
   0  -6   1   13.14    0.55
   0  -6   1   13.56    0.67
  -1   6  -1   25.79    1.00
  -1   6  -1   26.12    1.06
  -1   6  -1   25.69    0.95
  -1   6  -1   26.90    1.14
  -1   6  -1   26.27    0.96
  -1   6  -1   26.52    0.91
  -1   6  -1   24.69    0.91
  -1   6  -1   26.33    0.94
  -1   6  -1   24.14    1.01
  -1   6  -1   27.74    1.09
   1  -6   1   25.56    1.16
   1  -6   1   26.31    0.97
   1  -6   1   25.90    0.91
   1  -6   1   26.17    0.97
   1  -6   1   26.10    1.07
   1  -6   1   26.75    0.97
   1  -6   1   26.73    0.92
  -2   6  -1   12.99    0.49
  -2   6  -1   13.87    0.57
  -2   6  -1   12.84    0.50
  -2   6  -1   12.81    0.59
  -2   6  -1   13.45    0.52
  -2   6  -1   12.33    0.63
  -2   6  -1   13.14    0.51
  -2   6  -1   12.47    0.74
  -2   6  -1   13.65    0.63
  -2   6  -1   12.66    0.56
   2  -6   1   13.40    0.66
   2  -6   1   13.35    0.61
   2  -6   1   13.36    0.53
   2  -6   1   13.25    0.62
   2  -6   1   13.66    0.51
   2  -6   1   13.30    0.54
   2  -6   1   12.84    0.49
   2  -6   1   12.15    0.72
  -3   6  -1    6.46    0.35
  -3   6  -1    5.45    0.28
  -3   6  -1    5.29    0.25
  -3   6  -1    5.71    0.37
  -3   6  -1    5.35    0.27
  -3   6  -1    5.09    0.52
  -3   6  -1    5.09    0.27
  -3   6  -1    5.03    0.35
  -3   6  -1    5.46    0.26
   3  -6   1    6.09    0.37
   3  -6   1    7.00    0.50
   3  -6   1    5.12    0.27
   3  -6   1    5.02    0.29
   3  -6   1    4.85    0.40
   3  -6   1    5.04    0.28
   3  -6   1    5.28    0.29
   3  -6   1    4.99    0.42
  -4   6  -1    0.30    0.16
  -4   6  -1    0.20    0.06
  -4   6  -1    0.42    0.08
  -4   6  -1    0.38    0.12
  -4   6  -1    0.26    0.08
  -4   6  -1    0.27    0.34
  -4   6  -1    0.29    0.11
  -4   6  -1    0.22    0.14
  -4   6  -1    0.22    0.11
   4  -6   1    0.17    0.11
   4  -6   1    0.67    0.22
   4  -6   1    0.21    0.16
   4  -6   1    0.30    0.16
   4  -6   1    0.20    0.14
   4  -6   1    0.33    0.10
   4  -6   1    0.30    0.14
   4  -6   1    0.33    0.20
   4  -6   1   -0.01    0.23
  -5   6  -1    2.94    0.22
  -5   6  -1    3.76    0.39
  -5   6  -1    3.11    0.20
  -5   6  -1    3.10    0.29
  -5   6  -1    3.25    0.29
  -5   6  -1    3.06    0.28
   5  -6   1    2.77    0.24
   5  -6   1    2.84    0.27
   5  -6   1    2.43    0.28
   5  -6   1    2.75    0.33
   5  -6   1    3.25    0.39
   5  -6   1    3.71    0.42
   5  -6   1    2.70    0.36
  -6   6  -1    2.41    0.21
  -6   6  -1    2.18    0.32
  -6   6  -1    2.52    0.30
  -6   6  -1    2.66    0.34
   6  -6   1    2.49    0.36
   6  -6   1    2.29    0.28
   6  -6   1    2.22    0.31
   6  -6   1    2.31    0.27
   6  -6   1    3.03    0.39
   6  -6   1    2.04    0.33
  -7   6  -1    4.33    0.52
  -7   6  -1    3.32    0.41
  -7   6  -1    4.17    0.50
  -7   6  -1    3.90    0.32
  -7   6  -1    3.60    0.35
   7  -6   1    4.04    0.47
   7  -6   1    4.32    0.46
   7  -6   1    3.66    0.39
   7  -6   1    3.92    0.46
  -8   6  -1    6.61    0.43
  -8   6  -1    6.81    0.71
  -8   6  -1    6.19    0.48
   8  -6   1    7.43    0.62
   8  -6   1    5.27    0.54
   8  -6   1    6.16    0.59
   8  -6   1    6.00    0.54
  -9   6  -1    3.10    0.41
  -9   6  -1    2.34    0.50
  -9   6  -1    2.22    0.37
   9  -6   1    2.52    0.44
   9  -6   1    2.47    0.49
   7   5  -1   -0.07    0.32
   7   5  -1    0.29    0.48
   7   5  -1   -0.23    0.41
  -7  -5   1    1.07    0.51
   6   5  -1   -0.17    0.32
   6   5  -1    0.19    0.29
   6   5  -1    0.46    0.38
  -6  -5   1    0.16    0.40
  -6  -5   1    0.44    0.26
  -6  -5   1    0.55    0.40
   5   5  -1    5.95    0.83
   5   5  -1    6.32    0.54
   5   5  -1    5.65    0.54
   5   5  -1    5.64    0.68
   5   5  -1    5.06    0.60
  -5  -5   1    6.68    0.48
  -5  -5   1    6.20    0.68
  -5  -5   1    6.03    0.43
  -5  -5   1    4.47    0.58
  -5  -5   1    6.93    0.65
   4   5  -1    4.03    0.52
   4   5  -1    3.72    0.43
   4   5  -1    4.16    0.49
   4   5  -1    3.82    0.46
   4   5  -1    4.70    0.43
   4   5  -1    4.66    0.51
  -4  -5   1    4.45    0.33
  -4  -5   1    4.42    0.35
  -4  -5   1    4.65    0.53
  -4  -5   1    4.29    0.49
  -4  -5   1    3.76    0.39
   3   5  -1   11.97    0.65
   3   5  -1   12.53    0.61
   3   5  -1   11.36    0.64
   3   5  -1   12.04    0.65
   3   5  -1   10.61    0.63
   3   5  -1   10.97    0.61
   3   5  -1   11.94    0.59
  -3  -5   1   12.07    0.65
  -3  -5   1   11.13    0.48
  -3  -5   1   11.48    0.61
   2   5  -1    0.21    0.13
   2   5  -1    0.03    0.14
   2   5  -1    0.07    0.18
   2   5  -1   -0.12    0.17
   2   5  -1    0.40    0.16
   2   5  -1    0.44    0.17
   2   5  -1    0.01    0.16
   2   5  -1    0.38    0.17
  -2  -5   1    0.28    0.17
  -2  -5   1    0.27    0.09
  -2  -5   1    0.02    0.14
  -2  -5   1    0.09    0.19
  -2  -5   1   -0.04    0.13
  -2  -5   1    0.34    0.15
   1   5  -1    2.61    0.29
   1   5  -1    3.19    0.31
   1   5  -1    3.08    0.25
   1   5  -1    2.79    0.31
   1   5  -1    3.08    0.25
   1   5  -1    2.84    0.25
   1   5  -1    2.72    0.33
   1   5  -1    3.00    0.27
   1   5  -1    3.32    0.30
  -1  -5   1    2.99    0.25
  -1  -5   1    3.01    0.30
  -1  -5   1    2.83    0.29
  -1  -5   1    3.38    0.26
  -1  -5   1    2.84    0.19
  -1  -5   1    2.37    0.28
   0   5  -1   18.73    0.78
   0   5  -1   19.91    0.86
   0   5  -1   18.69    0.77
   0   5  -1   19.11    0.72
   0   5  -1   19.14    0.80
   0   5  -1   19.62    0.72
   0   5  -1   19.25    0.71
   0   5  -1   18.67    0.69
   0   5  -1   19.13    0.74
   0  -5   1   19.20    0.71
   0  -5   1   19.02    0.76
   0  -5   1   19.59    0.71
   0  -5   1   19.47    0.75
   0  -5   1   18.81    0.81
   0  -5   1   20.27    0.71
  -1   5  -1   66.28    2.42
  -1   5  -1   70.83    2.33
  -1   5  -1   72.24    2.30
  -1   5  -1   70.95    2.49
  -1   5  -1   71.15    2.31
  -1   5  -1   70.08    2.38
  -1   5  -1   70.88    2.37
  -1   5  -1   69.18    2.33
  -1   5  -1   68.66    2.29
  -1   5  -1   69.86    2.41
   1  -5   1   71.83    2.29
   1  -5   1   74.72    2.53
   1  -5   1   69.86    2.43
   1  -5   1   70.50    2.33
   1  -5   1   70.68    2.33
   1  -5   1   73.06    2.42
   1  -5   1   71.20    2.30
  -2   5  -1    5.99    0.26
  -2   5  -1    6.32    0.33
  -2   5  -1    5.77    0.33
  -2   5  -1    5.99    0.37
  -2   5  -1    6.42    0.31
  -2   5  -1    5.88    0.26
  -2   5  -1    6.45    0.35
  -2   5  -1    5.84    0.26
  -2   5  -1    6.02    0.45
  -2   5  -1    6.13    0.27
   2  -5   1    6.26    0.37
   2  -5   1    5.54    0.45
   2  -5   1    6.31    0.27
   2  -5   1    6.33    0.28
   2  -5   1    6.26    0.28
   2  -5   1    5.91    0.25
   2  -5   1    6.24    0.36
  -3   5  -1   47.85    1.92
  -3   5  -1   52.53    1.72
  -3   5  -1   52.28    1.73
  -3   5  -1   53.91    1.71
  -3   5  -1   60.62    1.80
  -3   5  -1   50.05    1.80
  -3   5  -1   52.82    1.72
  -3   5  -1   51.50    1.73
  -3   5  -1   52.43    1.83
  -3   5  -1   55.04    1.95
   3  -5   1   54.77    1.85
   3  -5   1   53.65    1.75
   3  -5   1   52.32    1.73
   3  -5   1   48.27    1.83
   3  -5   1   52.84    1.72
   3  -5   1   52.66    1.82
   3  -5   1   51.60    1.72
   3  -5   1   47.30    1.89
   3  -5   1   51.30    1.84
  -4   5  -1    7.06    0.34
  -4   5  -1    6.36    0.34
  -4   5  -1    6.78    0.29
  -4   5  -1    7.01    0.31
  -4   5  -1    8.05    0.35
  -4   5  -1    6.42    0.34
  -4   5  -1    6.33    0.54
  -4   5  -1    6.98    0.51
  -4   5  -1    6.63    0.52
  -4   5  -1    6.10    0.39
   4  -5   1    7.08    0.32
   4  -5   1    6.44    0.46
   4  -5   1    6.20    0.40
   4  -5   1    6.82    0.31
   4  -5   1    6.92    0.36
   4  -5   1    7.49    0.40
   4  -5   1    6.62    0.40
   4  -5   1    7.12    0.48
   4  -5   1    6.83    0.37
  -5   5  -1    1.32    0.15
  -5   5  -1    1.42    0.17
  -5   5  -1    1.54    0.33
  -5   5  -1    1.27    0.24
  -5   5  -1    1.42    0.17
  -5   5  -1    1.45    0.20
  -5   5  -1    1.21    0.19
  -5   5  -1    1.46    0.37
   5  -5   1    1.24    0.19
   5  -5   1    1.55    0.23
   5  -5   1    1.73    0.23
   5  -5   1    1.20    0.16
   5  -5   1    1.59    0.23
   5  -5   1    1.34    0.24
   5  -5   1    1.36    0.19
   5  -5   1    1.54    0.36
  -6   5  -1   14.56    0.64
  -6   5  -1   15.59    0.69
  -6   5  -1   16.37    0.80
  -6   5  -1   14.83    0.70
  -6   5  -1   14.10    0.65
  -6   5  -1   14.57    0.60
   6  -5   1   14.88    0.69
   6  -5   1   14.42    0.64
   6  -5   1   14.23    0.70
   6  -5   1   15.23    0.67
   6  -5   1   14.72    0.66
  -7   5  -1    4.64    0.54
  -7   5  -1    5.66    0.41
  -7   5  -1    5.46    0.48
  -7   5  -1    4.88    0.50
   7  -5   1    5.05    0.40
   7  -5   1    5.25    0.45
   7  -5   1    5.28    0.45
   7  -5   1    4.68    0.43
  -8   5  -1   28.61    1.36
  -8   5  -1   29.48    1.21
   8  -5   1   30.53    1.26
   8  -5   1   27.76    1.20
   8  -5   1   28.97    1.23
  -9   5  -1    3.51    0.43
  -9   5  -1    4.59    0.62
   9  -5   1    4.38    0.56
   9  -5   1    3.64    0.49
   9  -5   1    3.16    0.46
 -10   5  -1    2.62    0.71
 -10   5  -1    4.05    0.80
  10  -5   1    2.95    0.53
   8   4  -1    0.96    0.61
   8   4  -1    0.72    0.49
   8   4  -1    1.46    0.40
  -8  -4   1    0.96    0.54
   7   4  -1    2.55    0.38
   7   4  -1    3.91    0.59
   7   4  -1    2.76    0.49
  -7  -4   1    1.89    0.47
  -7  -4   1    2.45    0.58
  -7  -4   1    2.26    0.39
   6   4  -1    1.29    0.34
   6   4  -1    0.90    0.29
   6   4  -1    0.54    0.38
   6   4  -1    1.05    0.39
  -6  -4   1    0.61    0.32
  -6  -4   1    0.67    0.39
  -6  -4   1    1.45    0.30
   5   4  -1    2.51    0.40
   5   4  -1    1.94    0.33
   5   4  -1    2.34    0.41
   5   4  -1    1.82    0.28
  -5  -4   1    3.10    0.32
  -5  -4   1    2.78    0.29
  -5  -4   1    2.35    0.41
  -5  -4   1    2.69    0.40
   4   4  -1    2.65    0.37
   4   4  -1    3.48    0.41
   4   4  -1    3.33    0.44
   4   4  -1    3.36    0.35
   4   4  -1    2.99    0.35
   4   4  -1    3.09    0.38
  -4  -4   1    3.65    0.42
  -4  -4   1    3.71    0.48
  -4  -4   1    3.02    0.31
  -4  -4   1    3.60    0.29
  -4  -4   1    3.12    0.38
  -4  -4   1    3.22    0.45
   3   4  -1    2.00    0.27
   3   4  -1    2.56    0.32
   3   4  -1    2.92    0.32
   3   4  -1    2.72    0.32
   3   4  -1    2.51    0.29
   3   4  -1    2.62    0.32
   3   4  -1    3.14    0.28
   3   4  -1    2.37    0.26
  -3  -4   1    2.92    0.34
  -3  -4   1    2.64    0.32
  -3  -4   1    2.35    0.30
  -3  -4   1    2.78    0.23
  -3  -4   1    2.39    0.27
  -3  -4   1    2.72    0.32
  -3  -4   1    2.53    0.23
   2   4  -1    7.07    0.43
   2   4  -1    7.64    0.44
   2   4  -1    7.49    0.42
   2   4  -1    7.77    0.40
   2   4  -1    7.75    0.42
   2   4  -1    8.25    0.43
   2   4  -1    7.95    0.43
   2   4  -1    9.05    0.44
  -2  -4   1    7.30    0.41
  -2  -4   1    8.16    0.46
  -2  -4   1    8.44    0.44
  -2  -4   1    8.17    0.43
  -2  -4   1    7.34    0.32
  -2  -4   1    7.98    0.41
   1   4  -1   62.50    2.05
   1   4  -1   61.19    2.11
   1   4  -1   63.27    2.10
   1   4  -1   61.59    2.07
   1   4  -1   61.61    2.06
   1   4  -1   59.61    2.09
   1   4  -1   60.85    2.05
   1   4  -1   59.85    2.10
  -1  -4   1   60.09    1.97
  -1  -4   1   61.61    2.11
  -1  -4   1   61.48    2.04
  -1  -4   1   61.12    2.07
  -1  -4   1   59.93    2.05
   0   4  -1   16.34    0.67
   0   4  -1   16.69    0.61
   0   4  -1   17.09    0.61
   0   4  -1   17.64    0.62
   0   4  -1   16.47    0.63
   0   4  -1   16.26    0.59
   0   4  -1   16.05    0.66
   0   4  -1   16.46    0.66
   0   4  -1   17.03    0.72
   0  -4   1   16.53    0.64
   0  -4   1   17.38    0.61
   0  -4   1   16.35    0.63
   0  -4   1   16.34    0.60
   0  -4   1   17.08    0.60
   0  -4   1   17.36    0.70
  -1   4  -1   98.94    3.23
  -1   4  -1  111.65    3.34
  -1   4  -1   99.21    3.22
  -1   4  -1  103.27    3.32
  -1   4  -1   99.73    3.22
  -1   4  -1  100.20    3.37
  -1   4  -1  100.80    3.29
  -1   4  -1   99.88    3.21
   1  -4   1  105.17    3.27
   1  -4   1   95.64    3.39
   1  -4   1   97.95    3.21
   1  -4   1   98.36    3.23
   1  -4   1   99.88    3.31
   1  -4   1   99.05    3.33
   1  -4   1  101.33    3.21
   1  -4   1   97.47    3.24
  -2   4  -1   29.00    0.98
  -2   4  -1   28.56    1.06
  -2   4  -1   29.01    1.01
  -2   4  -1   30.48    1.07
  -2   4  -1   29.50    1.05
  -2   4  -1   28.84    1.14
  -2   4  -1   29.87    1.05
  -2   4  -1   30.46    0.97
  -2   4  -1   28.81    1.14
  -2   4  -1   29.63    0.98
  -2   4  -1   30.78    0.98
   2  -4   1   29.87    0.99
   2  -4   1   28.13    1.06
   2  -4   1   29.08    0.98
   2  -4   1   30.13    1.15
   2  -4   1   30.85    1.10
   2  -4   1   29.60    1.09
   2  -4   1   28.83    1.06
   2  -4   1   28.91    0.98
  -3   4  -1   22.75    0.75
  -3   4  -1   24.22    0.82
  -3   4  -1   20.96    0.94
  -3   4  -1   21.97    0.79
  -3   4  -1   22.26    0.76
  -3   4  -1   23.23    0.81
  -3   4  -1   23.44    0.96
  -3   4  -1   22.50    0.88
  -3   4  -1   21.81    0.84
  -3   4  -1   22.03    0.79
   3  -4   1   22.73    0.81
   3  -4   1   22.76    0.89
   3  -4   1   22.21    0.77
   3  -4   1   22.68    0.79
   3  -4   1   23.07    0.85
   3  -4   1   23.99    0.92
   3  -4   1   22.84    0.78
   3  -4   1   20.86    0.85
   3  -4   1   22.52    0.86
  -4   4  -1   14.66    0.56
  -4   4  -1   14.32    0.58
  -4   4  -1   15.23    0.61
  -4   4  -1   14.10    0.57
  -4   4  -1   14.73    0.66
  -4   4  -1   14.61    0.53
  -4   4  -1   14.50    0.56
  -4   4  -1   15.08    0.71
   4  -4   1   14.02    0.54
   4  -4   1   14.40    0.66
   4  -4   1   13.54    0.60
   4  -4   1   13.37    0.59
   4  -4   1   14.39    0.59
   4  -4   1   14.28    0.58
   4  -4   1   15.01    0.57
   4  -4   1   13.97    0.60
   4  -4   1   13.79    0.67
  -5   4  -1   17.41    0.80
  -5   4  -1   16.31    0.81
  -5   4  -1   17.77    0.85
  -5   4  -1   16.77    0.68
  -5   4  -1   17.46    0.72
  -5   4  -1   17.67    0.73
  -5   4  -1   17.65    0.70
   5  -4   1   17.34    0.71
   5  -4   1   15.98    0.81
   5  -4   1   17.57    0.70
   5  -4   1   19.99    0.73
   5  -4   1   17.75    0.76
   5  -4   1   17.29    0.76
   5  -4   1   18.74    0.74
   5  -4   1   16.52    0.73
  -6   4  -1   22.13    0.90
  -6   4  -1   22.35    1.00
  -6   4  -1   22.97    1.02
  -6   4  -1   23.12    0.86
  -6   4  -1   22.11    0.91
  -6   4  -1   21.44    0.86
  -6   4  -1   22.80    0.94
  -6   4  -1   20.06    1.04
   6  -4   1   22.45    0.89
   6  -4   1   21.58    0.92
   6  -4   1   22.42    0.84
  -7   4  -1   12.11    0.63
  -7   4  -1   10.79    0.66
  -7   4  -1   10.59    0.56
  -7   4  -1   10.09    0.71
  -7   4  -1   10.60    0.56
  -7   4  -1   11.08    0.73
  -7   4  -1   10.07    0.65
   7  -4   1   10.82    0.61
   7  -4   1   11.20    0.63
   7  -4   1   11.77    0.86
   7  -4   1   11.25    0.51
   7  -4   1   11.10    0.57
  -8   4  -1    6.98    0.48
  -8   4  -1    7.40    0.77
  -8   4  -1    6.80    0.69
  -8   4  -1    6.99    0.55
   8  -4   1    7.17    0.59
   8  -4   1    5.93    0.54
   8  -4   1    6.87    0.50
  -9   4  -1    9.39    0.63
  -9   4  -1    9.38    0.71
  -9   4  -1    8.52    0.86
   9  -4   1    8.93    0.67
   9  -4   1    8.99    0.78
   9  -4   1    9.64    0.72
 -10   4  -1    1.09    0.60
 -10   4  -1    0.33    0.37
 -10   4  -1    1.16    0.45
  10  -4   1    0.75    0.42
  10  -4   1    0.32    0.43
   8   3  -1    1.48    0.53
   8   3  -1    1.64    0.36
   8   3  -1    2.07    0.48
  -8  -3   1    1.62    0.57
  -8  -3   1    1.49    0.45
  -8  -3   1    2.44    0.53
   7   3  -1    0.51    0.36
   7   3  -1    0.68    0.33
   7   3  -1    0.36    0.25
  -7  -3   1    0.25    0.39
  -7  -3   1    0.16    0.38
  -7  -3   1    0.66    0.30
   6   3  -1    7.31    0.52
   6   3  -1    8.03    0.64
   6   3  -1    7.00    0.57
   6   3  -1    7.13    0.68
   6   3  -1    6.93    0.53
  -6  -3   1    6.62    0.51
  -6  -3   1    6.89    0.65
  -6  -3   1    6.73    0.61
   5   3  -1    0.27    0.28
   5   3  -1   -0.06    0.19
   5   3  -1    0.26    0.24
   5   3  -1    0.10    0.17
   5   3  -1    0.06    0.16
   5   3  -1    0.09    0.20
  -5  -3   1    0.15    0.22
  -5  -3   1   -0.33    0.22
  -5  -3   1   -0.09    0.15
  -5  -3   1    0.04    0.23
   4   3  -1    0.09    0.18
   4   3  -1    0.14    0.15
   4   3  -1    0.20    0.16
   4   3  -1    0.37    0.18
   4   3  -1    0.28    0.18
   4   3  -1    0.38    0.17
   4   3  -1    0.27    0.14
  -4  -3   1    0.24    0.18
  -4  -3   1    0.45    0.13
  -4  -3   1    0.28    0.18
  -4  -3   1    0.09    0.17
  -4  -3   1    0.57    0.15
  -4  -3   1    0.10    0.16
  -4  -3   1    0.51    0.19
   3   3  -1    0.99    0.18
   3   3  -1    0.40    0.13
   3   3  -1    0.69    0.17
   3   3  -1    0.82    0.17
   3   3  -1    0.92    0.19
   3   3  -1    0.63    0.15
   3   3  -1    0.68    0.15
  -3  -3   1    0.63    0.12
  -3  -3   1    0.78    0.17
  -3  -3   1    0.45    0.15
  -3  -3   1    0.70    0.17
  -3  -3   1    0.87    0.15
  -3  -3   1    0.93    0.14
  -3  -3   1    0.79    0.17
   2   3  -1    0.26    0.11
   2   3  -1    0.24    0.10
   2   3  -1    0.32    0.10
   2   3  -1    0.16    0.09
   2   3  -1    0.26    0.11
   2   3  -1    0.30    0.12
   2   3  -1    0.13    0.09
  -2  -3   1    0.14    0.10
  -2  -3   1    0.06    0.10
  -2  -3   1    0.30    0.12
  -2  -3   1    0.21    0.10
  -2  -3   1    0.30    0.07
  -2  -3   1    0.15    0.10
  -2  -3   1    0.17    0.10
  -2  -3   1    0.20    0.13
   1   3  -1   48.43    1.63
   1   3  -1   48.83    1.67
   1   3  -1   48.90    1.65
   1   3  -1   49.81    1.64
   1   3  -1   48.98    1.65
   1   3  -1   43.98    1.66
  -1  -3   1   48.44    1.64
  -1  -3   1   48.82    1.63
  -1  -3   1   52.17    1.68
  -1  -3   1   48.05    1.68
  -1  -3   1   48.12    1.57
  -1  -3   1   50.42    1.65
   0   3  -1  102.58    3.77
   0   3  -1  105.73    3.80
   0   3  -1  117.66    3.70
   0   3  -1  112.31    3.71
   0   3  -1  122.60    3.80
   0   3  -1  118.86    3.68
   0   3  -1  117.04    3.75
   0   3  -1  118.13    3.72
   0   3  -1  116.66    3.71
   0  -3   1  115.80    3.70
   0  -3   1  116.01    3.72
   0  -3   1  119.22    3.69
   0  -3   1  117.65    3.71
   0  -3   1  115.79    3.77
   0  -3   1  118.50    3.79
  -1   3  -1   34.80    1.26
  -1   3  -1   32.81    1.17
  -1   3  -1   34.01    1.12
  -1   3  -1   35.61    1.13
  -1   3  -1   34.33    1.23
  -1   3  -1   32.68    1.20
  -1   3  -1   34.20    1.13
  -1   3  -1   34.50    1.12
  -1   3  -1   34.62    1.25
   1  -3   1   35.55    1.14
   1  -3   1   34.42    1.22
   1  -3   1   35.74    1.20
   1  -3   1   34.53    1.21
   1  -3   1   35.33    1.12
   1  -3   1   35.42    1.18
   1  -3   1   36.43    1.26
   1  -3   1   35.37    1.13
  -2   3  -1   19.85    0.78
  -2   3  -1   18.51    0.69
  -2   3  -1   18.45    0.65
  -2   3  -1   20.01    0.71
  -2   3  -1   19.05    0.65
  -2   3  -1   20.31    0.78
  -2   3  -1   18.23    0.72
  -2   3  -1   19.08    0.65
  -2   3  -1   17.72    0.69
  -2   3  -1   19.26    0.65
   2  -3   1   19.24    0.65
   2  -3   1   19.65    0.72
   2  -3   1   19.11    0.66
   2  -3   1   19.49    0.72
   2  -3   1   19.78    0.71
   2  -3   1   19.76    0.64
  -3   3  -1   69.19    2.35
  -3   3  -1   73.45    2.44
  -3   3  -1   70.69    2.35
  -3   3  -1   74.74    2.44
  -3   3  -1   73.78    2.41
  -3   3  -1   68.40    2.32
  -3   3  -1   70.78    2.33
  -3   3  -1   71.26    2.33
   3  -3   1   72.89    2.33
   3  -3   1   69.53    2.31
   3  -3   1   70.17    2.32
   3  -3   1   72.67    2.36
   3  -3   1   70.26    2.41
   3  -3   1   67.47    2.35
   3  -3   1   71.85    2.40
   3  -3   1   72.66    2.34
  -4   3  -1   51.35    1.66
  -4   3  -1   50.36    1.77
  -4   3  -1   48.99    1.70
  -4   3  -1   57.16    1.81
  -4   3  -1   50.12    1.66
  -4   3  -1   48.50    1.69
  -4   3  -1   49.91    1.69
  -4   3  -1   48.77    1.76
   4  -3   1   48.42    1.66
   4  -3   1   50.07    1.71
   4  -3   1   48.53    1.68
   4  -3   1   49.07    1.70
   4  -3   1   49.21    1.77
   4  -3   1   48.45    1.70
   4  -3   1   45.93    1.67
  -5   3  -1   15.79    0.64
  -5   3  -1   15.18    0.74
  -5   3  -1   15.27    0.72
  -5   3  -1   15.87    0.69
  -5   3  -1   15.72    0.67
  -5   3  -1   15.62    0.73
  -5   3  -1   16.03    0.63
  -5   3  -1   15.98    0.67
   5  -3   1   15.33    0.60
   5  -3   1   18.64    0.66
   5  -3   1   16.38    0.67
   5  -3   1   16.04    0.61
   5  -3   1   15.27    0.70
   5  -3   1   15.21    0.66
   5  -3   1   15.17    0.71
  -6   3  -1    7.30    0.40
  -6   3  -1    6.34    0.53
  -6   3  -1    7.12    0.48
  -6   3  -1    6.95    0.51
  -6   3  -1    6.75    0.41
  -6   3  -1    7.02    0.47
  -6   3  -1    6.71    0.48
  -6   3  -1    7.42    0.45
   6  -3   1    6.94    0.45
   6  -3   1    7.31    0.36
   6  -3   1    7.51    0.40
   6  -3   1    7.13    0.45
   6  -3   1    7.21    0.32
   6  -3   1    7.45    0.44
  -7   3  -1   18.82    0.99
  -7   3  -1   17.53    0.85
  -7   3  -1   17.75    0.91
  -7   3  -1   17.56    0.91
  -7   3  -1   18.08    0.78
  -7   3  -1   17.54    0.89
  -7   3  -1   19.44    0.89
   7  -3   1   18.78    0.74
   7  -3   1   19.25    0.87
   7  -3   1   19.83    0.86
   7  -3   1   16.51    0.77
   7  -3   1   19.19    0.89
  -8   3  -1    0.48    0.34
  -8   3  -1    0.82    0.31
  -8   3  -1    0.28    0.37
  -8   3  -1    0.21    0.23
   8  -3   1    0.95    0.28
   8  -3   1    1.02    0.22
   8  -3   1    0.61    0.24
   8  -3   1    1.27    0.35
  -9   3  -1    5.78    0.67
  -9   3  -1    5.65    0.57
  -9   3  -1    5.13    0.63
   9  -3   1    5.53    0.60
   9  -3   1    5.93    0.48
   9  -3   1    4.85    0.65
 -10   3  -1    2.50    0.54
 -10   3  -1    1.58    0.43
 -10   3  -1    0.20    0.54
  10  -3   1    1.49    0.59
  10  -3   1    2.03    0.48
  10  -3   1    2.19    0.46
   9   2  -1    2.24    0.43
   9   2  -1    3.08    0.57
   9   2  -1    2.00    0.60
  -9  -2   1    1.36    0.50
  -9  -2   1    1.65    0.61
  -9  -2   1    2.77    0.60
   8   2  -1    0.70    0.31
   8   2  -1    0.17    0.70
   8   2  -1    0.54    0.39
  -8  -2   1   -0.10    0.33
  -8  -2   1    0.63    0.40
  -8  -2   1    0.80    0.45
   7   2  -1    0.49    0.31
   7   2  -1    0.06    0.20
   7   2  -1    0.33    0.31
  -7  -2   1   -0.13    0.29
  -7  -2   1   -0.12    0.27
  -7  -2   1   -0.05    0.33
   6   2  -1    0.30    0.18
   6   2  -1    0.05    0.28
   6   2  -1    0.18    0.22
   6   2  -1    0.09    0.24
   6   2  -1    0.15    0.21
  -6  -2   1    0.25    0.21
  -6  -2   1    0.17    0.25
  -6  -2   1   -0.09    0.26
  -6  -2   1    0.42    0.28
   5   2  -1    4.12    0.42
   5   2  -1    4.46    0.43
   5   2  -1    4.53    0.44
   5   2  -1    4.38    0.34
   5   2  -1    4.31    0.37
   5   2  -1    4.18    0.33
   5   2  -1    3.80    0.45
  -5  -2   1    3.91    0.39
  -5  -2   1    4.26    0.34
  -5  -2   1    4.38    0.43
  -5  -2   1    3.67    0.41
  -5  -2   1    4.34    0.44
  -5  -2   1    4.90    0.41
   4   2  -1    0.40    0.15
   4   2  -1    0.42    0.17
   4   2  -1    0.41    0.17
   4   2  -1    0.60    0.14
   4   2  -1    0.46    0.15
   4   2  -1    0.45    0.13
  -4  -2   1    0.48    0.16
  -4  -2   1    0.48    0.18
  -4  -2   1    0.21    0.12
  -4  -2   1    0.57    0.10
  -4  -2   1    0.29    0.15
  -4  -2   1    0.60    0.17
  -4  -2   1    0.57    0.16
   3   2  -1   64.69    2.22
   3   2  -1   65.13    2.24
   3   2  -1   68.07    2.26
   3   2  -1   65.76    2.24
   3   2  -1   62.13    2.21
  -3  -2   1   66.45    2.25
  -3  -2   1   65.04    2.22
  -3  -2   1   65.10    2.18
  -3  -2   1   64.25    2.16
  -3  -2   1   68.19    2.24
  -3  -2   1   64.54    2.22
  -3  -2   1   67.50    2.15
   2   2  -1    0.30    0.09
   2   2  -1    0.34    0.09
   2   2  -1    0.47    0.09
   2   2  -1    0.30    0.10
   2   2  -1    0.19    0.09
   2   2  -1    0.28    0.10
   2   2  -1    0.27    0.08
  -2  -2   1    0.21    0.08
  -2  -2   1    0.21    0.09
  -2  -2   1    0.14    0.08
  -2  -2   1    0.18    0.09
  -2  -2   1    0.32    0.08
  -2  -2   1    0.09    0.07
  -2  -2   1    0.19    0.05
   1   2  -1    9.59    0.39
   1   2  -1    9.49    0.40
   1   2  -1   10.01    0.38
   1   2  -1    9.66    0.40
   1   2  -1    8.20    0.41
   1   2  -1    9.63    0.39
  -1  -2   1    9.45    0.38
  -1  -2   1    9.39    0.39
  -1  -2   1    9.60    0.38
  -1  -2   1    9.80    0.40
  -1  -2   1    9.38    0.37
  -1  -2   1    9.81    0.40
  -1  -2   1    9.94    0.32
   0   2  -1    5.28    0.21
   0   2  -1    5.36    0.24
   0   2  -1    5.11    0.21
   0   2  -1    4.91    0.20
   0   2  -1    5.06    0.19
   0   2  -1    5.30    0.25
   0   2  -1    5.03    0.25
   0   2  -1    5.35    0.20
   0   2  -1    5.26    0.26
   0  -2   1    5.25    0.20
   0  -2   1    5.32    0.27
   0  -2   1    5.50    0.26
   0  -2   1    5.23    0.20
   0  -2   1    5.15    0.21
   0  -2   1    5.06    0.20
   0  -2   1    5.41    0.25
  -1   2  -1   76.43    2.47
  -1   2  -1   74.03    2.46
  -1   2  -1   76.34    2.51
  -1   2  -1   74.66    2.41
  -1   2  -1   84.79    2.52
  -1   2  -1   76.45    2.41
  -1   2  -1   72.51    2.41
  -1   2  -1   72.75    2.45
  -1   2  -1   74.97    2.41
  -1   2  -1   83.11    2.47
   1  -2   1   72.24    2.41
   1  -2   1   73.11    2.46
   1  -2   1   76.29    2.51
   1  -2   1   72.57    2.41
   1  -2   1   75.63    2.46
   1  -2   1   76.63    2.42
   1  -2   1   82.20    2.49
   1  -2   1   75.99    2.47
  -2   2  -1  155.29    4.98
  -2   2  -1  150.55    4.99
  -2   2  -1  160.72    4.97
  -2   2  -1  167.08    4.97
  -2   2  -1  151.55    5.02
  -2   2  -1  155.54    4.98
  -2   2  -1  151.70    4.96
  -2   2  -1  153.75    4.97
  -2   2  -1  163.41    5.05
   2  -2   1  151.92    4.97
   2  -2   1  157.43    4.97
   2  -2   1  165.13    5.04
   2  -2   1  157.11    4.97
   2  -2   1  149.25    4.98
   2  -2   1  154.53    5.02
   2  -2   1  153.99    4.99
   2  -2   1  157.82    4.98
  -3   2  -1   27.09    1.01
  -3   2  -1   27.13    0.93
  -3   2  -1   27.25    0.97
  -3   2  -1   27.36    0.95
  -3   2  -1   26.52    0.96
  -3   2  -1   26.98    0.97
  -3   2  -1   27.58    1.01
  -3   2  -1   27.06    1.01
   3  -2   1   27.76    0.98
   3  -2   1   26.92    0.98
   3  -2   1   27.64    0.93
   3  -2   1   27.12    0.97
   3  -2   1   28.21    0.97
   3  -2   1   30.39    0.96
   3  -2   1   26.90    0.93
   3  -2   1   27.30    1.01
  -4   2  -1   37.04    1.32
  -4   2  -1   36.43    1.33
  -4   2  -1   35.95    1.26
  -4   2  -1   36.74    1.30
  -4   2  -1   37.85    1.23
  -4   2  -1   35.44    1.29
  -4   2  -1   36.51    1.29
  -4   2  -1   37.09    1.28
   4  -2   1   35.82    1.19
   4  -2   1   37.69    1.22
   4  -2   1   36.29    1.27
   4  -2   1   33.76    1.32
   4  -2   1   36.02    1.30
   4  -2   1   35.42    1.29
   4  -2   1   34.19    1.26
   4  -2   1   35.78    1.16
  -5   2  -1   30.45    1.20
  -5   2  -1   31.62    1.12
  -5   2  -1   31.52    1.18
  -5   2  -1   33.57    1.23
  -5   2  -1   30.85    1.24
  -5   2  -1   33.31    1.17
  -5   2  -1   31.27    1.20
  -5   2  -1   31.46    1.17
   5  -2   1   31.19    1.21
   5  -2   1   31.55    1.22
   5  -2   1   33.63    1.17
   5  -2   1   30.84    1.18
   5  -2   1   31.27    1.18
   5  -2   1   31.17    1.04
   5  -2   1   33.39    1.11
  -6   2  -1   23.44    0.97
  -6   2  -1   26.04    1.05
  -6   2  -1   25.48    0.94
  -6   2  -1   23.32    1.03
  -6   2  -1   24.08    1.05
  -6   2  -1   24.28    1.02
  -6   2  -1   24.19    1.01
  -6   2  -1   23.62    0.95
   6  -2   1   24.15    1.00
   6  -2   1   23.73    0.90
   6  -2   1   25.72    0.98
   6  -2   1   25.30    1.02
   6  -2   1   24.16    0.83
  -7   2  -1    3.60    0.39
  -7   2  -1    4.78    0.39
  -7   2  -1    4.45    0.46
  -7   2  -1    5.18    0.50
  -7   2  -1    4.14    0.50
   7  -2   1    4.91    0.54
   7  -2   1    3.93    0.39
   7  -2   1    4.82    0.33
   7  -2   1    3.58    0.29
   7  -2   1    3.61    0.44
  -8   2  -1    4.14    0.47
  -8   2  -1    4.86    0.63
  -8   2  -1    3.45    0.45
   8  -2   1    4.50    0.48
   8  -2   1    4.77    0.38
   8  -2   1    4.30    0.50
   8  -2   1    3.65    0.47
  -9   2  -1    1.74    0.38
  -9   2  -1    2.17    0.49
  -9   2  -1    1.17    0.37
   9  -2   1    1.10    0.30
   9  -2   1    1.19    0.36
   9  -2   1    0.94    0.47
 -10   2  -1    3.17    0.63
 -10   2  -1    3.20    0.70
  10  -2   1    4.36    0.71
  10  -2   1    2.88    0.54
   9   1  -1    0.51    0.32
   9   1  -1    0.29    0.64
   9   1  -1    0.53    0.44
  -9  -1   1    1.37    0.52
  -9  -1   1    0.92    0.45
  -9  -1   1    1.49    0.46
   8   1  -1    1.11    0.40
   8   1  -1    1.81    0.40
   8   1  -1    0.94    0.28
  -8  -1   1    1.08    0.36
  -8  -1   1    1.19    0.40
  -8  -1   1    0.54    0.38
   7   1  -1   11.03    0.60
   7   1  -1    9.59    0.51
   7   1  -1   10.04    0.75
   7   1  -1   10.90    0.74
  -7  -1   1   10.46    0.69
  -7  -1   1   10.36    0.67
  -7  -1   1    9.88    0.80
  -7  -1   1   10.97    0.77
   6   1  -1    0.91    0.18
   6   1  -1    0.47    0.26
   6   1  -1    1.27    0.28
   6   1  -1    0.80    0.24
   6   1  -1    0.94    0.24
  -6  -1   1    1.04    0.25
  -6  -1   1    0.88    0.28
  -6  -1   1    1.44    0.33
  -6  -1   1    0.86    0.27
  -6  -1   1    0.89    0.23
   5   1  -1    8.50    0.44
   5   1  -1    8.79    0.55
   5   1  -1    8.44    0.48
   5   1  -1    8.21    0.55
   5   1  -1    9.14    0.52
   5   1  -1    8.16    0.48
   5   1  -1    8.24    0.41
  -5  -1   1    7.67    0.51
  -5  -1   1    7.76    0.34
  -5  -1   1    8.57    0.50
  -5  -1   1    9.37    0.55
  -5  -1   1    8.52    0.53
  -5  -1   1    8.62    0.46
  -5  -1   1    8.11    0.48
   4   1  -1    1.10    0.20
   4   1  -1    1.48    0.22
   4   1  -1    1.00    0.15
   4   1  -1    1.40    0.22
   4   1  -1    1.26    0.15
   4   1  -1    1.31    0.20
  -4  -1   1    1.58    0.20
  -4  -1   1    1.73    0.23
  -4  -1   1    1.51    0.13
  -4  -1   1    1.60    0.23
  -4  -1   1    1.42    0.20
  -4  -1   1    1.75    0.19
  -4  -1   1    1.05    0.21
   3   1  -1    0.20    0.09
   3   1  -1    0.11    0.08
   3   1  -1    0.13    0.07
   3   1  -1    0.17    0.08
   3   1  -1    0.27    0.12
   3   1  -1    0.08    0.10
  -3  -1   1    0.19    0.10
  -3  -1   1    0.10    0.08
  -3  -1   1    0.30    0.11
  -3  -1   1    0.33    0.07
  -3  -1   1    0.23    0.09
   2   1  -1   35.54    1.26
   2   1  -1   36.42    1.28
   2   1  -1   36.79    1.24
   2   1  -1   37.05    1.27
   2   1  -1   35.66    1.27
   2   1  -1   36.57    1.26
  -2  -1   1   35.74    1.26
  -2  -1   1   36.76    1.26
  -2  -1   1   38.69    1.26
  -2  -1   1   38.29    1.28
  -2  -1   1   39.34    1.23
  -2  -1   1   37.39    1.23
  -2  -1   1   36.74    1.28
   1   1  -1   30.91    0.99
   1   1  -1   31.06    1.03
   1   1  -1   31.44    1.03
   1   1  -1   29.85    1.02
   1   1  -1   31.91    1.03
   1   1  -1   30.81    1.04
   1   1  -1   30.72    1.04
   1   1  -1   28.76    1.03
  -1  -1   1   31.86    0.99
  -1  -1   1   32.88    1.04
  -1  -1   1   31.31    1.03
  -1  -1   1   30.66    1.03
  -1  -1   1   30.58    1.03
  -1  -1   1   29.97    1.03
  -1  -1   1   31.10    1.03
  -1  -1   1   29.77    1.04
   0   1  -1   92.91    3.02
   0   1  -1   92.54    3.04
   0   1  -1   96.14    3.02
   0   1  -1   95.74    3.03
   0   1  -1   96.14    3.03
   0   1  -1   96.67    3.06
   0   1  -1   91.84    3.04
   0   1  -1   94.68    3.06
   0   1  -1   98.80    3.06
   0  -1   1   94.81    3.02
   0  -1   1   96.35    3.06
   0  -1   1   93.51    3.06
   0  -1   1   93.29    3.02
   0  -1   1   96.89    3.05
   0  -1   1   98.27    3.03
   0  -1   1   95.54    3.04
   0  -1   1   96.36    3.06
  -1   1  -1  147.58    4.84
  -1   1  -1  158.69    4.85
  -1   1  -1  153.21    4.87
  -1   1  -1  156.28    4.88
  -1   1  -1  150.36    4.84
  -1   1  -1  133.30    4.87
  -1   1  -1  150.09    4.85
  -1   1  -1  175.20    5.01
  -1   1  -1  151.04    4.86
  -1   1  -1  148.81    4.84
  -1   1  -1  150.77    4.85
   1  -1   1  151.71    4.88
   1  -1   1  149.71    4.84
   1  -1   1  157.88    4.84
   1  -1   1  149.88    4.84
   1  -1   1  154.34    4.91
   1  -1   1  150.30    4.86
   1  -1   1  155.24    4.86
   1  -1   1  164.97    4.95
   1  -1   1  149.12    4.88
  -2   1  -1  158.53    4.84
  -2   1  -1  147.74    4.81
  -2   1  -1  144.21    4.78
  -2   1  -1  150.02    4.82
  -2   1  -1  151.82    4.81
  -2   1  -1  148.14    4.77
  -2   1  -1  153.11    4.82
   2  -1   1  149.57    4.77
   2  -1   1  151.54    4.82
   2  -1   1  154.44    4.82
   2  -1   1  148.37    4.79
   2  -1   1  152.51    4.79
   2  -1   1  148.56    4.81
   2  -1   1  151.30    4.81
  -3   1  -1    6.30    0.31
  -3   1  -1    5.88    0.25
  -3   1  -1    5.81    0.30
  -3   1  -1    5.91    0.29
  -3   1  -1    6.04    0.28
  -3   1  -1    5.78    0.31
  -3   1  -1    5.67    0.29
   3  -1   1    5.55    0.22
   3  -1   1    6.24    0.30
   3  -1   1    5.96    0.31
   3  -1   1    5.56    0.31
   3  -1   1    5.48    0.29
   3  -1   1    5.31    0.24
  -4   1  -1   21.40    0.88
  -4   1  -1   22.90    0.88
  -4   1  -1   23.10    0.81
  -4   1  -1   22.12    0.86
  -4   1  -1   21.83    0.87
  -4   1  -1   22.53    0.85
   4  -1   1   22.71    0.77
   4  -1   1   22.80    0.87
   4  -1   1   22.19    0.88
   4  -1   1   21.31    0.78
   4  -1   1   21.49    0.87
   4  -1   1   22.54    0.85
  -5   1  -1    1.09    0.16
  -5   1  -1    1.22    0.22
  -5   1  -1    1.24    0.20
  -5   1  -1    1.43    0.18
  -5   1  -1    1.21    0.20
  -5   1  -1    1.11    0.21
  -5   1  -1    1.32    0.23
   5  -1   1    1.02    0.23
   5  -1   1    1.33    0.16
   5  -1   1    1.77    0.27
   5  -1   1    1.21    0.23
   5  -1   1    1.00    0.19
   5  -1   1    1.28    0.15
  -6   1  -1    1.92    0.29
  -6   1  -1    1.64    0.25
  -6   1  -1    1.54    0.20
  -6   1  -1    1.69    0.29
  -6   1  -1    1.76    0.29
  -6   1  -1    1.87    0.23
   6  -1   1    1.84    0.28
   6  -1   1    1.64    0.29
   6  -1   1    1.51    0.21
   6  -1   1    1.59    0.19
  -7   1  -1    4.07    0.43
  -7   1  -1    4.22    0.42
  -7   1  -1    4.34    0.51
  -7   1  -1    3.33    0.45
  -7   1  -1    3.73    0.49
  -7   1  -1    3.84    0.47
   7  -1   1    4.43    0.52
   7  -1   1    3.50    0.31
   7  -1   1    4.30    0.46
   7  -1   1    3.77    0.33
  -8   1  -1   -0.24    0.25
  -8   1  -1   -0.38    0.32
  -8   1  -1    0.17    0.33
   8  -1   1    0.46    0.21
   8  -1   1    0.59    0.35
   8  -1   1    0.58    0.35
  -9   1  -1    1.32    0.41
  -9   1  -1    1.00    0.44
  -9   1  -1    1.27    0.43
   9  -1   1    1.33    0.29
   9  -1   1    0.41    0.47
   9   0  -1    2.16    0.38
   9   0  -1    2.07    0.50
   9   0  -1    2.32    0.58
  -9   0   1    2.58    0.46
  -9   0   1    2.50    0.46
  -9   0   1    3.32    0.54
   8   0  -1    2.31    0.42
   8   0  -1    2.14    0.43
  -8   0   1    2.86    0.42
  -8   0   1    1.96    0.40
   7   0  -1    0.16    0.27
   7   0  -1    0.55    0.27
   7   0  -1    0.22    0.24
   7   0  -1    0.25    0.17
   7   0  -1   -0.03    0.16
  -7   0   1    0.04    0.24
  -7   0   1    0.55    0.31
  -7   0   1    0.04    0.14
  -7   0   1    0.50    0.25
  -7   0   1   -0.07    0.34
   6   0  -1    6.76    0.44
   6   0  -1    7.33    0.51
   6   0  -1    6.45    0.37
   6   0  -1    7.15    0.47
   6   0  -1    6.72    0.55
   6   0  -1    6.94    0.40
  -6   0   1    6.53    0.52
  -6   0   1    7.01    0.55
  -6   0   1    6.66    0.47
  -6   0   1    6.91    0.51
  -6   0   1    7.55    0.48
  -6   0   1    6.68    0.48
   5   0  -1    1.66    0.24
   5   0  -1    1.28    0.20
   5   0  -1    0.94    0.16
   5   0  -1    1.23    0.16
   5   0  -1    1.69    0.28
   5   0  -1    0.95    0.23
  -5   0   1    1.44    0.20
  -5   0   1    1.50    0.22
  -5   0   1    1.07    0.20
  -5   0   1    1.42    0.26
  -5   0   1    1.41    0.22
  -5   0   1    1.53    0.22
   4   0  -1  107.85    3.34
   4   0  -1   96.40    3.20
   4   0  -1  102.24    3.25
   4   0  -1   99.14    3.28
   4   0  -1   98.70    3.30
   4   0  -1  101.95    3.28
   4   0  -1  100.44    3.30
  -4   0   1  101.23    3.31
  -4   0   1   86.93    3.36
  -4   0   1   99.39    3.29
  -4   0   1   97.49    3.28
  -4   0   1   99.88    3.28
  -4   0   1   96.81    3.26
   3   0  -1   11.62    0.46
   3   0  -1   11.61    0.49
   3   0  -1   10.47    0.47
   3   0  -1   10.54    0.43
   3   0  -1    9.87    0.46
   3   0  -1   10.31    0.45
  -3   0   1   10.47    0.47
  -3   0   1   11.70    0.46
  -3   0   1   10.72    0.46
  -3   0   1   11.31    0.47
  -3   0   1   11.03    0.48
  -3   0   1   10.83    0.44
   2   0  -1   26.06    0.91
   2   0  -1   26.20    0.92
   2   0  -1   25.82    0.92
   2   0  -1   27.07    0.90
   2   0  -1   27.56    0.93
   2   0  -1   26.42    0.91
  -2   0   1   26.02    0.91
  -2   0   1   26.45    0.93
  -2   0   1   26.47    0.90
  -2   0   1   26.74    0.92
  -2   0   1   26.14    0.91
  -2   0   1   26.73    0.92
   1   0  -1   33.07    1.11
   1   0  -1   34.39    1.12
   1   0  -1   34.87    1.11
   1   0  -1   33.88    1.10
   1   0  -1   33.79    1.11
   1   0  -1   33.68    1.11
   1   0  -1   34.17    1.11
  -1   0   1   33.46    1.12
  -1   0   1   34.13    1.12
  -1   0   1   34.02    1.11
  -1   0   1   35.07    1.11
  -1   0   1   33.83    1.11
  -1   0   1   34.05    1.11
  -1   0  -1   57.00    1.82
  -1   0  -1   57.51    1.81
  -1   0  -1   56.26    1.78
  -1   0  -1   54.00    1.82
  -1   0  -1   55.87    1.82
  -1   0  -1   58.49    1.80
   1   0   1   54.46    1.81
   1   0   1   58.51    1.82
   1   0   1   50.31    1.78
   1   0   1   57.06    1.82
   1   0   1   54.69    1.79
   1   0   1   56.74    1.79
  -2   0  -1   80.45    2.70
  -2   0  -1   84.24    2.69
  -2   0  -1   81.41    2.64
  -2   0  -1   86.97    2.66
  -2   0  -1   83.80    2.67
  -2   0  -1   72.74    2.73
  -2   0  -1   83.53    2.71
   2   0   1   80.47    2.65
   2   0   1   83.98    2.71
   2   0   1   86.20    2.71
   2   0   1   82.96    2.66
   2   0   1   85.61    2.70
   2   0   1   84.43    2.70
  -3   0  -1   41.69    1.48
  -3   0  -1   44.54    1.48
  -3   0  -1   40.81    1.46
  -3   0  -1   39.10    1.41
  -3   0  -1   40.92    1.47
  -3   0  -1   42.44    1.46
   3   0   1   43.40    1.41
   3   0   1   43.33    1.49
   3   0   1   43.24    1.41
   3   0   1   42.88    1.46
   3   0   1   42.37    1.47
   3   0   1   43.23    1.48
  -4   0  -1   17.05    0.71
  -4   0  -1   16.46    0.71
  -4   0  -1   17.03    0.70
  -4   0  -1   16.81    0.72
  -4   0  -1   16.99    0.73
  -4   0  -1   17.70    0.66
   4   0   1   16.78    0.63
   4   0   1   17.40    0.73
   4   0   1   16.47    0.64
   4   0   1   17.03    0.73
   4   0   1   16.80    0.73
   4   0   1   17.09    0.71
  -5   0  -1    6.72    0.45
  -5   0  -1    6.62    0.46
  -5   0  -1    6.72    0.44
  -5   0  -1    7.20    0.44
  -5   0  -1    7.35    0.39
  -5   0  -1    6.99    0.47
   5   0   1    6.99    0.43
   5   0   1    7.12    0.35
   5   0   1    7.29    0.36
   5   0   1    7.15    0.48
   5   0   1    6.30    0.48
   5   0   1    6.53    0.47
  -6   0  -1    2.10    0.33
  -6   0  -1    2.62    0.34
  -6   0  -1    1.96    0.31
  -6   0  -1    1.35    0.27
  -6   0  -1    2.30    0.27
  -6   0  -1    1.38    0.29
   6   0   1    2.57    0.34
   6   0   1    2.19    0.33
   6   0   1    2.37    0.24
   6   0   1    2.05    0.24
  -7   0  -1    1.60    0.30
  -7   0  -1    1.82    0.37
  -7   0  -1    2.53    0.43
  -7   0  -1    2.55    0.37
  -7   0  -1    1.50    0.36
   7   0   1    1.82    0.37
   7   0   1    1.96    0.27
   7   0   1    2.40    0.38
   7   0   1    1.90    0.24
  -8   0  -1    2.22    0.45
  -8   0  -1    1.56    0.37
  -8   0  -1    1.45    0.42
   8   0   1    1.59    0.43
   8   0   1    2.10    0.30
   8   0   1    1.74    0.45
  -9   0  -1    2.26    0.48
  -9   0  -1    1.56    0.51
  -9   0  -1    3.08    0.55
   9   0   1    2.10    0.37
   9   0   1    1.56    0.52
  10  -1  -1    0.59    0.36
  10  -1  -1    0.59    0.49
 -10   1   1    1.93    0.66
 -10   1   1    0.66    0.52
 -10   1   1    0.33    0.48
   9  -1  -1    7.02    0.58
   9  -1  -1    9.11    1.22
   9  -1  -1    8.08    0.76
  -9   1   1    7.06    0.76
  -9   1   1    7.75    0.66
  -9   1   1    6.89    0.77
   8  -1  -1    1.35    0.23
   8  -1  -1    1.75    0.29
   8  -1  -1    1.53    0.39
  -8   1   1    1.61    0.36
  -8   1   1    1.38    0.34
  -8   1   1    1.49    0.50
  -8   1   1    1.86    0.54
  -8   1   1    1.50    0.37
   7  -1  -1    2.56    0.29
   7  -1  -1    2.57    0.31
   7  -1  -1    2.88    0.37
   7  -1  -1    3.64    0.42
   7  -1  -1    2.19    0.27
  -7   1   1    2.28    0.34
  -7   1   1    2.40    0.34
  -7   1   1    2.39    0.36
  -7   1   1    2.57    0.38
  -7   1   1    2.76    0.41
   6  -1  -1    0.78    0.21
   6  -1  -1    1.07    0.23
   6  -1  -1    1.09    0.17
   6  -1  -1    0.88    0.15
   6  -1  -1    0.98    0.20
   6  -1  -1    1.47    0.31
  -6   1   1    1.01    0.21
  -6   1   1    1.13    0.27
  -6   1   1    1.12    0.22
  -6   1   1    0.89    0.23
  -6   1   1    0.82    0.25
  -6   1   1    0.97    0.23
  -6   1   1    1.10    0.22
   5  -1  -1   11.65    0.61
   5  -1  -1   11.32    0.53
   5  -1  -1   10.61    0.54
   5  -1  -1   11.55    0.58
   5  -1  -1   11.07    0.57
   5  -1  -1   11.49    0.49
  -5   1   1   10.91    0.55
  -5   1   1   10.85    0.51
  -5   1   1   11.20    0.54
  -5   1   1   12.00    0.57
  -5   1   1   11.34    0.55
  -5   1   1   11.64    0.51
  -5   1   1    9.08    0.59
   4  -1  -1   25.89    1.01
   4  -1  -1   24.85    0.93
   4  -1  -1   26.46    1.00
   4  -1  -1   25.83    0.97
   4  -1  -1   26.29    0.98
   4  -1  -1   26.02    0.99
  -4   1   1   24.99    0.96
  -4   1   1   25.63    0.98
  -4   1   1   26.39    0.99
  -4   1   1   27.14    0.99
  -4   1   1   28.45    0.96
  -4   1   1   26.90    1.00
   3  -1  -1    2.98    0.15
   3  -1  -1    2.81    0.19
   3  -1  -1    2.72    0.20
   3  -1  -1    2.92    0.19
   3  -1  -1    2.97    0.22
   3  -1  -1    2.89    0.17
  -3   1   1    2.89    0.17
  -3   1   1    3.28    0.21
  -3   1   1    3.45    0.19
  -3   1   1    2.71    0.21
  -3   1   1    3.12    0.20
  -3   1   1    2.98    0.19
  -3   1   1    3.17    0.21
   2  -1  -1   17.78    0.60
   2  -1  -1   17.84    0.64
   2  -1  -1   18.56    0.64
   2  -1  -1   17.78    0.62
   2  -1  -1   17.97    0.66
   2  -1  -1   18.76    0.66
   2  -1  -1   17.82    0.63
   2  -1  -1   17.85    0.64
  -2   1   1   18.53    0.64
  -2   1   1   18.19    0.63
  -2   1   1   18.27    0.64
  -2   1   1   16.50    0.65
  -2   1   1   17.86    0.64
  -2   1   1   18.95    0.65
  -2   1   1   19.32    0.63
   1  -1  -1  170.94    5.31
   1  -1  -1  167.23    5.26
   1  -1  -1  170.55    5.29
   1  -1  -1  159.46    5.24
   1  -1  -1  164.12    5.30
   1  -1  -1  167.41    5.28
   1  -1  -1  157.88    5.24
   1  -1  -1  172.98    5.34
  -1   1   1  155.74    5.24
  -1   1   1  164.92    5.32
  -1   1   1  170.40    5.27
  -1   1   1  160.23    5.30
  -1   1   1  167.18    5.27
  -1   1   1  167.27    5.32
   0  -1  -1  182.31    5.74
   0  -1  -1  181.25    5.76
   0  -1  -1  177.87    5.67
   0  -1  -1  184.92    5.77
   0  -1  -1  175.44    5.72
   0  -1  -1  181.08    5.74
   0   1   1  171.47    5.67
   0   1   1  169.27    5.71
   0   1   1  181.38    5.71
   0   1   1  179.39    5.71
   0   1   1  187.15    5.78
   0   1   1  181.31    5.73
   0   1   1  170.10    5.66
  -1  -1  -1  151.41    4.88
  -1  -1  -1  149.49    4.90
  -1  -1  -1  154.41    4.87
  -1  -1  -1  147.23    4.89
  -1  -1  -1  147.38    4.88
  -1  -1  -1  157.97    4.90
   1   1   1  157.41    4.90
   1   1   1  159.76    4.90
   1   1   1  154.17    4.87
   1   1   1  150.56    4.90
   1   1   1  153.81    4.88
  -2  -1  -1  103.53    3.41
  -2  -1  -1  105.74    3.42
  -2  -1  -1  105.77    3.43
  -2  -1  -1  104.52    3.43
  -2  -1  -1  105.58    3.37
  -2  -1  -1  100.44    3.39
   2   1   1  103.22    3.44
   2   1   1  108.62    3.39
   2   1   1  105.10    3.44
   2   1   1  107.37    3.43
   2   1   1  107.29    3.40
  -3  -1  -1   99.47    3.25
  -3  -1  -1   98.97    3.29
  -3  -1  -1   97.79    3.16
  -3  -1  -1  100.48    3.27
  -3  -1  -1   95.18    3.26
  -3  -1  -1   94.53    3.20
   3   1   1   99.26    3.27
   3   1   1   95.91    3.20
   3   1   1  101.77    3.28
   3   1   1   98.08    3.21
   3   1   1  102.06    3.26
  -4  -1  -1   19.13    0.82
  -4  -1  -1   18.86    0.78
  -4  -1  -1   19.13    0.79
  -4  -1  -1   20.10    0.76
  -4  -1  -1   18.90    0.81
  -4  -1  -1   18.54    0.82
   4   1   1   20.34    0.84
   4   1   1   18.26    0.81
   4   1   1   18.67    0.83
   4   1   1   19.99    0.80
   4   1   1   19.82    0.73
   4   1   1   18.73    0.75
  -5  -1  -1    0.72    0.20
  -5  -1  -1    0.62    0.21
  -5  -1  -1    0.28    0.20
  -5  -1  -1    0.57    0.23
  -5  -1  -1    0.76    0.18
  -5  -1  -1    1.06    0.24
   5   1   1    0.91    0.22
   5   1   1    0.52    0.19
   5   1   1    0.94    0.16
   5   1   1    0.80    0.28
   5   1   1    0.79    0.17
   5   1   1    1.09    0.26
  -6  -1  -1    0.82    0.26
  -6  -1  -1    0.35    0.21
  -6  -1  -1    0.45    0.22
  -6  -1  -1    0.54    0.24
  -6  -1  -1    0.10    0.26
   6   1   1    0.29    0.15
   6   1   1    0.70    0.27
   6   1   1    0.35    0.24
   6   1   1    0.67    0.21
  -7  -1  -1    0.51    0.32
  -7  -1  -1    0.31    0.29
  -7  -1  -1    1.11    0.37
  -7  -1  -1    0.94    0.38
   7   1   1    0.22    0.19
   7   1   1    0.32    0.35
   7   1   1    0.41    0.39
  -8  -1  -1   -0.10    0.36
  -8  -1  -1   -0.05    0.33
  -8  -1  -1    0.34    0.42
   8   1   1   -0.32    0.43
   8   1   1   -0.01    0.24
   8   1   1    0.16    0.37
  -9  -1  -1    2.97    0.55
  -9  -1  -1    3.19    0.58
  -9  -1  -1    3.22    0.64
   9   1   1    3.44    0.60
   9   1   1    3.53    0.46
  10  -2  -1   -0.40    0.32
  10  -2  -1    0.29    0.39
  10  -2  -1    0.41    0.49
 -10   2   1    0.10    0.50
 -10   2   1    0.75    0.39
 -10   2   1    1.12    0.49
   9  -2  -1    0.77    0.29
   9  -2  -1    1.87    0.43
   9  -2  -1    1.38    0.33
  -9   2   1    1.63    0.43
  -9   2   1    1.69    0.35
  -9   2   1    2.09    0.43
   8  -2  -1    4.33    0.55
   8  -2  -1    3.81    0.28
   8  -2  -1    3.67    0.46
   8  -2  -1    4.14    0.39
  -8   2   1    3.27    0.41
  -8   2   1    3.08    0.45
  -8   2   1    3.59    0.58
  -8   2   1    3.11    0.41
  -8   2   1    4.68    0.63
  -8   2   1    3.76    0.48
   7  -2  -1    3.35    0.42
   7  -2  -1    3.25    0.32
   7  -2  -1    3.74    0.24
   7  -2  -1    3.61    0.45
   7  -2  -1    3.73    0.32
   7  -2  -1    3.64    0.28
  -7   2   1    4.08    0.50
  -7   2   1    2.71    0.43
  -7   2   1    3.79    0.46
  -7   2   1    4.05    0.36
  -7   2   1    4.37    0.49
  -7   2   1    3.13    0.41
   6  -2  -1    4.24    0.29
   6  -2  -1    4.30    0.27
   6  -2  -1    4.85    0.39
   6  -2  -1    4.62    0.31
   6  -2  -1    4.57    0.46
   6  -2  -1    4.61    0.40
   6  -2  -1    3.58    0.48
  -6   2   1    4.03    0.34
  -6   2   1    4.83    0.35
  -6   2   1    4.20    0.37
  -6   2   1    4.23    0.41
  -6   2   1    4.74    0.42
  -6   2   1    4.48    0.37
  -6   2   1    5.18    0.41
   5  -2  -1   49.48    1.71
   5  -2  -1   51.07    1.76
   5  -2  -1   51.25    1.64
   5  -2  -1   51.31    1.82
   5  -2  -1   50.25    1.79
   5  -2  -1   50.13    1.77
   5  -2  -1   47.54    1.81
  -5   2   1   50.72    1.78
  -5   2   1   51.13    1.80
  -5   2   1   51.24    1.75
  -5   2   1   50.61    1.74
  -5   2   1   49.59    1.75
  -5   2   1   48.84    1.77
  -5   2   1   51.94    1.81
   4  -2  -1    7.69    0.35
   4  -2  -1    6.31    0.31
   4  -2  -1    6.85    0.26
   4  -2  -1    7.31    0.35
   4  -2  -1    7.29    0.34
   4  -2  -1    6.52    0.37
   4  -2  -1    7.03    0.39
  -4   2   1    7.11    0.38
  -4   2   1    6.59    0.38
  -4   2   1    7.54    0.37
  -4   2   1    7.13    0.34
  -4   2   1    7.03    0.34
  -4   2   1    7.12    0.36
  -4   2   1    6.56    0.36
   3  -2  -1   25.40    0.98
   3  -2  -1   27.05    0.93
   3  -2  -1   28.43    0.93
   3  -2  -1   26.54    0.93
   3  -2  -1   26.68    0.96
   3  -2  -1   26.84    0.94
   3  -2  -1   25.58    0.88
   3  -2  -1   26.45    0.94
   3  -2  -1   25.30    0.86
   3  -2  -1   24.26    0.97
  -3   2   1   30.03    0.97
  -3   2   1   25.99    0.94
  -3   2   1   27.23    0.95
  -3   2   1   27.13    0.93
  -3   2   1   26.23    0.92
  -3   2   1   27.73    0.95
   2  -2  -1   12.53    0.45
   2  -2  -1   12.25    0.45
   2  -2  -1   12.69    0.45
   2  -2  -1   12.20    0.48
   2  -2  -1   12.28    0.42
   2  -2  -1   12.17    0.41
   2  -2  -1   12.81    0.47
   2  -2  -1   12.18    0.45
   2  -2  -1   11.93    0.46
   2  -2  -1   11.91    0.49
  -2   2   1   12.10    0.45
  -2   2   1   11.85    0.49
  -2   2   1   11.94    0.44
  -2   2   1   12.74    0.45
  -2   2   1   12.22    0.49
  -2   2   1   12.33    0.45
  -2   2   1   12.14    0.41
  -2   2   1   12.11    0.46
  -2   2   1   12.33    0.45
   1  -2  -1  106.18    3.35
   1  -2  -1  103.35    3.38
   1  -2  -1  105.03    3.35
   1  -2  -1  104.11    3.36
   1  -2  -1  104.83    3.36
   1  -2  -1  111.75    3.36
   1  -2  -1  101.18    3.34
  -1   2   1  100.02    3.35
  -1   2   1  105.75    3.34
  -1   2   1  108.33    3.36
  -1   2   1  105.95    3.36
  -1   2   1  102.33    3.38
  -1   2   1  104.26    3.35
  -1   2   1  102.64    3.35
   0  -2  -1   41.06    1.29
   0  -2  -1   39.02    1.29
   0  -2  -1   38.13    1.29
   0  -2  -1   37.10    1.29
   0  -2  -1   36.07    1.29
   0  -2  -1   39.03    1.28
   0  -2  -1   38.12    1.30
   0   2   1   39.69    1.29
   0   2   1   39.88    1.29
   0   2   1   38.44    1.28
   0   2   1   40.11    1.29
   0   2   1   38.03    1.28
   0   2   1   38.78    1.28
  -1  -2  -1   95.81    2.83
  -1  -2  -1   83.84    2.82
  -1  -2  -1   87.59    2.84
  -1  -2  -1   86.61    2.84
  -1  -2  -1   85.89    2.85
  -1  -2  -1   87.75    2.83
   1   2   1   86.08    2.83
   1   2   1   91.42    2.85
   1   2   1   89.23    2.84
   1   2   1   83.80    2.88
   1   2   1   75.15    2.86
   1   2   1   88.61    2.83
  -2  -2  -1   30.77    1.08
  -2  -2  -1   26.10    1.08
  -2  -2  -1   29.96    1.09
  -2  -2  -1   31.87    1.11
  -2  -2  -1   28.02    1.17
   2   2   1   32.13    1.12
   2   2   1   30.93    1.10
   2   2   1   29.98    1.09
   2   2   1   32.57    1.08
   2   2   1   28.89    1.06
   2   2   1   31.05    1.11
   2   2   1   31.10    1.02
  -3  -2  -1  108.22    3.54
  -3  -2  -1  106.33    3.58
  -3  -2  -1  108.11    3.56
  -3  -2  -1  103.36    3.52
  -3  -2  -1  108.16    3.60
  -3  -2  -1  107.62    3.58
   3   2   1  109.32    3.60
   3   2   1  106.07    3.57
   3   2   1  109.32    3.57
   3   2   1  107.61    3.54
   3   2   1  109.50    3.53
   3   2   1  108.52    3.59
  -4  -2  -1    6.43    0.31
  -4  -2  -1    6.75    0.38
  -4  -2  -1    6.10    0.42
  -4  -2  -1    5.54    0.43
  -4  -2  -1    5.89    0.44
  -4  -2  -1    6.34    0.44
   4   2   1    6.93    0.45
   4   2   1    6.77    0.45
   4   2   1    6.60    0.36
   4   2   1    6.11    0.42
   4   2   1    5.79    0.44
   4   2   1    5.73    0.38
  -5  -2  -1   17.92    0.87
  -5  -2  -1   16.19    0.83
  -5  -2  -1   13.94    0.79
  -5  -2  -1   17.51    0.78
  -5  -2  -1   16.01    0.74
  -5  -2  -1   17.19    0.82
   5   2   1   17.00    0.80
   5   2   1   17.96    0.86
   5   2   1   17.26    0.72
   5   2   1   16.99    0.75
   5   2   1   16.68    0.85
  -6  -2  -1    0.78    0.34
  -6  -2  -1    0.80    0.34
  -6  -2  -1    1.12    0.29
  -6  -2  -1    0.99    0.32
  -6  -2  -1    1.28    0.28
   6   2   1    1.00    0.32
   6   2   1    1.39    0.31
   6   2   1    1.17    0.22
  -7  -2  -1    0.05    0.35
  -7  -2  -1   -0.19    0.33
  -7  -2  -1   -0.03    0.29
   7   2   1    0.02    0.21
   7   2   1   -0.06    0.36
   7   2   1   -0.15    0.32
  -8  -2  -1    2.98    0.61
  -8  -2  -1    3.29    0.51
  -8  -2  -1    3.45    0.56
   8   2   1    4.19    0.59
   8   2   1    2.63    0.62
   8   2   1    2.46    0.38
  10  -3  -1    0.78    0.49
  10  -3  -1    0.31    0.39
  10  -3  -1    1.58    0.36
 -10   3   1    1.79    0.42
 -10   3   1    1.43    0.46
 -10   3   1    1.71    0.55
   9  -3  -1    2.04    0.41
   9  -3  -1    1.14    0.40
   9  -3  -1    2.24    0.34
   9  -3  -1    2.08    0.33
  -9   3   1    2.20    0.36
  -9   3   1    1.88    0.44
  -9   3   1    1.33    0.44
   8  -3  -1    3.93    0.36
   8  -3  -1    3.19    0.39
   8  -3  -1    4.10    0.39
   8  -3  -1    4.40    0.50
   8  -3  -1    3.61    0.45
  -8   3   1    3.40    0.51
  -8   3   1    3.91    0.50
  -8   3   1    3.39    0.46
  -8   3   1    4.20    0.60
  -8   3   1    3.83    0.43
   7  -3  -1    6.17    0.40
   7  -3  -1    5.75    0.28
   7  -3  -1    6.36    0.47
   7  -3  -1    5.79    0.45
   7  -3  -1    6.08    0.47
   7  -3  -1    5.36    0.23
   7  -3  -1    5.65    0.35
  -7   3   1    6.66    0.58
  -7   3   1    5.89    0.52
  -7   3   1    5.82    0.47
  -7   3   1    5.61    0.52
  -7   3   1    5.87    0.41
  -7   3   1    6.30    0.55
   6  -3  -1   20.40    0.64
   6  -3  -1   18.42    0.76
   6  -3  -1   19.86    0.82
   6  -3  -1   18.81    0.67
   6  -3  -1   20.01    0.83
   6  -3  -1   19.56    0.83
  -6   3   1   19.88    0.89
  -6   3   1   20.18    0.79
  -6   3   1   17.94    0.85
  -6   3   1   19.45    0.83
  -6   3   1   19.24    0.86
  -6   3   1   19.62    0.85
  -6   3   1   18.39    0.79
   5  -3  -1    4.67    0.30
   5  -3  -1    4.28    0.36
   5  -3  -1    4.08    0.16
   5  -3  -1    4.60    0.30
   5  -3  -1    3.86    0.29
   5  -3  -1    3.91    0.33
   5  -3  -1    3.56    0.24
   5  -3  -1    4.02    0.26
   5  -3  -1    4.49    0.40
  -5   3   1    3.91    0.33
  -5   3   1    3.94    0.29
  -5   3   1    4.60    0.35
  -5   3   1    4.22    0.32
  -5   3   1    3.73    0.28
  -5   3   1    4.23    0.38
  -5   3   1    4.13    0.27
   4  -3  -1    4.37    0.33
   4  -3  -1    4.08    0.24
   4  -3  -1    4.32    0.17
   4  -3  -1    4.64    0.27
   4  -3  -1    3.84    0.21
   4  -3  -1    4.16    0.29
   4  -3  -1    3.92    0.29
   4  -3  -1    4.27    0.25
   4  -3  -1    4.44    0.27
  -4   3   1    4.40    0.26
  -4   3   1    4.26    0.28
  -4   3   1    4.93    0.36
  -4   3   1    4.28    0.24
  -4   3   1    4.79    0.26
  -4   3   1    3.89    0.30
   3  -3  -1   13.21    0.54
   3  -3  -1   15.52    0.51
   3  -3  -1   14.35    0.53
   3  -3  -1   13.17    0.52
   3  -3  -1   13.74    0.52
   3  -3  -1   13.67    0.55
   3  -3  -1   13.21    0.47
   3  -3  -1   13.22    0.57
   3  -3  -1   13.52    0.59
  -3   3   1   14.43    0.53
  -3   3   1   13.23    0.52
  -3   3   1   14.05    0.54
  -3   3   1   13.85    0.54
  -3   3   1   13.71    0.60
  -3   3   1   13.70    0.53
  -3   3   1   13.74    0.58
  -3   3   1   13.28    0.51
  -3   3   1   13.70    0.47
   2  -3  -1  108.77    3.54
   2  -3  -1  114.15    3.55
   2  -3  -1  106.77    3.58
   2  -3  -1  106.41    3.63
   2  -3  -1  114.20    3.62
   2  -3  -1  108.99    3.55
   2  -3  -1  109.61    3.56
   2  -3  -1  109.56    3.55
  -2   3   1  109.51    3.55
  -2   3   1  111.14    3.56
  -2   3   1  110.53    3.53
  -2   3   1  114.53    3.61
  -2   3   1  105.84    3.55
  -2   3   1  109.38    3.55
  -2   3   1  114.72    3.57
  -2   3   1  106.07    3.54
  -2   3   1  120.98    3.58
   1  -3  -1   29.42    1.00
   1  -3  -1   28.07    0.96
   1  -3  -1   26.68    0.95
   1  -3  -1   29.30    0.99
   1  -3  -1   28.69    0.96
   1  -3  -1   28.26    0.94
   1  -3  -1   27.64    0.97
  -1   3   1   28.20    0.96
  -1   3   1   27.68    0.96
  -1   3   1   27.66    0.94
  -1   3   1   27.83    0.95
  -1   3   1   28.08    0.95
  -1   3   1   26.59    0.98
  -1   3   1   27.98    0.95
   0  -3  -1    0.13    0.05
   0  -3  -1    0.25    0.08
   0  -3  -1    0.36    0.10
   0  -3  -1    0.14    0.06
   0  -3  -1    0.20    0.06
   0  -3  -1    0.33    0.08
   0  -3  -1    0.32    0.08
   0   3   1    0.30    0.07
   0   3   1    0.34    0.09
   0   3   1    0.24    0.07
   0   3   1    0.32    0.07
   0   3   1    0.30    0.07
   0   3   1    0.30    0.07
  -1  -3  -1   22.45    0.84
  -1  -3  -1   20.97    0.82
  -1  -3  -1   21.75    0.85
  -1  -3  -1   22.30    0.83
  -1  -3  -1   21.89    0.80
  -1  -3  -1   23.07    0.81
  -1  -3  -1   23.52    0.85
   1   3   1   21.80    0.82
   1   3   1   21.27    0.87
   1   3   1   23.11    0.83
   1   3   1   22.46    0.83
   1   3   1   22.45    0.83
   1   3   1   21.14    0.84
  -2  -3  -1    6.14    0.36
  -2  -3  -1    6.19    0.34
  -2  -3  -1    6.61    0.38
  -2  -3  -1    6.14    0.34
  -2  -3  -1    6.75    0.41
  -2  -3  -1    7.05    0.35
   2   3   1    5.70    0.34
   2   3   1    6.48    0.38
   2   3   1    5.97    0.37
   2   3   1    6.17    0.32
   2   3   1    6.14    0.35
   2   3   1    6.64    0.34
   2   3   1    6.03    0.37
  -3  -3  -1    3.07    0.24
  -3  -3  -1    2.73    0.33
  -3  -3  -1    3.11    0.31
  -3  -3  -1    2.57    0.27
  -3  -3  -1    2.72    0.29
   3   3   1    2.23    0.24
   3   3   1    3.17    0.32
   3   3   1    2.81    0.30
   3   3   1    2.59    0.27
   3   3   1    2.39    0.30
   3   3   1    2.30    0.27
   3   3   1    2.82    0.19
  -4  -3  -1   14.37    0.61
  -4  -3  -1   14.84    0.77
  -4  -3  -1   14.48    0.66
  -4  -3  -1   15.03    0.73
  -4  -3  -1   14.71    0.73
  -4  -3  -1   14.20    0.71
   4   3   1   13.26    0.65
   4   3   1   14.56    0.69
   4   3   1   13.68    0.73
   4   3   1   14.40    0.74
   4   3   1   14.86    0.73
   4   3   1   14.29    0.70
  -5  -3  -1    7.52    0.51
  -5  -3  -1    7.79    0.53
  -5  -3  -1    7.56    0.63
  -5  -3  -1    8.15    0.41
  -5  -3  -1    8.03    0.61
  -5  -3  -1    7.62    0.59
   5   3   1    8.47    0.50
   5   3   1    7.75    0.61
   5   3   1    8.52    0.63
   5   3   1    7.89    0.56
  -6  -3  -1    7.97    0.71
  -6  -3  -1    8.13    0.62
  -6  -3  -1    7.15    0.72
   6   3   1    7.95    0.52
   6   3   1    8.55    0.69
   6   3   1    8.45    0.71
  -7  -3  -1    0.76    0.44
  -7  -3  -1    0.21    0.42
  -7  -3  -1    1.23    0.38
   7   3   1    0.43    0.40
   7   3   1    0.11    0.44
   7   3   1    0.22    0.27
  -8  -3  -1    0.05    0.45
  -8  -3  -1    0.10    0.56
  -8  -3  -1    0.80    0.51
   8   3   1   -0.03    0.33
   8   3   1    0.22    0.56
   8   3   1   -0.32    0.46
  10  -4  -1    0.11    0.48
  10  -4  -1    0.71    0.34
  10  -4  -1    0.38    0.41
 -10   4   1    0.49    0.40
 -10   4   1   -0.67    0.47
   9  -4  -1    2.51    0.35
   9  -4  -1    3.26    0.44
   9  -4  -1    2.41    0.52
   9  -4  -1    2.60    0.39
  -9   4   1    3.09    0.40
  -9   4   1    2.68    0.51
  -9   4   1    2.22    0.39
   8  -4  -1    6.03    0.55
   8  -4  -1    6.96    0.55
   8  -4  -1    6.80    0.58
   8  -4  -1    7.04    0.47
   8  -4  -1    5.80    0.44
   8  -4  -1    6.34    0.46
  -8   4   1    6.62    0.65
  -8   4   1    6.62    0.55
  -8   4   1    5.72    0.69
   7  -4  -1    7.65    0.72
   7  -4  -1    7.68    0.55
   7  -4  -1    7.83    0.44
   7  -4  -1    7.61    0.42
   7  -4  -1    7.01    0.44
   7  -4  -1    7.27    0.51
  -7   4   1    7.41    0.50
  -7   4   1    6.37    0.72
  -7   4   1    7.72    0.56
  -7   4   1    7.61    0.72
  -7   4   1    7.47    0.58
   6  -4  -1    0.75    0.19
   6  -4  -1    0.90    0.20
   6  -4  -1    0.86    0.16
   6  -4  -1    0.80    0.18
   6  -4  -1    0.52    0.17
   6  -4  -1    0.91    0.16
  -6   4   1    0.49    0.21
  -6   4   1    0.88    0.16
  -6   4   1    0.77    0.19
  -6   4   1    0.75    0.23
  -6   4   1    0.64    0.17
  -6   4   1    0.70    0.21
  -6   4   1    0.59    0.27
   5  -4  -1    4.33    0.31
   5  -4  -1    4.35    0.29
   5  -4  -1    3.71    0.32
   5  -4  -1    4.13    0.37
   5  -4  -1    3.15    0.33
   5  -4  -1    4.17    0.30
   5  -4  -1    3.91    0.28
   5  -4  -1    3.72    0.42
   5  -4  -1    3.82    0.26
  -5   4   1    3.76    0.24
  -5   4   1    4.30    0.29
  -5   4   1    4.15    0.28
  -5   4   1    4.02    0.35
  -5   4   1    4.72    0.34
  -5   4   1    3.98    0.32
  -5   4   1    4.17    0.44
   4  -4  -1    1.91    0.17
   4  -4  -1    1.96    0.18
   4  -4  -1    1.80    0.19
   4  -4  -1    2.09    0.13
   4  -4  -1    1.65    0.21
   4  -4  -1    2.15    0.28
   4  -4  -1    1.59    0.19
   4  -4  -1    1.40    0.23
   4  -4  -1    1.76    0.22
  -4   4   1    1.73    0.19
  -4   4   1    1.98    0.15
  -4   4   1    1.82    0.10
  -4   4   1    1.46    0.20
  -4   4   1    2.04    0.21
  -4   4   1    2.35    0.34
  -4   4   1    1.97    0.20
   3  -4  -1   20.93    0.74
   3  -4  -1   20.73    0.84
   3  -4  -1   18.83    0.79
   3  -4  -1   20.70    0.79
   3  -4  -1   20.74    0.73
   3  -4  -1   19.07    0.76
   3  -4  -1   21.41    0.80
  -3   4   1   20.99    0.76
  -3   4   1   20.97    0.73
  -3   4   1   21.86    0.70
  -3   4   1   20.41    0.78
  -3   4   1   21.23    0.82
  -3   4   1   20.59    0.75
  -3   4   1   20.93    0.72
  -3   4   1   19.68    0.74
  -3   4   1   21.75    0.77
   2  -4  -1   47.19    1.55
   2  -4  -1   47.40    1.57
   2  -4  -1   46.00    1.58
   2  -4  -1   49.36    1.64
   2  -4  -1   49.03    1.57
   2  -4  -1   43.62    1.60
   2  -4  -1   45.28    1.63
  -2   4   1   46.19    1.55
  -2   4   1   47.68    1.57
  -2   4   1   48.51    1.63
  -2   4   1   47.64    1.59
  -2   4   1   45.68    1.59
  -2   4   1   48.66    1.57
  -2   4   1   46.06    1.55
  -2   4   1   46.62    1.56
   1  -4  -1    2.98    0.21
   1  -4  -1    3.05    0.21
   1  -4  -1    2.99    0.23
   1  -4  -1    3.53    0.23
   1  -4  -1    3.03    0.23
   1  -4  -1    3.23    0.22
   1  -4  -1    3.42    0.19
   1  -4  -1    3.56    0.19
  -1   4   1    3.33    0.19
  -1   4   1    3.37    0.19
  -1   4   1    3.44    0.19
  -1   4   1    3.24    0.20
  -1   4   1    3.28    0.20
  -1   4   1    3.56    0.22
  -1   4   1    3.38    0.22
   0  -4  -1    3.73    0.26
   0  -4  -1    3.34    0.25
   0  -4  -1    3.82    0.22
   0  -4  -1    3.70    0.26
   0  -4  -1    3.28    0.23
   0  -4  -1    3.03    0.20
   0  -4  -1    3.30    0.24
   0   4   1    3.61    0.22
   0   4   1    3.50    0.24
   0   4   1    3.38    0.22
   0   4   1    3.10    0.21
   0   4   1    3.55    0.24
   0   4   1    3.44    0.22
   0   4   1    3.08    0.23
  -1  -4  -1    3.66    0.30
  -1  -4  -1    3.13    0.23
  -1  -4  -1    3.22    0.27
  -1  -4  -1    3.52    0.29
  -1  -4  -1    3.20    0.23
  -1  -4  -1    3.08    0.24
   1   4   1    3.44    0.25
   1   4   1    3.11    0.24
   1   4   1    3.38    0.25
   1   4   1    3.39    0.26
   1   4   1    3.07    0.25
   1   4   1    3.12    0.26
   1   4   1    3.02    0.28
   1   4   1    3.42    0.26
  -2  -4  -1   19.66    0.80
  -2  -4  -1   20.08    0.87
  -2  -4  -1   20.65    0.84
  -2  -4  -1   18.02    0.80
  -2  -4  -1   19.36    0.78
  -2  -4  -1   20.41    0.76
   2   4   1   19.17    0.78
   2   4   1   19.38    0.81
   2   4   1   18.93    0.87
   2   4   1   19.98    0.81
   2   4   1   19.93    0.84
   2   4   1   20.06    0.81
   2   4   1   19.56    0.81
  -3  -4  -1    0.00    0.17
  -3  -4  -1    0.15    0.18
  -3  -4  -1   -0.03    0.16
  -3  -4  -1    0.14    0.19
  -3  -4  -1    0.27    0.14
  -3  -4  -1    0.14    0.17
   3   4   1   -0.07    0.17
   3   4   1    0.17    0.18
   3   4   1    0.40    0.16
   3   4   1    0.08    0.13
   3   4   1   -0.12    0.14
   3   4   1   -0.22    0.17
   3   4   1    0.25    0.20
  -4  -4  -1   18.89    0.91
  -4  -4  -1   17.01    0.82
  -4  -4  -1   18.09    0.90
  -4  -4  -1   19.22    0.80
  -4  -4  -1   19.47    0.96
   4   4   1   19.19    0.87
   4   4   1   18.88    0.93
   4   4   1   19.06    0.84
   4   4   1   17.14    0.91
   4   4   1   18.51    0.91
  -5  -4  -1    3.88    0.52
  -5  -4  -1    2.72    0.33
  -5  -4  -1    3.86    0.50
  -5  -4  -1    3.13    0.38
   5   4   1    2.92    0.44
   5   4   1    3.92    0.47
   5   4   1    3.70    0.49
   5   4   1    3.99    0.43
  -6  -4  -1    0.37    0.20
  -6  -4  -1    0.40    0.32
  -6  -4  -1    0.38    0.41
  -6  -4  -1   -0.03    0.35
   6   4   1    0.69    0.35
   6   4   1    0.47    0.26
   6   4   1    0.32    0.38
  -7  -4  -1    1.53    0.45
  -7  -4  -1    0.56    0.48
  -7  -4  -1    1.68    0.50
   7   4   1    1.05    0.48
   7   4   1    1.74    0.37
   7   4   1    1.47    0.51
  10  -5  -1    0.70    0.43
 -10   5   1    1.38    0.34
 -10   5   1    0.56    0.54
 -10   5   1    0.30    0.40
   9  -5  -1    1.20    0.38
   9  -5  -1    1.22    0.37
  -9   5   1    2.19    0.47
  -9   5   1    1.59    0.37
  -9   5   1    1.20    0.29
   8  -5  -1    0.54    0.27
   8  -5  -1    0.50    0.29
   8  -5  -1    1.04    0.27
   8  -5  -1    0.67    0.28
  -8   5   1    0.38    0.30
  -8   5   1    0.50    0.26
  -8   5   1    0.37    0.19
   7  -5  -1    0.40    0.23
   7  -5  -1    0.67    0.23
   7  -5  -1    0.20    0.20
   7  -5  -1    0.36    0.19
   7  -5  -1    0.09    0.21
  -7   5   1    0.58    0.44
  -7   5   1    0.48    0.18
  -7   5   1    0.47    0.17
  -7   5   1   -0.01    0.22
  -7   5   1    0.16    0.25
  -7   5   1    0.52    0.29
   6  -5  -1    9.91    0.56
   6  -5  -1    9.68    0.50
   6  -5  -1   10.16    0.54
   6  -5  -1    9.77    0.51
   6  -5  -1    9.15    0.49
   6  -5  -1    9.26    0.52
  -6   5   1    9.70    0.50
  -6   5   1   10.02    0.56
  -6   5   1    8.49    0.74
  -6   5   1    9.82    0.56
  -6   5   1    9.64    0.45
  -6   5   1    9.24    0.60
   5  -5  -1   22.52    0.93
   5  -5  -1   23.07    0.96
   5  -5  -1   23.46    0.88
   5  -5  -1   23.23    0.86
   5  -5  -1   22.71    0.89
   5  -5  -1   23.51    0.93
   5  -5  -1   23.53    0.93
  -5   5   1   21.62    0.90
  -5   5   1   22.74    0.76
  -5   5   1   23.63    0.84
  -5   5   1   22.78    0.99
  -5   5   1   23.02    0.87
  -5   5   1   22.48    1.05
  -5   5   1   24.47    0.92
  -5   5   1   21.48    0.89
   4  -5  -1    1.44    0.24
   4  -5  -1    1.20    0.27
   4  -5  -1    1.45    0.17
   4  -5  -1    1.33    0.15
   4  -5  -1    1.36    0.18
   4  -5  -1    1.62    0.23
   4  -5  -1    1.53    0.20
   4  -5  -1    1.43    0.22
  -4   5   1    1.49    0.11
  -4   5   1    1.60    0.20
  -4   5   1    1.18    0.14
  -4   5   1    1.69    0.24
  -4   5   1    1.72    0.14
  -4   5   1    1.27    0.16
  -4   5   1    1.29    0.17
  -4   5   1    1.48    0.19
  -4   5   1    1.40    0.20
   3  -5  -1   23.15    0.87
   3  -5  -1   22.94    0.82
   3  -5  -1   22.28    0.91
   3  -5  -1   22.47    0.82
   3  -5  -1   22.77    0.83
   3  -5  -1   22.04    0.80
   3  -5  -1   22.08    0.96
   3  -5  -1   23.13    0.90
  -3   5   1   22.47    0.79
  -3   5   1   21.84    0.83
  -3   5   1   23.11    0.81
  -3   5   1   23.39    0.82
  -3   5   1   20.42    0.80
  -3   5   1   20.69    0.79
  -3   5   1   22.05    0.89
  -3   5   1   22.15    0.81
  -3   5   1   21.22    0.85
   2  -5  -1    8.40    0.46
   2  -5  -1    8.78    0.42
   2  -5  -1    8.22    0.45
   2  -5  -1    8.36    0.41
   2  -5  -1    9.08    0.36
   2  -5  -1    8.81    0.38
   2  -5  -1    7.92    0.53
  -2   5   1    8.29    0.37
  -2   5   1    8.48    0.36
  -2   5   1    8.10    0.41
  -2   5   1    8.09    0.36
  -2   5   1    8.46    0.37
  -2   5   1    8.35    0.42
  -2   5   1    8.66    0.36
  -2   5   1    8.72    0.41
   1  -5  -1   15.66    0.63
   1  -5  -1   15.76    0.58
   1  -5  -1   15.90    0.60
   1  -5  -1   14.66    0.65
   1  -5  -1   15.70    0.65
   1  -5  -1   16.03    0.66
   1  -5  -1   14.83    0.63
   1  -5  -1   15.62    0.69
  -1   5   1   15.54    0.59
  -1   5   1   15.86    0.60
  -1   5   1   15.26    0.64
  -1   5   1   15.21    0.62
  -1   5   1   15.46    0.63
  -1   5   1   15.75    0.62
  -1   5   1   15.50    0.61
   0  -5  -1    5.28    0.30
   0  -5  -1    5.11    0.35
   0  -5  -1    5.01    0.33
   0  -5  -1    5.17    0.32
   0  -5  -1    4.30    0.34
   0  -5  -1    4.42    0.27
   0   5   1    4.58    0.32
   0   5   1    5.13    0.30
   0   5   1    4.83    0.29
   0   5   1    4.69    0.31
   0   5   1    4.72    0.29
   0   5   1    4.80    0.32
   0   5   1    5.08    0.29
  -1  -5  -1    6.45    0.42
  -1  -5  -1    6.20    0.40
  -1  -5  -1    6.01    0.43
  -1  -5  -1    5.60    0.35
  -1  -5  -1    5.70    0.34
  -1  -5  -1    6.19    0.37
   1   5   1    5.50    0.38
   1   5   1    6.04    0.39
   1   5   1    6.23    0.43
   1   5   1    5.91    0.39
   1   5   1    5.58    0.36
   1   5   1    6.04    0.37
   1   5   1    5.73    0.40
   1   5   1    6.56    0.38
  -2  -5  -1    2.66    0.31
  -2  -5  -1    2.71    0.35
  -2  -5  -1    3.45    0.42
  -2  -5  -1    2.91    0.31
  -2  -5  -1    3.44    0.33
  -2  -5  -1    3.04    0.37
   2   5   1    3.64    0.31
   2   5   1    2.68    0.36
   2   5   1    3.27    0.33
   2   5   1    3.01    0.30
   2   5   1    2.69    0.31
   2   5   1    3.41    0.34
   2   5   1    3.42    0.37
  -3  -5  -1    3.80    0.37
  -3  -5  -1    3.68    0.49
  -3  -5  -1    4.33    0.39
  -3  -5  -1    4.16    0.46
   3   5   1    3.72    0.35
   3   5   1    4.12    0.39
   3   5   1    3.63    0.43
   3   5   1    4.54    0.45
   3   5   1    4.67    0.46
   3   5   1    4.00    0.39
  -4  -5  -1   11.71    0.81
  -4  -5  -1   11.94    0.63
  -4  -5  -1   10.16    0.73
  -4  -5  -1   10.48    0.63
   4   5   1   11.10    0.50
   4   5   1   11.18    0.70
   4   5   1   11.36    0.76
   4   5   1   11.69    0.66
   4   5   1    9.80    0.71
  -5  -5  -1    1.97    0.31
  -5  -5  -1    2.49    0.45
  -5  -5  -1    2.77    0.37
  -5  -5  -1    2.05    0.50
   5   5   1    2.80    0.39
   5   5   1    1.42    0.46
   5   5   1    2.48    0.41
   5   5   1    2.37    0.48
  -6  -5  -1   -0.06    0.35
  -6  -5  -1    0.94    0.27
  -6  -5  -1    0.17    0.48
  -6  -5  -1    1.44    0.47
   6   5   1    0.27    0.39
   6   5   1    0.54    0.31
   6   5   1    0.92    0.44
  -7  -5  -1    2.81    0.69
  -7  -5  -1    1.75    0.60
   7   5   1    2.31    0.46
   7   5   1    2.52    0.57
   7   5   1    2.78    0.68
   9  -6  -1   15.06    0.89
   9  -6  -1   14.00    0.90
  -9   6   1   14.72    0.82
  -9   6   1   14.43    0.73
  -9   6   1   15.05    1.05
   8  -6  -1    3.74    0.44
   8  -6  -1    4.19    0.50
   8  -6  -1    4.09    0.50
   8  -6  -1    4.44    0.52
  -8   6   1    4.44    0.45
  -8   6   1    3.73    0.37
  -8   6   1    4.00    0.51
   7  -6  -1   21.52    0.92
   7  -6  -1   21.08    0.92
   7  -6  -1   23.68    1.01
   7  -6  -1   22.62    0.95
   7  -6  -1   22.62    0.99
  -7   6   1   22.57    0.88
  -7   6   1   21.61    1.02
  -7   6   1   23.14    1.11
  -7   6   1   21.77    1.02
   6  -6  -1    5.12    0.46
   6  -6  -1    5.08    0.40
   6  -6  -1    4.37    0.38
   6  -6  -1    5.54    0.44
   6  -6  -1    5.52    0.49
  -6   6   1    5.36    0.32
  -6   6   1    4.18    0.42
  -6   6   1    4.67    0.35
  -6   6   1    5.76    0.53
  -6   6   1    5.89    0.45
   5  -6  -1   28.12    1.18
   5  -6  -1   28.08    1.04
   5  -6  -1   27.24    1.14
   5  -6  -1   28.65    1.12
  -5   6   1   28.80    1.18
  -5   6   1   28.30    1.07
  -5   6   1   27.23    1.03
  -5   6   1   26.76    0.93
  -5   6   1   27.94    1.07
  -5   6   1   28.58    1.01
   4  -6  -1   23.04    0.91
   4  -6  -1   24.26    0.90
   4  -6  -1   22.72    0.96
   4  -6  -1   25.14    1.01
   4  -6  -1   24.88    1.07
   4  -6  -1   23.01    1.04
  -4   6   1   24.51    0.89
  -4   6   1   23.02    0.94
  -4   6   1   24.27    0.83
  -4   6   1   21.62    0.96
  -4   6   1   24.58    0.87
  -4   6   1   25.11    0.92
  -4   6   1   25.35    1.01
  -4   6   1   24.06    0.91
  -4   6   1   25.40    0.87
   3  -6  -1   27.40    1.10
   3  -6  -1   26.90    1.06
   3  -6  -1   26.16    1.10
   3  -6  -1   29.67    1.20
   3  -6  -1   27.30    1.00
   3  -6  -1   25.64    0.99
   3  -6  -1   25.61    0.97
  -3   6   1   27.43    0.97
  -3   6   1   27.11    0.95
  -3   6   1   27.11    1.01
  -3   6   1   26.39    0.98
  -3   6   1   27.59    0.98
  -3   6   1   27.20    0.98
  -3   6   1   28.61    1.07
  -3   6   1   26.03    1.03
   2  -6  -1   10.31    0.58
   2  -6  -1   11.56    0.47
   2  -6  -1   10.18    0.47
   2  -6  -1   11.32    0.52
   2  -6  -1   10.94    0.58
   2  -6  -1   11.28    0.68
   2  -6  -1   11.08    0.55
  -2   6   1   10.95    0.48
  -2   6   1   11.59    0.53
  -2   6   1   11.62    0.56
  -2   6   1   11.78    0.49
  -2   6   1   10.52    0.53
  -2   6   1   10.92    0.50
  -2   6   1   11.17    0.47
  -2   6   1   11.45    0.48
   1  -6  -1    4.77    0.38
   1  -6  -1    4.84    0.36
   1  -6  -1    4.71    0.34
   1  -6  -1    4.57    0.28
   1  -6  -1    4.95    0.39
   1  -6  -1    4.62    0.29
  -1   6   1    5.08    0.33
  -1   6   1    5.04    0.31
  -1   6   1    4.98    0.32
  -1   6   1    4.81    0.28
  -1   6   1    4.78    0.32
  -1   6   1    4.51    0.35
   0  -6  -1    7.70    0.41
   0  -6  -1    8.29    0.45
   0  -6  -1    7.60    0.48
   0  -6  -1    8.34    0.51
   0  -6  -1    7.65    0.41
   0  -6  -1    8.55    0.52
   0   6   1    7.72    0.41
   0   6   1    7.98    0.43
   0   6   1    7.71    0.46
   0   6   1    7.72    0.42
   0   6   1    7.60    0.46
   0   6   1    8.23    0.46
   0   6   1    7.96    0.41
   0   6   1    8.12    0.57
  -1  -6  -1    7.93    0.45
  -1  -6  -1    8.33    0.52
  -1  -6  -1    8.53    0.59
  -1  -6  -1    8.33    0.54
   1   6   1    7.18    0.51
   1   6   1    7.68    0.46
   1   6   1    8.83    0.52
   1   6   1    8.30    0.56
   1   6   1    7.69    0.51
   1   6   1    7.52    0.45
   1   6   1    7.77    0.47
  -2  -6  -1    4.03    0.50
  -2  -6  -1    3.29    0.40
  -2  -6  -1    3.07    0.37
  -2  -6  -1    4.24    0.48
   2   6   1    3.70    0.38
   2   6   1    4.12    0.39
   2   6   1    3.67    0.42
   2   6   1    3.64    0.43
   2   6   1    3.79    0.40
   2   6   1    3.78    0.40
  -3  -6  -1    0.05    0.28
  -3  -6  -1    0.50    0.24
  -3  -6  -1    1.00    0.26
  -3  -6  -1    0.69    0.31
   3   6   1    0.95    0.29
   3   6   1    0.96    0.29
   3   6   1    0.70    0.25
   3   6   1    0.90    0.32
   3   6   1    0.24    0.25
   3   6   1    0.14    0.30
  -4  -6  -1    1.43    0.31
  -4  -6  -1    1.90    0.48
  -4  -6  -1    2.41    0.47
   4   6   1    1.38    0.33
   4   6   1    2.02    0.42
   4   6   1    1.83    0.39
   4   6   1    1.70    0.40
  -5  -6  -1    3.24    0.43
  -5  -6  -1    1.42    0.49
  -5  -6  -1    2.38    0.56
  -5  -6  -1    3.26    0.42
   5   6   1    2.76    0.47
   5   6   1    2.22    0.41
   5   6   1    2.14    0.46
  -6  -6  -1    0.39    0.54
   6   6   1    0.65    0.39
   6   6   1    0.61    0.44
   6   6   1    0.43    0.47
   9  -7  -1    1.32    0.42
  -9   7   1    0.36    0.27
  -9   7   1    0.13    0.50
  -9   7   1    0.98    0.28
   8  -7  -1    1.65    0.37
   8  -7  -1    1.88    0.36
   8  -7  -1    1.91    0.43
  -8   7   1    1.72    0.26
  -8   7   1    1.00    0.41
  -8   7   1    1.42    0.27
   7  -7  -1    4.69    0.46
   7  -7  -1    4.42    0.58
   7  -7  -1    4.99    0.52
   7  -7  -1    5.36    0.58
  -7   7   1    5.34    0.61
  -7   7   1    4.72    0.39
  -7   7   1    5.01    0.35
   6  -7  -1   12.29    0.68
   6  -7  -1   11.46    0.72
   6  -7  -1   10.54    0.73
   6  -7  -1   11.26    0.58
  -6   7   1   11.43    0.63
  -6   7   1   11.01    0.54
  -6   7   1   11.58    0.64
  -6   7   1   12.53    0.73
   5  -7  -1    1.10    0.28
   5  -7  -1    1.59    0.23
   5  -7  -1    1.96    0.31
   5  -7  -1    1.10    0.30
  -5   7   1    1.66    0.19
  -5   7   1    1.76    0.19
  -5   7   1    1.39    0.22
  -5   7   1    1.52    0.21
  -5   7   1    1.52    0.15
  -5   7   1    1.72    0.25
  -5   7   1    1.65    0.30
   4  -7  -1   11.87    0.62
   4  -7  -1   13.13    0.69
   4  -7  -1   12.52    0.78
   4  -7  -1   11.89    0.55
  -4   7   1   12.26    0.64
  -4   7   1   11.54    0.51
  -4   7   1   11.41    0.53
  -4   7   1   11.81    0.53
  -4   7   1   11.37    0.46
  -4   7   1   11.02    0.57
  -4   7   1   10.14    0.51
   3  -7  -1    0.22    0.27
   3  -7  -1    0.33    0.26
   3  -7  -1    0.31    0.17
   3  -7  -1    0.04    0.15
   3  -7  -1    0.36    0.21
  -3   7   1    0.25    0.11
  -3   7   1    0.24    0.12
  -3   7   1    0.02    0.13
  -3   7   1    0.08    0.12
  -3   7   1    0.41    0.17
  -3   7   1    0.27    0.15
  -3   7   1    0.30    0.11
   2  -7  -1   79.07    2.79
   2  -7  -1   81.85    2.86
   2  -7  -1   79.61    2.81
   2  -7  -1   86.59    2.99
   2  -7  -1   82.61    2.74
  -2   7   1   79.70    2.71
  -2   7   1   80.85    2.74
  -2   7   1   74.56    2.77
  -2   7   1   84.33    2.81
  -2   7   1   79.70    2.70
  -2   7   1   85.42    2.77
  -2   7   1   76.55    2.68
   1  -7  -1    0.93    0.28
   1  -7  -1    0.99    0.25
   1  -7  -1    1.07    0.24
   1  -7  -1    0.72    0.25
  -1   7   1    0.89    0.16
  -1   7   1    0.77    0.18
  -1   7   1    0.91    0.19
  -1   7   1    0.88    0.16
  -1   7   1    0.76    0.18
  -1   7   1    0.88    0.19
   0  -7  -1    0.97    0.26
   0  -7  -1    1.00    0.27
   0  -7  -1    1.32    0.27
   0  -7  -1    0.77    0.26
   0   7   1    1.19    0.23
   0   7   1    1.26    0.21
   0   7   1    0.88    0.23
   0   7   1    1.15    0.19
   0   7   1    1.29    0.21
  -1  -7  -1    2.55    0.42
  -1  -7  -1    2.70    0.39
  -1  -7  -1    2.75    0.32
  -1  -7  -1    3.02    0.40
   1   7   1    2.49    0.32
   1   7   1    1.91    0.32
   1   7   1    3.18    0.34
   1   7   1    2.78    0.32
   1   7   1    2.60    0.35
   1   7   1    1.99    0.41
  -2  -7  -1    1.08    0.35
  -2  -7  -1    0.89    0.32
  -2  -7  -1    0.81    0.27
  -2  -7  -1    0.82    0.35
   2   7   1    0.99    0.27
   2   7   1    0.36    0.38
   2   7   1    1.03    0.31
   2   7   1    0.68    0.24
   2   7   1    0.51    0.34
  -3  -7  -1    6.45    0.76
  -3  -7  -1    5.14    0.63
  -3  -7  -1    5.87    0.62
   3   7   1    5.56    0.57
   3   7   1    5.45    0.59
   3   7   1    5.79    0.64
  -4  -7  -1    0.55    0.34
  -4  -7  -1    0.34    0.53
  -4  -7  -1    0.94    0.46
   4   7   1    0.48    0.36
   4   7   1    0.43    0.33
   4   7   1    0.02    0.38
  -5  -7  -1    0.31    0.55
  -5  -7  -1   -0.17    0.36
   5   7   1   -0.21    0.41
   5   7   1    0.42    0.39
   5   7   1   -0.11    0.40
   9  -8  -1    3.44    0.53
  -9   8   1    2.74    0.36
  -9   8   1    2.75    0.59
  -9   8   1    1.85    0.33
   8  -8  -1    0.92    0.47
   8  -8  -1    0.59    0.35
  -8   8   1    0.49    0.24
  -8   8   1    0.29    0.39
  -8   8   1    0.24    0.22
   7  -8  -1    4.21    0.49
   7  -8  -1    5.24    0.59
   7  -8  -1    3.82    0.64
   7  -8  -1    4.53    0.68
  -7   8   1    3.89    0.37
  -7   8   1    3.94    0.52
  -7   8   1    3.88    0.35
   6  -8  -1    4.21    0.50
   6  -8  -1    4.09    0.43
   6  -8  -1    4.78    0.64
  -6   8   1    4.09    0.32
  -6   8   1    5.00    0.57
  -6   8   1    4.12    0.35
   5  -8  -1    4.32    0.43
   5  -8  -1    5.24    0.72
   5  -8  -1    4.42    0.41
   5  -8  -1    4.01    0.56
   5  -8  -1    4.30    0.47
  -5   8   1    4.46    0.26
  -5   8   1    4.45    0.39
  -5   8   1    4.19    0.33
  -5   8   1    4.00    0.42
  -5   8   1    4.10    0.31
  -5   8   1    4.48    0.50
   4  -8  -1   18.10    1.04
   4  -8  -1   16.49    0.78
   4  -8  -1   16.25    1.03
   4  -8  -1   17.25    0.76
  -4   8   1   17.76    0.71
  -4   8   1   18.45    0.76
  -4   8   1   15.57    0.71
  -4   8   1   17.09    0.66
  -4   8   1   16.59    0.82
  -4   8   1   16.57    0.73
   3  -8  -1   19.79    1.09
   3  -8  -1   19.88    0.85
   3  -8  -1   18.50    1.12
   3  -8  -1   19.95    0.92
  -3   8   1   19.21    0.78
  -3   8   1   19.32    0.77
  -3   8   1   16.58    0.95
  -3   8   1   19.36    0.78
  -3   8   1   19.23    0.76
  -3   8   1   17.96    0.85
  -3   8   1   18.75    0.86
   2  -8  -1    7.86    0.65
   2  -8  -1    7.70    0.76
   2  -8  -1    7.83    0.52
  -2   8   1    8.06    0.49
  -2   8   1    7.11    0.69
  -2   8   1    7.48    0.43
  -2   8   1    7.63    0.41
  -2   8   1    8.06    0.46
   1  -8  -1   12.87    0.76
   1  -8  -1   14.07    0.95
   1  -8  -1   11.89    0.75
   1  -8  -1   13.61    0.74
   1  -8  -1   12.69    0.84
  -1   8   1   12.82    0.66
  -1   8   1   13.76    0.61
  -1   8   1   14.12    0.66
  -1   8   1   12.64    0.59
  -1   8   1   13.61    0.75
   0  -8  -1    1.53    0.39
   0  -8  -1    1.47    0.35
   0  -8  -1    1.86    0.34
   0  -8  -1    1.29    0.33
   0   8   1    2.02    0.34
   0   8   1    1.46    0.34
   0   8   1    1.50    0.27
   0   8   1    1.47    0.23
   0   8   1    1.48    0.24
   0   8   1    1.68    0.26
  -1  -8  -1    9.67    0.68
  -1  -8  -1   10.74    0.76
  -1  -8  -1   10.74    1.00
  -1  -8  -1   10.70    0.76
   1   8   1   10.31    0.71
   1   8   1   10.63    0.65
   1   8   1   11.18    0.72
   1   8   1    9.27    0.72
   1   8   1    9.91    0.63
  -2  -8  -1    0.80    0.43
  -2  -8  -1    1.22    0.36
  -2  -8  -1    1.10    0.47
   2   8   1    1.12    0.33
   2   8   1    1.13    0.38
   2   8   1    0.77    0.34
  -3  -8  -1    3.44    0.49
   3   8   1    2.99    0.49
   3   8   1    2.71    0.47
   3   8   1    2.85    0.49
  -4  -8  -1    2.45    0.61
  -4  -8  -1    1.63    0.48
   4   8   1    1.08    0.44
   4   8   1    2.18    0.48
   4   8   1    2.58    0.54
   8  -9  -1    2.52    0.55
   8  -9  -1    2.38    0.50
   8  -9  -1    2.08    0.58
  -8   9   1    3.43    0.57
  -8   9   1    2.13    0.33
  -8   9   1    2.19    0.29
   7  -9  -1    0.73    0.47
   7  -9  -1    0.92    0.37
   7  -9  -1   -0.63    0.43
  -7   9   1   -0.02    0.21
  -7   9   1   -0.07    0.20
  -7   9   1    0.70    0.40
   6  -9  -1    2.08    0.51
   6  -9  -1    0.93    0.44
   6  -9  -1    1.74    0.37
  -6   9   1    1.93    0.42
  -6   9   1    2.00    0.28
  -6   9   1    1.58    0.24
   5  -9  -1    5.11    0.56
   5  -9  -1    5.06    0.77
   5  -9  -1    6.03    0.72
   5  -9  -1    5.19    0.49
  -5   9   1    4.50    0.39
  -5   9   1    4.81    0.55
  -5   9   1    5.04    0.41
   4  -9  -1   10.06    0.77
   4  -9  -1    9.07    0.69
   4  -9  -1    8.62    0.60
  -4   9   1    7.69    0.44
  -4   9   1    8.21    0.69
  -4   9   1    8.73    0.50
  -4   9   1    9.32    0.59
  -4   9   1    9.16    0.54
   3  -9  -1   16.62    0.89
   3  -9  -1   17.23    1.00
   3  -9  -1   14.91    1.09
   3  -9  -1   15.78    0.81
  -3   9   1   16.20    0.79
  -3   9   1   16.16    0.82
  -3   9   1   17.23    0.76
   2  -9  -1    1.02    0.31
   2  -9  -1    0.19    0.32
   2  -9  -1    0.80    0.45
  -2   9   1    1.08    0.26
  -2   9   1    1.04    0.25
  -2   9   1    0.73    0.23
   1  -9  -1   -0.37    0.33
   1  -9  -1    0.13    0.34
   1  -9  -1    0.33    0.41
   1  -9  -1   -0.45    0.40
  -1   9   1    0.56    0.24
  -1   9   1    0.41    0.24
  -1   9   1   -0.30    0.22
   0  -9  -1    2.51    0.46
   0  -9  -1    2.66    0.47
   0   9   1    2.16    0.36
   0   9   1    2.49    0.44
   0   9   1    2.89    0.42
  -1  -9  -1    2.02    0.50
  -1  -9  -1    2.68    0.48
   1   9   1    1.92    0.43
   1   9   1    2.33    0.38
   1   9   1    1.94    0.43
  -2  -9  -1    2.19    0.50
  -2  -9  -1    3.95    0.66
   2   9   1    2.90    0.51
   2   9   1    2.74    0.45
   2   9   1    3.10    0.51
  -3  -9  -1    0.24    0.62
  -3  -9  -1    0.20    0.46
   3   9   1   -0.24    0.44
   3   9   1    1.04    0.48
   3   9   1    0.79    0.45
   7 -10  -1    0.47    0.41
   7 -10  -1    1.67    0.58
   7 -10  -1    0.13    0.55
  -7  10   1   -0.29    0.42
  -7  10   1    0.60    0.26
   6 -10  -1    1.63    0.45
   6 -10  -1    1.37    0.57
   6 -10  -1    2.05    0.57
  -6  10   1    2.12    0.45
  -6  10   1    1.44    0.30
  -6  10   1    2.00    0.30
   5 -10  -1    1.74    0.44
   5 -10  -1    2.95    0.62
   5 -10  -1    2.33    0.56
  -5  10   1    1.95    0.41
  -5  10   1    1.85    0.30
  -5  10   1    1.47    0.30
   4 -10  -1   12.96    1.09
   4 -10  -1   10.34    0.81
   4 -10  -1   11.05    0.96
  -4  10   1    9.78    0.64
  -4  10   1   10.64    0.75
  -4  10   1   10.01    0.60
   3 -10  -1    5.16    0.77
   3 -10  -1    4.82    0.65
  -3  10   1    4.24    0.50
  -3  10   1    4.64    0.55
  -3  10   1    4.96    0.46
   2 -10  -1   -0.31    0.57
   2 -10  -1   -0.21    0.39
  -2  10   1    0.11    0.26
  -2  10   1    0.31    0.28
  -2  10   1   -0.05    0.26
   1 -10  -1    0.70    0.60
   1 -10  -1    0.30    0.54
   1 -10  -1    1.06    0.46
  -1  10   1    0.15    0.30
  -1  10   1    1.18    0.37
  -1  10   1    0.56    0.38
  -1  10   1    0.28    0.29
   0 -10  -1    3.73    0.61
   0 -10  -1    1.84    0.69
   0  10   1    2.74    0.42
   0  10   1    2.84    0.51
   0  10   1    3.23    0.51
  -1 -10  -1    4.74    0.64
   1  10   1    3.64    0.65
   1  10   1    4.00    0.58
   1  10   1    3.54    0.52
  -2 -10  -1    2.32    0.58
   2  10   1    0.45    0.50
   2  10   1    1.38    0.54
   2  10   1    1.49    0.58
   6 -11  -1    1.79    0.67
   6 -11  -1    0.72    0.52
   6 -11  -1    1.53    0.66
  -6  11   1    0.96    0.35
  -6  11   1    1.14    0.49
   5 -11  -1   19.90    1.19
   5 -11  -1   20.71    1.50
   5 -11  -1   19.49    1.33
  -5  11   1   19.17    0.90
  -5  11   1   17.93    1.09
  -5  11   1   17.27    0.96
   4 -11  -1    0.65    0.71
   4 -11  -1    1.74    0.65
  -4  11   1    1.54    0.39
  -4  11   1    1.98    0.35
  -4  11   1    1.42    0.43
   3 -11  -1    0.49    0.53
   3 -11  -1    0.67    0.67
  -3  11   1    0.76    0.37
  -3  11   1    0.27    0.36
  -3  11   1    0.85    0.34
   2 -11  -1    4.55    0.90
   2 -11  -1    3.76    0.68
  -2  11   1    3.39    0.50
  -2  11   1    4.02    0.49
  -2  11   1    3.71    0.48
  -2  11   1    3.27    0.60
   1 -11  -1    2.36    0.66
   1 -11  -1    1.87    0.82
  -1  11   1    1.98    0.49
  -1  11   1    2.21    0.55
  -1  11   1    2.80    0.46
   0 -11  -1    3.41    0.97
   0 -11  -1    2.35    0.67
   0  11   1    3.18    0.51
   0  11   1    3.37    0.66
   1  11  -2    0.40    0.38
  -1 -11   2   -1.43    0.81
  -1 -11   2    0.32    0.58
   0  11  -2   11.09    0.70
   0  11  -2   10.06    0.98
   0  11  -2    7.89    0.77
   0 -11   2   12.20    1.09
   0 -11   2   10.43    1.33
  -1  11  -2    3.77    0.48
  -1  11  -2    2.99    0.38
  -1  11  -2    3.73    0.63
   1 -11   2    3.72    0.83
   1 -11   2    4.35    0.70
  -2  11  -2    0.69    0.27
  -2  11  -2    0.70    0.45
  -2  11  -2   -0.11    0.29
   2 -11   2    1.20    0.68
   2 -11   2    0.74    0.53
  -3  11  -2    1.25    0.33
  -3  11  -2    0.32    0.41
  -3  11  -2    1.57    0.30
   3 -11   2    1.30    0.69
   3 -11   2    0.30    0.55
  -4  11  -2    6.76    0.67
  -4  11  -2    7.03    0.49
  -4  11  -2    6.48    0.54
   4 -11   2    7.47    0.86
   4 -11   2    9.54    0.93
   4 -11   2    7.42    1.11
  -5  11  -2    2.10    0.43
   5 -11   2    1.59    0.64
   5 -11   2    2.04    0.53
   5 -11   2    2.41    0.65
  -6  11  -2    0.23    0.43
  -6  11  -2    1.17    0.29
   6 -11   2    0.48    0.53
   6 -11   2    1.33    0.65
   6 -11   2    0.82    0.63
   2  10  -2    1.40    0.41
   2  10  -2    1.81    0.52
   2  10  -2    1.97    0.45
  -2 -10   2    2.60    0.84
  -2 -10   2    1.85    0.54
   1  10  -2    0.43    0.42
   1  10  -2    0.26    0.34
   1  10  -2    0.57    0.30
  -1 -10   2    0.66    0.46
  -1 -10   2   -0.57    0.58
   0  10  -2    2.91    0.49
   0  10  -2    2.85    0.36
   0  10  -2    3.12    0.43
   0 -10   2    2.90    0.52
   0 -10   2    3.70    0.75
  -1  10  -2    1.85    0.27
  -1  10  -2    1.32    0.24
  -1  10  -2    1.68    0.33
  -1  10  -2    1.66    0.41
   1 -10   2    1.57    0.58
   1 -10   2    1.28    0.45
  -2  10  -2    0.58    0.22
  -2  10  -2    0.59    0.34
  -2  10  -2    0.13    0.23
  -2  10  -2    0.38    0.23
   2 -10   2    0.30    0.52
   2 -10   2   -0.25    0.39
  -3  10  -2    3.36    0.33
  -3  10  -2    3.75    0.39
  -3  10  -2    2.87    0.36
   3 -10   2    2.29    0.53
   3 -10   2    2.28    0.60
  -4  10  -2    3.98    0.31
  -4  10  -2    4.27    0.59
  -4  10  -2    3.66    0.37
   4 -10   2    3.39    0.59
   4 -10   2    3.54    0.63
   4 -10   2    4.12    0.56
  -5  10  -2    1.11    0.34
  -5  10  -2    0.74    0.22
  -5  10  -2    0.82    0.18
   5 -10   2    1.16    0.51
   5 -10   2    0.58    0.46
   5 -10   2    1.11    0.41
  -6  10  -2   -0.01    0.17
  -6  10  -2    0.31    0.20
  -6  10  -2    0.02    0.35
   6 -10   2    0.57    0.50
   6 -10   2   -0.08    0.50
   6 -10   2    0.42    0.43
  -7  10  -2    0.17    0.22
  -7  10  -2    0.76    0.45
  -7  10  -2    0.53    0.21
   7 -10   2    0.30    0.58
   7 -10   2   -0.03    0.40
   7 -10   2    0.85    0.57
   4   9  -2    2.61    0.56
   4   9  -2    1.56    0.47
   4   9  -2    1.46    0.51
  -4  -9   2    2.12    0.50
   3   9  -2    0.63    0.35
   3   9  -2   -0.37    0.42
   3   9  -2    0.58    0.39
  -3  -9   2    1.37    0.71
  -3  -9   2    1.02    0.43
   2   9  -2    0.25    0.37
   2   9  -2   -0.02    0.27
   2   9  -2    0.37    0.34
  -2  -9   2    0.45    0.38
  -2  -9   2   -0.22    0.44
  -2  -9   2    0.44    0.57
   1   9  -2   45.25    1.85
   1   9  -2   44.93    1.74
   1   9  -2   43.43    1.66
  -1  -9   2   43.65    2.08
  -1  -9   2   47.07    1.90
  -1  -9   2   44.74    1.77
   0   9  -2    1.49    0.34
   0   9  -2    0.71    0.19
   0   9  -2    1.43    0.27
   0  -9   2    0.71    0.36
   0  -9   2    0.50    0.34
   0  -9   2    1.00    0.52
  -1   9  -2    0.62    0.16
  -1   9  -2    0.40    0.15
  -1   9  -2    0.72    0.21
  -1   9  -2    0.58    0.17
  -1   9  -2    0.19    0.22
  -1   9  -2    0.76    0.31
   1  -9   2    0.40    0.36
   1  -9   2    0.43    0.40
   1  -9   2    0.91    0.33
   1  -9   2    0.43    0.36
  -2   9  -2    0.87    0.20
  -2   9  -2    0.12    0.24
  -2   9  -2    0.15    0.18
  -2   9  -2    0.16    0.13
  -2   9  -2    0.20    0.16
  -2   9  -2    0.13    0.12
   2  -9   2    0.05    0.40
   2  -9   2    0.26    0.32
   2  -9   2    0.77    0.40
   2  -9   2    0.45    0.32
   2  -9   2    0.44    0.28
  -3   9  -2   12.71    0.59
  -3   9  -2   12.76    0.53
  -3   9  -2   12.56    0.52
  -3   9  -2   12.12    0.64
  -3   9  -2   13.50    0.54
  -3   9  -2   12.51    0.64
   3  -9   2   11.17    0.92
   3  -9   2   12.99    0.95
   3  -9   2   11.50    0.65
   3  -9   2   13.99    0.88
   3  -9   2   13.47    0.82
   3  -9   2   10.86    0.93
  -4   9  -2    4.62    0.47
  -4   9  -2    4.42    0.36
  -4   9  -2    3.84    0.29
  -4   9  -2    4.20    0.34
  -4   9  -2    4.00    0.30
  -4   9  -2    4.72    0.32
   4  -9   2    5.20    0.56
   4  -9   2    5.45    0.65
   4  -9   2    5.17    0.75
  -5   9  -2    3.93    0.46
  -5   9  -2    4.07    0.28
  -5   9  -2    3.29    0.31
  -5   9  -2    3.74    0.35
   5  -9   2    3.72    0.47
   5  -9   2    3.50    0.53
   5  -9   2    4.12    0.60
  -6   9  -2    0.34    0.16
  -6   9  -2    0.18    0.15
  -6   9  -2   -0.31    0.29
   6  -9   2    0.14    0.43
   6  -9   2   -0.08    0.30
   6  -9   2    0.39    0.40
  -7   9  -2    3.39    0.31
  -7   9  -2    3.12    0.31
  -7   9  -2    3.98    0.54
   7  -9   2    2.47    0.48
   7  -9   2    3.44    0.55
   7  -9   2    3.06    0.58
  -8   9  -2    2.13    0.25
  -8   9  -2    1.87    0.27
  -8   9  -2    1.09    0.49
   8  -9   2    1.97    0.48
   5   8  -2    2.00    0.51
   5   8  -2    1.08    0.50
   5   8  -2    0.69    0.44
  -5  -8   2    1.34    0.46
  -5  -8   2    0.34    0.63
   4   8  -2   -0.39    0.34
   4   8  -2    1.00    0.41
   4   8  -2    0.52    0.34
  -4  -8   2    0.07    0.35
  -4  -8   2    0.26    0.46
   3   8  -2    2.15    0.38
   3   8  -2    2.17    0.36
   3   8  -2    2.45    0.48
  -3  -8   2    2.42    0.48
  -3  -8   2    1.57    0.41
   2   8  -2    3.76    0.45
   2   8  -2    2.81    0.42
   2   8  -2    3.25    0.38
  -2  -8   2    3.46    0.47
  -2  -8   2    3.48    0.47
  -2  -8   2    4.14    0.64
   1   8  -2    2.34    0.30
   1   8  -2    2.80    0.35
   1   8  -2    2.60    0.34
   1   8  -2    2.44    0.29
   1   8  -2    2.24    0.37
  -1  -8   2    3.00    0.40
  -1  -8   2    2.74    0.43
  -1  -8   2    2.61    0.54
  -1  -8   2    2.18    0.39
   0   8  -2    0.43    0.25
   0   8  -2    0.21    0.13
   0   8  -2    0.40    0.14
   0   8  -2    0.12    0.30
   0   8  -2   -0.04    0.16
   0   8  -2    0.17    0.14
   0  -8   2   -0.11    0.27
   0  -8   2    0.04    0.28
   0  -8   2    0.04    0.27
   0  -8   2    0.70    0.39
  -1   8  -2   -0.13    0.12
  -1   8  -2    0.39    0.17
  -1   8  -2    0.24    0.11
  -1   8  -2   -0.10    0.10
  -1   8  -2   -0.10    0.22
  -1   8  -2   -0.12    0.14
   1  -8   2   -0.06    0.22
   1  -8   2    0.11    0.20
   1  -8   2    0.72    0.27
   1  -8   2    0.23    0.35
   1  -8   2    0.09    0.22
  -2   8  -2   24.15    0.93
  -2   8  -2   24.40    0.84
  -2   8  -2   25.53    0.93
  -2   8  -2   24.03    0.86
  -2   8  -2   22.95    0.97
   2  -8   2   22.59    1.00
   2  -8   2   24.43    1.13
   2  -8   2   24.23    1.08
   2  -8   2   22.33    0.85
   2  -8   2   23.41    0.94
   2  -8   2   21.92    1.21
  -3   8  -2    0.67    0.13
  -3   8  -2    1.05    0.14
  -3   8  -2    0.91    0.20
  -3   8  -2    0.71    0.14
  -3   8  -2    0.81    0.17
  -3   8  -2    0.78    0.21
   3  -8   2    1.03    0.31
   3  -8   2    1.07    0.22
   3  -8   2    0.62    0.35
   3  -8   2    0.74    0.31
   3  -8   2    0.96    0.25
   3  -8   2    0.47    0.16
  -4   8  -2    5.23    0.32
  -4   8  -2    4.56    0.30
  -4   8  -2    5.28    0.30
  -4   8  -2    4.53    0.29
  -4   8  -2    5.07    0.27
  -4   8  -2    4.60    0.43
   4  -8   2    4.63    0.36
   4  -8   2    4.59    0.53
   4  -8   2    5.40    0.62
   4  -8   2    4.87    0.48
  -5   8  -2    6.08    0.27
  -5   8  -2    6.02    0.33
  -5   8  -2    6.29    0.31
  -5   8  -2    6.15    0.37
  -5   8  -2    6.91    0.40
  -5   8  -2    6.51    0.54
   5  -8   2    7.30    0.62
   5  -8   2    6.78    0.41
   5  -8   2    7.17    0.67
   5  -8   2    6.19    0.54
   5  -8   2    6.34    0.41
  -6   8  -2    2.50    0.25
  -6   8  -2    2.93    0.38
  -6   8  -2    3.31    0.43
  -6   8  -2    2.71    0.23
   6  -8   2    2.64    0.44
   6  -8   2    3.69    0.47
   6  -8   2    2.83    0.44
   6  -8   2    2.69    0.48
  -7   8  -2    1.76    0.40
  -7   8  -2    1.61    0.21
  -7   8  -2    1.70    0.19
   7  -8   2    1.78    0.39
   7  -8   2    1.73    0.44
   7  -8   2    1.32    0.41
   7  -8   2    1.58    0.45
  -8   8  -2    4.08    0.65
  -8   8  -2    4.28    0.39
   8  -8   2    4.85    0.69
   8  -8   2    5.09    0.66
  -9   8  -2    3.38    0.43
  -9   8  -2    2.81    0.31
  -9   8  -2    2.87    0.81
   9  -8   2    2.58    0.63
   6   7  -2    5.68    0.75
   6   7  -2    6.72    0.80
   6   7  -2    5.85    0.71
  -6  -7   2    6.11    0.80
   5   7  -2    0.75    0.35
   5   7  -2    0.24    0.34
   5   7  -2   -0.31    0.35
  -5  -7   2    0.18    0.33
  -5  -7   2   -0.11    0.47
   4   7  -2    0.69    0.27
   4   7  -2    1.01    0.32
   4   7  -2    0.46    0.30
  -4  -7   2    1.06    0.34
  -4  -7   2    1.29    0.44
   3   7  -2    1.46    0.32
   3   7  -2    1.99    0.30
   3   7  -2    2.00    0.35
   3   7  -2    1.62    0.32
   3   7  -2    1.22    0.33
   3   7  -2    2.24    0.43
  -3  -7   2    1.37    0.39
  -3  -7   2    2.13    0.42
   2   7  -2   25.21    1.20
   2   7  -2   26.04    1.06
   2   7  -2   26.17    1.05
   2   7  -2   25.09    1.07
  -2  -7   2   26.48    1.12
  -2  -7   2   25.39    1.15
   1   7  -2    0.53    0.20
   1   7  -2    0.57    0.22
   1   7  -2    0.49    0.17
   1   7  -2    0.46    0.16
   1   7  -2    0.50    0.17
  -1  -7   2    0.51    0.25
  -1  -7   2    0.63    0.33
  -1  -7   2    0.51    0.12
  -1  -7   2    0.68    0.26
  -1  -7   2    0.60    0.25
   0   7  -2    0.28    0.14
   0   7  -2    0.55    0.13
   0   7  -2    0.41    0.16
   0   7  -2    0.49    0.13
   0   7  -2    0.26    0.11
   0   7  -2    0.41    0.19
   0  -7   2    0.30    0.21
   0  -7   2    0.59    0.23
   0  -7   2    0.35    0.15
   0  -7   2    0.38    0.16
   0  -7   2    0.44    0.21
   0  -7   2    0.42    0.31
  -1   7  -2    0.61    0.10
  -1   7  -2    0.20    0.19
  -1   7  -2    0.48    0.14
  -1   7  -2    0.48    0.17
  -1   7  -2    0.36    0.10
  -1   7  -2    0.53    0.12
  -1   7  -2    0.64    0.12
   1  -7   2    0.65    0.22
   1  -7   2    0.60    0.29
   1  -7   2    0.62    0.13
   1  -7   2    0.56    0.19
   1  -7   2    0.33    0.18
   1  -7   2    0.64    0.18
  -2   7  -2    7.56    0.33
  -2   7  -2    7.34    0.33
  -2   7  -2    6.90    0.51
  -2   7  -2    6.95    0.44
  -2   7  -2    7.47    0.32
  -2   7  -2    7.89    0.41
  -2   7  -2    7.39    0.36
   2  -7   2    6.50    0.60
   2  -7   2    7.06    0.32
   2  -7   2    6.70    0.48
   2  -7   2    7.94    0.53
   2  -7   2    7.92    0.40
   2  -7   2    7.84    0.49
  -3   7  -2    5.99    0.28
  -3   7  -2    5.88    0.28
  -3   7  -2    6.09    0.30
  -3   7  -2    6.55    0.43
  -3   7  -2    6.32    0.36
  -3   7  -2    5.98    0.29
  -3   7  -2    6.53    0.41
   3  -7   2    5.93    0.34
   3  -7   2    6.33    0.49
   3  -7   2    5.13    0.54
   3  -7   2    6.48    0.45
   3  -7   2    5.89    0.31
   3  -7   2    6.38    0.51
  -4   7  -2    2.19    0.22
  -4   7  -2    1.90    0.26
  -4   7  -2    2.46    0.17
  -4   7  -2    2.01    0.28
  -4   7  -2    2.31    0.17
  -4   7  -2    2.21    0.29
  -4   7  -2    2.31    0.21
   4  -7   2    1.97    0.28
   4  -7   2    2.19    0.33
   4  -7   2    1.91    0.38
   4  -7   2    2.24    0.33
   4  -7   2    2.33    0.38
   4  -7   2    2.17    0.23
   4  -7   2    2.57    0.28
  -5   7  -2    0.03    0.16
  -5   7  -2    0.38    0.11
  -5   7  -2    0.34    0.09
  -5   7  -2    0.41    0.17
  -5   7  -2   -0.02    0.20
  -5   7  -2    0.21    0.15
   5  -7   2    0.01    0.14
   5  -7   2    0.28    0.26
   5  -7   2    0.18    0.13
   5  -7   2    0.00    0.18
   5  -7   2    0.28    0.24
   5  -7   2    0.87    0.25
  -6   7  -2    0.81    0.13
  -6   7  -2    0.90    0.29
  -6   7  -2    1.21    0.22
  -6   7  -2    0.60    0.38
  -6   7  -2    0.89    0.15
   6  -7   2    1.07    0.32
   6  -7   2    1.03    0.32
   6  -7   2    0.66    0.20
   6  -7   2    0.51    0.23
   6  -7   2    0.61    0.30
  -7   7  -2    1.41    0.22
  -7   7  -2    1.63    0.35
  -7   7  -2    1.58    0.22
   7  -7   2    1.64    0.38
   7  -7   2    1.27    0.31
   7  -7   2    1.16    0.34
  -8   7  -2    2.68    0.45
  -8   7  -2    2.20    0.25
   8  -7   2    1.65    0.46
   8  -7   2    1.76    0.40
  -9   7  -2   10.72    0.97
  -9   7  -2   10.84    0.57
  -9   7  -2    8.89    0.64
   9  -7   2   11.39    0.87
   7   6  -2    2.39    0.57
   7   6  -2    2.23    0.48
  -7  -6   2    2.51    0.68
   6   6  -2    0.61    0.38
   6   6  -2   -0.32    0.36
   6   6  -2    0.40    0.35
  -6  -6   2    1.08    0.48
   5   6  -2    0.51    0.31
   5   6  -2    0.47    0.32
   5   6  -2    0.14    0.35
  -5  -6   2    0.77    0.40
  -5  -6   2    0.94    0.40
  -5  -6   2    0.18    0.27
   4   6  -2   13.50    0.83
   4   6  -2   12.68    0.77
   4   6  -2   12.26    0.70
   4   6  -2   11.92    0.76
   4   6  -2   12.46    0.79
  -4  -6   2   13.35    0.73
  -4  -6   2   13.08    0.85
  -4  -6   2   13.40    0.82
   3   6  -2   22.97    1.03
   3   6  -2   23.10    1.05
   3   6  -2   22.75    1.02
   3   6  -2   24.29    1.05
   3   6  -2   22.92    0.98
   3   6  -2   23.70    1.02
  -3  -6   2   24.61    1.04
  -3  -6   2   21.99    1.04
  -3  -6   2   22.41    1.07
   2   6  -2   17.58    0.79
   2   6  -2   17.35    0.82
   2   6  -2   16.51    0.77
   2   6  -2   17.88    0.76
   2   6  -2   15.64    0.83
   2   6  -2   16.72    0.74
  -2  -6   2   17.90    0.84
  -2  -6   2   17.67    0.83
  -2  -6   2   17.22    0.80
   1   6  -2    2.68    0.37
   1   6  -2    2.18    0.32
   1   6  -2    1.90    0.26
   1   6  -2    1.98    0.29
   1   6  -2    2.65    0.36
   1   6  -2    2.04    0.25
   1   6  -2    2.06    0.32
   1   6  -2    2.38    0.24
   1   6  -2    2.59    0.25
  -1  -6   2    2.46    0.42
  -1  -6   2    2.21    0.27
  -1  -6   2    2.67    0.30
  -1  -6   2    2.33    0.32
  -1  -6   2    2.12    0.27
  -1  -6   2    2.06    0.29
   0   6  -2    0.42    0.17
   0   6  -2    0.09    0.09
   0   6  -2    0.50    0.11
   0   6  -2    0.23    0.17
   0   6  -2    0.39    0.12
   0   6  -2    0.13    0.19
   0   6  -2    0.17    0.11
   0   6  -2    0.41    0.11
   0   6  -2    0.14    0.17
   0   6  -2    0.53    0.25
   0   6  -2    0.33    0.21
   0  -6   2    0.39    0.12
   0  -6   2    0.44    0.12
   0  -6   2    0.23    0.11
   0  -6   2    0.27    0.15
   0  -6   2    0.29    0.17
   0  -6   2    0.09    0.15
   0  -6   2    0.42    0.24
  -1   6  -2   20.55    0.98
  -1   6  -2   20.22    0.72
  -1   6  -2   20.63    0.85
  -1   6  -2   20.91    0.71
  -1   6  -2   20.01    0.76
  -1   6  -2   19.37    0.88
  -1   6  -2   20.50    0.73
  -1   6  -2   20.78    0.86
  -1   6  -2   18.82    0.88
  -1   6  -2   21.42    0.77
  -1   6  -2   20.73    0.83
   1  -6   2   20.72    0.79
   1  -6   2   20.73    0.77
   1  -6   2   19.22    0.96
   1  -6   2   20.56    0.77
   1  -6   2   20.27    0.72
   1  -6   2   20.12    0.89
   1  -6   2   20.67    0.72
  -2   6  -2    5.43    0.33
  -2   6  -2    5.48    0.24
  -2   6  -2    5.61    0.27
  -2   6  -2    5.54    0.36
  -2   6  -2    5.58    0.24
  -2   6  -2    5.05    0.49
  -2   6  -2    5.10    0.37
  -2   6  -2    5.32    0.32
  -2   6  -2    5.22    0.39
  -2   6  -2    5.77    0.25
   2  -6   2    5.52    0.24
   2  -6   2    4.56    0.47
   2  -6   2    5.47    0.39
   2  -6   2    5.66    0.26
   2  -6   2    5.84    0.42
   2  -6   2    5.90    0.38
   2  -6   2    5.35    0.29
  -3   6  -2    4.67    0.28
  -3   6  -2    4.54    0.51
  -3   6  -2    4.82    0.21
  -3   6  -2    3.75    0.31
  -3   6  -2    5.04    0.23
  -3   6  -2    4.87    0.23
  -3   6  -2    4.75    0.33
  -3   6  -2    4.90    0.51
  -3   6  -2    4.87    0.38
  -3   6  -2    4.57    0.34
   3  -6   2    4.66    0.34
   3  -6   2    4.79    0.25
   3  -6   2    4.36    0.44
   3  -6   2    4.18    0.38
   3  -6   2    4.93    0.26
   3  -6   2    4.35    0.39
   3  -6   2    5.07    0.25
   3  -6   2    4.97    0.42
  -4   6  -2    4.51    0.22
  -4   6  -2    4.79    0.29
  -4   6  -2    4.50    0.30
  -4   6  -2    4.93    0.31
  -4   6  -2    4.78    0.26
  -4   6  -2    4.84    0.22
  -4   6  -2    4.57    0.23
  -4   6  -2    4.56    0.38
  -4   6  -2    4.86    0.22
   4  -6   2    4.79    0.36
   4  -6   2    5.21    0.41
   4  -6   2    4.41    0.44
   4  -6   2    4.50    0.31
   4  -6   2    4.48    0.24
   4  -6   2    5.20    0.48
   4  -6   2    4.68    0.40
   4  -6   2    4.44    0.26
   4  -6   2    4.94    0.31
  -5   6  -2    5.88    0.37
  -5   6  -2    6.54    0.48
  -5   6  -2    7.02    0.37
  -5   6  -2    6.71    0.33
  -5   6  -2    6.61    0.40
  -5   6  -2    6.99    0.30
   5  -6   2    7.03    0.34
   5  -6   2    6.68    0.44
   5  -6   2    6.97    0.52
   5  -6   2    6.67    0.45
   5  -6   2    6.64    0.48
   5  -6   2    7.00    0.36
   5  -6   2    7.14    0.49
  -6   6  -2    1.39    0.16
  -6   6  -2    1.12    0.22
  -6   6  -2    1.14    0.21
  -6   6  -2    1.60    0.24
  -6   6  -2    1.46    0.32
   6  -6   2    1.25    0.28
   6  -6   2    1.28    0.28
   6  -6   2    1.22    0.19
   6  -6   2    1.58    0.24
  -7   6  -2    4.45    0.49
  -7   6  -2    4.15    0.35
  -7   6  -2    4.40    0.52
  -7   6  -2    3.28    0.44
   7  -6   2    4.53    0.43
   7  -6   2    3.73    0.49
   7  -6   2    4.89    0.42
   7  -6   2    4.14    0.47
  -8   6  -2    3.45    0.42
  -8   6  -2    4.01    0.35
  -8   6  -2    3.97    0.57
   8  -6   2    2.68    0.41
   8  -6   2    3.63    0.60
  -9   6  -2    1.65    0.35
  -9   6  -2    2.88    0.56
  -9   6  -2    1.94    0.30
   9  -6   2    1.67    0.41
   7   5  -2    2.88    0.46
   7   5  -2    2.08    0.51
   7   5  -2    3.06    0.53
  -7  -5   2    2.24    0.55
   6   5  -2    2.17    0.46
   6   5  -2    1.53    0.37
   6   5  -2    1.49    0.34
  -6  -5   2    1.64    0.45
  -6  -5   2    1.12    0.47
   5   5  -2    2.97    0.46
   5   5  -2    3.01    0.44
   5   5  -2    3.04    0.40
   5   5  -2    3.07    0.39
  -5  -5   2    3.60    0.42
  -5  -5   2    2.52    0.41
  -5  -5   2    2.94    0.32
  -5  -5   2    3.21    0.45
   4   5  -2    6.33    0.52
   4   5  -2    6.11    0.51
   4   5  -2    6.14    0.46
   4   5  -2    5.54    0.52
   4   5  -2    6.03    0.54
   4   5  -2    5.80    0.57
  -4  -5   2    6.33    0.45
  -4  -5   2    6.46    0.54
  -4  -5   2    6.17    0.58
  -4  -5   2    5.61    0.31
  -4  -5   2    5.22    0.31
   3   5  -2    4.13    0.38
   3   5  -2    4.73    0.40
   3   5  -2    4.30    0.36
   3   5  -2    4.05    0.45
   3   5  -2    4.39    0.40
   3   5  -2    3.67    0.40
   3   5  -2    4.11    0.39
  -3  -5   2    4.72    0.39
  -3  -5   2    3.39    0.44
  -3  -5   2    4.47    0.41
   2   5  -2    1.88    0.27
   2   5  -2    1.86    0.24
   2   5  -2    1.33    0.20
   2   5  -2    1.38    0.22
   2   5  -2    1.11    0.24
   2   5  -2    1.96    0.29
  -2  -5   2    1.52    0.25
  -2  -5   2    1.41    0.22
  -2  -5   2    1.75    0.25
  -2  -5   2    1.44    0.24
  -2  -5   2    0.99    0.21
  -2  -5   2    1.13    0.21
   1   5  -2    4.10    0.34
   1   5  -2    3.92    0.31
   1   5  -2    4.19    0.27
   1   5  -2    3.99    0.28
   1   5  -2    4.14    0.36
   1   5  -2    4.23    0.38
   1   5  -2    4.38    0.29
   1   5  -2    3.93    0.27
  -1  -5   2    4.15    0.37
  -1  -5   2    4.36    0.29
  -1  -5   2    3.70    0.27
  -1  -5   2    4.04    0.34
  -1  -5   2    4.20    0.32
   0   5  -2    3.08    0.20
   0   5  -2    2.80    0.17
   0   5  -2    3.11    0.36
   0   5  -2    3.08    0.31
   0   5  -2    3.42    0.22
   0   5  -2    2.86    0.29
   0   5  -2    3.08    0.27
   0   5  -2    3.46    0.27
   0   5  -2    3.00    0.20
   0   5  -2    3.01    0.18
   0  -5   2    3.09    0.24
   0  -5   2    3.18    0.19
   0  -5   2    3.21    0.29
   0  -5   2    2.81    0.33
   0  -5   2    2.91    0.20
   0  -5   2    2.69    0.36
   0  -5   2    3.61    0.24
   0  -5   2    3.14    0.20
  -1   5  -2   29.53    0.97
  -1   5  -2   29.18    1.03
  -1   5  -2   29.86    1.19
  -1   5  -2   27.91    0.98
  -1   5  -2   29.05    0.98
  -1   5  -2   28.87    1.08
  -1   5  -2   29.05    1.13
  -1   5  -2   28.50    1.12
  -1   5  -2   29.32    1.01
   1  -5   2   30.64    0.98
   1  -5   2   30.59    1.21
   1  -5   2   28.96    1.04
   1  -5   2   28.66    1.01
   1  -5   2   30.38    1.12
   1  -5   2   29.07    1.13
   1  -5   2   29.92    0.98
  -2   5  -2    1.29    0.10
  -2   5  -2    1.28    0.10
  -2   5  -2    1.38    0.10
  -2   5  -2    1.40    0.18
  -2   5  -2    1.92    0.23
  -2   5  -2    1.32    0.18
  -2   5  -2    1.71    0.29
  -2   5  -2    1.44    0.25
  -2   5  -2    1.38    0.10
  -2   5  -2    1.38    0.20
   2  -5   2    1.42    0.12
   2  -5   2    1.55    0.13
   2  -5   2    0.85    0.21
   2  -5   2    1.58    0.19
   2  -5   2    1.38    0.10
   2  -5   2    1.40    0.19
   2  -5   2    1.17    0.19
   2  -5   2    0.90    0.18
  -3   5  -2   15.55    0.65
  -3   5  -2   15.11    0.66
  -3   5  -2   14.80    0.79
  -3   5  -2   15.50    0.57
  -3   5  -2   15.42    0.67
  -3   5  -2   16.37    0.55
  -3   5  -2   15.39    0.63
  -3   5  -2   15.94    0.53
  -3   5  -2   16.14    0.78
  -3   5  -2   15.53    0.57
  -3   5  -2   15.53    0.56
   3  -5   2   15.58    0.67
   3  -5   2   15.93    0.70
   3  -5   2   15.77    0.54
   3  -5   2   15.17    0.70
   3  -5   2   15.01    0.73
   3  -5   2   15.58    0.58
   3  -5   2   15.31    0.57
   3  -5   2   15.26    0.68
  -4   5  -2   41.05    1.39
  -4   5  -2   39.10    1.42
  -4   5  -2   36.91    1.59
  -4   5  -2   42.71    1.53
  -4   5  -2   42.11    1.35
  -4   5  -2   41.91    1.47
  -4   5  -2   41.81    1.41
  -4   5  -2   40.30    1.40
  -4   5  -2   41.60    1.61
   4  -5   2   39.52    1.50
   4  -5   2   41.09    1.36
   4  -5   2   39.52    1.56
   4  -5   2   42.00    1.38
   4  -5   2   40.69    1.41
   4  -5   2   42.84    1.49
   4  -5   2   40.74    1.42
   4  -5   2   42.09    1.48
   4  -5   2   41.11    1.54
  -5   5  -2    8.99    0.42
  -5   5  -2    8.50    0.54
  -5   5  -2    8.65    0.37
  -5   5  -2    8.72    0.43
  -5   5  -2    8.84    0.63
  -5   5  -2    9.43    0.46
  -5   5  -2    9.25    0.41
   5  -5   2    9.59    0.49
   5  -5   2    8.96    0.43
   5  -5   2    8.45    0.40
   5  -5   2    9.07    0.50
   5  -5   2    7.97    0.49
   5  -5   2    8.48    0.54
   5  -5   2    8.74    0.48
  -6   5  -2    8.31    0.50
  -6   5  -2    8.30    0.43
  -6   5  -2    7.89    0.43
  -6   5  -2    7.47    0.46
  -6   5  -2    8.10    0.57
  -6   5  -2    7.97    0.38
   6  -5   2    7.89    0.43
   6  -5   2    7.64    0.46
   6  -5   2    8.11    0.51
   6  -5   2    7.73    0.49
   6  -5   2    8.12    0.47
  -7   5  -2    3.61    0.39
  -7   5  -2    4.89    0.55
  -7   5  -2    4.76    0.39
  -7   5  -2    4.79    0.60
  -7   5  -2    3.36    0.47
   7  -5   2    5.13    0.43
   7  -5   2    5.12    0.45
   7  -5   2    4.12    0.44
   7  -5   2    4.65    0.44
   7  -5   2    4.44    0.37
  -8   5  -2   12.56    0.62
  -8   5  -2   12.15    0.87
  -8   5  -2   11.29    0.67
   8  -5   2   11.99    0.73
   8  -5   2   11.92    0.72
   8  -5   2   11.38    0.74
  -9   5  -2    0.64    0.32
  -9   5  -2    0.90    0.29
  -9   5  -2    0.09    0.49
   9  -5   2    0.66    0.39
   9  -5   2    1.98    0.38
   8   4  -2    4.84    0.55
   8   4  -2    3.73    0.60
   8   4  -2    4.55    0.63
  -8  -4   2    3.96    0.63
   7   4  -2    0.84    0.36
   7   4  -2    0.38    0.41
   7   4  -2    1.40    0.31
  -7  -4   2    0.35    0.47
  -7  -4   2    1.23    0.42
   6   4  -2    0.26    0.25
   6   4  -2    0.26    0.37
   6   4  -2    0.58    0.27
   6   4  -2    0.11    0.33
   6   4  -2    0.52    0.35
  -6  -4   2    0.39    0.33
  -6  -4   2    0.66    0.37
  -6  -4   2    0.53    0.22
   5   4  -2    1.52    0.33
   5   4  -2    1.73    0.28
   5   4  -2    1.74    0.34
   5   4  -2    1.34    0.34
   5   4  -2    1.88    0.34
  -5  -4   2    2.15    0.39
  -5  -4   2    1.20    0.29
  -5  -4   2    2.10    0.28
   4   4  -2    7.38    0.51
   4   4  -2    6.62    0.50
   4   4  -2    6.55    0.50
   4   4  -2    6.51    0.45
   4   4  -2    7.68    0.48
   4   4  -2    5.83    0.46
  -4  -4   2    6.10    0.37
  -4  -4   2    7.26    0.44
  -4  -4   2    6.15    0.51
  -4  -4   2    6.87    0.43
  -4  -4   2    6.16    0.51
   3   4  -2    4.47    0.39
   3   4  -2    3.71    0.35
   3   4  -2    4.12    0.31
   3   4  -2    4.25    0.34
   3   4  -2    4.59    0.35
   3   4  -2    3.88    0.35
  -3  -4   2    4.05    0.37
  -3  -4   2    4.11    0.38
  -3  -4   2    4.11    0.35
  -3  -4   2    4.06    0.21
  -3  -4   2    3.66    0.34
  -3  -4   2    4.22    0.33
  -3  -4   2    3.89    0.21
  -3  -4   2    4.14    0.34
  -3  -4   2    4.13    0.37
   2   4  -2    1.27    0.19
   2   4  -2    1.20    0.16
   2   4  -2    1.09    0.20
   2   4  -2    1.63    0.23
   2   4  -2    1.03    0.18
   2   4  -2    0.77    0.16
   2   4  -2    1.67    0.21
  -2  -4   2    1.21    0.21
  -2  -4   2    1.38    0.20
  -2  -4   2    1.03    0.17
  -2  -4   2    1.15    0.19
  -2  -4   2    1.20    0.19
  -2  -4   2    1.07    0.19
  -2  -4   2    0.91    0.17
   1   4  -2    0.31    0.12
   1   4  -2    0.27    0.10
   1   4  -2    0.29    0.14
   1   4  -2    0.07    0.08
   1   4  -2    0.31    0.10
   1   4  -2    0.25    0.14
   1   4  -2    0.18    0.09
  -1  -4   2    0.15    0.10
  -1  -4   2    0.20    0.11
  -1  -4   2    0.08    0.09
  -1  -4   2    0.17    0.14
  -1  -4   2    0.27    0.09
   0   4  -2   14.31    0.54
   0   4  -2   14.36    0.52
   0   4  -2   13.88    0.59
   0   4  -2   14.73    0.63
   0   4  -2   14.16    0.65
   0   4  -2   14.29    0.60
   0   4  -2   14.50    0.52
   0   4  -2   14.74    0.54
   0   4  -2   14.48    0.50
   0   4  -2   15.76    0.65
   0  -4   2   15.84    0.70
   0  -4   2   14.13    0.51
   0  -4   2   13.92    0.54
   0  -4   2   14.28    0.66
   0  -4   2   14.54    0.52
   0  -4   2   15.04    0.53
   0  -4   2   12.08    0.53
  -1   4  -2   25.41    0.99
  -1   4  -2   25.22    0.99
  -1   4  -2   24.28    0.93
  -1   4  -2   24.50    0.93
  -1   4  -2   25.01    0.80
  -1   4  -2   23.61    0.87
  -1   4  -2   24.06    0.89
  -1   4  -2   24.35    0.82
  -1   4  -2   25.18    0.79
   1  -4   2   24.63    0.99
   1  -4   2   21.82    0.93
   1  -4   2   24.44    0.82
   1  -4   2   24.06    0.98
   1  -4   2   23.43    0.86
   1  -4   2   24.47    0.80
   1  -4   2   25.04    0.80
   1  -4   2   24.46    0.94
   1  -4   2   24.16    0.84
   1  -4   2   24.93    0.92
  -2   4  -2    0.41    0.05
  -2   4  -2    0.39    0.18
  -2   4  -2    0.61    0.12
  -2   4  -2    0.35    0.11
  -2   4  -2    0.39    0.17
  -2   4  -2    0.53    0.11
  -2   4  -2    0.55    0.06
  -2   4  -2    0.42    0.10
  -2   4  -2    0.39    0.06
   2  -4   2    0.36    0.12
   2  -4   2    0.50    0.07
   2  -4   2    0.48    0.06
   2  -4   2    0.31    0.08
   2  -4   2    0.52    0.15
   2  -4   2    0.35    0.12
   2  -4   2    0.25    0.11
   2  -4   2    0.42    0.07
   2  -4   2    0.43    0.06
  -3   4  -2    5.24    0.30
  -3   4  -2    6.31    0.24
  -3   4  -2    6.37    0.33
  -3   4  -2    6.57    0.47
  -3   4  -2    6.38    0.36
  -3   4  -2    6.79    0.24
  -3   4  -2    5.88    0.43
  -3   4  -2    6.46    0.26
  -3   4  -2    6.54    0.29
  -3   4  -2    6.06    0.33
  -3   4  -2    6.28    0.27
   3  -4   2    6.17    0.36
   3  -4   2    6.29    0.40
   3  -4   2    6.16    0.28
   3  -4   2    6.42    0.34
   3  -4   2    6.18    0.38
   3  -4   2    6.55    0.33
   3  -4   2    6.76    0.25
   3  -4   2    6.22    0.29
  -4   4  -2    6.83    0.42
  -4   4  -2    7.46    0.36
  -4   4  -2    6.96    0.32
  -4   4  -2    6.59    0.37
  -4   4  -2    7.08    0.30
  -4   4  -2    6.92    0.33
  -4   4  -2    7.08    0.48
  -4   4  -2    7.22    0.51
  -4   4  -2    7.05    0.33
   4  -4   2    7.47    0.44
   4  -4   2    7.28    0.38
   4  -4   2    6.88    0.37
   4  -4   2    7.02    0.38
   4  -4   2    7.92    0.40
   4  -4   2    7.21    0.32
   4  -4   2    7.19    0.37
   4  -4   2    7.17    0.33
  -5   4  -2   18.65    1.00
  -5   4  -2   24.51    1.01
  -5   4  -2   23.28    0.84
  -5   4  -2   22.74    0.88
  -5   4  -2   22.26    0.89
  -5   4  -2   23.33    0.98
  -5   4  -2   23.28    0.84
  -5   4  -2   23.59    0.87
   5  -4   2   23.41    0.91
   5  -4   2   23.36    0.85
   5  -4   2   22.86    0.91
   5  -4   2   22.97    0.90
   5  -4   2   23.57    0.86
   5  -4   2   23.02    0.87
   5  -4   2   20.93    0.91
  -6   4  -2    6.05    0.50
  -6   4  -2    6.15    0.36
  -6   4  -2    6.73    0.55
  -6   4  -2    6.52    0.41
  -6   4  -2    6.19    0.44
  -6   4  -2    5.24    0.43
  -6   4  -2    6.03    0.36
   6  -4   2    6.00    0.40
   6  -4   2    6.84    0.44
   6  -4   2    7.41    0.43
   6  -4   2    6.33    0.37
   6  -4   2    6.63    0.43
  -7   4  -2   39.88    1.49
  -7   4  -2   41.07    1.53
  -7   4  -2   39.84    1.48
  -7   4  -2   36.45    1.39
  -7   4  -2   36.74    1.61
  -7   4  -2   39.00    1.59
  -7   4  -2   37.19    1.55
   7  -4   2   40.72    1.47
   7  -4   2   39.75    1.46
   7  -4   2   39.07    1.49
   7  -4   2   34.84    1.53
  -8   4  -2    7.76    0.71
  -8   4  -2    6.99    0.57
  -8   4  -2    7.97    0.52
   8  -4   2    8.29    0.64
   8  -4   2    7.15    0.55
   8  -4   2    6.97    0.57
  -9   4  -2   -0.19    0.44
  -9   4  -2    0.90    0.35
  -9   4  -2    0.58    0.28
   9  -4   2    0.53    0.33
   9  -4   2    0.72    0.43
   9  -4   2    0.10    0.33
   8   3  -2    0.11    0.39
   8   3  -2    0.58    0.46
   8   3  -2    0.20    0.30
  -8  -3   2    0.29    0.50
  -8  -3   2    0.31    0.41
  -8  -3   2    0.34    0.72
   7   3  -2    0.27    0.25
   7   3  -2    0.21    0.29
   7   3  -2   -0.17    0.36
  -7  -3   2    0.75    0.41
  -7  -3   2    0.56    0.33
  -7  -3   2    0.71    0.28
   6   3  -2    6.33    0.56
   6   3  -2    8.12    0.53
   6   3  -2    7.18    0.57
   6   3  -2    5.28    0.63
   6   3  -2    7.31    0.61
  -6  -3   2    7.44    0.48
  -6  -3   2    7.02    0.60
  -6  -3   2    6.35    0.66
   5   3  -2    2.43    0.33
   5   3  -2    2.61    0.33
   5   3  -2    2.62    0.39
   5   3  -2    3.11    0.41
   5   3  -2    3.18    0.41
   5   3  -2    3.04    0.34
  -5  -3   2    3.21    0.46
  -5  -3   2    2.86    0.36
  -5  -3   2    2.99    0.39
  -5  -3   2    3.12    0.29
  -5  -3   2    2.80    0.26
   4   3  -2    1.49    0.26
   4   3  -2    1.38    0.21
   4   3  -2    1.82    0.25
   4   3  -2    1.44    0.23
   4   3  -2    1.63    0.26
   4   3  -2    1.64    0.25
  -4  -3   2    1.39    0.24
  -4  -3   2    1.80    0.28
  -4  -3   2    1.71    0.18
  -4  -3   2    1.42    0.22
  -4  -3   2    1.85    0.28
  -4  -3   2    1.95    0.28
  -4  -3   2    1.52    0.25
   3   3  -2    0.42    0.14
   3   3  -2    0.19    0.11
   3   3  -2    0.24    0.12
   3   3  -2    0.29    0.14
   3   3  -2    0.38    0.15
   3   3  -2    0.29    0.12
  -3  -3   2    0.21    0.13
  -3  -3   2    0.29    0.12
  -3  -3   2    0.27    0.08
  -3  -3   2   -0.09    0.11
  -3  -3   2    0.04    0.13
  -3  -3   2    0.20    0.12
  -3  -3   2    0.08    0.13
  -3  -3   2    0.11    0.13
   2   3  -2    1.16    0.15
   2   3  -2    1.23    0.16
   2   3  -2    1.24    0.15
   2   3  -2    1.28    0.18
   2   3  -2    1.10    0.16
   2   3  -2    1.54    0.19
   2   3  -2    0.92    0.16
  -2  -3   2    1.31    0.17
  -2  -3   2    1.23    0.17
  -2  -3   2    1.35    0.17
  -2  -3   2    0.80    0.14
  -2  -3   2    1.28    0.18
  -2  -3   2    1.26    0.17
   1   3  -2    2.21    0.21
   1   3  -2    2.53    0.17
   1   3  -2    2.59    0.19
   1   3  -2    2.36    0.17
   1   3  -2    2.16    0.17
   1   3  -2    2.54    0.16
   1   3  -2    2.48    0.23
  -1  -3   2    2.43    0.17
  -1  -3   2    2.25    0.17
  -1  -3   2    2.26    0.17
  -1  -3   2    2.51    0.23
  -1  -3   2    2.52    0.21
  -1  -3   2    2.68    0.21
   0   3  -2   20.45    0.68
   0   3  -2   20.15    0.78
   0   3  -2   20.48    0.75
   0   3  -2   19.43    0.68
   0   3  -2   20.32    0.67
   0   3  -2   19.95    0.76
   0   3  -2   20.55    0.69
   0   3  -2   20.50    0.79
   0   3  -2   19.64    0.74
   0   3  -2   20.21    0.69
   0  -3   2   20.23    0.68
   0  -3   2   19.70    0.76
   0  -3   2   20.09    0.69
   0  -3   2   18.69    0.70
  -1   3  -2    7.89    0.43
  -1   3  -2    8.41    0.36
  -1   3  -2    8.20    0.38
  -1   3  -2    8.13    0.35
  -1   3  -2    8.36    0.42
  -1   3  -2    8.48    0.28
   1  -3   2    8.92    0.37
   1  -3   2    8.33    0.28
   1  -3   2    8.38    0.38
   1  -3   2    8.19    0.44
   1  -3   2    8.10    0.27
   1  -3   2    7.60    0.46
  -2   3  -2   20.98    0.71
  -2   3  -2   22.07    0.80
  -2   3  -2   21.08    0.69
  -2   3  -2   21.13    0.72
  -2   3  -2   22.70    0.87
  -2   3  -2   21.40    0.78
  -2   3  -2   21.51    0.85
  -2   3  -2   22.25    0.78
  -2   3  -2   21.43    0.72
  -2   3  -2   22.62    0.77
  -2   3  -2   21.61    0.71
   2  -3   2   22.23    0.78
   2  -3   2   20.96    0.72
   2  -3   2   21.12    0.72
   2  -3   2   20.12    0.85
   2  -3   2   21.77    0.79
   2  -3   2   21.03    0.81
   2  -3   2   19.52    0.83
   2  -3   2   20.98    0.70
  -3   3  -2  122.06    3.96
  -3   3  -2  125.46    3.99
  -3   3  -2  121.00    3.99
  -3   3  -2  127.34    4.02
  -3   3  -2  118.48    4.11
  -3   3  -2  120.96    3.98
  -3   3  -2  126.57    3.97
  -3   3  -2  118.39    3.92
  -3   3  -2  127.27    4.11
  -3   3  -2  125.01    4.07
  -3   3  -2  124.16    3.98
   3  -3   2  125.75    3.98
   3  -3   2  127.10    4.00
   3  -3   2  136.88    4.05
   3  -3   2  123.87    4.04
   3  -3   2  117.22    4.07
   3  -3   2  121.15    4.02
   3  -3   2  125.86    3.99
   3  -3   2  122.44    3.97
  -4   3  -2   21.58    0.78
  -4   3  -2   21.98    0.90
  -4   3  -2   22.26    0.82
  -4   3  -2   21.78    0.80
  -4   3  -2   22.94    0.91
  -4   3  -2   23.63    0.94
  -4   3  -2   22.36    0.83
  -4   3  -2   22.01    0.84
   4  -3   2   22.09    0.84
   4  -3   2   21.96    0.82
   4  -3   2   22.70    0.84
   4  -3   2   21.92    0.79
   4  -3   2   21.79    0.84
   4  -3   2   21.77    0.84
   4  -3   2   21.65    0.81
  -5   3  -2    7.62    0.41
  -5   3  -2    7.12    0.46
  -5   3  -2    7.69    0.41
  -5   3  -2    7.39    0.35
  -5   3  -2    7.63    0.39
  -5   3  -2    7.82    0.52
  -5   3  -2    7.62    0.48
  -5   3  -2    6.98    0.42
   5  -3   2    7.30    0.41
   5  -3   2    6.83    0.31
   5  -3   2    7.55    0.46
   5  -3   2    7.26    0.39
   5  -3   2    6.76    0.45
   5  -3   2    7.44    0.40
  -6   3  -2   13.16    0.72
  -6   3  -2   13.23    0.65
  -6   3  -2   13.47    0.65
  -6   3  -2   13.03    0.56
  -6   3  -2   13.18    0.67
  -6   3  -2   12.64    0.60
  -6   3  -2   12.57    0.66
   6  -3   2   12.54    0.62
   6  -3   2   13.38    0.64
   6  -3   2   13.38    0.60
  -7   3  -2   20.06    0.99
  -7   3  -2   18.78    0.92
  -7   3  -2   16.45    0.97
  -7   3  -2   18.54    0.88
  -7   3  -2   17.72    0.86
  -7   3  -2   17.81    0.78
  -7   3  -2   19.79    0.91
   7  -3   2   21.64    0.85
   7  -3   2   20.08    0.92
   7  -3   2   18.37    0.90
   7  -3   2   19.27    0.75
   7  -3   2   19.61    0.90
  -8   3  -2    0.91    0.37
  -8   3  -2    0.99    0.30
  -8   3  -2    1.04    0.27
   8  -3   2    1.79    0.32
   8  -3   2    1.43    0.29
   8  -3   2    1.17    0.36
   8  -3   2    1.29    0.22
  -9   3  -2    1.34    0.34
  -9   3  -2    2.08    0.52
  -9   3  -2    1.95    0.39
   9  -3   2    1.36    0.35
   9  -3   2    1.49    0.36
   9  -3   2    2.81    0.53
   9   2  -2    6.92    0.83
   9   2  -2    5.50    0.67
   9   2  -2    6.76    0.83
  -9  -2   2    4.61    0.65
  -9  -2   2    6.09    0.83
   8   2  -2    0.66    0.39
   8   2  -2    0.51    0.29
   8   2  -2    1.08    0.43
  -8  -2   2    0.94    0.38
  -8  -2   2    1.08    0.37
   7   2  -2    9.53    0.66
   7   2  -2    9.02    0.73
   7   2  -2    8.37    0.58
  -7  -2   2    9.90    0.63
  -7  -2   2    9.05    0.68
  -7  -2   2    8.50    0.77
   6   2  -2    5.23    0.52
   6   2  -2    6.36    0.45
   6   2  -2    6.13    0.50
   6   2  -2    6.02    0.46
   6   2  -2    6.64    0.61
  -6  -2   2    6.69    0.46
  -6  -2   2    5.96    0.57
  -6  -2   2    6.82    0.76
  -6  -2   2    5.75    0.52
  -6  -2   2    6.19    0.33
   5   2  -2   11.10    0.61
   5   2  -2   11.16    0.64
   5   2  -2   11.41    0.58
   5   2  -2   11.10    0.56
   5   2  -2   11.09    0.65
   5   2  -2   10.65    0.55
  -5  -2   2   10.71    0.63
  -5  -2   2   11.05    0.53
  -5  -2   2   10.73    0.64
  -5  -2   2    9.62    0.60
  -5  -2   2   11.21    0.48
  -5  -2   2   10.62    0.59
   4   2  -2    0.90    0.21
   4   2  -2    1.46    0.21
   4   2  -2    1.37    0.24
   4   2  -2    1.36    0.21
   4   2  -2    1.36    0.19
   4   2  -2    1.32    0.21
  -4  -2   2    0.87    0.18
  -4  -2   2    1.33    0.24
  -4  -2   2    1.31    0.17
  -4  -2   2    1.26    0.21
  -4  -2   2    2.17    0.28
  -4  -2   2    1.07    0.17
  -4  -2   2    0.98    0.22
   3   2  -2   69.42    2.38
   3   2  -2   70.37    2.41
   3   2  -2   68.06    2.38
   3   2  -2   72.06    2.41
   3   2  -2   69.88    2.43
   3   2  -2   72.51    2.40
  -3  -2   2   72.06    2.42
  -3  -2   2   70.23    2.40
  -3  -2   2   70.10    2.32
  -3  -2   2   73.52    2.42
  -3  -2   2   71.59    2.42
  -3  -2   2   71.93    2.40
  -3  -2   2   73.68    2.37
   2   2  -2    8.83    0.39
   2   2  -2    9.55    0.41
   2   2  -2    8.46    0.41
   2   2  -2    9.38    0.42
   2   2  -2    9.45    0.41
   2   2  -2    9.37    0.41
  -2  -2   2    9.11    0.40
  -2  -2   2    8.97    0.41
  -2  -2   2    9.04    0.42
  -2  -2   2    8.98    0.41
  -2  -2   2    8.94    0.40
  -2  -2   2    8.69    0.41
  -2  -2   2    9.39    0.33
   1   2  -2   13.75    0.54
   1   2  -2   12.72    0.50
   1   2  -2   12.92    0.50
   1   2  -2   13.60    0.53
   1   2  -2   14.09    0.53
   1   2  -2   12.97    0.49
   1   2  -2   13.57    0.50
  -1  -2   2   13.70    0.54
  -1  -2   2   13.19    0.54
  -1  -2   2   12.99    0.50
  -1  -2   2   13.50    0.50
  -1  -2   2   13.42    0.53
  -1  -2   2   13.98    0.53
  -1  -2   2   13.36    0.49
   0   2  -2   65.17    2.08
   0   2  -2   64.52    2.08
   0   2  -2   65.06    2.13
   0   2  -2   62.23    2.16
   0   2  -2   63.61    2.13
   0   2  -2   65.52    2.17
   0   2  -2   64.31    2.08
   0   2  -2   63.39    2.07
   0   2  -2   66.77    2.17
   0   2  -2   66.40    2.15
   0  -2   2   67.01    2.08
   0  -2   2   63.47    2.08
   0  -2   2   64.35    2.17
   0  -2   2   63.80    2.16
   0  -2   2   66.94    2.08
   0  -2   2   65.89    2.13
   0  -2   2   66.39    2.15
  -1   2  -2   34.67    1.14
  -1   2  -2   35.64    1.18
  -1   2  -2   32.50    1.26
  -1   2  -2   36.81    1.16
  -1   2  -2   34.63    1.17
   1  -2   2   33.66    1.22
   1  -2   2   33.70    1.21
   1  -2   2   35.00    1.18
   1  -2   2   34.98    1.16
  -2   2  -2   28.61    0.98
  -2   2  -2   30.86    1.06
  -2   2  -2   28.87    0.96
  -2   2  -2   29.10    0.97
  -2   2  -2   28.81    0.99
  -2   2  -2   29.57    0.96
  -2   2  -2   28.32    0.94
  -2   2  -2   31.98    1.07
  -2   2  -2   28.69    1.03
  -2   2  -2   28.46    0.97
   2  -2   2   28.97    1.05
   2  -2   2   28.28    0.98
   2  -2   2   27.23    0.95
   2  -2   2   28.81    0.99
   2  -2   2   28.18    0.96
   2  -2   2   28.81    0.97
  -3   2  -2   54.15    1.87
  -3   2  -2   52.64    1.79
  -3   2  -2   53.16    1.80
  -3   2  -2   59.21    1.86
  -3   2  -2   53.89    1.79
  -3   2  -2   54.12    1.86
  -3   2  -2   53.44    1.75
  -3   2  -2   56.72    1.75
  -3   2  -2   53.48    1.80
  -3   2  -2   53.56    1.73
   3  -2   2   52.89    1.79
   3  -2   2   54.82    1.73
   3  -2   2   52.83    1.79
   3  -2   2   53.10    1.81
   3  -2   2   54.66    1.81
   3  -2   2   52.65    1.80
   3  -2   2   53.72    1.80
   3  -2   2   52.58    1.75
  -4   2  -2   36.86    1.30
  -4   2  -2   35.48    1.28
  -4   2  -2   36.38    1.35
  -4   2  -2   38.90    1.23
  -4   2  -2   37.35    1.31
  -4   2  -2   37.03    1.28
  -4   2  -2   36.30    1.30
  -4   2  -2   37.19    1.36
   4  -2   2   36.41    1.31
   4  -2   2   35.66    1.28
   4  -2   2   36.83    1.31
   4  -2   2   35.80    1.29
   4  -2   2   35.43    1.18
   4  -2   2   34.88    1.22
  -5   2  -2    3.16    0.31
  -5   2  -2    3.06    0.29
  -5   2  -2    3.28    0.28
  -5   2  -2    3.37    0.28
  -5   2  -2    3.40    0.23
  -5   2  -2    2.84    0.33
  -5   2  -2    3.65    0.38
  -5   2  -2    2.94    0.30
   5  -2   2    3.09    0.32
   5  -2   2    3.31    0.28
   5  -2   2    2.82    0.34
   5  -2   2    3.06    0.15
   5  -2   2    3.02    0.25
   5  -2   2    2.69    0.19
   5  -2   2    3.84    0.36
  -6   2  -2   49.12    1.66
  -6   2  -2   48.95    1.83
  -6   2  -2   48.42    1.74
  -6   2  -2   47.20    1.68
  -6   2  -2   48.09    1.78
  -6   2  -2   48.63    1.75
  -6   2  -2   50.06    1.79
   6  -2   2   48.56    1.75
   6  -2   2   45.25    1.71
   6  -2   2   46.49    1.76
   6  -2   2   47.63    1.57
   6  -2   2   48.87    1.63
  -7   2  -2    0.28    0.24
  -7   2  -2    0.85    0.21
  -7   2  -2    0.42    0.22
  -7   2  -2    0.73    0.29
  -7   2  -2    0.12    0.31
  -7   2  -2    0.74    0.21
   7  -2   2    0.60    0.28
   7  -2   2    0.33    0.32
   7  -2   2    0.65    0.12
   7  -2   2    0.84    0.18
   7  -2   2    0.39    0.19
  -8   2  -2    2.02    0.45
  -8   2  -2    1.34    0.35
  -8   2  -2    1.40    0.31
   8  -2   2    1.28    0.39
   8  -2   2    1.27    0.31
   8  -2   2    1.71    0.24
  -9   2  -2   -0.25    0.33
  -9   2  -2   -0.36    0.42
  -9   2  -2    0.06    0.37
   9  -2   2    0.43    0.29
   9  -2   2    0.62    0.47
   9  -2   2    0.69    0.34
   9   1  -2    2.56    0.53
   9   1  -2    2.73    0.61
   9   1  -2    2.88    0.43
  -9  -1   2    2.84    0.51
  -9  -1   2    2.91    0.55
  -9  -1   2    2.08    0.59
   8   1  -2    1.33    0.29
   8   1  -2    1.48    0.40
   8   1  -2    1.30    0.45
  -8  -1   2    1.15    0.36
  -8  -1   2    0.85    0.34
  -8  -1   2    0.80    0.57
   7   1  -2    6.30    0.48
   7   1  -2    6.18    0.58
   7   1  -2    6.60    0.50
   7   1  -2    7.30    0.59
  -7  -1   2    7.17    0.37
  -7  -1   2    6.85    0.55
  -7  -1   2    6.42    0.54
  -7  -1   2    7.71    0.65
   6   1  -2    2.88    0.37
   6   1  -2    3.82    0.39
   6   1  -2    3.81    0.37
   6   1  -2    3.92    0.34
   6   1  -2    4.42    0.44
  -6  -1   2    4.04    0.27
  -6  -1   2    3.51    0.39
  -6  -1   2    3.72    0.47
  -6  -1   2    3.29    0.40
  -6  -1   2    4.14    0.40
   5   1  -2    0.19    0.15
   5   1  -2    0.22    0.16
   5   1  -2   -0.07    0.16
   5   1  -2    0.36    0.23
   5   1  -2    0.14    0.13
   5   1  -2    0.19    0.15
  -5  -1   2    0.48    0.20
  -5  -1   2    0.21    0.16
  -5  -1   2    0.16    0.15
  -5  -1   2    0.27    0.20
  -5  -1   2    0.28    0.18
  -5  -1   2    0.28    0.14
   4   1  -2    0.73    0.15
   4   1  -2    0.90    0.19
   4   1  -2    0.79    0.15
   4   1  -2    0.58    0.17
   4   1  -2    0.84    0.14
   4   1  -2    0.50    0.12
  -4  -1   2    0.75    0.13
  -4  -1   2    0.75    0.18
  -4  -1   2    1.06    0.18
  -4  -1   2    0.50    0.15
  -4  -1   2    0.77    0.15
  -4  -1   2    0.92    0.18
   3   1  -2   10.58    0.50
   3   1  -2   10.69    0.45
   3   1  -2   10.92    0.48
   3   1  -2   10.90    0.46
   3   1  -2   10.89    0.49
   3   1  -2   11.09    0.44
   3   1  -2   11.18    0.47
  -3  -1   2   10.87    0.48
  -3  -1   2   10.36    0.49
  -3  -1   2   10.50    0.49
  -3  -1   2   10.71    0.44
  -3  -1   2   10.64    0.47
  -3  -1   2   10.86    0.48
   2   1  -2   12.51    0.49
   2   1  -2   12.96    0.50
   2   1  -2   12.61    0.49
   2   1  -2   12.78    0.51
   2   1  -2   12.60    0.50
   2   1  -2   13.21    0.46
   2   1  -2   13.00    0.51
  -2  -1   2   12.89    0.51
  -2  -1   2   12.57    0.50
  -2  -1   2   12.17    0.50
  -2  -1   2   12.18    0.46
   1   1  -2    0.59    0.07
   1   1  -2    0.51    0.07
   1   1  -2    0.51    0.07
   1   1  -2    0.52    0.07
   1   1  -2    0.60    0.06
   1   1  -2    0.47    0.08
   1   1  -2    0.74    0.09
   1   1  -2    0.60    0.08
  -1  -1   2    0.58    0.07
  -1  -1   2    0.53    0.09
  -1  -1   2    0.61    0.09
  -1  -1   2    0.56    0.07
  -1  -1   2    0.63    0.08
  -1  -1   2    0.57    0.06
  -1  -1   2    0.46    0.07
   0   1  -2  414.74   12.89
   0   1  -2  404.53   12.72
   0   1  -2  408.64   12.93
   0   1  -2  402.17   12.81
   0   1  -2  395.27   12.71
   0   1  -2  388.15   12.77
   0   1  -2  388.29   12.76
   0   1  -2  395.87   12.72
   0   1  -2  420.50   13.00
   0   1  -2  389.57   12.73
   0   1  -2  397.22   12.79
   0  -1   2  397.56   12.75
   0  -1   2  388.06   12.71
   0  -1   2  398.10   12.72
   0  -1   2  405.03   12.72
   0  -1   2  404.40   12.79
   0  -1   2  412.26   12.97
   0  -1   2  404.16   12.91
  -1   1  -2  135.64    4.28
  -1   1  -2  131.10    4.26
  -1   1  -2  136.00    4.28
  -1   1  -2  134.54    4.30
  -1   1  -2  126.03    4.27
  -1   1  -2  136.53    4.34
  -1   1  -2  138.61    4.34
  -1   1  -2  136.18    4.28
  -1   1  -2  139.16    4.30
  -1   1  -2  136.57    4.27
   1  -1   2  132.65    4.29
   1  -1   2  115.56    4.30
   1  -1   2  134.35    4.28
   1  -1   2  139.91    4.34
   1  -1   2  143.67    4.31
   1  -1   2  137.50    4.28
   1  -1   2  139.06    4.28
  -2   1  -2   42.13    1.34
  -2   1  -2   42.06    1.36
  -2   1  -2   41.70    1.41
  -2   1  -2   41.61    1.40
  -2   1  -2   43.00    1.39
  -2   1  -2   43.05    1.41
  -2   1  -2   42.18    1.40
  -2   1  -2   40.79    1.36
   2  -1   2   41.37    1.42
   2  -1   2   40.43    1.35
   2  -1   2   41.32    1.38
   2  -1   2   43.16    1.40
   2  -1   2   42.48    1.40
  -3   1  -2   22.42    0.79
  -3   1  -2   23.48    0.85
  -3   1  -2   22.59    0.85
  -3   1  -2   22.09    0.82
  -3   1  -2   23.46    0.86
  -3   1  -2   23.36    0.78
  -3   1  -2   22.33    0.83
   3  -1   2   23.21    0.77
   3  -1   2   23.12    0.85
   3  -1   2   24.89    0.77
   3  -1   2   24.02    0.86
   3  -1   2   21.83    0.84
   3  -1   2   22.81    0.83
  -4   1  -2    7.06    0.39
  -4   1  -2    7.11    0.39
  -4   1  -2    6.76    0.38
  -4   1  -2    7.15    0.34
  -4   1  -2    7.08    0.41
  -4   1  -2    8.08    0.32
   4  -1   2    6.89    0.41
   4  -1   2    7.07    0.40
   4  -1   2    7.33    0.29
   4  -1   2    7.07    0.41
   4  -1   2    7.56    0.40
  -5   1  -2   13.14    0.51
  -5   1  -2   11.54    0.59
  -5   1  -2   11.42    0.56
  -5   1  -2   11.42    0.60
  -5   1  -2   11.94    0.58
  -5   1  -2   11.27    0.61
  -5   1  -2   10.76    0.47
   5  -1   2   10.99    0.46
   5  -1   2   12.85    0.59
   5  -1   2   10.84    0.60
   5  -1   2   11.66    0.62
   5  -1   2   12.22    0.61
   5  -1   2   11.80    0.45
  -6   1  -2   81.24    2.82
  -6   1  -2   84.38    2.74
  -6   1  -2   82.05    2.87
  -6   1  -2   82.69    2.87
  -6   1  -2   78.94    2.82
  -6   1  -2   78.43    2.87
  -6   1  -2   81.39    2.66
   6  -1   2   88.01    2.70
   6  -1   2   77.48    2.66
   6  -1   2   83.17    2.85
  -7   1  -2    4.70    0.42
  -7   1  -2    5.26    0.57
  -7   1  -2    4.07    0.44
  -7   1  -2    4.83    0.59
  -7   1  -2    4.96    0.57
   7  -1   2    5.29    0.50
   7  -1   2    3.91    0.31
   7  -1   2    3.99    0.56
   7  -1   2    4.49    0.33
  -8   1  -2    2.03    0.44
  -8   1  -2    2.23    0.40
  -8   1  -2    2.48    0.45
   8  -1   2    1.94    0.44
   8  -1   2    1.96    0.26
   8  -1   2    2.99    0.53
  -9   1  -2    9.48    0.76
  -9   1  -2    9.99    0.94
  -9   1  -2   11.12    0.93
   9  -1   2    8.87    0.73
   9  -1   2    8.12    0.88
   9   0  -2    1.13    0.34
   9   0  -2    2.17    0.38
   9   0  -2    1.89    0.54
   9   0  -2    1.88    0.46
  -9   0   2    1.91    0.46
  -9   0   2    1.69    0.44
  -9   0   2    1.49    0.43
   8   0  -2    5.74    0.49
   8   0  -2    4.98    0.66
   8   0  -2    4.97    0.57
  -8   0   2    4.02    0.35
  -8   0   2    5.00    0.59
  -8   0   2    4.88    0.56
   7   0  -2    5.91    0.53
   7   0  -2    5.63    0.52
   7   0  -2    5.34    0.45
   7   0  -2    6.82    0.44
   7   0  -2    6.54    0.56
  -7   0   2    5.66    0.52
  -7   0   2    6.93    0.58
  -7   0   2    6.22    0.65
   6   0  -2    3.19    0.32
   6   0  -2    4.06    0.37
   6   0  -2    3.38    0.39
   6   0  -2    4.05    0.47
   6   0  -2    4.20    0.32
  -6   0   2    3.35    0.44
  -6   0   2    3.56    0.41
  -6   0   2    3.79    0.41
  -6   0   2    3.97    0.38
  -6   0   2    3.61    0.40
  -6   0   2    4.10    0.38
   5   0  -2    5.42    0.38
   5   0  -2    5.74    0.38
   5   0  -2    5.60    0.32
   5   0  -2    4.71    0.44
   5   0  -2    5.84    0.43
   5   0  -2    5.73    0.37
   5   0  -2    5.60    0.33
  -5   0   2    5.23    0.36
  -5   0   2    5.75    0.37
  -5   0   2    5.21    0.37
  -5   0   2    5.44    0.39
  -5   0   2    5.46    0.43
  -5   0   2    5.50    0.41
   4   0  -2   27.13    1.01
   4   0  -2   26.04    0.99
   4   0  -2   27.16    1.02
   4   0  -2   27.69    1.04
   4   0  -2   26.71    1.06
   4   0  -2   27.54    1.01
  -4   0   2   27.51    1.01
  -4   0   2   27.74    1.03
  -4   0   2   26.53    1.03
  -4   0   2   27.30    1.05
  -4   0   2   28.72    1.02
  -4   0   2   27.34    1.01
   3   0  -2   22.74    0.86
   3   0  -2   22.63    0.82
   3   0  -2   22.33    0.84
   3   0  -2   23.69    0.85
   3   0  -2   23.50    0.83
   3   0  -2   22.64    0.83
  -3   0   2   22.69    0.83
  -3   0   2   22.75    0.85
  -3   0   2   22.14    0.84
  -3   0   2   22.28    0.83
  -3   0   2   22.13    0.83
   2   0  -2    5.41    0.25
   2   0  -2    5.25    0.23
   2   0  -2    5.23    0.25
   2   0  -2    5.36    0.24
   2   0  -2    5.13    0.24
   2   0  -2    5.25    0.26
   2   0  -2    5.17    0.25
  -2   0   2    5.17    0.26
  -2   0   2    5.34    0.25
  -2   0   2    5.52    0.25
  -2   0   2    5.48    0.26
  -2   0   2    5.54    0.25
  -2   0   2    5.12    0.25
   1   0  -2    3.80    0.16
   1   0  -2    3.60    0.16
   1   0  -2    3.76    0.17
   1   0  -2    3.59    0.16
   1   0  -2    3.84    0.16
   1   0  -2    3.66    0.17
   1   0  -2    3.88    0.14
   1   0  -2    3.62    0.16
   1   0  -2    3.81    0.17
  -1   0   2    3.61    0.16
  -1   0   2    3.61    0.16
  -1   0   2    3.64    0.16
  -1   0   2    3.77    0.17
  -1   0   2    3.78    0.17
  -1   0   2    3.59    0.16
  -1   0   2    3.58    0.16
   0   0  -2    7.26    0.26
   0   0  -2    7.16    0.27
   0   0  -2    7.41    0.26
   0   0  -2    7.09    0.26
   0   0  -2    7.24    0.25
   0   0  -2    7.24    0.26
   0   0  -2    7.28    0.29
   0   0   2    7.35    0.27
   0   0   2    7.41    0.26
   0   0   2    7.29    0.26
   0   0   2    7.60    0.27
   0   0   2    7.06    0.26
   0   0   2    7.43    0.26
  -1   0  -2    0.38    0.05
  -1   0  -2    0.43    0.07
  -1   0  -2    0.45    0.07
  -1   0  -2    0.37    0.06
  -1   0  -2    0.36    0.07
   1   0   2    0.46    0.07
   1   0   2    0.31    0.06
   1   0   2    0.38    0.06
   1   0   2    0.34    0.05
  -2   0  -2   79.71    2.58
  -2   0  -2   77.51    2.51
  -2   0  -2   79.20    2.54
  -2   0  -2   82.49    2.58
  -2   0  -2   80.32    2.56
  -2   0  -2   79.59    2.59
   2   0   2   76.16    2.50
   2   0   2   79.04    2.52
   2   0   2   72.01    2.53
   2   0   2   78.40    2.58
   2   0   2   78.52    2.57
   2   0   2   79.01    2.57
  -3   0  -2    2.16    0.17
  -3   0  -2    2.32    0.22
  -3   0  -2    1.87    0.19
  -3   0  -2    2.36    0.14
  -3   0  -2    2.37    0.20
  -3   0  -2    2.36    0.21
   3   0   2    2.21    0.21
   3   0   2    2.36    0.21
   3   0   2    2.12    0.13
   3   0   2    2.31    0.22
   3   0   2    1.91    0.14
   3   0   2    2.15    0.14
   3   0   2    2.14    0.20
  -4   0  -2   22.89    0.93
  -4   0  -2   22.63    0.92
  -4   0  -2   22.68    0.89
  -4   0  -2   23.52    0.83
  -4   0  -2   23.28    0.91
   4   0   2   23.33    0.81
   4   0   2   22.71    0.82
   4   0   2   22.08    0.92
   4   0   2   23.42    0.94
   4   0   2   22.74    0.92
   4   0   2   23.45    0.91
  -5   0  -2    6.22    0.44
  -5   0  -2    5.75    0.45
  -5   0  -2    5.90    0.42
  -5   0  -2    5.73    0.42
  -5   0  -2    6.16    0.44
  -5   0  -2    5.50    0.34
   5   0   2    6.40    0.48
   5   0   2    6.16    0.31
   5   0   2    5.62    0.50
   5   0   2    6.13    0.33
   5   0   2    7.00    0.43
   5   0   2    6.20    0.47
  -6   0  -2    0.91    0.26
  -6   0  -2    0.71    0.20
  -6   0  -2    0.59    0.24
  -6   0  -2    0.51    0.27
  -6   0  -2    0.91    0.24
  -6   0  -2    0.72    0.28
   6   0   2    0.54    0.15
   6   0   2    0.56    0.25
   6   0   2    0.47    0.17
   6   0   2    0.50    0.28
  -7   0  -2    7.29    0.58
  -7   0  -2    5.43    0.61
  -7   0  -2    6.68    0.68
  -7   0  -2    7.06    0.50
   7   0   2    6.11    0.64
   7   0   2    7.25    0.61
   7   0   2    6.84    0.43
   7   0   2    6.42    0.42
  -8   0  -2    0.32    0.40
  -8   0  -2   -0.29    0.37
  -8   0  -2    1.08    0.35
   8   0   2    0.16    0.22
   8   0   2    0.88    0.39
   8   0   2    0.68    0.43
  -9   0  -2    4.43    0.62
  -9   0  -2    3.40    0.55
  -9   0  -2    7.22    0.91
   9   0   2    5.48    0.69
  10  -1  -2    7.34    0.69
  10  -1  -2    6.91    0.86
 -10   1   2    7.47    0.81
 -10   1   2    4.83    0.68
 -10   1   2    6.78    0.90
   9  -1  -2    0.13    0.27
   9  -1  -2    0.62    0.44
   9  -1  -2   -0.05    0.36
  -9   1   2    0.18    0.32
  -9   1   2    0.40    0.38
  -9   1   2    0.52    0.38
   8  -1  -2    0.43    0.29
   8  -1  -2    0.80    0.26
   8  -1  -2    0.29    0.19
   8  -1  -2    0.33    0.33
  -8   1   2   -0.29    0.41
  -8   1   2    0.39    0.35
  -8   1   2    1.05    0.47
  -8   1   2    0.28    0.26
   7  -1  -2    3.76    0.36
   7  -1  -2    3.72    0.35
   7  -1  -2    3.55    0.48
   7  -1  -2    4.22    0.43
   7  -1  -2    4.32    0.31
  -7   1   2    3.92    0.44
  -7   1   2    3.56    0.40
  -7   1   2    4.00    0.53
  -7   1   2    3.87    0.46
  -7   1   2    3.80    0.41
   6  -1  -2   20.87    0.79
   6  -1  -2   19.64    0.92
   6  -1  -2   20.81    0.99
   6  -1  -2   21.48    0.90
   6  -1  -2   21.59    0.85
   6  -1  -2   21.43    0.91
  -6   1   2   20.84    0.94
  -6   1   2   20.01    0.88
  -6   1   2   23.09    0.98
  -6   1   2   21.18    0.93
  -6   1   2   21.97    0.89
  -6   1   2   21.43    0.92
  -6   1   2   20.95    0.84
   5  -1  -2    7.18    0.40
   5  -1  -2    6.67    0.48
   5  -1  -2    6.89    0.33
   5  -1  -2    7.47    0.45
   5  -1  -2    7.13    0.42
   5  -1  -2    6.85    0.45
   5  -1  -2    7.33    0.37
  -5   1   2    7.45    0.42
  -5   1   2    7.25    0.42
  -5   1   2    6.50    0.39
  -5   1   2    7.41    0.45
  -5   1   2    6.73    0.36
  -5   1   2    7.24    0.44
  -5   1   2    6.87    0.39
   4  -1  -2   79.39    2.65
   4  -1  -2   78.50    2.63
   4  -1  -2   79.43    2.65
   4  -1  -2   81.12    2.57
   4  -1  -2   78.19    2.67
   4  -1  -2   74.73    2.60
   4  -1  -2   79.47    2.64
  -4   1   2   74.07    2.71
  -4   1   2   81.29    2.62
  -4   1   2   80.46    2.65
  -4   1   2   78.59    2.65
  -4   1   2   79.91    2.63
  -4   1   2   79.06    2.57
  -4   1   2   80.89    2.65
   3  -1  -2    2.75    0.25
   3  -1  -2    2.68    0.21
   3  -1  -2    2.81    0.19
   3  -1  -2    2.81    0.17
   3  -1  -2    2.62    0.15
   3  -1  -2    2.86    0.20
   3  -1  -2    3.01    0.20
  -3   1   2    2.98    0.19
  -3   1   2    3.16    0.21
  -3   1   2    3.08    0.21
  -3   1   2    2.84    0.18
  -3   1   2    2.71    0.20
  -3   1   2    2.90    0.16
  -3   1   2    2.93    0.20
   2  -1  -2   18.17    0.72
   2  -1  -2   18.38    0.60
   2  -1  -2   17.89    0.64
   2  -1  -2   17.13    0.65
   2  -1  -2   18.63    0.61
   2  -1  -2   18.01    0.64
   2  -1  -2   17.95    0.66
   2  -1  -2   18.45    0.64
  -2   1   2   17.03    0.66
  -2   1   2   18.49    0.65
  -2   1   2   18.25    0.64
  -2   1   2   18.21    0.64
  -2   1   2   18.94    0.62
  -2   1   2   15.67    0.68
   1  -1  -2  418.72   13.46
   1  -1  -2  415.33   13.48
   1  -1  -2  432.34   13.52
   1  -1  -2  431.76   13.43
   1  -1  -2  400.87   13.39
   1  -1  -2  412.89   13.46
   1  -1  -2  423.30   13.44
  -1   1   2  423.66   13.47
  -1   1   2  413.31   13.45
  -1   1   2  427.97   13.37
  -1   1   2  436.67   13.56
  -1   1   2  417.85   13.50
  -1   1   2  433.36   13.52
  -1   1   2  409.75   13.40
  -1   1   2  429.42   13.46
   0  -1  -2  134.53    4.42
   0  -1  -2  137.18    4.43
   0  -1  -2  137.67    4.40
   0  -1  -2  133.82    4.41
   0  -1  -2  139.82    4.40
   0  -1  -2  134.58    4.41
   0   1   2  137.52    4.44
   0   1   2  144.11    4.42
   0   1   2  139.29    4.40
   0   1   2  136.73    4.40
   0   1   2  139.21    4.40
   0   1   2  142.08    4.41
   0   1   2  141.04    4.41
  -1  -1  -2   28.64    1.00
  -1  -1  -2   28.36    0.98
  -1  -1  -2   28.35    0.99
  -1  -1  -2   26.86    0.97
   1   1   2   29.23    0.96
   1   1   2   28.33    0.99
   1   1   2   28.37    0.99
   1   1   2   29.59    0.99
  -2  -1  -2   32.22    1.11
  -2  -1  -2   31.94    1.06
  -2  -1  -2   31.90    1.15
  -2  -1  -2   31.34    1.13
  -2  -1  -2   31.73    1.13
  -2  -1  -2   30.65    1.11
   2   1   2   32.49    1.07
   2   1   2   30.94    1.12
   2   1   2   29.90    1.13
   2   1   2   30.82    1.12
   2   1   2   34.72    1.14
   2   1   2   31.27    1.08
  -3  -1  -2   13.91    0.59
  -3  -1  -2   13.44    0.53
  -3  -1  -2   14.03    0.51
  -3  -1  -2   14.27    0.57
  -3  -1  -2   14.41    0.63
  -3  -1  -2   13.02    0.60
  -3  -1  -2   13.74    0.60
   3   1   2   14.12    0.54
   3   1   2   14.64    0.61
   3   1   2   14.28    0.64
   3   1   2   13.11    0.60
   3   1   2   14.23    0.61
   3   1   2   12.06    0.55
  -4  -1  -2    7.50    0.31
  -4  -1  -2    7.12    0.37
  -4  -1  -2    7.83    0.48
  -4  -1  -2    8.30    0.47
  -4  -1  -2    7.44    0.44
  -4  -1  -2    7.56    0.46
   4   1   2    8.50    0.49
   4   1   2    7.08    0.47
   4   1   2    8.22    0.37
   4   1   2    8.13    0.49
   4   1   2    8.16    0.46
   4   1   2    7.67    0.38
  -5  -1  -2   76.16    2.71
  -5  -1  -2   77.65    2.69
  -5  -1  -2   77.38    2.68
  -5  -1  -2   75.16    2.66
  -5  -1  -2   73.74    2.64
  -5  -1  -2   74.92    2.56
   5   1   2   79.77    2.54
   5   1   2   81.24    2.68
   5   1   2   71.39    2.67
   5   1   2   79.22    2.70
   5   1   2   72.46    2.55
  -6  -1  -2    0.52    0.31
  -6  -1  -2    0.92    0.27
  -6  -1  -2    1.04    0.31
  -6  -1  -2    1.09    0.23
  -6  -1  -2    0.45    0.26
   6   1   2    0.82    0.17
   6   1   2    0.65    0.28
   6   1   2    0.39    0.20
   6   1   2    1.12    0.31
  -7  -1  -2    5.09    0.52
  -7  -1  -2    5.08    0.65
  -7  -1  -2    5.33    0.59
  -7  -1  -2    6.03    0.67
   7   1   2    5.59    0.73
   7   1   2    5.38    0.41
  -8  -1  -2    3.30    0.57
  -8  -1  -2    3.29    0.52
  -8  -1  -2    2.78    0.52
   8   1   2    3.07    0.35
   8   1   2    3.08    0.60
   8   1   2    2.41    0.51
  -9  -1  -2    3.52    0.65
  -9  -1  -2    4.05    0.65
  -9  -1  -2    3.96    0.73
   9   1   2    4.59    0.69
  10  -2  -2    0.93    0.37
  10  -2  -2    0.63    0.49
  10  -2  -2    0.79    0.43
 -10   2   2    0.47    0.46
 -10   2   2    0.53    0.49
 -10   2   2    0.81    0.41
   9  -2  -2    0.23    0.41
   9  -2  -2    0.04    0.28
   9  -2  -2    0.61    0.26
   9  -2  -2    0.86    0.38
  -9   2   2    0.39    0.29
  -9   2   2    0.50    0.37
  -9   2   2   -0.14    0.32
   8  -2  -2    3.90    0.59
   8  -2  -2    3.49    0.46
   8  -2  -2    3.73    0.27
   8  -2  -2    3.61    0.44
  -8   2   2    3.78    0.51
  -8   2   2    3.38    0.44
  -8   2   2    3.37    0.47
  -8   2   2    3.62    0.44
   7  -2  -2    5.35    0.47
   7  -2  -2    4.85    0.27
   7  -2  -2    5.41    0.46
   7  -2  -2    5.51    0.38
  -7   2   2    4.49    0.53
  -7   2   2    5.46    0.48
  -7   2   2    5.16    0.41
  -7   2   2    4.41    0.54
  -7   2   2    4.03    0.46
  -7   2   2    5.25    0.47
   6  -2  -2   23.08    0.88
   6  -2  -2   21.28    1.02
   6  -2  -2   19.38    0.98
   6  -2  -2   23.99    0.94
   6  -2  -2   23.01    0.93
   6  -2  -2   22.77    0.79
  -6   2   2   24.38    0.96
  -6   2   2   20.88    0.91
  -6   2   2   22.40    0.91
  -6   2   2   21.97    0.96
  -6   2   2   22.43    0.90
  -6   2   2   23.87    0.99
  -6   2   2   23.36    0.98
   5  -2  -2    5.00    0.39
   5  -2  -2    5.04    0.38
   5  -2  -2    5.26    0.33
   5  -2  -2    5.31    0.40
   5  -2  -2    5.50    0.35
   5  -2  -2    5.14    0.24
   5  -2  -2    5.53    0.31
  -5   2   2    4.62    0.33
  -5   2   2    4.80    0.34
  -5   2   2    5.41    0.34
  -5   2   2    5.29    0.31
  -5   2   2    5.14    0.36
  -5   2   2    5.08    0.37
   4  -2  -2   18.64    0.72
   4  -2  -2   19.89    0.79
   4  -2  -2   18.96    0.76
   4  -2  -2   19.58    0.75
   4  -2  -2   19.48    0.79
   4  -2  -2   18.50    0.74
   4  -2  -2   20.22    0.66
  -4   2   2   19.13    0.78
  -4   2   2   19.89    0.77
  -4   2   2   18.75    0.73
  -4   2   2   18.80    0.74
  -4   2   2   19.99    0.76
  -4   2   2   19.57    0.76
  -4   2   2   19.58    0.73
   3  -2  -2   14.80    0.55
   3  -2  -2   14.67    0.54
   3  -2  -2   14.63    0.56
   3  -2  -2   14.20    0.50
   3  -2  -2   14.51    0.56
   3  -2  -2   14.33    0.58
   3  -2  -2   13.08    0.59
   3  -2  -2   14.40    0.56
   3  -2  -2   14.62    0.57
  -3   2   2   14.29    0.55
  -3   2   2   15.14    0.57
  -3   2   2   14.46    0.56
  -3   2   2   15.13    0.58
  -3   2   2   14.96    0.60
  -3   2   2   15.10    0.52
   2  -2  -2   46.34    1.55
   2  -2  -2   47.07    1.53
   2  -2  -2   44.33    1.53
   2  -2  -2   44.69    1.51
   2  -2  -2   47.06    1.52
   2  -2  -2   46.09    1.51
   2  -2  -2   42.50    1.53
   2  -2  -2   44.21    1.48
  -2   2   2   45.77    1.52
  -2   2   2   48.36    1.48
  -2   2   2   45.01    1.51
  -2   2   2   44.10    1.50
  -2   2   2   47.61    1.52
  -2   2   2   45.91    1.52
  -2   2   2   44.85    1.55
   1  -2  -2  689.96   22.56
   1  -2  -2  740.16   22.66
   1  -2  -2  727.80   22.60
   1  -2  -2  714.92   22.67
   1  -2  -2  677.81   22.62
   1  -2  -2  708.66   22.57
   1  -2  -2  718.78   22.62
  -1   2   2  668.43   22.55
  -1   2   2  692.23   22.63
  -1   2   2  685.80   22.65
  -1   2   2  730.27   22.58
  -1   2   2  698.09   22.58
  -1   2   2  739.97   22.59
  -1   2   2  731.25   22.56
  -1   2   2  709.56   22.67
   0  -2  -2   66.03    2.16
   0  -2  -2   66.66    2.13
   0  -2  -2   65.71    2.14
   0  -2  -2   67.90    2.14
   0  -2  -2   66.25    2.15
   0   2   2   65.59    2.17
   0   2   2   58.49    2.14
   0   2   2   66.23    2.14
   0   2   2   67.27    2.14
   0   2   2   64.76    2.12
   0   2   2   65.30    2.14
   0   2   2   64.70    2.13
  -1  -2  -2   18.43    0.80
  -1  -2  -2   19.77    0.72
  -1  -2  -2   19.45    0.75
  -1  -2  -2   19.85    0.74
  -1  -2  -2   20.64    0.74
   1   2   2   20.47    0.74
   1   2   2   19.20    0.74
   1   2   2   20.37    0.72
   1   2   2   20.39    0.74
  -2  -2  -2    2.46    0.20
  -2  -2  -2    2.15    0.24
  -2  -2  -2    2.40    0.18
  -2  -2  -2    1.93    0.21
  -2  -2  -2    2.33    0.26
  -2  -2  -2    2.28    0.20
   2   2   2    2.43    0.21
   2   2   2    2.38    0.19
   2   2   2    1.76    0.22
   2   2   2    2.38    0.22
   2   2   2    2.40    0.19
   2   2   2    2.07    0.22
  -3  -2  -2   33.76    1.13
  -3  -2  -2   32.37    1.19
  -3  -2  -2   32.98    1.23
  -3  -2  -2   30.72    1.20
  -3  -2  -2   32.21    1.18
  -3  -2  -2   30.98    1.24
   3   2   2   31.66    1.22
   3   2   2   30.85    1.21
   3   2   2   32.76    1.24
   3   2   2   32.66    1.15
   3   2   2   32.31    1.21
   3   2   2   33.05    1.16
  -4  -2  -2   23.38    0.99
  -4  -2  -2   24.53    1.03
  -4  -2  -2   25.09    1.03
  -4  -2  -2   25.36    0.90
  -4  -2  -2   25.07    1.07
   4   2   2   24.24    0.95
   4   2   2   24.72    1.04
   4   2   2   26.50    0.95
   4   2   2   25.16    1.06
   4   2   2   24.60    1.02
   4   2   2   23.99    1.04
  -5  -2  -2    1.49    0.31
  -5  -2  -2    1.29    0.32
  -5  -2  -2    1.36    0.22
  -5  -2  -2    1.15    0.29
  -5  -2  -2    1.05    0.26
  -5  -2  -2    0.69    0.21
   5   2   2    1.59    0.22
   5   2   2    2.21    0.35
   5   2   2    1.53    0.33
   5   2   2    1.36    0.24
   5   2   2    1.53    0.28
  -6  -2  -2    5.99    0.61
  -6  -2  -2    6.51    0.65
  -6  -2  -2    5.78    0.62
  -6  -2  -2    6.81    0.48
  -6  -2  -2    6.89    0.57
   6   2   2    6.39    0.43
   6   2   2    5.64    0.58
   6   2   2    6.00    0.65
  -7  -2  -2    1.71    0.42
  -7  -2  -2    2.61    0.49
  -7  -2  -2    2.27    0.45
   7   2   2    3.20    0.50
   7   2   2    2.44    0.32
   7   2   2    3.21    0.54
  -8  -2  -2    3.27    0.58
  -8  -2  -2    3.37    0.62
  -8  -2  -2    3.19    0.55
   8   2   2    3.84    0.51
   8   2   2    3.40    0.58
   8   2   2    2.02    0.83
  10  -3  -2    0.93    0.41
  10  -3  -2    0.76    0.36
  10  -3  -2    0.32    0.47
 -10   3   2    0.15    0.43
 -10   3   2   -0.02    0.38
 -10   3   2    0.57    0.48
   9  -3  -2    2.75    0.46
   9  -3  -2    2.70    0.36
   9  -3  -2    1.80    0.30
   9  -3  -2    1.19    0.35
  -9   3   2    2.24    0.41
  -9   3   2    1.84    0.36
  -9   3   2    1.62    0.43
   8  -3  -2    1.74    0.28
   8  -3  -2    2.07    0.33
   8  -3  -2    2.25    0.36
   8  -3  -2    1.94    0.18
   8  -3  -2    2.24    0.37
  -8   3   2    1.56    0.30
  -8   3   2    1.64    0.38
  -8   3   2    2.15    0.37
   7  -3  -2    1.15    0.26
   7  -3  -2    1.29    0.26
   7  -3  -2    1.26    0.21
   7  -3  -2    1.24    0.16
   7  -3  -2    1.61    0.27
  -7   3   2    1.17    0.32
  -7   3   2    0.94    0.27
  -7   3   2    0.95    0.33
  -7   3   2    1.97    0.34
  -7   3   2    1.28    0.25
  -7   3   2    1.40    0.29
   6  -3  -2    2.19    0.30
   6  -3  -2    1.79    0.22
   6  -3  -2    1.57    0.22
   6  -3  -2    1.51    0.16
   6  -3  -2    1.83    0.40
   6  -3  -2    1.69    0.25
   6  -3  -2    2.03    0.27
  -6   3   2    1.66    0.25
  -6   3   2    1.67    0.28
  -6   3   2    1.53    0.27
  -6   3   2    1.80    0.26
  -6   3   2    1.60    0.21
  -6   3   2    1.79    0.27
  -6   3   2    2.18    0.28
   5  -3  -2    9.97    0.55
   5  -3  -2   10.52    0.47
   5  -3  -2   10.99    0.40
   5  -3  -2   10.37    0.50
   5  -3  -2    9.11    0.57
   5  -3  -2   10.66    0.49
   5  -3  -2   10.00    0.52
   5  -3  -2   10.24    0.55
   5  -3  -2   10.10    0.38
  -5   3   2   10.59    0.54
  -5   3   2   10.66    0.50
  -5   3   2   10.99    0.50
  -5   3   2    9.54    0.52
  -5   3   2   10.34    0.47
  -5   3   2   10.31    0.54
  -5   3   2   10.58    0.53
   4  -3  -2    3.57    0.17
   4  -3  -2    3.39    0.28
   4  -3  -2    3.60    0.22
   4  -3  -2    3.72    0.27
   4  -3  -2    3.97    0.33
   4  -3  -2    3.61    0.17
   4  -3  -2    3.49    0.24
   4  -3  -2    3.92    0.25
   4  -3  -2    3.49    0.24
   4  -3  -2    3.71    0.24
  -4   3   2    3.28    0.23
  -4   3   2    3.66    0.26
  -4   3   2    3.60    0.29
  -4   3   2    3.19    0.25
  -4   3   2    3.59    0.19
  -4   3   2    3.53    0.22
  -4   3   2    3.66    0.33
  -4   3   2    3.64    0.25
   3  -3  -2   58.03    1.95
   3  -3  -2   57.06    1.88
   3  -3  -2   56.37    1.88
   3  -3  -2   57.49    1.92
   3  -3  -2   58.96    1.91
   3  -3  -2   57.07    1.89
   3  -3  -2   56.16    1.83
   3  -3  -2   57.00    1.88
  -3   3   2   57.19    1.89
  -3   3   2   55.48    1.88
  -3   3   2   56.19    1.94
  -3   3   2   52.85    1.83
  -3   3   2   56.06    1.86
  -3   3   2   55.36    1.89
   2  -3  -2  103.42    3.32
   2  -3  -2  101.70    3.32
   2  -3  -2  110.54    3.32
   2  -3  -2   96.44    3.32
   2  -3  -2  105.31    3.38
   2  -3  -2  102.49    3.30
  -2   3   2  104.42    3.32
  -2   3   2  104.24    3.32
  -2   3   2  100.02    3.31
  -2   3   2  104.39    3.33
  -2   3   2   99.09    3.29
  -2   3   2  101.40    3.29
  -2   3   2  101.50    3.32
  -2   3   2  103.27    3.37
  -2   3   2  103.28    3.32
   1  -3  -2    3.55    0.24
   1  -3  -2    3.74    0.19
   1  -3  -2    3.76    0.21
   1  -3  -2    3.96    0.22
   1  -3  -2    3.93    0.21
   1  -3  -2    3.76    0.22
  -1   3   2    3.88    0.21
  -1   3   2    4.23    0.24
  -1   3   2    3.81    0.20
  -1   3   2    3.99    0.21
  -1   3   2    3.81    0.19
  -1   3   2    3.77    0.20
  -1   3   2    3.67    0.20
   0  -3  -2   13.64    0.56
   0  -3  -2   14.25    0.54
   0  -3  -2   13.97    0.56
   0  -3  -2   14.09    0.53
   0  -3  -2   13.52    0.56
   0  -3  -2   14.48    0.57
   0   3   2   13.74    0.54
   0   3   2   15.01    0.57
   0   3   2   14.04    0.55
   0   3   2   14.80    0.57
   0   3   2   14.37    0.54
   0   3   2   13.40    0.53
  -1  -3  -2   14.12    0.59
  -1  -3  -2   13.03    0.56
  -1  -3  -2   13.18    0.57
  -1  -3  -2   13.44    0.54
  -1  -3  -2   14.09    0.56
  -1  -3  -2   13.95    0.57
  -1  -3  -2   13.15    0.62
   1   3   2   13.36    0.56
   1   3   2   13.54    0.55
   1   3   2   13.21    0.56
   1   3   2   14.73    0.60
   1   3   2   13.95    0.57
  -2  -3  -2   43.30    1.50
  -2  -3  -2   42.37    1.53
  -2  -3  -2   44.64    1.55
  -2  -3  -2   40.17    1.51
  -2  -3  -2   44.99    1.51
  -2  -3  -2   41.91    1.56
  -2  -3  -2   42.69    1.49
   2   3   2   42.94    1.49
   2   3   2   44.83    1.53
   2   3   2   42.16    1.53
   2   3   2   41.77    1.52
   2   3   2   42.29    1.55
   2   3   2   40.67    1.48
  -3  -3  -2    4.65    0.30
  -3  -3  -2    4.78    0.40
  -3  -3  -2    5.01    0.37
  -3  -3  -2    4.46    0.34
  -3  -3  -2    4.82    0.39
   3   3   2    5.01    0.39
   3   3   2    3.72    0.38
   3   3   2    4.35    0.24
   3   3   2    5.16    0.36
   3   3   2    5.00    0.33
   3   3   2    4.28    0.31
   3   3   2    4.77    0.40
  -4  -3  -2    2.46    0.32
  -4  -3  -2    2.36    0.31
  -4  -3  -2    2.63    0.34
  -4  -3  -2    2.50    0.25
  -4  -3  -2    2.12    0.35
   4   3   2    2.40    0.37
   4   3   2    2.93    0.35
   4   3   2    2.92    0.36
   4   3   2    2.77    0.30
   4   3   2    1.93    0.30
   4   3   2    2.33    0.33
  -5  -3  -2    7.18    0.40
  -5  -3  -2    7.48    0.62
  -5  -3  -2    6.75    0.59
  -5  -3  -2    6.50    0.62
   5   3   2    7.46    0.66
   5   3   2    8.06    0.48
   5   3   2    7.83    0.63
   5   3   2    7.16    0.57
  -6  -3  -2    3.36    0.43
  -6  -3  -2    2.94    0.46
  -6  -3  -2    3.78    0.56
   6   3   2    2.72    0.34
   6   3   2    2.53    0.46
   6   3   2    2.24    0.42
  -7  -3  -2    6.96    0.80
  -7  -3  -2    8.39    0.76
  -7  -3  -2    6.79    0.88
   7   3   2    6.39    0.56
   7   3   2    7.24    0.78
   7   3   2    8.24    0.93
  -8  -3  -2    5.46    0.70
  -8  -3  -2    4.66    0.67
  -8  -3  -2    3.99    0.65
   8   3   2    4.79    0.73
  10  -4  -2    0.39    0.43
  10  -4  -2    1.24    0.34
  10  -4  -2    1.35    0.51
 -10   4   2    0.87    0.43
 -10   4   2    1.09    0.51
 -10   4   2    1.06    0.37
   9  -4  -2    1.08    0.35
   9  -4  -2    1.17    0.38
   9  -4  -2    1.01    0.29
  -9   4   2    0.97    0.31
  -9   4   2    1.67    0.44
  -9   4   2    0.44    0.32
   8  -4  -2    4.51    0.53
   8  -4  -2    4.55    0.40
   8  -4  -2    5.85    0.45
   8  -4  -2    5.89    0.52
   8  -4  -2    5.96    0.54
   8  -4  -2    6.32    0.45
  -8   4   2    5.29    0.44
  -8   4   2    6.27    0.55
  -8   4   2    5.39    0.61
   7  -4  -2    5.94    0.46
   7  -4  -2    4.37    0.33
   7  -4  -2    5.77    0.44
   7  -4  -2    5.11    0.39
   7  -4  -2    5.26    0.52
  -7   4   2    4.99    0.50
  -7   4   2    5.71    0.45
  -7   4   2    5.47    0.54
  -7   4   2    6.02    0.41
  -7   4   2    5.26    0.65
   6  -4  -2    2.99    0.27
   6  -4  -2    2.96    0.31
   6  -4  -2    2.89    0.17
   6  -4  -2    2.97    0.31
   6  -4  -2    3.17    0.24
  -6   4   2    2.84    0.34
  -6   4   2    3.04    0.26
  -6   4   2    3.06    0.38
  -6   4   2    3.04    0.37
  -6   4   2    3.36    0.49
  -6   4   2    3.03    0.30
   5  -4  -2    8.47    0.44
   5  -4  -2    8.97    0.50
   5  -4  -2    9.07    0.46
   5  -4  -2    8.81    0.44
   5  -4  -2    8.75    0.34
   5  -4  -2    7.35    0.56
   5  -4  -2    9.06    0.52
   5  -4  -2    9.14    0.46
   5  -4  -2    8.44    0.37
  -5   4   2    8.23    0.55
  -5   4   2    8.66    0.48
  -5   4   2    8.91    0.41
  -5   4   2    9.46    0.45
  -5   4   2    9.22    0.52
  -5   4   2    8.92    0.46
  -5   4   2    9.20    0.48
   4  -4  -2    1.94    0.19
   4  -4  -2    1.71    0.23
   4  -4  -2    2.24    0.24
   4  -4  -2    1.55    0.23
   4  -4  -2    1.53    0.19
   4  -4  -2    1.79    0.18
   4  -4  -2    1.76    0.20
  -4   4   2    2.04    0.19
  -4   4   2    1.67    0.20
  -4   4   2    1.73    0.12
  -4   4   2    1.97    0.17
  -4   4   2    1.48    0.20
  -4   4   2    1.77    0.25
  -4   4   2    1.88    0.22
   3  -4  -2   62.21    2.06
   3  -4  -2   58.81    2.14
   3  -4  -2   62.53    2.03
   3  -4  -2   61.86    2.05
   3  -4  -2   62.68    2.14
   3  -4  -2   61.93    2.08
   3  -4  -2   64.22    2.08
   3  -4  -2   57.79    2.04
  -3   4   2   57.42    2.02
  -3   4   2   63.00    2.08
  -3   4   2   63.68    2.07
  -3   4   2   63.14    2.04
  -3   4   2   60.84    2.07
  -3   4   2   64.26    2.06
  -3   4   2   61.62    2.07
  -3   4   2   62.03    2.13
   2  -4  -2  216.24    6.84
   2  -4  -2  214.50    6.90
   2  -4  -2  206.51    6.83
   2  -4  -2  212.25    6.84
   2  -4  -2  216.91    6.82
   2  -4  -2  208.24    6.84
   2  -4  -2  207.86    6.86
  -2   4   2  221.61    6.85
  -2   4   2  213.14    6.83
  -2   4   2  210.43    6.82
  -2   4   2  208.81    6.89
  -2   4   2  214.91    6.84
  -2   4   2  219.16    6.84
  -2   4   2  215.80    6.84
  -2   4   2  222.69    6.85
  -2   4   2  213.04    6.81
   1  -4  -2   36.42    1.29
   1  -4  -2   35.79    1.26
   1  -4  -2   36.83    1.26
   1  -4  -2   35.80    1.25
   1  -4  -2   35.22    1.25
   1  -4  -2   37.17    1.23
   1  -4  -2   33.92    1.26
   1  -4  -2   35.93    1.21
  -1   4   2   31.23    1.25
  -1   4   2   37.52    1.25
  -1   4   2   36.02    1.22
  -1   4   2   35.48    1.22
  -1   4   2   36.86    1.27
  -1   4   2   34.27    1.23
  -1   4   2   35.71    1.23
   0  -4  -2   10.86    0.52
   0  -4  -2   11.83    0.52
   0  -4  -2   11.53    0.49
   0  -4  -2   11.62    0.51
   0  -4  -2   11.40    0.52
   0  -4  -2   11.46    0.48
   0  -4  -2   12.18    0.54
   0   4   2   11.45    0.49
   0   4   2   11.59    0.49
   0   4   2   11.79    0.49
   0   4   2   11.58    0.51
   0   4   2   11.79    0.49
   0   4   2   12.12    0.50
   0   4   2   11.91    0.52
  -1  -4  -2    5.48    0.36
  -1  -4  -2    5.31    0.38
  -1  -4  -2    5.09    0.33
  -1  -4  -2    5.16    0.30
  -1  -4  -2    4.97    0.34
  -1  -4  -2    4.92    0.32
  -1  -4  -2    5.30    0.33
   1   4   2    5.23    0.33
   1   4   2    5.52    0.33
   1   4   2    5.43    0.35
   1   4   2    5.62    0.34
   1   4   2    4.68    0.32
   1   4   2    4.79    0.31
  -2  -4  -2    4.87    0.41
  -2  -4  -2    4.67    0.35
  -2  -4  -2    5.29    0.35
  -2  -4  -2    5.17    0.39
  -2  -4  -2    5.18    0.36
  -2  -4  -2    4.98    0.37
  -2  -4  -2    4.38    0.33
   2   4   2    4.73    0.34
   2   4   2    5.29    0.34
   2   4   2    4.56    0.33
   2   4   2    4.03    0.36
   2   4   2    4.58    0.38
   2   4   2    5.31    0.37
  -3  -4  -2   16.59    0.78
  -3  -4  -2   16.72    0.82
  -3  -4  -2   17.75    0.74
  -3  -4  -2   17.07    0.77
  -3  -4  -2   16.41    0.84
   3   4   2   16.63    0.67
   3   4   2   18.22    0.76
   3   4   2   16.59    0.79
   3   4   2   17.85    0.79
   3   4   2   16.02    0.82
   3   4   2   15.55    0.78
  -4  -4  -2    3.68    0.44
  -4  -4  -2    2.51    0.38
  -4  -4  -2    3.11    0.39
  -4  -4  -2    3.95    0.35
  -4  -4  -2    4.52    0.52
   4   4   2    3.52    0.43
   4   4   2    2.96    0.38
   4   4   2    3.17    0.38
   4   4   2    3.54    0.48
  -5  -4  -2    3.45    0.49
  -5  -4  -2    2.72    0.52
  -5  -4  -2    3.93    0.54
  -5  -4  -2    3.47    0.36
   5   4   2    3.53    0.44
   5   4   2    4.69    0.63
   5   4   2    3.37    0.44
  -6  -4  -2    1.64    0.44
  -6  -4  -2    1.05    0.47
  -6  -4  -2    1.04    0.23
  -6  -4  -2    1.29    0.39
   6   4   2    1.16    0.31
   6   4   2    1.91    0.49
   6   4   2    0.89    0.40
  -7  -4  -2    1.33    0.57
  -7  -4  -2    1.22    0.53
  -7  -4  -2    0.60    0.45
   7   4   2    0.57    0.32
   7   4   2    0.51    0.46
   7   4   2    2.11    0.57
  10  -5  -2    1.72    0.52
  10  -5  -2    1.50    0.48
 -10   5   2    0.66    0.56
 -10   5   2    1.09    0.42
 -10   5   2    2.86    0.40
   9  -5  -2    3.46    0.78
   9  -5  -2    3.89    0.48
  -9   5   2    4.07    0.43
  -9   5   2    4.12    0.48
  -9   5   2    4.77    0.61
   8  -5  -2    7.01    0.59
   8  -5  -2    6.02    0.71
   8  -5  -2    6.18    0.55
   8  -5  -2    6.17    0.46
   8  -5  -2    6.80    0.57
  -8   5   2    6.26    0.53
  -8   5   2    6.38    0.68
  -8   5   2    7.49    0.47
   7  -5  -2   12.31    0.67
   7  -5  -2   11.97    0.65
   7  -5  -2   12.50    0.65
  -7   5   2    9.20    0.86
  -7   5   2   12.31    0.74
  -7   5   2   12.83    0.59
  -7   5   2   12.40    0.71
  -7   5   2   11.99    0.76
  -7   5   2   11.79    0.63
   6  -5  -2    0.70    0.16
   6  -5  -2    0.99    0.21
   6  -5  -2    1.25    0.21
   6  -5  -2    1.10    0.13
   6  -5  -2    1.03    0.22
   6  -5  -2    0.76    0.20
  -6   5   2    0.50    0.24
  -6   5   2    1.28    0.27
  -6   5   2    1.02    0.17
  -6   5   2    1.34    0.26
   5  -5  -2    0.73    0.17
   5  -5  -2    0.82    0.21
   5  -5  -2    0.63    0.16
   5  -5  -2    0.79    0.17
  -5   5   2    0.78    0.14
  -5   5   2    0.97    0.13
  -5   5   2    0.47    0.14
  -5   5   2    0.80    0.18
  -5   5   2    0.90    0.21
  -5   5   2    0.84    0.21
   4  -5  -2    7.36    0.48
   4  -5  -2    7.73    0.37
   4  -5  -2    7.04    0.34
   4  -5  -2    7.39    0.37
   4  -5  -2    6.83    0.50
   4  -5  -2    7.63    0.41
   4  -5  -2    6.39    0.38
   4  -5  -2    7.13    0.41
  -4   5   2    7.13    0.30
  -4   5   2    6.87    0.39
  -4   5   2    7.53    0.36
  -4   5   2    7.53    0.46
  -4   5   2    7.60    0.40
  -4   5   2    6.77    0.38
  -4   5   2    6.47    0.40
  -4   5   2    7.52    0.35
   3  -5  -2    1.08    0.19
   3  -5  -2    1.01    0.22
   3  -5  -2    0.92    0.15
   3  -5  -2    0.96    0.15
   3  -5  -2    0.83    0.14
   3  -5  -2    0.86    0.14
   3  -5  -2    1.05    0.26
   3  -5  -2    0.65    0.13
   3  -5  -2    1.05    0.16
  -3   5   2    0.78    0.15
  -3   5   2    0.83    0.17
  -3   5   2    0.95    0.11
  -3   5   2    0.81    0.12
  -3   5   2    1.05    0.15
  -3   5   2    0.79    0.12
  -3   5   2    1.01    0.17
  -3   5   2    0.89    0.14
  -3   5   2    1.03    0.15
   2  -5  -2   57.59    1.94
   2  -5  -2   55.99    1.90
   2  -5  -2   53.95    1.91
   2  -5  -2   52.54    1.97
   2  -5  -2   56.92    1.94
   2  -5  -2   59.49    1.94
   2  -5  -2   56.34    2.00
   2  -5  -2   57.79    1.96
  -2   5   2   57.16    1.95
  -2   5   2   56.53    1.97
  -2   5   2   58.99    1.90
  -2   5   2   58.75    1.92
  -2   5   2   56.29    1.91
  -2   5   2   56.13    1.93
  -2   5   2   58.73    1.91
  -2   5   2   58.10    1.93
   1  -5  -2    3.10    0.28
   1  -5  -2    3.78    0.28
   1  -5  -2    3.89    0.31
   1  -5  -2    3.86    0.28
   1  -5  -2    3.62    0.23
   1  -5  -2    3.59    0.28
   1  -5  -2    3.49    0.30
   1  -5  -2    3.56    0.24
  -1   5   2    3.43    0.24
  -1   5   2    3.43    0.26
  -1   5   2    3.52    0.27
  -1   5   2    3.90    0.23
  -1   5   2    3.72    0.24
  -1   5   2    3.46    0.25
  -1   5   2    3.70    0.26
   0  -5  -2    3.33    0.25
   0  -5  -2    3.88    0.31
   0  -5  -2    3.23    0.30
   0  -5  -2    3.68    0.35
   0  -5  -2    3.57    0.32
   0  -5  -2    3.99    0.31
   0  -5  -2    3.57    0.26
   0   5   2    4.05    0.30
   0   5   2    3.80    0.28
   0   5   2    3.62    0.27
   0   5   2    4.02    0.28
   0   5   2    3.61    0.29
   0   5   2    3.91    0.31
   0   5   2    3.67    0.26
  -1  -5  -2   38.25    1.41
  -1  -5  -2   38.38    1.47
  -1  -5  -2   41.14    1.49
  -1  -5  -2   38.58    1.42
  -1  -5  -2   40.71    1.50
  -1  -5  -2   36.38    1.39
  -1  -5  -2   41.07    1.48
   1   5   2   37.75    1.42
   1   5   2   40.24    1.45
   1   5   2   40.62    1.43
   1   5   2   40.82    1.48
   1   5   2   37.03    1.49
   1   5   2   37.86    1.45
   1   5   2   41.61    1.44
  -2  -5  -2    5.08    0.40
  -2  -5  -2    5.90    0.49
  -2  -5  -2    5.64    0.41
  -2  -5  -2    5.25    0.46
  -2  -5  -2    5.21    0.41
   2   5   2    5.92    0.41
   2   5   2    4.90    0.41
   2   5   2    5.24    0.40
   2   5   2    4.93    0.44
   2   5   2    5.15    0.41
   2   5   2    5.56    0.42
  -3  -5  -2   11.06    0.73
  -3  -5  -2   12.14    0.72
  -3  -5  -2   11.87    0.64
  -3  -5  -2   12.45    0.64
   3   5   2   12.34    0.72
   3   5   2   11.45    0.66
   3   5   2   11.42    0.64
   3   5   2   11.15    0.57
   3   5   2   11.35    0.70
   3   5   2   11.40    0.66
  -4  -5  -2   12.99    0.89
  -4  -5  -2   11.46    0.74
  -4  -5  -2   13.10    0.69
  -4  -5  -2   12.37    0.82
   4   5   2   13.69    0.54
   4   5   2   13.51    0.84
   4   5   2   13.68    0.72
   4   5   2   12.85    0.77
   4   5   2   12.06    0.78
  -5  -5  -2    0.90    0.41
  -5  -5  -2    0.79    0.26
  -5  -5  -2    1.41    0.45
   5   5   2    0.82    0.29
   5   5   2    1.24    0.46
   5   5   2    0.75    0.36
  -6  -5  -2    2.82    0.49
  -6  -5  -2    2.05    0.55
   6   5   2    3.09    0.56
   6   5   2    2.62    0.43
   6   5   2    2.73    0.56
  -7  -5  -2    4.13    0.77
  -7  -5  -2    3.44    0.74
   7   5   2    4.82    0.56
   7   5   2    4.95    0.84
   7   5   2    4.44    0.70
   9  -6  -2    3.21    0.54
   9  -6  -2    2.39    0.44
  -9   6   2    2.33    0.57
  -9   6   2    3.09    0.38
  -9   6   2    3.14    0.42
   8  -6  -2    6.84    0.64
   8  -6  -2    8.20    0.62
   8  -6  -2    7.01    0.61
  -8   6   2    6.98    0.47
  -8   6   2    7.49    0.73
   7  -6  -2    2.25    0.35
   7  -6  -2    1.92    0.31
   7  -6  -2    2.17    0.30
   7  -6  -2    2.03    0.31
  -7   6   2    1.67    0.24
  -7   6   2    1.86    0.27
  -7   6   2    1.59    0.36
  -7   6   2    1.73    0.41
  -7   6   2    2.75    0.40
   6  -6  -2    3.26    0.43
   6  -6  -2    3.11    0.38
   6  -6  -2    3.27    0.36
   6  -6  -2    2.56    0.34
   6  -6  -2    3.21    0.43
  -6   6   2    3.30    0.28
  -6   6   2    3.48    0.50
  -6   6   2    3.67    0.40
  -6   6   2    3.23    0.36
   5  -6  -2    4.59    0.34
   5  -6  -2    3.97    0.35
   5  -6  -2    3.51    0.43
   5  -6  -2    4.04    0.32
   5  -6  -2    3.46    0.39
   5  -6  -2    3.64    0.29
  -5   6   2    3.75    0.26
  -5   6   2    4.57    0.44
  -5   6   2    4.26    0.22
  -5   6   2    4.04    0.37
  -5   6   2    3.65    0.28
  -5   6   2    3.94    0.34
   4  -6  -2   20.74    1.02
   4  -6  -2   23.78    0.88
   4  -6  -2   21.49    0.91
   4  -6  -2   23.14    0.97
   4  -6  -2   22.31    0.87
   4  -6  -2   22.84    0.86
  -4   6   2   22.42    0.84
  -4   6   2   23.44    0.79
  -4   6   2   22.77    0.96
  -4   6   2   22.56    0.86
  -4   6   2   23.85    0.88
  -4   6   2   20.01    0.91
  -4   6   2   22.89    0.88
  -4   6   2   22.16    0.80
   3  -6  -2   27.65    1.03
   3  -6  -2   25.09    0.99
   3  -6  -2   27.11    1.11
   3  -6  -2   28.35    1.04
   3  -6  -2   27.28    1.03
   3  -6  -2   25.97    1.19
   3  -6  -2   28.11    1.03
   3  -6  -2   28.98    1.14
   3  -6  -2   26.80    1.06
  -3   6   2   26.61    1.01
  -3   6   2   27.91    1.01
  -3   6   2   25.13    1.03
  -3   6   2   29.91    1.10
  -3   6   2   27.67    1.02
  -3   6   2   28.36    1.00
  -3   6   2   27.65    0.96
  -3   6   2   27.28    1.01
  -3   6   2   27.28    1.10
   2  -6  -2   11.05    0.55
   2  -6  -2    9.67    0.47
   2  -6  -2   10.84    0.58
   2  -6  -2   11.67    0.54
   2  -6  -2   10.16    0.49
   2  -6  -2   11.27    0.55
   2  -6  -2   10.87    0.52
   2  -6  -2   12.62    0.62
  -2   6   2   11.00    0.52
  -2   6   2   10.33    0.47
  -2   6   2   10.96    0.54
  -2   6   2   10.83    0.49
  -2   6   2   11.31    0.56
  -2   6   2   10.52    0.49
  -2   6   2   11.21    0.52
  -2   6   2   10.80    0.47
   1  -6  -2    7.27    0.47
   1  -6  -2    6.75    0.46
   1  -6  -2    7.53    0.45
   1  -6  -2    6.74    0.38
   1  -6  -2    6.30    0.37
   1  -6  -2    7.81    0.44
   1  -6  -2    7.91    0.47
  -1   6   2    6.79    0.41
  -1   6   2    7.54    0.39
  -1   6   2    7.58    0.37
  -1   6   2    7.91    0.41
  -1   6   2    7.00    0.39
  -1   6   2    7.18    0.43
  -1   6   2    7.84    0.43
   0  -6  -2    1.99    0.27
   0  -6  -2    2.33    0.31
   0  -6  -2    2.11    0.29
   0  -6  -2    2.18    0.28
   0  -6  -2    1.97    0.28
   0  -6  -2    2.55    0.35
   0   6   2    2.27    0.26
   0   6   2    2.36    0.28
   0   6   2    1.66    0.24
   0   6   2    2.61    0.32
   0   6   2    2.07    0.25
   0   6   2    2.16    0.30
   0   6   2    2.44    0.27
  -1  -6  -2    7.86    0.52
  -1  -6  -2    6.87    0.56
  -1  -6  -2    7.91    0.57
  -1  -6  -2    7.35    0.49
   1   6   2    7.48    0.47
   1   6   2    7.23    0.47
   1   6   2    7.46    0.56
   1   6   2    7.77    0.52
   1   6   2    7.68    0.51
   1   6   2    8.00    0.50
   1   6   2    8.17    0.50
  -2  -6  -2    6.84    0.52
  -2  -6  -2    6.96    0.61
  -2  -6  -2    5.72    0.50
  -2  -6  -2    6.70    0.58
   2   6   2    6.63    0.51
   2   6   2    6.56    0.51
   2   6   2    6.42    0.53
   2   6   2    6.73    0.51
   2   6   2    6.90    0.51
   2   6   2    6.74    0.56
  -3  -6  -2    1.25    0.33
  -3  -6  -2    0.75    0.33
  -3  -6  -2    1.63    0.30
  -3  -6  -2    1.62    0.39
   3   6   2    1.03    0.33
   3   6   2    1.36    0.30
   3   6   2    1.64    0.33
   3   6   2    1.21    0.30
   3   6   2    1.12    0.30
  -4  -6  -2    6.95    0.80
  -4  -6  -2    6.36    0.71
  -4  -6  -2    6.30    0.56
   4   6   2    6.09    0.70
   4   6   2    5.23    0.59
   4   6   2    6.63    0.69
  -5  -6  -2    0.99    0.34
  -5  -6  -2    1.12    0.45
  -5  -6  -2    0.91    0.51
   5   6   2    1.14    0.37
   5   6   2    0.83    0.39
   5   6   2    0.78    0.46
  -6  -6  -2    2.60    0.62
   6   6   2    0.79    0.53
   6   6   2    1.12    0.41
   6   6   2    0.85    0.49
   9  -7  -2    1.67    0.43
  -9   7   2    2.84    0.35
  -9   7   2    2.96    0.56
  -9   7   2    2.02    0.35
   8  -7  -2    6.33    0.63
   8  -7  -2    7.94    0.67
   8  -7  -2    7.18    0.70
  -8   7   2    6.37    0.51
  -8   7   2    6.60    0.73
  -8   7   2    6.99    0.48
   7  -7  -2    1.68    0.34
   7  -7  -2    1.48    0.32
   7  -7  -2    1.89    0.38
   7  -7  -2    1.30    0.37
  -7   7   2    1.84    0.25
  -7   7   2    1.54    0.24
  -7   7   2    1.47    0.38
   6  -7  -2    1.56    0.35
   6  -7  -2    1.22    0.27
   6  -7  -2    1.10    0.25
   6  -7  -2    1.50    0.33
   6  -7  -2    1.54    0.27
  -6   7   2    1.39    0.28
  -6   7   2    1.42    0.21
  -6   7   2    1.91    0.25
  -6   7   2    1.78    0.37
  -6   7   2    1.43    0.30
  -6   7   2    1.59    0.18
   5  -7  -2    3.37    0.39
   5  -7  -2    3.70    0.36
   5  -7  -2    3.16    0.34
   5  -7  -2    3.61    0.45
   5  -7  -2    3.50    0.51
  -5   7   2    3.11    0.38
  -5   7   2    3.09    0.38
  -5   7   2    3.33    0.35
  -5   7   2    3.79    0.28
  -5   7   2    3.33    0.22
   4  -7  -2   13.64    0.76
   4  -7  -2   14.84    0.68
   4  -7  -2   14.77    0.68
   4  -7  -2   14.27    0.71
   4  -7  -2   16.35    0.88
   4  -7  -2   14.90    0.67
  -4   7   2   15.21    0.58
  -4   7   2   14.50    0.65
  -4   7   2   15.62    0.63
  -4   7   2   13.71    0.73
  -4   7   2   14.62    0.60
  -4   7   2   14.40    0.64
  -4   7   2   14.23    0.66
   3  -7  -2   61.25    2.26
   3  -7  -2   62.75    2.17
   3  -7  -2   61.26    2.36
   3  -7  -2   61.91    2.20
   3  -7  -2   63.13    2.15
   3  -7  -2   61.32    2.15
  -3   7   2   60.61    2.10
  -3   7   2   62.84    2.15
  -3   7   2   59.98    2.11
  -3   7   2   61.99    2.11
  -3   7   2   60.67    2.14
  -3   7   2   63.78    2.21
  -3   7   2   62.04    2.07
   2  -7  -2    4.20    0.51
   2  -7  -2    5.36    0.44
   2  -7  -2    4.61    0.41
   2  -7  -2    5.20    0.41
   2  -7  -2    5.09    0.41
   2  -7  -2    6.17    0.48
   2  -7  -2    4.74    0.56
  -2   7   2    4.99    0.40
  -2   7   2    5.14    0.34
  -2   7   2    4.78    0.37
  -2   7   2    5.17    0.54
  -2   7   2    5.15    0.42
  -2   7   2    4.85    0.31
  -2   7   2    5.91    0.37
  -2   7   2    5.19    0.36
   1  -7  -2    1.93    0.33
   1  -7  -2    1.92    0.31
   1  -7  -2    2.39    0.34
   1  -7  -2    1.55    0.29
  -1   7   2    1.94    0.24
  -1   7   2    1.90    0.26
  -1   7   2    1.21    0.18
  -1   7   2    2.25    0.28
  -1   7   2    2.00    0.33
  -1   7   2    1.85    0.26
   0  -7  -2   27.58    1.17
   0  -7  -2   25.57    1.08
   0  -7  -2   27.17    1.14
   0   7   2   24.99    1.02
   0   7   2   25.43    1.06
   0   7   2   24.59    1.01
   0   7   2   27.10    1.08
   0   7   2   26.64    1.11
  -1  -7  -2    4.13    0.48
  -1  -7  -2    3.23    0.37
  -1  -7  -2    2.83    0.41
  -1  -7  -2    2.45    0.42
   1   7   2    2.59    0.36
   1   7   2    3.29    0.42
   1   7   2    3.03    0.41
   1   7   2    3.58    0.40
   1   7   2    2.65    0.36
   1   7   2    2.80    0.47
  -2  -7  -2    2.10    0.42
  -2  -7  -2    2.16    0.41
  -2  -7  -2    2.34    0.40
  -2  -7  -2    1.89    0.35
   2   7   2    2.22    0.36
   2   7   2    1.93    0.42
   2   7   2    2.08    0.35
   2   7   2    2.41    0.43
  -3  -7  -2    2.48    0.52
  -3  -7  -2    2.41    0.57
  -3  -7  -2    3.67    0.53
   3   7   2    2.39    0.41
   3   7   2    3.35    0.45
   3   7   2    2.46    0.47
  -4  -7  -2    0.17    0.48
  -4  -7  -2    1.18    0.38
  -4  -7  -2    1.62    0.58
   4   7   2    0.36    0.37
   4   7   2    1.28    0.38
   4   7   2    0.67    0.40
  -5  -7  -2    0.53    0.56
  -5  -7  -2    1.39    0.43
   5   7   2    1.60    0.55
   5   7   2    0.69    0.43
   5   7   2    0.33    0.45
   9  -8  -2    8.91    0.89
  -9   8   2    9.14    1.19
  -9   8   2    8.63    0.61
  -9   8   2    9.23    0.73
   8  -8  -2    5.62    0.71
   8  -8  -2    4.77    0.64
   8  -8  -2    4.67    0.62
  -8   8   2    6.24    0.83
  -8   8   2    5.34    0.46
  -8   8   2    5.74    0.50
   7  -8  -2    0.82    0.33
   7  -8  -2    1.41    0.42
   7  -8  -2    0.61    0.39
   7  -8  -2    1.12    0.34
  -7   8   2    1.51    0.23
  -7   8   2    1.23    0.23
  -7   8   2    1.73    0.46
   6  -8  -2   -0.02    0.34
   6  -8  -2   -0.18    0.32
   6  -8  -2    0.47    0.28
   6  -8  -2    0.31    0.27
  -6   8   2    0.35    0.18
  -6   8   2    0.22    0.18
  -6   8   2    0.00    0.29
   5  -8  -2    9.77    0.78
   5  -8  -2    7.84    0.59
   5  -8  -2    8.93    0.56
   5  -8  -2    9.69    0.70
  -5   8   2    8.54    0.57
  -5   8   2    9.71    0.43
  -5   8   2    8.36    0.50
  -5   8   2    8.00    0.47
  -5   8   2    9.63    0.65
  -5   8   2    8.66    0.40
  -5   8   2    8.98    0.54
   4  -8  -2   18.00    0.92
   4  -8  -2   21.47    0.93
   4  -8  -2   22.41    1.07
   4  -8  -2   22.40    1.17
  -4   8   2   21.93    0.88
  -4   8   2   24.22    0.89
  -4   8   2   20.56    0.90
  -4   8   2   21.77    0.89
  -4   8   2   22.46    1.00
  -4   8   2   21.45    0.82
  -4   8   2   21.03    0.90
   3  -8  -2    7.45    0.63
   3  -8  -2    7.17    0.56
   3  -8  -2    7.13    0.53
   3  -8  -2    7.10    0.53
   3  -8  -2    6.24    0.76
  -3   8   2    7.60    0.53
  -3   8   2    7.21    0.47
  -3   8   2    7.53    0.52
  -3   8   2    7.41    0.43
  -3   8   2    7.22    0.45
  -3   8   2    6.78    0.42
   2  -8  -2   15.60    0.81
   2  -8  -2   17.16    0.92
   2  -8  -2   16.37    0.83
   2  -8  -2   15.25    1.01
  -2   8   2   15.39    0.85
  -2   8   2   16.75    0.79
  -2   8   2   15.82    0.69
  -2   8   2   17.09    0.79
  -2   8   2   16.24    0.72
   1  -8  -2   14.12    0.85
   1  -8  -2   14.46    0.96
   1  -8  -2   15.70    0.89
   1  -8  -2   15.34    0.83
  -1   8   2   14.12    0.72
  -1   8   2   14.34    0.77
  -1   8   2   14.84    0.66
  -1   8   2   15.23    0.74
  -1   8   2   14.19    0.68
   0  -8  -2    4.51    0.55
   0  -8  -2    3.85    0.62
   0  -8  -2    3.43    0.49
   0  -8  -2    3.21    0.44
   0   8   2    4.18    0.46
   0   8   2    4.31    0.42
   0   8   2    3.33    0.45
   0   8   2    4.10    0.43
   0   8   2    3.03    0.40
  -1  -8  -2    8.71    0.74
  -1  -8  -2    7.90    0.77
  -1  -8  -2    8.29    0.68
  -1  -8  -2    6.94    0.67
   1   8   2    8.22    0.68
   1   8   2    8.34    0.59
   1   8   2    8.37    0.67
   1   8   2    6.97    0.61
  -2  -8  -2    0.26    0.56
  -2  -8  -2    0.21    0.35
  -2  -8  -2    0.43    0.45
   2   8   2    0.50    0.34
   2   8   2    0.20    0.30
   2   8   2    0.92    0.37
  -3  -8  -2    4.83    0.58
  -3  -8  -2    5.76    0.71
   3   8   2    4.09    0.61
   3   8   2    4.33    0.55
   3   8   2    4.69    0.57
  -4  -8  -2    0.06    0.59
  -4  -8  -2    0.96    0.44
   4   8   2    0.72    0.48
   4   8   2    0.67    0.46
   4   8   2    0.53    0.43
   8  -9  -2    2.17    0.54
   8  -9  -2    1.60    0.46
   8  -9  -2    2.55    0.59
  -8   9   2    2.87    0.59
  -8   9   2    1.77    0.32
  -8   9   2    2.01    0.31
   7  -9  -2    0.29    0.47
   7  -9  -2    0.45    0.36
   7  -9  -2    1.08    0.49
  -7   9   2    1.13    0.41
  -7   9   2    0.86    0.26
  -7   9   2    0.29    0.23
   6  -9  -2    2.16    0.47
   6  -9  -2    2.26    0.41
   6  -9  -2    1.36    0.40
   6  -9  -2    1.72    0.48
  -6   9   2    1.72    0.27
  -6   9   2    1.40    0.27
  -6   9   2    2.59    0.42
   5  -9  -2    2.71    0.49
   5  -9  -2    3.00    0.41
   5  -9  -2    3.81    0.49
   5  -9  -2    4.31    0.62
  -5   9   2    3.07    0.39
  -5   9   2    3.28    0.45
  -5   9   2    3.23    0.38
   4  -9  -2   11.17    0.74
   4  -9  -2    9.84    0.92
   4  -9  -2   10.54    0.69
   4  -9  -2   11.18    0.85
  -4   9   2   10.14    0.59
  -4   9   2   10.41    0.70
  -4   9   2    9.85    0.61
   3  -9  -2   17.86    1.05
   3  -9  -2   17.72    0.93
   3  -9  -2   19.25    1.20
   3  -9  -2   17.12    0.91
  -3   9   2   17.09    0.81
  -3   9   2   17.38    0.86
  -3   9   2   16.26    1.07
   2  -9  -2    1.74    0.39
   2  -9  -2    1.28    0.50
   2  -9  -2    1.43    0.41
  -2   9   2    1.32    0.29
  -2   9   2    1.10    0.28
  -2   9   2    1.30    0.29
   1  -9  -2   14.44    0.93
   1  -9  -2   14.11    0.89
  -1   9   2   14.71    0.77
  -1   9   2   13.01    0.76
  -1   9   2   13.64    0.80
   0  -9  -2    5.38    0.64
   0  -9  -2    6.53    0.72
   0   9   2    6.17    0.67
   0   9   2    4.45    0.60
   0   9   2    5.33    0.58
  -1  -9  -2   15.71    1.01
  -1  -9  -2   14.72    1.09
   1   9   2   15.34    0.90
   1   9   2   15.70    0.99
   1   9   2   14.62    0.98
  -2  -9  -2    2.34    0.50
  -2  -9  -2    3.10    0.67
   2   9   2    3.34    0.56
   2   9   2    3.16    0.52
   2   9   2    2.73    0.49
  -3  -9  -2    3.51    0.74
  -3  -9  -2    2.30    0.56
   3   9   2    2.39    0.58
   3   9   2    2.85    0.55
   3   9   2    2.46    0.56
   7 -10  -2    0.91    0.45
   7 -10  -2    0.63    0.57
   7 -10  -2    1.38    0.59
  -7  10   2    1.13    0.32
  -7  10   2    1.35    0.48
  -7  10   2    0.54    0.29
   6 -10  -2   -0.19    0.52
   6 -10  -2    0.34    0.51
   6 -10  -2    0.22    0.40
  -6  10   2    0.17    0.39
  -6  10   2   -0.03    0.27
  -6  10   2   -0.39    0.25
   5 -10  -2    6.74    0.76
   5 -10  -2    7.34    1.05
   5 -10  -2    7.20    0.88
  -5  10   2    7.57    0.76
  -5  10   2    7.08    0.55
  -5  10   2    7.34    0.59
   4 -10  -2    1.01    0.38
   4 -10  -2    1.84    0.53
   4 -10  -2    1.78    0.62
  -4  10   2    1.32    0.36
  -4  10   2    2.14    0.34
  -4  10   2    2.19    0.35
   3 -10  -2    2.56    0.66
   3 -10  -2    2.50    0.55
   3 -10  -2    2.19    0.63
  -3  10   2    3.58    0.43
  -3  10   2    2.54    0.36
  -3  10   2    2.42    0.39
   2 -10  -2    1.46    0.63
   2 -10  -2    1.73    0.49
   2 -10  -2    2.16    0.52
  -2  10   2    2.07    0.40
  -2  10   2    2.19    0.38
  -2  10   2    1.90    0.39
   1 -10  -2    1.15    0.65
   1 -10  -2   -0.06    0.44
   1 -10  -2    0.75    0.53
  -1  10   2    0.63    0.36
  -1  10   2    0.59    0.33
  -1  10   2    0.28    0.33
  -1  10   2    0.14    0.34
   0 -10  -2    1.73    0.60
   0 -10  -2    0.77    0.51
   0  10   2    1.15    0.45
   0  10   2    0.75    0.43
   0  10   2    0.77    0.39
  -1 -10  -2   -0.14    0.48
   1  10   2    0.25    0.45
   1  10   2    0.46    0.40
   1  10   2    0.33    0.45
   5 -11  -2    1.97    0.52
   5 -11  -2    1.43    0.65
   5 -11  -2    2.32    0.75
  -5  11   2    2.43    0.42
  -5  11   2    2.07    0.49
  -5  11   2    0.82    0.36
   4 -11  -2    4.17    0.78
   4 -11  -2    4.21    0.83
  -4  11   2    3.29    0.54
  -4  11   2    3.61    0.49
  -4  11   2    5.43    0.59
   3 -11  -2   -0.05    0.70
   3 -11  -2    1.08    0.61
  -3  11   2    0.85    0.37
  -3  11   2   -0.43    0.39
  -3  11   2    0.03    0.37
   2 -11  -2    0.29    0.77
   2 -11  -2    1.88    0.61
  -2  11   2    0.69    0.42
  -2  11   2   -0.41    0.41
  -2  11   2    0.82    0.40
   1 -11  -2    3.28    0.88
   1 -11  -2    2.87    0.71
  -1  11   2    1.57    0.47
  -1  11   2    2.32    0.55
  -1  11   2    2.85    0.59
   1  11  -3    6.19    0.63
  -1 -11   3    4.38    0.78
  -1 -11   3    4.59    1.01
   0  11  -3    5.49    0.63
   0  11  -3    6.03    0.54
   0  11  -3    8.36    0.88
   0 -11   3    6.32    0.99
   0 -11   3    6.17    0.80
  -1  11  -3    2.13    0.49
  -1  11  -3    1.04    0.26
  -1  11  -3    1.56    0.34
   1 -11   3    1.11    0.75
   1 -11   3    1.56    0.56
  -2  11  -3    0.36    0.44
  -2  11  -3    0.59    0.27
   2 -11   3    0.97    0.56
   2 -11   3   -0.26    0.62
  -3  11  -3    1.38    0.36
  -3  11  -3    0.90    0.26
  -3  11  -3    0.90    0.45
   3 -11   3    0.90    0.53
   3 -11   3    0.65    0.62
  -4  11  -3    7.32    0.79
  -4  11  -3    6.24    0.61
  -4  11  -3    6.18    0.46
   4 -11   3    5.47    0.74
   4 -11   3    7.82    1.09
  -5  11  -3    4.47    0.41
  -5  11  -3    4.24    0.52
   5 -11   3    4.36    0.70
   5 -11   3    3.82    0.70
   5 -11   3    4.35    0.77
  -6  11  -3    1.71    0.48
  -6  11  -3    0.79    0.25
   6 -11   3   -0.30    0.60
   6 -11   3    0.34    0.57
   2  10  -3    1.96    0.37
   2  10  -3    1.52    0.41
   2  10  -3    1.12    0.47
  -2 -10   3    1.58    0.79
  -2 -10   3    1.33    0.55
   1  10  -3    3.43    0.45
   1  10  -3    3.10    0.38
   1  10  -3    4.33    0.60
  -1 -10   3    4.13    0.64
  -1 -10   3    4.30    0.82
   0  10  -3    4.92    0.44
   0  10  -3    3.78    0.52
   0  10  -3    5.68    0.54
   0 -10   3    4.11    0.76
   0 -10   3    5.00    0.65
  -1  10  -3    9.18    0.76
  -1  10  -3    7.54    0.45
  -1  10  -3    7.36    0.53
   1 -10   3    7.06    0.80
   1 -10   3    8.01    1.05
  -2  10  -3    1.25    0.18
  -2  10  -3    1.31    0.17
  -2  10  -3    1.27    0.25
  -2  10  -3    1.22    0.25
  -2  10  -3    1.14    0.39
   2 -10   3    1.41    0.49
   2 -10   3    0.66    0.52
  -3  10  -3   13.35    0.55
  -3  10  -3   13.12    0.70
  -3  10  -3   13.33    0.87
  -3  10  -3   13.40    0.62
   3 -10   3   13.54    0.99
   3 -10   3   12.62    1.11
  -4  10  -3    7.52    0.40
  -4  10  -3    5.92    0.58
  -4  10  -3    7.18    0.43
   4 -10   3    7.84    0.76
   4 -10   3    7.32    0.83
   4 -10   3    9.00    0.94
  -5  10  -3    3.22    0.35
  -5  10  -3    4.69    0.35
  -5  10  -3    4.52    0.50
   5 -10   3    3.86    0.60
   5 -10   3    3.73    0.53
   5 -10   3    4.74    0.70
  -6  10  -3    2.12    0.43
  -6  10  -3    0.87    0.20
   6 -10   3    1.25    0.56
   6 -10   3    0.67    0.49
   6 -10   3    1.25    0.49
  -7  10  -3    0.54    0.21
  -7  10  -3    1.14    0.46
   7 -10   3    0.60    0.47
   7 -10   3    0.73    0.57
   7 -10   3    0.73    0.56
   4   9  -3    1.14    0.52
   4   9  -3    2.02    0.46
   4   9  -3    1.52    0.47
  -4  -9   3    2.15    0.52
  -4  -9   3    1.96    0.79
   3   9  -3    1.64    0.41
   3   9  -3    2.66    0.51
   3   9  -3    1.52    0.37
  -3  -9   3    1.97    0.46
  -3  -9   3    2.34    0.74
   2   9  -3    0.89    0.42
   2   9  -3    1.08    0.35
   2   9  -3    1.05    0.30
  -2  -9   3    1.11    0.42
  -2  -9   3    2.06    0.62
   1   9  -3    7.85    0.58
   1   9  -3    6.91    0.69
   1   9  -3    8.14    0.52
  -1  -9   3    6.92    0.91
  -1  -9   3    7.41    0.73
   0   9  -3    5.29    0.45
   0   9  -3    4.63    0.56
   0   9  -3    4.90    0.39
   0   9  -3    4.12    0.36
   0  -9   3    5.64    0.63
   0  -9   3    4.54    0.72
   0  -9   3    5.14    0.63
  -1   9  -3    2.64    0.28
  -1   9  -3    2.11    0.22
  -1   9  -3    3.03    0.34
  -1   9  -3    2.41    0.27
  -1   9  -3    2.95    0.24
  -1   9  -3    2.57    0.44
   1  -9   3    2.60    0.48
   1  -9   3    3.15    0.56
   1  -9   3    2.64    0.37
  -2   9  -3   12.75    0.47
  -2   9  -3   12.01    0.48
  -2   9  -3   12.01    0.58
  -2   9  -3   12.01    0.76
  -2   9  -3   12.20    0.56
  -2   9  -3   12.24    0.47
   2  -9   3   10.86    0.61
   2  -9   3   10.30    0.91
   2  -9   3   10.83    0.83
  -3   9  -3    3.66    0.44
  -3   9  -3    2.98    0.29
  -3   9  -3    3.13    0.37
  -3   9  -3    3.05    0.23
   3  -9   3    3.77    0.53
   3  -9   3    3.22    0.36
   3  -9   3    2.68    0.54
   3  -9   3    2.55    0.45
  -4   9  -3    6.15    0.52
  -4   9  -3    6.78    0.36
  -4   9  -3    6.01    0.34
   4  -9   3    5.89    0.67
   4  -9   3    6.14    0.63
   4  -9   3    7.24    0.74
  -5   9  -3    0.50    0.19
  -5   9  -3    0.87    0.29
  -5   9  -3    0.94    0.15
  -5   9  -3    1.06    0.17
   5  -9   3    1.08    0.36
   5  -9   3    1.13    0.42
   5  -9   3    1.66    0.44
  -6   9  -3    0.02    0.30
  -6   9  -3    0.12    0.22
  -6   9  -3    0.53    0.15
   6  -9   3    0.25    0.41
   6  -9   3    0.84    0.47
   6  -9   3    0.70    0.35
   6  -9   3    0.55    0.41
  -7   9  -3    1.34    0.16
  -7   9  -3    2.05    0.47
  -7   9  -3    1.30    0.20
   7  -9   3    2.37    0.53
   7  -9   3    1.23    0.55
   7  -9   3    1.95    0.48
   7  -9   3    1.36    0.49
  -8   9  -3    0.59    0.50
  -8   9  -3    0.56    0.20
   8  -9   3   -0.78    0.44
   8  -9   3    0.24    0.64
   5   8  -3    4.15    0.59
   5   8  -3    5.81    0.78
   5   8  -3    4.11    0.55
  -5  -8   3    5.32    0.75
   4   8  -3    0.51    0.35
   4   8  -3    0.52    0.33
   4   8  -3    1.38    0.44
  -4  -8   3    0.64    0.62
  -4  -8   3    1.52    0.42
  -4  -8   3    0.38    0.48
   3   8  -3    0.91    0.32
   3   8  -3    0.96    0.33
   3   8  -3    2.01    0.43
  -3  -8   3    1.23    0.43
  -3  -8   3    1.19    0.54
  -3  -8   3    1.69    0.40
   2   8  -3   22.35    1.01
   2   8  -3   22.67    0.94
   2   8  -3   22.25    1.08
  -2  -8   3   19.81    1.29
  -2  -8   3   22.23    1.11
  -2  -8   3   20.29    1.03
   1   8  -3    4.53    0.43
   1   8  -3    4.73    0.38
   1   8  -3    5.13    0.53
   1   8  -3    5.10    0.38
   1   8  -3    4.91    0.38
  -1  -8   3    4.78    0.74
  -1  -8   3    5.33    0.57
  -1  -8   3    4.68    0.54
  -1  -8   3    5.22    0.53
   0   8  -3    6.67    0.37
   0   8  -3    6.23    0.32
   0   8  -3    6.10    0.60
   0   8  -3    5.55    0.36
   0   8  -3    5.56    0.32
   0  -8   3    6.80    0.71
   0  -8   3    6.26    0.49
   0  -8   3    6.38    0.60
   0  -8   3    6.41    0.52
  -1   8  -3    0.27    0.13
  -1   8  -3    0.53    0.16
  -1   8  -3    0.36    0.11
  -1   8  -3    0.36    0.13
  -1   8  -3    0.03    0.21
   1  -8   3    0.39    0.35
   1  -8   3    0.59    0.30
   1  -8   3    0.75    0.23
   1  -8   3    0.40    0.15
   1  -8   3    0.11    0.20
  -2   8  -3   21.95    0.76
  -2   8  -3   20.70    0.92
  -2   8  -3   21.87    0.86
  -2   8  -3   21.30    0.74
  -2   8  -3   21.79    0.99
  -2   8  -3   21.76    0.73
  -2   8  -3   22.67    0.82
   2  -8   3   21.16    0.76
   2  -8   3   19.95    1.14
   2  -8   3   20.93    0.93
   2  -8   3   21.42    0.82
   2  -8   3   23.28    1.08
  -3   8  -3    7.66    0.37
  -3   8  -3    7.70    0.49
  -3   8  -3    7.22    0.48
  -3   8  -3    8.21    0.34
   3  -8   3    8.48    0.72
   3  -8   3    7.99    0.42
   3  -8   3    7.13    0.61
   3  -8   3    7.60    0.39
   3  -8   3    8.23    0.64
  -4   8  -3   12.67    0.51
  -4   8  -3   12.77    0.51
  -4   8  -3   13.64    0.68
  -4   8  -3   12.95    0.56
   4  -8   3   11.50    0.84
   4  -8   3   12.79    0.54
   4  -8   3   12.42    0.73
   4  -8   3   11.80    0.56
   4  -8   3   14.21    0.82
  -5   8  -3    0.26    0.25
  -5   8  -3    0.47    0.11
  -5   8  -3    0.65    0.11
  -5   8  -3    0.57    0.16
   5  -8   3    0.77    0.32
   5  -8   3    0.28    0.22
   5  -8   3    0.59    0.31
   5  -8   3    0.62    0.17
   5  -8   3    0.17    0.42
  -6   8  -3    1.45    0.24
  -6   8  -3    1.99    0.18
  -6   8  -3    1.83    0.21
  -6   8  -3    2.27    0.39
   6  -8   3    2.43    0.39
   6  -8   3    2.14    0.45
   6  -8   3    2.47    0.48
   6  -8   3    2.69    0.45
  -7   8  -3    0.71    0.14
  -7   8  -3    0.74    0.17
  -7   8  -3    0.11    0.33
   7  -8   3    1.13    0.36
   7  -8   3    0.75    0.47
   7  -8   3    0.19    0.39
  -8   8  -3    0.21    0.17
  -8   8  -3    0.74    0.20
  -8   8  -3    0.37    0.43
   8  -8   3    0.73    0.54
   8  -8   3    0.96    0.41
   6   7  -3   11.52    0.98
   6   7  -3   10.89    0.87
   6   7  -3    9.12    0.87
  -6  -7   3   10.74    1.11
   5   7  -3   -0.12    0.34
   5   7  -3    0.70    0.32
   5   7  -3    0.53    0.36
  -5  -7   3    0.15    0.35
  -5  -7   3    0.50    0.48
   4   7  -3    4.54    0.57
   4   7  -3    5.18    0.60
   4   7  -3    5.40    0.51
  -4  -7   3    4.67    0.54
  -4  -7   3    5.11    0.66
   3   7  -3    1.04    0.30
   3   7  -3    0.72    0.25
   3   7  -3    0.78    0.30
   3   7  -3    1.54    0.33
   3   7  -3    0.38    0.25
  -3  -7   3    0.95    0.35
  -3  -7   3    1.13    0.34
  -3  -7   3    0.88    0.43
  -3  -7   3    0.70    0.31
   2   7  -3   23.05    0.94
   2   7  -3   22.89    0.98
   2   7  -3   20.67    1.09
   2   7  -3   21.73    1.01
  -2  -7   3   22.93    1.08
  -2  -7   3   25.84    1.23
  -2  -7   3   23.11    1.02
   1   7  -3    1.84    0.22
   1   7  -3    1.97    0.26
   1   7  -3    2.25    0.33
   1   7  -3    2.23    0.27
   1   7  -3    1.77    0.26
  -1  -7   3    1.83    0.35
  -1  -7   3    1.78    0.30
  -1  -7   3    1.95    0.42
  -1  -7   3    2.29    0.36
   0   7  -3    0.68    0.14
   0   7  -3    0.68    0.14
   0   7  -3    0.59    0.12
   0   7  -3    0.46    0.11
   0   7  -3    0.57    0.21
   0   7  -3    0.55    0.16
   0  -7   3    0.84    0.20
   0  -7   3    0.64    0.33
   0  -7   3    0.49    0.23
   0  -7   3    0.96    0.22
   0  -7   3    0.60    0.16
  -1   7  -3   14.08    0.69
  -1   7  -3   12.49    0.54
  -1   7  -3   13.75    0.50
  -1   7  -3   13.30    0.55
  -1   7  -3   13.01    0.50
  -1   7  -3   13.43    0.48
   1  -7   3   13.31    0.58
   1  -7   3   12.83    0.52
   1  -7   3   13.58    0.73
   1  -7   3   12.66    0.50
   1  -7   3   13.66    0.83
  -2   7  -3    2.26    0.30
  -2   7  -3    2.35    0.32
  -2   7  -3    2.40    0.15
  -2   7  -3    2.41    0.25
  -2   7  -3    2.29    0.19
   2  -7   3    2.48    0.23
   2  -7   3    1.97    0.33
   2  -7   3    2.33    0.33
   2  -7   3    2.46    0.38
   2  -7   3    2.20    0.17
   2  -7   3    2.65    0.24
   2  -7   3    2.03    0.17
  -3   7  -3    1.02    0.13
  -3   7  -3    1.32    0.15
  -3   7  -3    0.95    0.20
  -3   7  -3    0.99    0.19
   3  -7   3    1.00    0.14
   3  -7   3    0.91    0.21
   3  -7   3    0.84    0.28
   3  -7   3    0.95    0.26
   3  -7   3    1.21    0.14
  -4   7  -3    6.30    0.45
  -4   7  -3    6.44    0.34
  -4   7  -3    6.39    0.30
  -4   7  -3    6.46    0.28
  -4   7  -3    6.16    0.31
  -4   7  -3    5.39    0.50
   4  -7   3    6.16    0.30
   4  -7   3    5.43    0.52
   4  -7   3    6.70    0.32
   4  -7   3    6.09    0.57
   4  -7   3    6.31    0.47
   4  -7   3    7.89    0.55
   4  -7   3    6.20    0.36
  -5   7  -3    0.75    0.09
  -5   7  -3    0.29    0.18
  -5   7  -3    0.74    0.11
  -5   7  -3    0.80    0.16
  -5   7  -3    0.60    0.13
  -5   7  -3    0.85    0.27
   5  -7   3    0.52    0.23
   5  -7   3    0.79    0.31
   5  -7   3    0.35    0.26
   5  -7   3    0.77    0.28
   5  -7   3    0.57    0.13
  -6   7  -3    0.86    0.21
  -6   7  -3    0.74    0.30
  -6   7  -3    1.04    0.19
  -6   7  -3    0.85    0.12
  -6   7  -3    1.08    0.15
   6  -7   3    0.70    0.32
   6  -7   3    0.67    0.32
   6  -7   3    1.18    0.30
   6  -7   3    0.81    0.18
   6  -7   3    0.94    0.30
   6  -7   3    0.93    0.20
  -7   7  -3    7.07    0.36
  -7   7  -3    8.46    0.71
   7  -7   3    6.61    0.61
   7  -7   3    7.74    0.71
   7  -7   3    9.10    0.64
  -8   7  -3    6.93    0.47
  -8   7  -3    5.21    0.64
  -8   7  -3    6.24    0.38
   8  -7   3    6.26    0.67
  -9   7  -3    8.41    0.96
  -9   7  -3    7.18    0.59
  -9   7  -3    6.29    0.47
   9  -7   3    5.59    0.78
   9  -7   3    6.58    0.96
   7   6  -3    4.06    0.62
   7   6  -3    3.05    0.56
  -7  -6   3    3.20    0.68
   6   6  -3    0.54    0.34
   6   6  -3    1.30    0.42
   6   6  -3    1.30    0.37
  -6  -6   3    1.25    0.49
   5   6  -3    0.33    0.28
   5   6  -3    0.55    0.32
   5   6  -3    0.20    0.28
  -5  -6   3    0.44    0.38
   4   6  -3    8.96    0.62
   4   6  -3    7.24    0.67
   4   6  -3    8.23    0.62
   4   6  -3    7.65    0.54
   4   6  -3    7.57    0.65
  -4  -6   3    7.74    0.65
  -4  -6   3    7.16    0.57
  -4  -6   3    8.29    0.75
   3   6  -3   51.16    1.83
   3   6  -3   43.26    1.86
   3   6  -3   49.50    1.87
   3   6  -3   51.98    1.86
   3   6  -3   49.81    1.86
   3   6  -3   51.67    1.91
  -3  -6   3   50.03    1.89
  -3  -6   3   51.23    1.87
  -3  -6   3   51.58    1.92
  -3  -6   3   54.18    1.92
   2   6  -3    0.86    0.20
   2   6  -3    0.88    0.19
   2   6  -3    0.68    0.29
   2   6  -3    1.00    0.21
   2   6  -3    0.78    0.20
   2   6  -3    0.97    0.25
  -2  -6   3    0.61    0.23
  -2  -6   3    0.89    0.23
  -2  -6   3    0.94    0.34
  -2  -6   3    1.02    0.27
   1   6  -3    1.34    0.18
   1   6  -3    1.29    0.24
   1   6  -3    1.27    0.32
   1   6  -3    1.48    0.20
   1   6  -3    1.11    0.18
   1   6  -3    1.31    0.18
   1   6  -3    1.41    0.46
  -1  -6   3    1.27    0.35
  -1  -6   3    1.25    0.29
  -1  -6   3    1.19    0.22
  -1  -6   3    1.08    0.25
  -1  -6   3    1.39    0.22
  -1  -6   3    0.84    0.19
   0   6  -3    0.26    0.19
   0   6  -3    0.20    0.09
   0   6  -3    0.00    0.17
   0   6  -3    0.08    0.07
   0   6  -3    0.12    0.11
   0   6  -3   -0.03    0.21
   0   6  -3    0.04    0.08
   0   6  -3    0.09    0.09
   0   6  -3   -0.06    0.18
   0   6  -3    0.24    0.15
   0  -6   3    0.16    0.14
   0  -6   3    0.00    0.23
   0  -6   3    0.07    0.14
   0  -6   3    0.05    0.13
   0  -6   3    0.00    0.10
   0  -6   3    0.30    0.20
   0  -6   3    0.20    0.11
  -1   6  -3    1.39    0.17
  -1   6  -3    1.91    0.25
  -1   6  -3    1.72    0.12
  -1   6  -3    1.00    0.24
  -1   6  -3    1.65    0.17
  -1   6  -3    1.64    0.32
  -1   6  -3    2.02    0.27
  -1   6  -3    1.53    0.12
  -1   6  -3    1.72    0.11
  -1   6  -3    1.76    0.27
   1  -6   3    1.37    0.24
   1  -6   3    1.10    0.29
   1  -6   3    1.66    0.13
   1  -6   3    1.51    0.25
   1  -6   3    1.90    0.33
   1  -6   3    1.77    0.14
  -2   6  -3    8.68    0.62
  -2   6  -3    7.70    0.61
  -2   6  -3   10.53    0.52
  -2   6  -3    8.97    0.44
  -2   6  -3    9.10    0.33
  -2   6  -3    8.39    0.47
  -2   6  -3    8.79    0.35
   2  -6   3    8.62    0.59
   2  -6   3    8.48    0.49
   2  -6   3    8.87    0.33
   2  -6   3    8.92    0.36
   2  -6   3    9.42    0.54
  -3   6  -3    4.09    0.31
  -3   6  -3    3.08    0.30
  -3   6  -3    3.29    0.30
  -3   6  -3    3.10    0.34
  -3   6  -3    3.12    0.17
  -3   6  -3    3.17    0.17
   3  -6   3    3.09    0.30
   3  -6   3    3.33    0.36
   3  -6   3    3.20    0.36
   3  -6   3    3.63    0.39
   3  -6   3    3.13    0.18
   3  -6   3    3.06    0.20
  -4   6  -3   10.45    0.39
  -4   6  -3   10.64    0.37
  -4   6  -3   10.19    0.42
  -4   6  -3    8.96    0.49
  -4   6  -3   10.60    0.57
  -4   6  -3   10.20    0.55
  -4   6  -3   10.55    0.43
  -4   6  -3   10.77    0.39
  -4   6  -3   11.32    0.40
   4  -6   3   10.37    0.56
   4  -6   3   10.42    0.39
   4  -6   3   10.00    0.46
   4  -6   3   10.83    0.61
   4  -6   3   10.11    0.45
   4  -6   3   10.24    0.47
   4  -6   3   10.05    0.64
   4  -6   3   10.72    0.59
  -5   6  -3    3.15    0.26
  -5   6  -3    2.61    0.17
  -5   6  -3    2.35    0.23
  -5   6  -3    3.30    0.39
  -5   6  -3    2.70    0.27
   5  -6   3    2.97    0.21
   5  -6   3    2.85    0.34
   5  -6   3    3.03    0.43
   5  -6   3    3.43    0.36
   5  -6   3    2.53    0.37
   5  -6   3    2.84    0.36
  -6   6  -3    0.40    0.18
  -6   6  -3    0.37    0.28
  -6   6  -3    0.74    0.17
  -6   6  -3    0.75    0.18
  -6   6  -3    0.79    0.13
   6  -6   3    0.70    0.24
   6  -6   3    0.58    0.20
   6  -6   3    0.37    0.37
   6  -6   3    0.69    0.26
  -7   6  -3    9.82    0.73
  -7   6  -3   10.28    0.53
  -7   6  -3   10.22    0.47
  -7   6  -3    9.33    0.54
  -7   6  -3    9.45    0.63
   7  -6   3   10.54    0.60
   7  -6   3    9.72    0.57
   7  -6   3   11.53    0.74
   7  -6   3   10.07    0.66
  -8   6  -3   10.76    0.52
  -8   6  -3   10.35    0.60
  -8   6  -3   11.19    0.88
   8  -6   3    9.67    0.72
   8  -6   3   10.91    0.82
  -9   6  -3    8.69    0.65
  -9   6  -3    7.06    0.95
  -9   6  -3    8.16    0.53
   9  -6   3    9.06    0.80
   9  -6   3   10.75    0.91
   7   5  -3    0.10    0.36
   7   5  -3    0.67    0.37
   7   5  -3    0.90    0.44
  -7  -5   3    0.12    0.43
   6   5  -3    3.76    0.47
   6   5  -3    4.73    0.58
   6   5  -3    4.58    0.55
  -6  -5   3    3.43    0.54
   5   5  -3    0.78    0.38
   5   5  -3    0.62    0.28
   5   5  -3    0.17    0.24
   5   5  -3    0.90    0.26
   5   5  -3   -0.03    0.33
  -5  -5   3    0.55    0.31
  -5  -5   3    0.65    0.31
   4   5  -3    9.26    0.63
   4   5  -3    8.78    0.61
   4   5  -3    8.47    0.58
   4   5  -3    8.42    0.52
   4   5  -3    9.14    0.59
  -4  -5   3    7.79    0.73
  -4  -5   3    9.04    0.60
  -4  -5   3    8.71    0.53
  -4  -5   3    8.16    0.55
   3   5  -3   47.30    1.77
   3   5  -3   49.19    1.72
   3   5  -3   49.29    1.79
   3   5  -3   45.51    1.80
   3   5  -3   48.71    1.75
   3   5  -3   47.60    1.75
  -3  -5   3   49.43    1.76
  -3  -5   3   45.03    1.76
  -3  -5   3   48.61    1.78
  -3  -5   3   49.12    1.79
   2   5  -3    1.19    0.21
   2   5  -3    1.33    0.27
   2   5  -3    1.54    0.22
   2   5  -3    1.54    0.28
   2   5  -3    1.30    0.21
   2   5  -3    1.40    0.18
   2   5  -3    1.40    0.20
  -2  -5   3    1.35    0.21
  -2  -5   3    1.30    0.22
  -2  -5   3    1.33    0.26
  -2  -5   3    1.16    0.21
  -2  -5   3    1.09    0.22
  -2  -5   3    1.30    0.30
  -2  -5   3    1.44    0.25
   1   5  -3    0.78    0.15
   1   5  -3    0.50    0.21
   1   5  -3    0.55    0.13
   1   5  -3    0.74    0.13
   1   5  -3    0.74    0.12
   1   5  -3    0.83    0.20
   1   5  -3    0.67    0.23
   1   5  -3    0.69    0.21
   1   5  -3    0.86    0.17
  -1  -5   3    1.07    0.29
  -1  -5   3    0.97    0.19
  -1  -5   3    0.49    0.20
  -1  -5   3    0.61    0.15
  -1  -5   3    0.74    0.16
  -1  -5   3    0.73    0.15
  -1  -5   3    0.71    0.14
   0   5  -3   31.81    1.08
   0   5  -3   31.44    1.05
   0   5  -3   32.13    1.05
   0   5  -3   31.20    1.21
   0   5  -3   31.24    1.07
   0   5  -3   31.65    1.25
   0   5  -3   31.35    1.17
   0   5  -3   31.41    1.17
   0   5  -3   30.69    1.03
   0   5  -3   28.94    1.21
   0  -5   3   31.98    1.06
   0  -5   3   32.82    1.22
   0  -5   3   28.19    1.25
   0  -5   3   29.11    1.24
   0  -5   3   31.81    1.06
   0  -5   3   30.41    1.08
  -1   5  -3   10.40    0.55
  -1   5  -3   11.55    0.62
  -1   5  -3   10.59    0.40
  -1   5  -3   10.89    0.54
  -1   5  -3   10.73    0.45
  -1   5  -3   10.76    0.50
  -1   5  -3   10.63    0.51
  -1   5  -3   10.92    0.38
   1  -5   3   10.54    0.54
   1  -5   3   10.46    0.41
   1  -5   3   11.19    0.37
   1  -5   3   10.76    0.52
   1  -5   3   10.82    0.38
   1  -5   3   10.09    0.60
  -2   5  -3    2.74    0.38
  -2   5  -3    2.58    0.28
  -2   5  -3    3.06    0.41
  -2   5  -3    2.90    0.24
  -2   5  -3    3.13    0.26
  -2   5  -3    2.98    0.24
   2  -5   3    2.20    0.31
   2  -5   3    3.05    0.30
   2  -5   3    2.79    0.34
   2  -5   3    2.84    0.14
   2  -5   3    2.99    0.14
   2  -5   3    2.97    0.27
   2  -5   3    3.15    0.26
  -3   5  -3   16.02    0.54
  -3   5  -3   16.32    0.69
  -3   5  -3   14.92    0.67
  -3   5  -3   15.73    0.65
  -3   5  -3   15.62    0.58
  -3   5  -3   15.83    0.80
  -3   5  -3   17.49    0.84
  -3   5  -3   14.83    0.65
  -3   5  -3   15.49    0.56
   3  -5   3   15.47    0.69
   3  -5   3   15.56    0.54
   3  -5   3   14.91    0.72
   3  -5   3   15.96    0.57
   3  -5   3   15.77    0.68
   3  -5   3   16.80    0.77
  -4   5  -3    3.78    0.45
  -4   5  -3    3.20    0.18
  -4   5  -3    3.11    0.14
  -4   5  -3    3.20    0.22
  -4   5  -3    3.13    0.15
  -4   5  -3    3.36    0.30
  -4   5  -3    3.24    0.32
  -4   5  -3    3.04    0.19
  -4   5  -3    3.10    0.28
  -4   5  -3    4.18    0.54
  -4   5  -3    3.36    0.24
   4  -5   3    2.52    0.25
   4  -5   3    3.46    0.27
   4  -5   3    2.63    0.35
   4  -5   3    3.48    0.33
   4  -5   3    3.10    0.29
   4  -5   3    3.41    0.31
  -5   5  -3    5.16    0.32
  -5   5  -3    5.94    0.31
  -5   5  -3    5.28    0.45
  -5   5  -3    5.69    0.36
  -5   5  -3    4.49    0.56
  -5   5  -3    5.46    0.30
  -5   5  -3    5.80    0.27
   5  -5   3    5.28    0.33
   5  -5   3    5.63    0.30
   5  -5   3    5.37    0.39
   5  -5   3    5.93    0.38
   5  -5   3    5.54    0.42
   5  -5   3    4.84    0.41
  -6   5  -3    8.92    0.47
  -6   5  -3    8.74    0.61
  -6   5  -3    8.45    0.50
  -6   5  -3    8.35    0.43
  -6   5  -3    8.39    0.45
   6  -5   3    8.70    0.45
   6  -5   3    8.41    0.51
   6  -5   3    8.58    0.53
   6  -5   3    8.65    0.46
   6  -5   3    8.92    0.55
  -7   5  -3   23.74    1.04
  -7   5  -3   24.64    1.05
  -7   5  -3   24.59    1.00
  -7   5  -3   24.03    1.17
  -7   5  -3   25.18    0.99
  -7   5  -3   23.87    0.94
   7  -5   3   20.39    1.04
   7  -5   3   24.90    1.01
   7  -5   3   25.11    1.06
  -8   5  -3    9.36    0.51
  -8   5  -3    8.32    0.79
  -8   5  -3    8.04    0.58
   8  -5   3    8.36    0.82
   8  -5   3    6.79    0.66
   8  -5   3    9.35    0.65
  -9   5  -3   -0.02    0.25
  -9   5  -3    0.41    0.50
  -9   5  -3   -0.16    0.29
   9  -5   3    0.23    0.35
   9  -5   3   -0.10    0.38
   8   4  -3    4.56    0.64
   8   4  -3    2.04    0.42
   8   4  -3    2.76    0.57
  -8  -4   3    3.38    0.59
   7   4  -3    4.65    0.61
   7   4  -3    3.67    0.53
   7   4  -3    4.10    0.49
  -7  -4   3    2.29    0.50
  -7  -4   3    4.03    0.64
   6   4  -3    3.61    0.53
   6   4  -3    4.87    0.58
   6   4  -3    4.38    0.50
   6   4  -3    4.83    0.48
  -6  -4   3    4.20    0.36
  -6  -4   3    3.39    0.47
  -6  -4   3    4.56    0.50
  -6  -4   3    4.85    0.54
   5   4  -3    1.22    0.34
   5   4  -3    1.15    0.27
   5   4  -3    1.37    0.29
   5   4  -3    1.03    0.31
   5   4  -3    0.83    0.33
   5   4  -3    0.60    0.39
  -5  -4   3    2.09    0.35
  -5  -4   3    1.62    0.35
  -5  -4   3    1.18    0.18
  -5  -4   3    1.14    0.25
   4   4  -3   28.11    1.15
   4   4  -3   28.08    1.16
   4   4  -3   28.31    1.16
   4   4  -3   28.92    1.12
   4   4  -3   28.85    1.18
   4   4  -3   27.83    1.17
  -4  -4   3   26.63    0.95
  -4  -4   3   30.68    1.17
  -4  -4   3   28.36    1.12
   3   4  -3   11.72    0.53
   3   4  -3   11.02    0.58
   3   4  -3   12.43    0.58
   3   4  -3   11.53    0.62
   3   4  -3   11.91    0.58
   3   4  -3   10.89    0.57
  -3  -4   3   11.79    0.60
  -3  -4   3   11.19    0.57
  -3  -4   3   12.04    0.58
  -3  -4   3   10.11    0.57
  -3  -4   3   11.37    0.59
  -3  -4   3   11.75    0.57
   2   4  -3    2.78    0.25
   2   4  -3    3.02    0.22
   2   4  -3    2.49    0.31
   2   4  -3    2.97    0.25
   2   4  -3    2.83    0.27
   2   4  -3    2.75    0.25
   2   4  -3    3.09    0.32
  -2  -4   3    2.42    0.29
  -2  -4   3    2.55    0.25
  -2  -4   3    2.57    0.30
  -2  -4   3    2.60    0.26
  -2  -4   3    2.39    0.25
   1   4  -3    1.58    0.25
   1   4  -3    1.54    0.16
   1   4  -3    1.61    0.16
   1   4  -3    1.90    0.28
   1   4  -3    1.55    0.14
   1   4  -3    1.78    0.25
   1   4  -3    1.64    0.17
   1   4  -3    1.77    0.20
  -1  -4   3    1.71    0.18
  -1  -4   3    2.05    0.29
  -1  -4   3    1.37    0.19
  -1  -4   3    1.69    0.18
  -1  -4   3    1.57    0.21
  -1  -4   3    1.39    0.21
  -1  -4   3    1.32    0.17
  -1  -4   3    1.53    0.17
   0   4  -3   26.26    0.92
   0   4  -3   25.82    1.02
   0   4  -3   26.09    0.90
   0   4  -3   26.92    0.92
   0   4  -3   27.29    0.90
   0   4  -3   26.46    0.89
   0   4  -3   27.77    1.07
   0   4  -3   27.06    1.00
   0   4  -3   28.37    1.06
   0   4  -3   26.07    1.00
   0  -4   3   25.83    1.07
   0  -4   3   27.09    1.08
   0  -4   3   27.42    0.92
   0  -4   3   27.00    1.03
   0  -4   3   27.13    0.91
   0  -4   3   28.11    0.91
  -1   4  -3    4.66    0.31
  -1   4  -3    5.31    0.29
  -1   4  -3    4.99    0.38
  -1   4  -3    4.90    0.32
  -1   4  -3    4.99    0.29
  -1   4  -3    5.39    0.40
  -1   4  -3    4.99    0.27
   1  -4   3    4.90    0.36
   1  -4   3    5.08    0.29
   1  -4   3    4.41    0.32
   1  -4   3    5.06    0.32
   1  -4   3    5.22    0.37
  -2   4  -3   28.69    1.11
  -2   4  -3   27.14    0.99
  -2   4  -3   27.45    0.97
  -2   4  -3   24.75    0.98
  -2   4  -3   25.30    1.07
  -2   4  -3   26.56    0.92
  -2   4  -3   27.84    1.01
   2  -4   3   27.43    1.07
   2  -4   3   26.08    1.01
   2  -4   3   28.07    1.00
   2  -4   3   26.70    1.09
  -3   4  -3   23.96    0.99
  -3   4  -3   26.94    1.04
  -3   4  -3   22.90    0.79
  -3   4  -3   22.96    0.92
  -3   4  -3   23.23    0.77
  -3   4  -3   23.29    0.89
  -3   4  -3   24.14    0.79
  -3   4  -3   23.22    0.87
  -3   4  -3   22.32    0.82
  -3   4  -3   24.00    0.80
   3  -4   3   24.62    0.90
   3  -4   3   23.10    0.82
   3  -4   3   22.16    0.96
   3  -4   3   22.76    0.99
   3  -4   3   22.88    0.82
   3  -4   3   24.35    0.78
   3  -4   3   22.86    0.80
   3  -4   3   25.07    0.94
   3  -4   3   22.92    0.89
  -4   4  -3    1.54    0.17
  -4   4  -3    1.78    0.17
  -4   4  -3    1.83    0.14
  -4   4  -3    1.56    0.20
  -4   4  -3    2.28    0.31
  -4   4  -3    1.97    0.10
  -4   4  -3    1.69    0.22
  -4   4  -3    2.15    0.21
  -4   4  -3    2.21    0.28
  -4   4  -3    1.99    0.16
   4  -4   3    2.00    0.19
   4  -4   3    1.91    0.22
   4  -4   3    1.80    0.17
   4  -4   3    1.91    0.22
   4  -4   3    2.11    0.23
   4  -4   3    2.12    0.24
   4  -4   3    2.20    0.24
  -5   4  -3    7.18    0.41
  -5   4  -3    7.03    0.38
  -5   4  -3    7.19    0.34
  -5   4  -3    7.35    0.53
  -5   4  -3    7.83    0.35
  -5   4  -3    7.30    0.38
  -5   4  -3    8.15    0.51
   5  -4   3    7.56    0.42
   5  -4   3    7.56    0.41
   5  -4   3    7.43    0.38
   5  -4   3    6.46    0.42
   5  -4   3    7.07    0.38
   5  -4   3    7.63    0.47
  -6   4  -3   32.97    1.20
  -6   4  -3   32.72    1.23
  -6   4  -3   32.72    1.27
  -6   4  -3   32.27    1.17
  -6   4  -3   32.25    1.37
  -6   4  -3   32.06    1.34
  -6   4  -3   32.92    1.24
   6  -4   3   33.76    1.25
   6  -4   3   32.00    1.26
   6  -4   3   32.90    1.23
   6  -4   3   35.55    1.28
  -7   4  -3   15.47    0.73
  -7   4  -3   13.36    0.82
  -7   4  -3   14.78    0.87
  -7   4  -3   14.12    0.77
  -7   4  -3   12.97    0.74
  -7   4  -3   13.58    0.63
  -7   4  -3   14.86    0.74
   7  -4   3   15.05    0.76
   7  -4   3   14.77    0.73
   7  -4   3   14.56    0.73
   7  -4   3   14.08    0.73
  -8   4  -3    4.27    0.44
  -8   4  -3    4.66    0.49
  -8   4  -3    3.78    0.57
   8  -4   3    3.73    0.49
   8  -4   3    4.11    0.48
   8  -4   3    4.66    0.75
  -9   4  -3    1.51    0.33
  -9   4  -3    2.22    0.42
  -9   4  -3    1.39    0.54
   9  -4   3    1.89    0.40
   9  -4   3    1.69    0.42
   8   3  -3    0.89    0.42
   8   3  -3    0.41    0.39
   8   3  -3    0.11    0.32
  -8  -3   3    0.06    0.52
  -8  -3   3    0.26    0.39
   7   3  -3    0.63    0.32
   7   3  -3    0.60    0.27
   7   3  -3    1.23    0.38
  -7  -3   3    0.35    0.36
  -7  -3   3    0.45    0.26
  -7  -3   3    0.19    0.36
   6   3  -3    4.27    0.52
   6   3  -3    3.78    0.51
   6   3  -3    3.77    0.46
   6   3  -3    4.02    0.45
   6   3  -3    3.34    0.53
  -6  -3   3    4.15    0.57
  -6  -3   3    3.47    0.48
  -6  -3   3    4.17    0.37
  -6  -3   3    4.56    0.53
   5   3  -3    7.21    0.48
   5   3  -3    7.04    0.57
   5   3  -3    7.88    0.53
   5   3  -3    6.66    0.47
   5   3  -3    7.48    0.53
   5   3  -3    7.63    0.58
  -5  -3   3    7.40    0.39
  -5  -3   3    7.83    0.52
  -5  -3   3    6.83    0.45
  -5  -3   3    8.11    0.56
   4   3  -3   43.97    1.65
   4   3  -3   44.86    1.61
   4   3  -3   46.92    1.64
   4   3  -3   45.27    1.68
   4   3  -3   44.52    1.64
   4   3  -3   45.88    1.64
  -4  -3   3   46.29    1.67
  -4  -3   3   46.67    1.61
  -4  -3   3   42.38    1.65
  -4  -3   3   44.32    1.66
  -4  -3   3   44.75    1.63
  -4  -3   3   41.33    1.63
  -4  -3   3   43.01    1.50
   3   3  -3    3.95    0.30
   3   3  -3    4.12    0.28
   3   3  -3    3.73    0.31
   3   3  -3    3.76    0.32
   3   3  -3    3.61    0.33
   3   3  -3    3.83    0.29
  -3  -3   3    3.41    0.18
  -3  -3   3    3.66    0.30
  -3  -3   3    3.52    0.31
  -3  -3   3    3.87    0.30
  -3  -3   3    3.29    0.31
  -3  -3   3    3.52    0.31
  -3  -3   3    3.59    0.34
   2   3  -3    9.04    0.42
   2   3  -3    8.62    0.46
   2   3  -3    8.92    0.44
   2   3  -3    9.32    0.44
   2   3  -3    9.02    0.40
   2   3  -3    9.21    0.42
  -2  -3   3    9.02    0.44
  -2  -3   3    8.65    0.42
  -2  -3   3    8.62    0.49
  -2  -3   3    8.99    0.42
  -2  -3   3    8.98    0.46
  -2  -3   3    9.57    0.43
  -2  -3   3    8.88    0.47
   1   3  -3   22.38    0.88
   1   3  -3   22.11    0.80
   1   3  -3   23.74    0.90
   1   3  -3   22.83    0.82
   1   3  -3   22.51    0.85
   1   3  -3   22.62    0.81
   1   3  -3   22.10    0.79
   1   3  -3   22.67    0.90
  -1  -3   3   22.84    0.81
  -1  -3   3   22.25    0.80
  -1  -3   3   22.67    0.87
  -1  -3   3   22.35    0.90
  -1  -3   3   22.28    0.81
  -1  -3   3   22.58    0.80
  -1  -3   3   23.98    0.87
   0   3  -3   19.71    0.70
   0   3  -3   22.72    0.81
   0   3  -3   20.18    0.69
   0   3  -3   21.67    0.83
   0   3  -3   20.16    0.67
   0   3  -3   19.01    0.81
   0   3  -3   20.35    0.79
   0   3  -3   20.37    0.68
   0   3  -3   20.20    0.68
   0   3  -3   19.49    0.75
   0   3  -3   20.76    0.76
   0  -3   3   20.08    0.69
   0  -3   3   19.67    0.68
   0  -3   3   19.26    0.82
   0  -3   3   21.66    0.82
   0  -3   3   20.51    0.78
   0  -3   3   19.57    0.80
   0  -3   3   20.34    0.76
   0  -3   3   19.14    0.68
  -1   3  -3   24.20    0.84
  -1   3  -3   21.55    0.78
  -1   3  -3   22.75    0.84
  -1   3  -3   21.33    0.80
  -1   3  -3   22.50    0.88
  -1   3  -3   22.40    0.80
  -1   3  -3   21.41    0.89
   1  -3   3   23.35    0.82
   1  -3   3   21.84    0.90
   1  -3   3   22.12    0.87
   1  -3   3   22.56    0.84
   1  -3   3   22.06    0.86
  -2   3  -3    3.44    0.15
  -2   3  -3    3.28    0.28
  -2   3  -3    4.13    0.31
  -2   3  -3    3.43    0.21
  -2   3  -3    3.45    0.15
  -2   3  -3    3.41    0.20
  -2   3  -3    3.46    0.16
  -2   3  -3    3.52    0.23
   2  -3   3    3.43    0.26
   2  -3   3    3.30    0.22
   2  -3   3    3.52    0.24
   2  -3   3    3.25    0.29
   2  -3   3    3.37    0.15
   2  -3   3    3.77    0.21
   2  -3   3    3.31    0.16
  -3   3  -3   59.45    2.07
  -3   3  -3   59.23    1.98
  -3   3  -3   61.86    1.96
  -3   3  -3   56.56    1.92
  -3   3  -3   59.73    1.94
  -3   3  -3   55.64    1.90
  -3   3  -3   59.63    1.96
  -3   3  -3   63.91    1.99
  -3   3  -3   59.10    2.05
  -3   3  -3   62.77    2.11
  -3   3  -3   59.17    1.93
   3  -3   3   59.54    1.99
   3  -3   3   57.70    1.98
   3  -3   3   58.94    1.96
   3  -3   3   59.77    1.95
   3  -3   3   57.73    2.08
   3  -3   3   59.35    1.94
  -4   3  -3   25.91    0.89
  -4   3  -3   24.81    0.91
  -4   3  -3   25.59    0.85
  -4   3  -3   26.33    1.02
  -4   3  -3   26.29    0.94
  -4   3  -3   25.31    0.94
  -4   3  -3   25.65    0.91
  -4   3  -3   25.31    0.87
  -4   3  -3   26.21    1.03
  -4   3  -3   24.85    1.05
   4  -3   3   24.04    0.84
   4  -3   3   26.54    0.97
   4  -3   3   25.93    0.95
   4  -3   3   24.11    0.94
   4  -3   3   24.82    0.89
   4  -3   3   23.95    0.91
   4  -3   3   25.36    0.93
   4  -3   3   27.07    0.95
  -5   3  -3    1.73    0.21
  -5   3  -3    1.56    0.22
  -5   3  -3    2.02    0.27
  -5   3  -3    1.48    0.16
  -5   3  -3    1.32    0.24
  -5   3  -3    1.97    0.24
  -5   3  -3    1.60    0.29
  -5   3  -3    1.84    0.23
   5  -3   3    1.30    0.21
   5  -3   3    1.63    0.26
   5  -3   3    1.54    0.21
   5  -3   3    1.69    0.12
   5  -3   3    2.18    0.25
   5  -3   3    0.98    0.23
   5  -3   3    1.65    0.21
  -6   3  -3   51.82    1.80
  -6   3  -3   50.42    1.89
  -6   3  -3   45.85    1.66
  -6   3  -3   49.69    1.74
  -6   3  -3   47.43    1.78
  -6   3  -3   49.29    1.76
  -6   3  -3   47.39    1.78
   6  -3   3   48.58    1.76
   6  -3   3   50.01    1.77
   6  -3   3   50.30    1.76
  -7   3  -3   10.05    0.66
  -7   3  -3   10.19    0.72
  -7   3  -3    9.82    0.61
  -7   3  -3    9.98    0.64
  -7   3  -3    9.74    0.58
  -7   3  -3   10.09    0.63
  -7   3  -3    9.42    0.50
   7  -3   3   10.69    0.65
   7  -3   3    9.14    0.57
   7  -3   3   10.98    0.75
  -8   3  -3    1.18    0.33
  -8   3  -3    0.68    0.39
  -8   3  -3    1.00    0.28
   8  -3   3    0.32    0.35
   8  -3   3    0.96    0.29
   8  -3   3    0.82    0.29
  -9   3  -3    4.34    0.65
  -9   3  -3    5.97    0.60
  -9   3  -3    5.56    0.70
   9  -3   3    5.20    0.63
   9  -3   3    4.67    0.60
   9  -3   3    4.99    0.68
   9   2  -3    1.73    0.52
   9   2  -3    1.10    0.38
   9   2  -3    1.18    0.56
  -9  -2   3    1.88    0.62
  -9  -2   3    1.67    0.51
   8   2  -3    5.47    0.76
   8   2  -3    4.61    0.54
   8   2  -3    4.93    0.55
  -8  -2   3    4.63    0.58
  -8  -2   3    4.01    0.57
  -8  -2   3    4.60    0.57
   7   2  -3    1.63    0.38
   7   2  -3    1.40    0.28
   7   2  -3    0.96    0.46
   7   2  -3    1.48    0.34
  -7  -2   3    0.98    0.36
  -7  -2   3    0.96    0.32
  -7  -2   3    1.40    0.29
  -7  -2   3    0.88    0.24
   6   2  -3    2.31    0.34
   6   2  -3    2.27    0.40
   6   2  -3    2.27    0.29
   6   2  -3    2.57    0.35
   6   2  -3    3.18    0.44
  -6  -2   3    2.36    0.35
  -6  -2   3    2.30    0.34
  -6  -2   3    2.21    0.33
  -6  -2   3    2.18    0.28
   5   2  -3    1.03    0.28
   5   2  -3    0.41    0.22
   5   2  -3    0.53    0.24
   5   2  -3    0.62    0.20
   5   2  -3    0.51    0.18
   5   2  -3    0.43    0.15
  -5  -2   3    0.51    0.14
  -5  -2   3    0.60    0.20
  -5  -2   3    0.65    0.26
  -5  -2   3    0.51    0.19
  -5  -2   3    0.77    0.22
   4   2  -3   10.84    0.52
   4   2  -3   10.76    0.63
   4   2  -3   10.55    0.52
   4   2  -3   11.22    0.55
   4   2  -3   10.94    0.54
   4   2  -3   11.01    0.58
  -4  -2   3   10.00    0.52
  -4  -2   3   10.78    0.46
  -4  -2   3   10.79    0.57
  -4  -2   3   11.40    0.56
  -4  -2   3   10.79    0.54
  -4  -2   3   11.18    0.58
  -4  -2   3   10.05    0.57
   3   2  -3   34.56    1.21
   3   2  -3   32.19    1.20
   3   2  -3   32.49    1.23
   3   2  -3   32.80    1.18
   3   2  -3   31.96    1.19
   3   2  -3   34.15    1.22
   3   2  -3   32.40    1.12
  -3  -2   3   31.98    1.20
  -3  -2   3   34.72    1.24
  -3  -2   3   33.13    1.22
  -3  -2   3   33.63    1.12
  -3  -2   3   33.90    1.20
  -3  -2   3   32.20    1.22
  -3  -2   3   32.83    1.22
   2   2  -3    0.96    0.09
   2   2  -3    0.92    0.12
   2   2  -3    0.76    0.13
   2   2  -3    0.69    0.11
   2   2  -3    0.93    0.13
   2   2  -3    0.66    0.13
   2   2  -3    1.03    0.15
  -2  -2   3    0.91    0.14
  -2  -2   3    1.14    0.17
  -2  -2   3    0.94    0.14
  -2  -2   3    0.96    0.13
  -2  -2   3    0.66    0.12
  -2  -2   3    0.79    0.13
  -2  -2   3    0.80    0.09
   1   2  -3   36.04    1.23
   1   2  -3   35.75    1.20
   1   2  -3   34.98    1.19
   1   2  -3   36.82    1.16
   1   2  -3   36.96    1.25
   1   2  -3   34.94    1.17
   1   2  -3   37.13    1.26
   1   2  -3   35.52    1.19
  -1  -2   3   35.91    1.20
  -1  -2   3   35.32    1.24
  -1  -2   3   35.68    1.19
  -1  -2   3   34.73    1.18
  -1  -2   3   36.30    1.28
  -1  -2   3   32.92    1.21
  -1  -2   3   32.42    1.23
   0   2  -3   49.82    1.68
   0   2  -3   48.31    1.61
   0   2  -3   48.23    1.56
   0   2  -3   49.43    1.65
   0   2  -3   48.04    1.55
   0   2  -3   49.17    1.57
   0   2  -3   49.36    1.65
   0   2  -3   45.59    1.61
   0   2  -3   48.17    1.56
   0   2  -3   49.63    1.62
   0  -2   3   44.81    1.65
   0  -2   3   49.02    1.62
   0  -2   3   50.52    1.66
   0  -2   3   49.32    1.57
   0  -2   3   48.94    1.56
  -1   2  -3   83.57    2.92
  -1   2  -3   91.61    2.94
  -1   2  -3   86.31    2.85
  -1   2  -3   90.77    2.89
  -1   2  -3   92.25    2.86
  -1   2  -3   92.69    2.84
  -1   2  -3   90.12    2.90
  -1   2  -3   90.06    2.89
  -1   2  -3   83.29    2.97
  -1   2  -3   95.02    2.99
  -1   2  -3   89.69    2.85
   1  -2   3   83.51    3.00
   1  -2   3   90.59    2.85
   1  -2   3   90.46    2.99
   1  -2   3   91.15    2.86
   1  -2   3   90.21    2.86
   1  -2   3   89.83    2.91
   1  -2   3   91.65    2.86
   1  -2   3   95.97    2.91
  -2   2  -3   12.33    0.54
  -2   2  -3   12.52    0.53
  -2   2  -3   12.27    0.47
  -2   2  -3   11.91    0.42
  -2   2  -3   11.80    0.46
  -2   2  -3   11.88    0.44
  -2   2  -3   12.18    0.42
  -2   2  -3   11.80    0.44
  -2   2  -3   12.74    0.45
   2  -2   3    9.87    0.57
   2  -2   3   11.98    0.43
   2  -2   3   13.26    0.47
   2  -2   3   12.29    0.44
   2  -2   3   11.85    0.45
   2  -2   3   12.09    0.49
   2  -2   3   11.67    0.44
  -3   2  -3    4.28    0.18
  -3   2  -3    4.21    0.29
  -3   2  -3    4.48    0.32
  -3   2  -3    4.23    0.24
  -3   2  -3    4.15    0.29
  -3   2  -3    3.70    0.22
  -3   2  -3    4.08    0.24
  -3   2  -3    4.29    0.19
  -3   2  -3    3.99    0.24
  -3   2  -3    4.15    0.21
   3  -2   3    4.50    0.19
   3  -2   3    4.10    0.26
   3  -2   3    4.57    0.26
   3  -2   3    4.38    0.24
   3  -2   3    4.27    0.25
   3  -2   3    4.46    0.25
   3  -2   3    4.00    0.23
  -4   2  -3    4.78    0.22
  -4   2  -3    4.57    0.30
  -4   2  -3    4.83    0.31
  -4   2  -3    4.48    0.24
  -4   2  -3    5.09    0.36
  -4   2  -3    4.99    0.33
  -4   2  -3    4.56    0.29
  -4   2  -3    4.79    0.38
  -4   2  -3    4.63    0.29
   4  -2   3    4.93    0.33
   4  -2   3    4.58    0.27
   4  -2   3    4.55    0.32
   4  -2   3    5.00    0.21
   4  -2   3    4.40    0.31
  -5   2  -3    5.69    0.47
  -5   2  -3    6.09    0.38
  -5   2  -3    6.09    0.30
  -5   2  -3    5.20    0.45
  -5   2  -3    6.59    0.41
  -5   2  -3    6.01    0.45
  -5   2  -3    5.95    0.39
  -5   2  -3    6.14    0.38
   5  -2   3    5.18    0.43
   5  -2   3    5.73    0.45
   5  -2   3    6.94    0.37
   5  -2   3    6.07    0.26
   5  -2   3    6.15    0.40
  -6   2  -3    2.77    0.30
  -6   2  -3    3.27    0.33
  -6   2  -3    2.97    0.37
  -6   2  -3    2.42    0.33
  -6   2  -3    3.33    0.44
  -6   2  -3    2.67    0.26
  -6   2  -3    3.43    0.39
   6  -2   3    2.45    0.33
   6  -2   3    2.49    0.18
   6  -2   3    3.58    0.44
   6  -2   3    2.58    0.20
   6  -2   3    2.65    0.31
  -7   2  -3    2.59    0.37
  -7   2  -3    2.61    0.46
  -7   2  -3    2.56    0.39
  -7   2  -3    2.45    0.34
  -7   2  -3    2.43    0.39
  -7   2  -3    2.41    0.32
  -7   2  -3    2.11    0.30
   7  -2   3    2.78    0.42
   7  -2   3    2.40    0.22
   7  -2   3    2.63    0.38
   7  -2   3    2.75    0.37
   7  -2   3    2.39    0.23
  -8   2  -3    3.18    0.54
  -8   2  -3    3.87    0.50
  -8   2  -3    3.23    0.42
   8  -2   3    3.75    0.33
   8  -2   3    4.15    0.51
   8  -2   3    4.72    0.50
  -9   2  -3    5.51    0.74
  -9   2  -3    3.97    0.52
  -9   2  -3    3.97    0.62
   9  -2   3    5.31    0.62
   9  -2   3    4.06    0.65
   9   1  -3    1.51    0.38
   9   1  -3    1.59    0.56
   9   1  -3    0.88    0.45
   9   1  -3    1.57    0.38
  -9  -1   3    1.77    0.45
  -9  -1   3    1.65    0.46
  -9  -1   3    0.65    0.48
   8   1  -3    7.67    0.65
   8   1  -3    6.20    0.56
   8   1  -3    6.94    0.74
  -8  -1   3    7.76    0.79
  -8  -1   3    6.47    0.64
  -8  -1   3    7.27    0.66
   7   1  -3   11.55    0.67
   7   1  -3   11.44    0.68
   7   1  -3   11.10    0.74
  -7  -1   3   11.48    0.64
  -7  -1   3   10.81    0.99
  -7  -1   3   11.23    0.75
  -7  -1   3    9.38    0.55
   6   1  -3    0.77    0.25
   6   1  -3    0.93    0.30
   6   1  -3    0.67    0.23
   6   1  -3    0.75    0.18
   6   1  -3    0.46    0.21
  -6  -1   3    0.68    0.22
  -6  -1   3    0.68    0.23
  -6  -1   3    1.15    0.21
  -6  -1   3    0.72    0.29
  -6  -1   3    0.89    0.21
   5   1  -3    3.19    0.39
   5   1  -3    2.92    0.30
   5   1  -3    3.31    0.28
   5   1  -3    2.87    0.33
   5   1  -3    3.34    0.41
   5   1  -3    3.23    0.33
   5   1  -3    3.34    0.31
  -5  -1   3    2.54    0.35
  -5  -1   3    2.47    0.31
  -5  -1   3    2.59    0.36
  -5  -1   3    3.54    0.32
  -5  -1   3    3.02    0.34
  -5  -1   3    2.93    0.28
   4   1  -3   24.14    0.94
   4   1  -3   24.29    0.96
   4   1  -3   24.24    0.94
   4   1  -3   24.28    0.92
   4   1  -3   24.26    1.01
   4   1  -3   24.72    0.98
   4   1  -3   25.59    0.95
  -4  -1   3   25.34    0.99
  -4  -1   3   24.36    0.97
  -4  -1   3   25.30    0.97
  -4  -1   3   25.21    0.96
  -4  -1   3   24.90    0.98
  -4  -1   3   25.44    0.91
   3   1  -3   10.97    0.50
   3   1  -3   10.97    0.48
   3   1  -3   11.37    0.48
   3   1  -3   11.74    0.52
   3   1  -3   11.17    0.45
   3   1  -3   11.26    0.48
   3   1  -3   10.63    0.47
  -3  -1   3   11.01    0.49
  -3  -1   3   10.75    0.49
  -3  -1   3   11.04    0.50
  -3  -1   3   11.15    0.51
  -3  -1   3   11.63    0.49
   2   1  -3    0.58    0.08
   2   1  -3    0.61    0.11
   2   1  -3    0.45    0.11
   2   1  -3    0.44    0.08
   2   1  -3    0.80    0.11
   2   1  -3    0.36    0.08
   2   1  -3    0.60    0.10
   2   1  -3    0.63    0.10
  -2  -1   3    0.45    0.09
  -2  -1   3    0.49    0.10
  -2  -1   3    0.49    0.09
  -2  -1   3    0.50    0.10
  -2  -1   3    0.51    0.10
  -2  -1   3    0.56    0.09
  -2  -1   3    0.42    0.07
   1   1  -3   64.90    2.05
   1   1  -3   62.50    2.05
   1   1  -3   62.44    2.06
   1   1  -3   61.51    2.04
   1   1  -3   63.77    2.04
   1   1  -3   59.38    2.03
   1   1  -3   66.13    2.08
   1   1  -3   59.90    2.05
  -1  -1   3   65.60    2.05
  -1  -1   3   65.00    2.05
  -1  -1   3   62.68    2.04
  -1  -1   3   62.73    2.05
  -1  -1   3   60.21    2.09
  -1  -1   3   62.70    2.04
  -1  -1   3   64.21    2.07
   0   1  -3  234.92    7.31
   0   1  -3  222.88    7.26
   0   1  -3  230.24    7.36
   0   1  -3  232.30    7.34
   0   1  -3  235.71    7.32
   0   1  -3  233.48    7.32
   0   1  -3  208.60    7.28
   0  -1   3  223.46    7.32
   0  -1   3  227.70    7.27
   0  -1   3  240.60    7.35
   0  -1   3  233.29    7.29
   0  -1   3  230.60    7.32
   0  -1   3  226.22    7.28
  -1   1  -3   12.86    0.50
  -1   1  -3   11.67    0.44
  -1   1  -3   12.07    0.42
  -1   1  -3   13.32    0.43
  -1   1  -3   11.47    0.43
  -1   1  -3   12.32    0.44
  -1   1  -3   11.51    0.40
  -1   1  -3   12.26    0.43
   1  -1   3   11.67    0.44
   1  -1   3   12.34    0.51
   1  -1   3   12.13    0.43
   1  -1   3   11.78    0.43
   1  -1   3   12.16    0.43
   1  -1   3   11.53    0.41
   1  -1   3   12.46    0.43
   1  -1   3   11.94    0.43
   1  -1   3   12.22    0.47
  -2   1  -3  112.74    3.70
  -2   1  -3  109.67    3.57
  -2   1  -3  108.89    3.54
  -2   1  -3  111.05    3.58
  -2   1  -3  110.87    3.55
  -2   1  -3  112.89    3.59
  -2   1  -3  101.75    3.53
   2  -1   3  111.87    3.57
   2  -1   3  108.80    3.57
   2  -1   3  113.81    3.58
   2  -1   3  111.91    3.55
   2  -1   3  108.00    3.61
   2  -1   3  113.20    3.53
   2  -1   3  113.50    3.62
  -3   1  -3    4.44    0.18
  -3   1  -3    4.53    0.28
  -3   1  -3    4.39    0.26
  -3   1  -3    4.59    0.27
  -3   1  -3    4.19    0.24
  -3   1  -3    4.43    0.19
  -3   1  -3    4.52    0.22
   3  -1   3    3.97    0.16
   3  -1   3    4.25    0.19
   3  -1   3    4.12    0.26
   3  -1   3    4.35    0.27
   3  -1   3    4.21    0.27
   3  -1   3    4.20    0.27
   3  -1   3    4.41    0.23
  -4   1  -3    2.39    0.30
  -4   1  -3    2.26    0.26
  -4   1  -3    2.45    0.19
  -4   1  -3    2.70    0.16
  -4   1  -3    1.95    0.24
  -4   1  -3    2.68    0.36
  -4   1  -3    2.33    0.24
   4  -1   3    2.47    0.29
   4  -1   3    2.46    0.14
   4  -1   3    2.35    0.19
   4  -1   3    2.18    0.15
   4  -1   3    2.12    0.26
   4  -1   3    2.66    0.27
   4  -1   3    2.46    0.28
  -5   1  -3   14.14    0.56
  -5   1  -3   14.74    0.67
  -5   1  -3   14.17    0.68
  -5   1  -3   13.84    0.72
  -5   1  -3   15.06    0.67
  -5   1  -3   13.94    0.68
   5  -1   3   14.27    0.68
   5  -1   3   14.12    0.52
   5  -1   3   13.46    0.69
   5  -1   3   14.11    0.53
   5  -1   3   13.92    0.74
   5  -1   3   14.19    0.70
  -6   1  -3   10.87    0.66
  -6   1  -3   10.07    0.49
  -6   1  -3   10.67    0.61
  -6   1  -3   10.16    0.67
  -6   1  -3   10.28    0.60
  -6   1  -3   11.00    0.65
   6  -1   3   10.03    0.70
   6  -1   3   10.80    0.44
   6  -1   3    9.65    0.44
   6  -1   3   11.55    0.64
  -7   1  -3    2.42    0.29
  -7   1  -3    2.45    0.41
  -7   1  -3    1.88    0.37
  -7   1  -3    2.18    0.39
  -7   1  -3    2.21    0.41
  -7   1  -3    1.85    0.33
   7  -1   3    1.88    0.22
   7  -1   3    1.79    0.29
   7  -1   3    2.23    0.24
   7  -1   3    1.94    0.41
   7  -1   3    2.29    0.40
  -8   1  -3    0.30    0.42
  -8   1  -3    0.35    0.36
  -8   1  -3    0.28    0.32
   8  -1   3    0.58    0.40
   8  -1   3    0.28    0.28
   8  -1   3    0.29    0.20
  -9   1  -3    4.37    0.67
  -9   1  -3    4.56    0.70
  -9   1  -3    2.89    0.52
   9  -1   3    3.97    0.66
   9  -1   3    5.73    0.65
   9   0  -3    7.63    0.64
   9   0  -3    6.23    0.75
   9   0  -3    7.21    0.58
  -9   0   3    8.42    0.71
  -9   0   3    8.02    0.85
  -9   0   3    5.93    0.71
   8   0  -3    4.17    0.48
   8   0  -3    3.44    0.45
   8   0  -3    4.49    0.44
   8   0  -3    3.30    0.47
  -8   0   3    3.21    0.47
  -8   0   3    3.75    0.50
  -8   0   3    2.92    0.41
   7   0  -3    3.16    0.36
   7   0  -3    2.79    0.33
   7   0  -3    3.88    0.50
   7   0  -3    3.09    0.36
   7   0  -3    2.93    0.37
  -7   0   3    3.86    0.53
  -7   0   3    4.42    0.53
  -7   0   3    3.48    0.37
  -7   0   3    3.26    0.39
  -7   0   3    3.45    0.45
   6   0  -3    2.72    0.33
   6   0  -3    3.00    0.31
   6   0  -3    2.97    0.28
   6   0  -3    3.13    0.42
   6   0  -3    2.92    0.35
   6   0  -3    2.74    0.34
   6   0  -3    2.14    0.30
  -6   0   3    2.84    0.35
  -6   0   3    2.62    0.35
  -6   0   3    3.08    0.34
  -6   0   3    2.73    0.40
   5   0  -3   18.50    0.79
   5   0  -3   19.88    0.77
   5   0  -3   18.71    0.83
   5   0  -3   18.45    0.86
   5   0  -3   18.68    0.78
   5   0  -3   19.35    0.80
   5   0  -3   18.20    0.73
  -5   0   3   18.15    0.84
  -5   0   3   19.31    0.82
  -5   0   3   18.03    0.79
  -5   0   3   18.95    0.78
  -5   0   3   19.32    0.79
  -5   0   3   17.35    0.81
   4   0  -3    4.38    0.30
   4   0  -3    4.32    0.29
   4   0  -3    4.52    0.30
   4   0  -3    4.52    0.26
   4   0  -3    4.89    0.34
   4   0  -3    4.85    0.28
   4   0  -3    4.66    0.34
  -4   0   3    4.75    0.29
  -4   0   3    4.67    0.31
  -4   0   3    4.62    0.29
  -4   0   3    4.91    0.33
  -4   0   3    4.70    0.30
  -4   0   3    4.85    0.34
   3   0  -3   11.58    0.52
   3   0  -3   10.55    0.52
   3   0  -3   11.52    0.46
   3   0  -3   11.35    0.50
   3   0  -3   11.24    0.48
   3   0  -3   11.82    0.48
   3   0  -3   11.60    0.48
  -3   0   3   11.13    0.49
  -3   0   3   11.50    0.50
  -3   0   3   11.79    0.48
  -3   0   3   11.48    0.48
  -3   0   3   12.12    0.51
  -3   0   3   11.21    0.49
   2   0  -3   14.65    0.58
   2   0  -3   16.07    0.57
   2   0  -3   16.04    0.57
   2   0  -3   15.25    0.56
   2   0  -3   14.97    0.55
   2   0  -3   15.02    0.56
   2   0  -3   15.66    0.56
   2   0  -3   15.94    0.56
  -2   0   3   14.28    0.60
  -2   0   3   14.27    0.59
  -2   0   3   15.29    0.57
  -2   0   3   14.98    0.57
  -2   0   3   14.70    0.57
  -2   0   3   15.01    0.56
  -2   0   3   14.70    0.57
   1   0  -3   36.73    1.36
   1   0  -3   39.77    1.35
   1   0  -3   42.82    1.34
   1   0  -3   39.56    1.35
   1   0  -3   42.04    1.37
   1   0  -3   41.28    1.35
  -1   0   3   41.31    1.35
  -1   0   3   40.79    1.34
  -1   0   3   40.36    1.37
  -1   0   3   40.55    1.34
  -1   0   3   41.79    1.35
  -1   0   3   41.24    1.35
  -1   0   3   42.51    1.35
  -1   0   3   40.39    1.34
   0   0  -3   48.22    1.55
   0   0  -3   46.74    1.54
   0   0  -3   48.41    1.61
   0   0  -3   46.71    1.56
   0   0   3   46.98    1.55
   0   0   3   48.13    1.55
   0   0   3   48.44    1.56
   0   0   3   50.69    1.57
   0   0   3   47.23    1.56
   0   0   3   47.23    1.56
  -1   0  -3   40.88    1.36
  -1   0  -3   40.34    1.33
  -1   0  -3   39.90    1.33
  -1   0  -3   43.59    1.37
  -1   0  -3   40.94    1.35
   1   0   3   37.92    1.37
   1   0   3   39.39    1.29
   1   0   3   41.21    1.30
   1   0   3   40.03    1.33
   1   0   3   40.56    1.35
   1   0   3   40.37    1.36
  -2   0  -3   16.85    0.64
  -2   0  -3   17.57    0.68
  -2   0  -3   17.24    0.67
  -2   0  -3   17.50    0.63
  -2   0  -3   16.88    0.65
   2   0   3   17.34    0.67
   2   0   3   17.58    0.66
   2   0   3   18.10    0.65
   2   0   3   16.94    0.57
   2   0   3   17.48    0.66
   2   0   3   17.18    0.66
  -3   0  -3   31.43    1.14
  -3   0  -3   31.32    1.15
  -3   0  -3   31.39    1.09
  -3   0  -3   30.67    1.13
   3   0   3   28.53    1.06
   3   0   3   31.34    1.05
   3   0   3   30.95    1.13
   3   0   3   31.20    1.13
   3   0   3   30.44    1.14
   3   0   3   31.31    1.02
   3   0   3   31.64    1.14
  -4   0  -3    1.41    0.16
  -4   0  -3    1.63    0.23
  -4   0  -3    1.70    0.22
  -4   0  -3    1.61    0.20
  -4   0  -3    1.62    0.22
  -4   0  -3    1.90    0.24
   4   0   3    1.81    0.15
   4   0   3    1.94    0.27
   4   0   3    1.60    0.24
   4   0   3    1.64    0.17
   4   0   3    1.87    0.25
   4   0   3    2.00    0.26
  -5   0  -3   28.82    1.03
  -5   0  -3   28.71    1.19
  -5   0  -3   28.41    1.19
  -5   0  -3   29.63    1.16
  -5   0  -3   29.02    1.17
  -5   0  -3   29.30    1.15
   5   0   3   26.15    1.26
   5   0   3   28.77    1.03
   5   0   3   30.95    1.18
   5   0   3   29.15    1.01
  -6   0  -3   10.09    0.66
  -6   0  -3   11.66    0.68
  -6   0  -3   10.78    0.68
  -6   0  -3   11.14    0.69
  -6   0  -3   10.93    0.52
  -6   0  -3   10.60    0.69
   6   0   3    9.90    0.49
   6   0   3   11.38    0.48
   6   0   3   10.88    0.72
   6   0   3   11.94    0.69
  -7   0  -3    5.49    0.63
  -7   0  -3    5.21    0.63
  -7   0  -3    4.20    0.56
  -7   0  -3    5.64    0.54
   7   0   3    5.20    0.59
   7   0   3    5.59    0.35
   7   0   3    4.33    0.38
   7   0   3    5.01    0.55
  -8   0  -3    0.03    0.41
  -8   0  -3   -0.53    0.40
  -8   0  -3   -0.04    0.32
   8   0   3    0.43    0.35
  -9   0  -3    2.08    0.58
  -9   0  -3    1.11    0.47
  -9   0  -3    2.05    0.58
   9   0   3    1.30    0.60
   9   0   3    1.11    0.39
  10  -1  -3    3.43    0.48
  10  -1  -3    3.23    0.59
 -10   1   3    3.16    0.59
 -10   1   3    1.89    0.50
 -10   1   3    2.94    0.59
   9  -1  -3    6.14    0.65
   9  -1  -3    5.52    0.57
   9  -1  -3    6.07    0.78
   9  -1  -3    6.97    0.68
  -9   1   3    5.48    0.73
  -9   1   3    5.73    0.60
  -9   1   3    5.01    0.60
   8  -1  -3   11.70    0.57
   8  -1  -3   11.85    0.74
   8  -1  -3   11.45    0.77
   8  -1  -3   12.00    0.68
  -8   1   3   11.87    0.70
  -8   1   3   11.74    0.86
   7  -1  -3    1.76    0.26
   7  -1  -3    1.27    0.25
   7  -1  -3    1.16    0.27
   7  -1  -3    1.39    0.20
   7  -1  -3    1.88    0.31
  -7   1   3    2.62    0.40
  -7   1   3    1.82    0.25
  -7   1   3    1.23    0.28
  -7   1   3    1.62    0.28
  -7   1   3    1.72    0.34
   6  -1  -3   18.51    0.80
   6  -1  -3   18.38    0.77
   6  -1  -3   16.89    0.83
   6  -1  -3   18.82    0.71
   6  -1  -3   19.19    0.82
   6  -1  -3   18.68    0.92
  -6   1   3   17.05    0.84
  -6   1   3   18.59    0.82
  -6   1   3   18.30    0.84
  -6   1   3   17.90    0.88
  -6   1   3   17.92    0.79
   5  -1  -3   64.85    2.29
   5  -1  -3   66.56    2.27
   5  -1  -3   65.73    2.24
   5  -1  -3   66.02    2.27
   5  -1  -3   65.99    2.19
   5  -1  -3   63.52    2.29
   5  -1  -3   65.99    2.33
  -5   1   3   65.53    2.27
  -5   1   3   66.37    2.29
  -5   1   3   62.59    2.16
  -5   1   3   67.47    2.29
  -5   1   3   66.94    2.32
  -5   1   3   68.50    2.26
  -5   1   3   68.98    2.29
   4  -1  -3    2.75    0.26
   4  -1  -3    3.11    0.23
   4  -1  -3    2.62    0.20
   4  -1  -3    2.94    0.23
   4  -1  -3    2.39    0.26
   4  -1  -3    2.96    0.28
   4  -1  -3    3.07    0.18
  -4   1   3    3.18    0.26
  -4   1   3    3.19    0.23
  -4   1   3    2.57    0.23
  -4   1   3    2.73    0.25
  -4   1   3    2.74    0.27
  -4   1   3    2.90    0.24
   3  -1  -3   11.12    0.46
   3  -1  -3   11.17    0.42
   3  -1  -3   11.34    0.48
   3  -1  -3   11.11    0.49
   3  -1  -3   11.49    0.46
   3  -1  -3   11.08    0.45
   3  -1  -3   10.86    0.49
  -3   1   3   11.37    0.48
  -3   1   3   11.20    0.47
  -3   1   3   11.33    0.48
  -3   1   3   10.97    0.47
   2  -1  -3   11.34    0.41
   2  -1  -3   10.51    0.50
   2  -1  -3   11.47    0.43
   2  -1  -3    9.84    0.45
   2  -1  -3   11.65    0.44
   2  -1  -3   11.23    0.45
   2  -1  -3   10.84    0.43
   2  -1  -3   10.90    0.38
  -2   1   3   11.38    0.44
  -2   1   3   12.02    0.42
  -2   1   3   10.83    0.44
  -2   1   3   10.95    0.46
  -2   1   3   11.09    0.42
  -2   1   3   11.18    0.44
   1  -1  -3    6.30    0.27
   1  -1  -3    6.72    0.24
   1  -1  -3    6.72    0.31
   1  -1  -3    6.31    0.28
   1  -1  -3    6.49    0.26
   1  -1  -3    6.61    0.28
  -1   1   3    6.91    0.25
  -1   1   3    6.47    0.31
  -1   1   3    6.75    0.28
  -1   1   3    7.08    0.28
  -1   1   3    6.30    0.27
  -1   1   3    6.52    0.27
  -1   1   3    6.81    0.27
   0  -1  -3   16.51    0.57
   0  -1  -3   15.67    0.58
   0  -1  -3   15.99    0.56
   0  -1  -3   14.78    0.61
   0  -1  -3   13.87    0.60
   0   1   3   16.08    0.58
   0   1   3   16.06    0.56
   0   1   3   17.02    0.57
   0   1   3   16.15    0.62
   0   1   3   15.67    0.54
   0   1   3   15.89    0.58
   0   1   3   16.10    0.57
  -1  -1  -3   16.32    0.68
  -1  -1  -3   17.66    0.63
  -1  -1  -3   18.21    0.67
  -1  -1  -3   16.77    0.64
  -1  -1  -3   17.47    0.63
  -1  -1  -3   18.10    0.67
   1   1   3   17.28    0.65
   1   1   3   18.02    0.65
   1   1   3   17.75    0.62
   1   1   3   17.25    0.66
   1   1   3   16.72    0.66
  -2  -1  -3    2.44    0.22
  -2  -1  -3    2.60    0.20
  -2  -1  -3    2.78    0.21
  -2  -1  -3    2.34    0.18
  -2  -1  -3    2.66    0.22
   2   1   3    2.44    0.21
   2   1   3    2.47    0.16
   2   1   3    2.96    0.22
   2   1   3    2.63    0.21
   2   1   3    2.43    0.17
   2   1   3    2.43    0.23
  -3  -1  -3    8.42    0.44
  -3  -1  -3    8.48    0.35
  -3  -1  -3    8.49    0.46
  -3  -1  -3    8.30    0.41
  -3  -1  -3    8.79    0.42
  -3  -1  -3    8.51    0.45
   3   1   3    8.46    0.37
   3   1   3    8.17    0.36
   3   1   3    8.81    0.44
   3   1   3    8.50    0.35
   3   1   3    8.39    0.48
   3   1   3    8.19    0.45
   3   1   3    8.28    0.45
  -4  -1  -3    2.15    0.28
  -4  -1  -3    2.93    0.30
  -4  -1  -3    2.88    0.26
  -4  -1  -3    2.45    0.42
  -4  -1  -3    2.48    0.17
  -4  -1  -3    2.69    0.33
   4   1   3    2.76    0.30
   4   1   3    1.99    0.20
   4   1   3    2.49    0.32
   4   1   3    2.85    0.33
   4   1   3    2.35    0.23
   4   1   3    3.10    0.37
  -5  -1  -3    7.77    0.53
  -5  -1  -3    7.19    0.53
  -5  -1  -3    7.77    0.56
  -5  -1  -3    6.95    0.51
   5   1   3    7.45    0.42
   5   1   3    8.25    0.39
   5   1   3    7.99    0.54
   5   1   3    8.50    0.57
  -6  -1  -3    1.14    0.32
  -6  -1  -3    1.50    0.35
  -6  -1  -3    0.91    0.30
  -6  -1  -3    1.44    0.23
  -6  -1  -3    1.34    0.32
   6   1   3    1.17    0.19
   6   1   3    0.96    0.34
   6   1   3    0.85    0.29
   6   1   3    0.77    0.23
  -7  -1  -3    0.94    0.37
  -7  -1  -3    0.98    0.42
  -7  -1  -3    1.42    0.39
   7   1   3    1.47    0.24
   7   1   3    1.33    0.44
   7   1   3    0.59    0.42
  -8  -1  -3    1.03    0.44
  -8  -1  -3    0.43    0.44
  -8  -1  -3    0.85    0.46
   8   1   3   -0.25    0.45
  10  -2  -3    1.04    0.37
  10  -2  -3    1.88    0.51
  10  -2  -3    1.21    0.44
 -10   2   3    1.06    0.41
 -10   2   3    1.91    0.52
 -10   2   3    1.33    0.50
   9  -2  -3    1.53    0.44
   9  -2  -3    2.85    0.48
   9  -2  -3    2.68    0.41
   9  -2  -3    2.62    0.38
  -9   2   3    2.26    0.39
  -9   2   3    2.62    0.48
  -9   2   3    1.93    0.43
   8  -2  -3    2.29    0.25
   8  -2  -3    2.13    0.31
   8  -2  -3    2.52    0.40
   8  -2  -3    2.09    0.38
  -8   2   3    1.98    0.32
  -8   2   3    1.63    0.43
  -8   2   3    1.80    0.35
  -8   2   3    2.15    0.39
   7  -2  -3    6.54    0.33
   7  -2  -3    7.37    0.50
   7  -2  -3    6.15    0.42
   7  -2  -3    6.18    0.50
  -7   2   3    6.27    0.60
  -7   2   3    5.61    0.56
  -7   2   3    5.80    0.49
  -7   2   3    6.27    0.52
  -7   2   3    6.98    0.53
   6  -2  -3   20.02    0.97
   6  -2  -3   22.94    0.92
   6  -2  -3   21.72    0.99
   6  -2  -3   22.02    0.91
   6  -2  -3   21.74    0.87
   6  -2  -3   21.55    0.78
  -6   2   3   22.37    0.93
  -6   2   3   21.31    0.96
  -6   2   3   22.84    0.95
  -6   2   3   21.69    0.89
  -6   2   3   21.35    0.96
   5  -2  -3   13.17    0.48
   5  -2  -3   13.00    0.58
   5  -2  -3   12.75    0.64
   5  -2  -3   13.31    0.56
   5  -2  -3   12.18    0.57
   5  -2  -3   13.28    0.65
   5  -2  -3   12.44    0.62
  -5   2   3   13.29    0.57
  -5   2   3   12.10    0.61
  -5   2   3   11.86    0.54
  -5   2   3   13.07    0.62
  -5   2   3   12.19    0.58
  -5   2   3   12.98    0.63
  -5   2   3   13.03    0.59
   4  -2  -3    7.49    0.42
   4  -2  -3    7.18    0.30
   4  -2  -3    7.59    0.36
   4  -2  -3    7.96    0.44
   4  -2  -3    6.91    0.36
   4  -2  -3    7.33    0.40
   4  -2  -3    7.45    0.37
  -4   2   3    7.46    0.41
  -4   2   3    7.60    0.41
  -4   2   3    7.40    0.36
  -4   2   3    7.75    0.38
  -4   2   3    7.39    0.38
  -4   2   3    7.13    0.39
   3  -2  -3   30.16    1.05
   3  -2  -3   29.59    1.01
   3  -2  -3   30.58    1.08
   3  -2  -3   30.19    1.06
   3  -2  -3   28.33    1.04
   3  -2  -3   31.21    1.11
   3  -2  -3   29.61    1.04
   3  -2  -3   28.80    1.00
   3  -2  -3   29.79    1.06
  -3   2   3   29.11    1.09
  -3   2   3   30.28    1.04
  -3   2   3   30.39    1.06
  -3   2   3   30.76    1.06
  -3   2   3   28.84    1.06
  -3   2   3   29.98    1.06
   2  -2  -3   17.30    0.63
   2  -2  -3   16.52    0.63
   2  -2  -3   17.48    0.64
   2  -2  -3   17.07    0.60
   2  -2  -3   17.40    0.67
   2  -2  -3   15.10    0.63
   2  -2  -3   18.05    0.63
  -2   2   3   17.54    0.63
  -2   2   3   16.56    0.63
  -2   2   3   16.95    0.67
  -2   2   3   17.70    0.63
  -2   2   3   17.82    0.63
  -2   2   3   16.60    0.61
   1  -2  -3    8.89    0.37
   1  -2  -3    8.77    0.33
   1  -2  -3    9.06    0.40
   1  -2  -3    8.84    0.35
   1  -2  -3    8.56    0.36
   1  -2  -3    8.57    0.37
  -1   2   3    8.91    0.40
  -1   2   3    8.62    0.40
  -1   2   3    9.44    0.36
  -1   2   3    9.28    0.37
  -1   2   3    8.71    0.34
  -1   2   3    8.90    0.33
   0  -2  -3   11.28    0.47
   0  -2  -3   11.41    0.45
   0  -2  -3   11.55    0.46
   0  -2  -3   11.37    0.46
   0  -2  -3   11.71    0.48
   0  -2  -3   12.00    0.50
   0   2   3   11.47    0.46
   0   2   3   11.47    0.42
   0   2   3   12.46    0.46
   0   2   3   11.79    0.44
   0   2   3   12.02    0.47
   0   2   3   11.50    0.50
   0   2   3   11.79    0.48
  -1  -2  -3   14.79    0.59
  -1  -2  -3   15.28    0.62
  -1  -2  -3   15.41    0.60
  -1  -2  -3   15.41    0.63
  -1  -2  -3   14.45    0.57
  -1  -2  -3   14.79    0.62
   1   2   3   14.48    0.56
   1   2   3   14.78    0.59
   1   2   3   14.66    0.59
   1   2   3   15.34    0.60
  -2  -2  -3    5.45    0.31
  -2  -2  -3    5.51    0.31
  -2  -2  -3    5.51    0.34
  -2  -2  -3    5.25    0.35
   2   2   3    5.91    0.37
   2   2   3    5.46    0.29
   2   2   3    5.61    0.33
   2   2   3    5.89    0.29
   2   2   3    5.10    0.33
   2   2   3    5.34    0.33
  -3  -2  -3    7.33    0.34
  -3  -2  -3    7.20    0.46
  -3  -2  -3    6.68    0.42
  -3  -2  -3    6.99    0.40
  -3  -2  -3    7.08    0.45
  -3  -2  -3    7.04    0.40
   3   2   3    6.67    0.35
   3   2   3    7.17    0.44
   3   2   3    7.15    0.42
   3   2   3    6.24    0.44
   3   2   3    6.82    0.44
   3   2   3    6.72    0.36
  -4  -2  -3   25.65    1.11
  -4  -2  -3   25.28    1.03
  -4  -2  -3   26.18    1.07
  -4  -2  -3   24.63    1.01
  -4  -2  -3   25.24    1.07
  -4  -2  -3   26.13    0.92
   4   2   3   23.80    1.06
   4   2   3   24.26    1.14
   4   2   3   25.96    0.95
   4   2   3   26.64    1.10
   4   2   3   24.29    0.96
   4   2   3   25.97    1.07
  -5  -2  -3   17.28    0.93
  -5  -2  -3   16.50    0.86
  -5  -2  -3   17.26    0.88
   5   2   3   17.50    0.91
   5   2   3   17.04    0.71
   5   2   3   16.63    0.85
  -6  -2  -3    5.16    0.61
  -6  -2  -3    6.08    0.61
  -6  -2  -3    5.16    0.67
  -6  -2  -3    5.41    0.59
   6   2   3    5.64    0.69
   6   2   3    4.69    0.39
   6   2   3    5.91    0.60
  -7  -2  -3    4.46    0.62
  -7  -2  -3    4.28    0.54
  -7  -2  -3    5.21    0.63
   7   2   3    5.15    0.63
   7   2   3    4.89    0.64
   7   2   3    4.56    0.43
  -8  -2  -3    3.76    0.65
  -8  -2  -3    2.28    0.55
  -8  -2  -3    3.07    0.64
   8   2   3    3.62    0.62
  10  -3  -3    0.90    0.38
  10  -3  -3    0.48    0.44
  10  -3  -3    1.86    0.51
 -10   3   3    0.88    0.44
 -10   3   3    0.70    0.50
   9  -3  -3    1.68    0.39
   9  -3  -3    2.73    0.46
  -9   3   3    2.09    0.41
  -9   3   3    2.23    0.49
   8  -3  -3    3.93    0.43
   8  -3  -3    4.09    0.33
   8  -3  -3    3.80    0.46
   8  -3  -3    4.34    0.46
   8  -3  -3    4.17    0.25
   8  -3  -3    5.29    0.53
  -8   3   3    4.79    0.61
  -8   3   3    3.88    0.52
   7  -3  -3   11.35    0.47
   7  -3  -3   11.10    0.63
   7  -3  -3   11.34    0.58
   7  -3  -3   10.82    0.62
   7  -3  -3   11.09    0.44
  -7   3   3   10.55    0.69
  -7   3   3   10.85    0.63
  -7   3   3   11.32    0.70
  -7   3   3   10.62    0.68
   6  -3  -3   19.46    0.65
   6  -3  -3   15.77    0.95
   6  -3  -3   17.80    0.77
   6  -3  -3   18.78    0.79
   6  -3  -3   17.88    0.78
   6  -3  -3   18.42    0.64
   6  -3  -3   17.60    0.75
  -6   3   3   17.49    0.79
  -6   3   3   18.16    0.86
  -6   3   3   19.46    0.86
  -6   3   3   18.10    0.84
  -6   3   3   16.73    0.77
  -6   3   3   18.41    0.76
   5  -3  -3   16.68    0.58
   5  -3  -3   16.27    0.78
   5  -3  -3   15.00    0.72
   5  -3  -3   16.79    0.67
   5  -3  -3   14.68    0.73
   5  -3  -3   15.34    0.68
   5  -3  -3   16.36    0.69
   5  -3  -3   16.67    0.69
  -5   3   3   16.39    0.66
  -5   3   3   15.44    0.72
  -5   3   3   16.91    0.72
  -5   3   3   16.54    0.74
  -5   3   3   16.70    0.70
  -5   3   3   16.95    0.70
   4  -3  -3    6.88    0.37
   4  -3  -3    6.68    0.35
   4  -3  -3    6.82    0.28
   4  -3  -3    6.42    0.43
   4  -3  -3    6.80    0.35
   4  -3  -3    6.85    0.34
   4  -3  -3    7.08    0.33
   4  -3  -3    6.97    0.35
   4  -3  -3    6.28    0.38
  -4   3   3    6.49    0.40
  -4   3   3    6.39    0.36
  -4   3   3    6.60    0.37
  -4   3   3    6.48    0.37
  -4   3   3    6.59    0.33
  -4   3   3    6.39    0.30
   3  -3  -3   17.69    0.64
   3  -3  -3   17.93    0.75
   3  -3  -3   17.99    0.68
   3  -3  -3   17.82    0.68
   3  -3  -3   16.64    0.72
   3  -3  -3   16.99    0.70
   3  -3  -3   17.83    0.68
   3  -3  -3   18.23    0.71
  -3   3   3   17.65    0.69
  -3   3   3   18.71    0.74
  -3   3   3   18.53    0.67
  -3   3   3   18.40    0.69
  -3   3   3   17.95    0.69
  -3   3   3   18.44    0.64
  -3   3   3   18.83    0.69
   2  -3  -3   99.56    3.30
   2  -3  -3  102.82    3.32
   2  -3  -3  104.08    3.31
   2  -3  -3  101.87    3.31
   2  -3  -3   98.32    3.37
   2  -3  -3  103.05    3.33
   2  -3  -3  102.25    3.33
  -2   3   3  105.33    3.32
  -2   3   3  101.20    3.37
  -2   3   3   96.30    3.30
  -2   3   3  101.15    3.31
  -2   3   3  102.35    3.32
  -2   3   3  102.52    3.32
  -2   3   3  109.11    3.29
  -2   3   3  103.11    3.32
   1  -3  -3   68.61    2.22
   1  -3  -3   68.24    2.20
   1  -3  -3   68.17    2.26
   1  -3  -3   68.01    2.23
   1  -3  -3   61.38    2.27
   1  -3  -3   62.14    2.23
  -1   3   3   69.05    2.20
  -1   3   3   68.16    2.19
  -1   3   3   67.88    2.23
  -1   3   3   68.32    2.21
  -1   3   3   66.54    2.26
  -1   3   3   65.47    2.21
  -1   3   3   70.28    2.21
  -1   3   3   67.06    2.21
   0  -3  -3    0.85    0.15
   0  -3  -3    1.11    0.14
   0  -3  -3    0.83    0.11
   0  -3  -3    1.31    0.18
   0  -3  -3    0.76    0.12
   0  -3  -3    0.89    0.14
   0   3   3    0.79    0.12
   0   3   3    1.12    0.12
   0   3   3    1.32    0.14
   0   3   3    1.09    0.13
   0   3   3    0.94    0.15
   0   3   3    1.16    0.16
   0   3   3    0.62    0.12
  -1  -3  -3    2.52    0.25
  -1  -3  -3    2.66    0.22
  -1  -3  -3    2.94    0.26
  -1  -3  -3    2.36    0.25
  -1  -3  -3    2.49    0.20
   1   3   3    2.77    0.25
   1   3   3    2.44    0.22
   1   3   3    2.45    0.20
   1   3   3    2.33    0.23
  -2  -3  -3    8.05    0.41
  -2  -3  -3    7.49    0.47
  -2  -3  -3    7.82    0.42
  -2  -3  -3    6.84    0.45
  -2  -3  -3    8.03    0.46
  -2  -3  -3    7.94    0.43
  -2  -3  -3    8.10    0.40
   2   3   3    7.61    0.47
   2   3   3    7.53    0.44
   2   3   3    7.45    0.43
   2   3   3    7.56    0.39
   2   3   3    7.67    0.39
   2   3   3    7.38    0.43
  -3  -3  -3    4.34    0.41
  -3  -3  -3    3.61    0.28
  -3  -3  -3    4.02    0.39
  -3  -3  -3    3.60    0.34
  -3  -3  -3    3.28    0.32
  -3  -3  -3    3.51    0.40
  -3  -3  -3    3.63    0.35
   3   3   3    3.82    0.30
   3   3   3    3.72    0.35
   3   3   3    4.05    0.40
   3   3   3    2.97    0.35
   3   3   3    3.21    0.30
   3   3   3    3.77    0.37
  -4  -3  -3   28.41    1.24
  -4  -3  -3   29.38    1.22
  -4  -3  -3   30.51    1.29
  -4  -3  -3   29.23    1.09
   4   3   3   29.15    1.22
   4   3   3   27.51    1.22
   4   3   3   30.09    1.26
   4   3   3   31.25    1.13
  -5  -3  -3   10.86    0.71
  -5  -3  -3   10.95    0.79
  -5  -3  -3    8.89    0.76
  -5  -3  -3   10.18    0.49
   5   3   3   10.29    0.69
   5   3   3   10.31    0.75
   5   3   3   10.40    0.57
  -6  -3  -3   10.93    0.80
  -6  -3  -3   11.06    0.82
  -6  -3  -3    9.83    0.47
   6   3   3   10.55    0.79
   6   3   3   10.58    0.87
   6   3   3   10.87    0.61
  -7  -3  -3    3.98    0.64
  -7  -3  -3    3.89    0.62
  -7  -3  -3    3.85    0.56
   7   3   3    4.29    0.50
   7   3   3    4.60    0.66
   7   3   3    3.93    0.61
  -8  -3  -3    3.43    0.66
  -8  -3  -3    2.76    0.67
  -8  -3  -3    1.75    0.83
   8   3   3    3.80    0.71
  10  -4  -3   -0.18    0.45
  10  -4  -3   -0.11    0.33
  10  -4  -3    0.36    0.41
 -10   4   3    0.14    0.32
 -10   4   3   -0.91    0.48
 -10   4   3   -0.60    0.40
   9  -4  -3    1.81    0.34
   9  -4  -3    1.40    0.37
   9  -4  -3    1.41    0.40
  -9   4   3    1.77    0.40
  -9   4   3    1.69    0.33
  -9   4   3    1.84    0.45
   8  -4  -3    2.22    0.31
   8  -4  -3    2.52    0.37
   8  -4  -3    1.53    0.32
   8  -4  -3    1.92    0.31
   8  -4  -3    1.93    0.35
  -8   4   3    1.33    0.30
  -8   4   3    1.81    0.29
  -8   4   3    2.79    0.42
   7  -4  -3    4.05    0.37
   7  -4  -3    3.69    0.26
   7  -4  -3    3.60    0.22
   7  -4  -3    3.45    0.40
   7  -4  -3    4.27    0.42
   7  -4  -3    4.18    0.43
  -7   4   3    4.26    0.51
  -7   4   3    3.67    0.39
  -7   4   3    3.24    0.33
  -7   4   3    3.55    0.47
  -7   4   3    3.70    0.45
   6  -4  -3   10.87    0.54
   6  -4  -3    9.96    0.51
   6  -4  -3   10.14    0.40
   6  -4  -3   10.46    0.54
   6  -4  -3    9.84    0.53
  -6   4   3    9.84    0.62
  -6   4   3    9.83    0.58
  -6   4   3   10.07    0.54
  -6   4   3   10.33    0.50
  -6   4   3   10.43    0.60
   5  -4  -3    0.65    0.18
   5  -4  -3    0.95    0.18
   5  -4  -3    0.88    0.39
   5  -4  -3    0.93    0.18
   5  -4  -3    0.73    0.16
   5  -4  -3    0.97    0.23
   5  -4  -3    0.65    0.10
   5  -4  -3    0.58    0.14
  -5   4   3    1.11    0.22
  -5   4   3    0.89    0.13
  -5   4   3    0.59    0.19
  -5   4   3    0.86    0.14
  -5   4   3    0.79    0.21
   4  -4  -3    0.70    0.17
   4  -4  -3    0.48    0.15
   4  -4  -3    0.30    0.11
   4  -4  -3    0.69    0.14
   4  -4  -3    0.66    0.10
   4  -4  -3    0.83    0.23
   4  -4  -3    0.62    0.18
  -4   4   3    0.51    0.09
  -4   4   3    0.57    0.11
  -4   4   3    0.36    0.15
  -4   4   3    0.65    0.15
  -4   4   3    0.41    0.12
  -4   4   3    0.92    0.17
  -4   4   3    0.38    0.12
   3  -4  -3    9.03    0.40
   3  -4  -3    8.55    0.39
   3  -4  -3    8.98    0.38
   3  -4  -3    9.29    0.41
   3  -4  -3    8.22    0.42
   3  -4  -3    7.69    0.48
   3  -4  -3    9.11    0.41
  -3   4   3    8.62    0.35
  -3   4   3    8.44    0.41
  -3   4   3    8.53    0.41
  -3   4   3    8.24    0.39
  -3   4   3    8.41    0.40
  -3   4   3    8.63    0.46
  -3   4   3    8.26    0.40
  -3   4   3    9.15    0.38
   2  -4  -3   30.05    1.10
   2  -4  -3   32.49    1.14
   2  -4  -3   32.89    1.13
   2  -4  -3   32.20    1.12
   2  -4  -3   32.26    1.13
   2  -4  -3   33.56    1.13
   2  -4  -3   31.77    1.19
  -2   4   3   29.57    1.11
  -2   4   3   31.06    1.12
  -2   4   3   32.13    1.13
  -2   4   3   32.83    1.09
  -2   4   3   31.40    1.11
  -2   4   3   31.93    1.18
  -2   4   3   32.03    1.12
  -2   4   3   31.05    1.11
   1  -4  -3    8.32    0.36
   1  -4  -3    8.06    0.43
   1  -4  -3    7.89    0.37
   1  -4  -3    8.18    0.40
   1  -4  -3    8.29    0.40
   1  -4  -3    8.09    0.38
  -1   4   3    8.09    0.38
  -1   4   3    8.10    0.36
  -1   4   3    8.43    0.36
  -1   4   3    8.14    0.42
  -1   4   3    8.07    0.37
  -1   4   3    8.42    0.37
  -1   4   3    7.74    0.39
   0  -4  -3    0.26    0.13
   0  -4  -3    0.29    0.09
   0  -4  -3    0.32    0.14
   0  -4  -3    0.27    0.10
   0  -4  -3    0.32    0.12
   0  -4  -3    0.23    0.10
   0   4   3    0.28    0.12
   0   4   3    0.25    0.11
   0   4   3    0.44    0.12
   0   4   3    0.20    0.11
   0   4   3    0.43    0.13
   0   4   3    0.26    0.10
   0   4   3    0.41    0.12
  -1  -4  -3   12.29    0.57
  -1  -4  -3   12.38    0.58
  -1  -4  -3   13.68    0.60
  -1  -4  -3   12.73    0.63
  -1  -4  -3   12.46    0.55
  -1  -4  -3   12.66    0.60
  -1  -4  -3   13.02    0.62
   1   4   3   12.05    0.55
   1   4   3   12.96    0.59
   1   4   3   12.83    0.59
   1   4   3   13.11    0.56
   1   4   3   12.64    0.57
   1   4   3   12.13    0.61
  -2  -4  -3   15.81    0.69
  -2  -4  -3   15.44    0.73
  -2  -4  -3   15.25    0.72
  -2  -4  -3   15.66    0.71
  -2  -4  -3   16.96    0.76
  -2  -4  -3   14.72    0.68
  -2  -4  -3   15.85    0.78
   2   4   3   16.11    0.76
   2   4   3   15.85    0.73
   2   4   3   15.83    0.72
   2   4   3   13.64    0.66
   2   4   3   15.89    0.72
   2   4   3   17.11    0.70
  -3  -4  -3    4.84    0.49
  -3  -4  -3    4.23    0.35
  -3  -4  -3    3.40    0.39
  -3  -4  -3    4.22    0.45
  -3  -4  -3    3.90    0.40
  -3  -4  -3    5.43    0.43
   3   4   3    3.53    0.40
   3   4   3    3.13    0.43
   3   4   3    4.36    0.43
   3   4   3    4.15    0.32
   3   4   3    4.31    0.38
   3   4   3    4.34    0.49
  -4  -4  -3   11.94    0.79
  -4  -4  -3   14.24    0.85
  -4  -4  -3   14.45    0.81
  -4  -4  -3   13.64    0.65
  -4  -4  -3   11.78    0.74
   4   4   3   15.09    0.83
   4   4   3   12.64    0.78
   4   4   3   13.20    0.67
   4   4   3   12.82    0.75
  -5  -4  -3    5.90    0.70
  -5  -4  -3    5.16    0.44
  -5  -4  -3    6.27    0.73
   5   4   3    6.67    0.52
   5   4   3    6.33    0.72
   5   4   3    6.45    0.65
  -6  -4  -3    6.99    0.82
  -6  -4  -3    5.29    0.71
  -6  -4  -3    7.56    0.89
   6   4   3    5.99    0.72
   6   4   3    7.12    0.89
   6   4   3    6.93    0.58
  -7  -4  -3    0.34    0.47
  -7  -4  -3    1.05    0.62
  -7  -4  -3    1.14    0.56
   7   4   3   -0.42    0.47
   7   4   3    1.69    0.64
  10  -5  -3    0.73    0.51
  10  -5  -3    0.47    0.55
 -10   5   3    0.52    0.54
 -10   5   3    0.46    0.40
   9  -5  -3    1.30    0.40
   9  -5  -3    1.56    0.41
  -9   5   3    1.24    0.49
  -9   5   3    1.31    0.38
  -9   5   3    1.56    0.32
   8  -5  -3    3.98    0.49
   8  -5  -3    3.46    0.43
   8  -5  -3    4.36    0.46
  -8   5   3    3.94    0.48
  -8   5   3    3.21    0.47
  -8   5   3    3.66    0.38
   7  -5  -3    2.39    0.31
   7  -5  -3    2.06    0.29
   7  -5  -3    2.10    0.33
  -7   5   3    2.11    0.39
  -7   5   3    1.84    0.26
  -7   5   3    2.90    0.42
  -7   5   3    2.06    0.40
   6  -5  -3    4.44    0.27
   6  -5  -3    5.05    0.39
   6  -5  -3    4.82    0.39
   6  -5  -3    4.67    0.37
   6  -5  -3    4.52    0.40
  -6   5   3    3.90    0.44
  -6   5   3    4.90    0.45
  -6   5   3    4.27    0.46
  -6   5   3    4.23    0.36
  -6   5   3    4.53    0.31
   5  -5  -3    1.79    0.26
   5  -5  -3    1.63    0.19
   5  -5  -3    1.79    0.26
   5  -5  -3    1.78    0.24
  -5   5   3    1.72    0.25
  -5   5   3    1.85    0.24
  -5   5   3    1.77    0.19
  -5   5   3    1.42    0.25
  -5   5   3    1.27    0.16
  -5   5   3    1.28    0.24
   4  -5  -3    2.90    0.27
   4  -5  -3    2.56    0.31
   4  -5  -3    2.87    0.26
   4  -5  -3    3.34    0.24
   4  -5  -3    3.01    0.28
   4  -5  -3    2.69    0.38
   4  -5  -3    3.26    0.43
  -4   5   3    2.82    0.29
  -4   5   3    2.54    0.28
  -4   5   3    3.10    0.31
  -4   5   3    2.80    0.22
  -4   5   3    3.24    0.28
  -4   5   3    3.19    0.24
  -4   5   3    3.29    0.19
   3  -5  -3   39.03    1.39
   3  -5  -3   39.01    1.37
   3  -5  -3   37.43    1.36
   3  -5  -3   40.50    1.39
   3  -5  -3   38.00    1.47
   3  -5  -3   39.04    1.39
   3  -5  -3   41.37    1.51
   3  -5  -3   39.49    1.38
  -3   5   3   37.33    1.38
  -3   5   3   38.78    1.38
  -3   5   3   39.27    1.45
  -3   5   3   40.61    1.38
  -3   5   3   39.55    1.36
  -3   5   3   40.13    1.38
  -3   5   3   36.72    1.32
  -3   5   3   38.71    1.32
   2  -5  -3   18.88    0.76
   2  -5  -3   18.92    0.74
   2  -5  -3   18.94    0.75
   2  -5  -3   18.31    0.72
   2  -5  -3   18.12    0.74
   2  -5  -3   18.36    0.80
   2  -5  -3   17.71    0.70
  -2   5   3   19.10    0.69
  -2   5   3   18.34    0.78
  -2   5   3   18.08    0.71
  -2   5   3   17.86    0.72
  -2   5   3   19.01    0.72
  -2   5   3   17.81    0.71
  -2   5   3   17.71    0.71
  -2   5   3   18.38    0.74
   1  -5  -3   10.54    0.51
   1  -5  -3    9.51    0.45
   1  -5  -3   10.77    0.54
   1  -5  -3    9.63    0.46
   1  -5  -3   10.49    0.53
   1  -5  -3   10.04    0.51
   1  -5  -3    9.99    0.54
  -1   5   3    9.83    0.46
  -1   5   3   10.67    0.52
  -1   5   3    9.99    0.45
  -1   5   3   10.47    0.48
  -1   5   3   10.53    0.46
  -1   5   3   10.65    0.48
  -1   5   3   10.73    0.51
   0  -5  -3    5.15    0.33
   0  -5  -3    5.71    0.39
   0  -5  -3    5.81    0.40
   0  -5  -3    5.46    0.33
   0  -5  -3    5.56    0.41
   0  -5  -3    5.58    0.38
   0  -5  -3    6.03    0.41
   0   5   3    5.28    0.35
   0   5   3    5.53    0.38
   0   5   3    5.19    0.33
   0   5   3    5.38    0.36
   0   5   3    5.16    0.33
   0   5   3    5.55    0.34
   0   5   3    5.69    0.39
  -1  -5  -3    5.02    0.41
  -1  -5  -3    5.69    0.46
  -1  -5  -3    6.13    0.43
  -1  -5  -3    5.64    0.41
  -1  -5  -3    5.81    0.46
  -1  -5  -3    5.53    0.40
  -1  -5  -3    5.30    0.39
   1   5   3    5.86    0.44
   1   5   3    5.64    0.40
   1   5   3    5.14    0.38
   1   5   3    5.90    0.39
   1   5   3    6.12    0.40
  -2  -5  -3    8.73    0.58
  -2  -5  -3    9.75    0.55
  -2  -5  -3    9.17    0.55
  -2  -5  -3    9.59    0.61
  -2  -5  -3    8.86    0.58
  -2  -5  -3   10.19    0.65
   2   5   3    9.66    0.61
   2   5   3    8.42    0.55
   2   5   3   10.45    0.56
   2   5   3    9.13    0.55
   2   5   3    9.65    0.58
   2   5   3    9.38    0.56
  -3  -5  -3    5.26    0.59
  -3  -5  -3    4.59    0.51
  -3  -5  -3    4.47    0.54
  -3  -5  -3    4.89    0.43
   3   5   3    4.60    0.42
   3   5   3    4.45    0.44
   3   5   3    5.13    0.49
   3   5   3    4.55    0.56
   3   5   3    4.74    0.49
  -4  -5  -3    0.72    0.36
  -4  -5  -3    1.17    0.38
  -4  -5  -3    0.55    0.23
   4   5   3    0.50    0.27
   4   5   3    0.39    0.26
   4   5   3    0.47    0.34
  -5  -5  -3    0.50    0.50
  -5  -5  -3    1.42    0.44
  -5  -5  -3    0.81    0.26
   5   5   3    0.42    0.39
   5   5   3    0.50    0.30
  -6  -5  -3    1.08    0.57
  -6  -5  -3   -0.13    0.51
   6   5   3    0.89    0.46
   6   5   3    1.02    0.36
   6   5   3    1.08    0.51
   9  -6  -3    1.11    0.39
   9  -6  -3    0.39    0.39
  -9   6   3    0.11    0.25
  -9   6   3    0.29    0.49
   8  -6  -3    6.13    0.58
   8  -6  -3    5.62    0.60
   8  -6  -3    4.43    0.63
  -8   6   3    5.58    0.50
  -8   6   3    6.10    0.72
  -8   6   3    5.27    0.43
   7  -6  -3    3.00    0.36
   7  -6  -3    2.30    0.32
   7  -6  -3    2.02    0.31
   7  -6  -3    1.69    0.35
   7  -6  -3    2.47    0.34
  -7   6   3    2.08    0.42
  -7   6   3    1.92    0.25
  -7   6   3    2.74    0.36
  -7   6   3    2.54    0.41
   6  -6  -3    0.71    0.25
   6  -6  -3    0.61    0.22
   6  -6  -3    0.14    0.21
   6  -6  -3    0.23    0.16
  -6   6   3    0.39    0.13
  -6   6   3    0.56    0.25
  -6   6   3   -0.10    0.22
  -6   6   3    0.28    0.22
  -6   6   3    0.36    0.16
  -6   6   3    0.61    0.27
   5  -6  -3    3.79    0.34
   5  -6  -3    3.20    0.29
   5  -6  -3    3.60    0.35
   5  -6  -3    2.91    0.45
   5  -6  -3    3.41    0.35
  -5   6   3    3.23    0.22
  -5   6   3    3.24    0.40
  -5   6   3    2.86    0.38
  -5   6   3    3.25    0.35
  -5   6   3    3.22    0.27
  -5   6   3    3.59    0.30
   4  -6  -3    1.49    0.22
   4  -6  -3    1.43    0.22
   4  -6  -3    1.09    0.21
   4  -6  -3    1.44    0.21
   4  -6  -3    1.67    0.28
   4  -6  -3    1.62    0.33
  -4   6   3    1.65    0.19
  -4   6   3    1.24    0.20
  -4   6   3    1.65    0.28
  -4   6   3    0.98    0.22
  -4   6   3    1.64    0.21
  -4   6   3    1.49    0.22
  -4   6   3    1.53    0.14
  -4   6   3    1.42    0.17
   3  -6  -3   35.25    1.29
   3  -6  -3   36.02    1.31
   3  -6  -3   35.18    1.37
   3  -6  -3   35.65    1.30
   3  -6  -3   35.28    1.41
   3  -6  -3   35.64    1.30
   3  -6  -3   37.52    1.46
  -3   6   3   34.49    1.28
  -3   6   3   34.32    1.21
  -3   6   3   34.09    1.26
  -3   6   3   32.17    1.27
  -3   6   3   35.42    1.35
  -3   6   3   32.26    1.23
  -3   6   3   35.32    1.27
  -3   6   3   35.74    1.26
   2  -6  -3    8.14    0.45
   2  -6  -3    9.11    0.48
   2  -6  -3    8.47    0.57
   2  -6  -3    8.44    0.52
   2  -6  -3    8.60    0.48
   2  -6  -3    8.76    0.49
   2  -6  -3    8.68    0.52
  -2   6   3    8.30    0.42
  -2   6   3    7.56    0.44
  -2   6   3    8.96    0.44
  -2   6   3    8.31    0.46
  -2   6   3    8.87    0.41
  -2   6   3    9.16    0.51
  -2   6   3    8.82    0.45
   1  -6  -3   10.61    0.57
   1  -6  -3   10.67    0.59
   1  -6  -3    9.54    0.50
   1  -6  -3   10.66    0.60
   1  -6  -3   10.21    0.56
   1  -6  -3    9.79    0.60
  -1   6   3    9.44    0.50
  -1   6   3   10.25    0.51
  -1   6   3   11.07    0.56
  -1   6   3   10.49    0.52
  -1   6   3   10.40    0.55
  -1   6   3   10.45    0.50
  -1   6   3   10.57    0.54
   0  -6  -3   12.94    0.67
   0  -6  -3   12.05    0.67
   0  -6  -3   12.18    0.64
   0  -6  -3   12.11    0.66
   0  -6  -3   11.68    0.64
   0   6   3   10.38    0.57
   0   6   3   11.81    0.57
   0   6   3   11.52    0.58
   0   6   3   12.23    0.60
   0   6   3   12.30    0.64
   0   6   3   11.39    0.61
  -1  -6  -3   19.68    0.96
  -1  -6  -3   18.37    0.91
  -1  -6  -3   19.77    0.92
  -1  -6  -3   19.03    0.88
  -1  -6  -3   19.15    0.94
   1   6   3   18.86    0.85
   1   6   3   19.96    0.89
   1   6   3   19.59    0.90
   1   6   3   20.15    0.86
   1   6   3   18.33    0.85
   1   6   3   21.40    0.95
  -2  -6  -3    4.99    0.55
  -2  -6  -3    4.21    0.52
  -2  -6  -3    4.68    0.47
  -2  -6  -3    5.14    0.62
   2   6   3    4.50    0.47
   2   6   3    5.29    0.54
   2   6   3    4.48    0.48
   2   6   3    4.17    0.48
   2   6   3    4.05    0.48
  -3  -6  -3    2.10    0.36
  -3  -6  -3    2.96    0.51
  -3  -6  -3    2.60    0.44
   3   6   3    2.71    0.40
   3   6   3    2.79    0.44
   3   6   3    2.32    0.39
   3   6   3    2.38    0.38
  -4  -6  -3    4.42    0.59
  -4  -6  -3    4.48    0.55
  -4  -6  -3    5.05    0.67
   4   6   3    5.46    0.71
   4   6   3    4.41    0.57
   4   6   3    4.40    0.63
  -5  -6  -3    0.83    0.55
  -5  -6  -3    0.90    0.36
  -5  -6  -3    0.71    0.51
   5   6   3    0.71    0.47
   5   6   3    0.63    0.43
   5   6   3    0.60    0.38
  -6  -6  -3    1.12    0.64
   6   6   3    1.13    0.53
   6   6   3    1.25    0.66
   6   6   3    0.31    0.43
   9  -7  -3    2.88    0.92
   9  -7  -3    3.87    0.65
   9  -7  -3    4.81    0.69
  -9   7   3    3.71    0.65
  -9   7   3    3.24    0.38
  -9   7   3    2.70    0.40
   8  -7  -3    3.19    0.46
   8  -7  -3    2.92    0.47
   8  -7  -3    2.26    0.43
  -8   7   3    2.53    0.37
  -8   7   3    1.56    0.45
  -8   7   3    2.04    0.30
   7  -7  -3    4.70    0.56
   7  -7  -3    4.10    0.53
   7  -7  -3    3.99    0.59
   7  -7  -3    3.99    0.50
  -7   7   3    4.61    0.42
  -7   7   3    4.18    0.52
  -7   7   3    4.79    0.38
   6  -7  -3    0.77    0.34
   6  -7  -3    0.35    0.20
   6  -7  -3   -0.08    0.22
   6  -7  -3   -0.05    0.26
   6  -7  -3    0.32    0.23
   6  -7  -3    0.26    0.22
  -6   7   3    0.54    0.30
  -6   7   3    0.63    0.29
  -6   7   3    0.34    0.14
  -6   7   3    0.32    0.17
  -6   7   3    0.69    0.20
   5  -7  -3    1.85    0.35
   5  -7  -3    1.78    0.36
   5  -7  -3    1.90    0.26
   5  -7  -3    1.72    0.27
   5  -7  -3    2.42    0.31
   5  -7  -3    1.71    0.26
  -5   7   3    2.40    0.28
  -5   7   3    1.75    0.30
  -5   7   3    2.43    0.38
  -5   7   3    2.54    0.31
  -5   7   3    1.65    0.22
  -5   7   3    2.00    0.21
   4  -7  -3    3.88    0.49
   4  -7  -3    3.52    0.46
   4  -7  -3    3.09    0.37
   4  -7  -3    3.64    0.41
   4  -7  -3    3.75    0.37
   4  -7  -3    3.48    0.37
  -4   7   3    3.78    0.31
  -4   7   3    3.25    0.25
  -4   7   3    3.45    0.32
  -4   7   3    3.41    0.25
  -4   7   3    3.54    0.42
  -4   7   3    3.62    0.39
  -4   7   3    3.21    0.32
   3  -7  -3    5.88    0.51
   3  -7  -3    5.98    0.44
   3  -7  -3    6.36    0.46
   3  -7  -3    6.11    0.46
   3  -7  -3    5.41    0.48
   3  -7  -3    6.05    0.63
  -3   7   3    5.65    0.35
  -3   7   3    5.90    0.42
  -3   7   3    5.46    0.41
  -3   7   3    6.85    0.41
  -3   7   3    5.89    0.39
  -3   7   3    6.39    0.40
  -3   7   3    6.50    0.48
   2  -7  -3   11.99    0.70
   2  -7  -3   12.93    0.67
   2  -7  -3   12.24    0.62
   2  -7  -3   11.05    0.78
   2  -7  -3   12.19    0.63
  -2   7   3   10.27    0.59
  -2   7   3   11.78    0.61
  -2   7   3   11.99    0.59
  -2   7   3   11.55    0.58
  -2   7   3   12.10    0.64
  -2   7   3   11.73    0.55
   1  -7  -3    0.98    0.37
   1  -7  -3    1.99    0.33
   1  -7  -3    1.60    0.33
   1  -7  -3    2.58    0.39
   1  -7  -3    2.42    0.35
  -1   7   3    1.98    0.29
  -1   7   3    1.90    0.27
  -1   7   3    2.10    0.26
  -1   7   3    1.90    0.25
  -1   7   3    1.80    0.28
  -1   7   3    2.02    0.30
   0  -7  -3   35.38    1.43
   0  -7  -3   36.18    1.47
   0  -7  -3   36.40    1.45
   0  -7  -3   34.58    1.45
   0  -7  -3   32.65    1.40
   0   7   3   34.06    1.33
   0   7   3   36.40    1.43
   0   7   3   33.38    1.36
   0   7   3   35.00    1.32
  -1  -7  -3    0.24    0.35
  -1  -7  -3    0.79    0.35
  -1  -7  -3   -0.07    0.32
  -1  -7  -3    0.94    0.32
   1   7   3    0.69    0.28
   1   7   3    0.70    0.25
   1   7   3    0.92    0.32
   1   7   3    0.29    0.24
  -2  -7  -3    1.01    0.37
  -2  -7  -3    1.51    0.47
  -2  -7  -3    1.02    0.42
   2   7   3    1.23    0.35
   2   7   3    0.98    0.36
   2   7   3    0.63    0.30
   2   7   3    1.31    0.32
   2   7   3    1.16    0.43
  -3  -7  -3    4.05    0.58
  -3  -7  -3    3.96    0.60
  -3  -7  -3    4.87    0.53
   3   7   3    3.59    0.52
   3   7   3    4.86    0.61
   3   7   3    3.98    0.51
  -4  -7  -3    0.17    0.57
  -4  -7  -3    0.05    0.37
  -4  -7  -3    0.54    0.50
   4   7   3    0.49    0.41
   4   7   3   -0.31    0.40
   4   7   3    0.42    0.37
  -5  -7  -3    4.71    0.74
   5   7   3    4.38    0.76
   5   7   3    5.13    0.62
   5   7   3    2.70    0.60
   9  -8  -3    3.54    0.69
   8  -8  -3    8.82    0.78
   8  -8  -3    7.59    0.87
   8  -8  -3    9.26    0.77
  -8   8   3    8.61    0.57
  -8   8   3    8.66    0.61
  -8   8   3    9.10    0.91
   7  -8  -3    1.99    0.46
   7  -8  -3    1.06    0.36
   7  -8  -3    0.96    0.42
   7  -8  -3    1.71    0.37
  -7   8   3    1.11    0.40
  -7   8   3    1.83    0.27
  -7   8   3    1.35    0.27
   6  -8  -3    1.61    0.43
   6  -8  -3    1.62    0.39
   6  -8  -3    1.68    0.33
   6  -8  -3    1.53    0.32
  -6   8   3    1.75    0.35
  -6   8   3    1.49    0.24
  -6   8   3    1.39    0.25
   5  -8  -3    3.79    0.46
   5  -8  -3    3.41    0.46
   5  -8  -3    3.84    0.56
   5  -8  -3    2.56    0.44
   5  -8  -3    3.52    0.39
   5  -8  -3    3.10    0.46
  -5   8   3    2.79    0.49
  -5   8   3    3.01    0.26
  -5   8   3    3.53    0.35
  -5   8   3    3.13    0.44
  -5   8   3    3.70    0.38
   4  -8  -3    7.97    0.67
   4  -8  -3    8.41    0.61
   4  -8  -3    7.49    0.54
   4  -8  -3    8.28    0.57
   4  -8  -3    7.88    0.79
  -4   8   3    7.34    0.53
  -4   8   3    7.06    0.41
  -4   8   3    7.09    0.46
  -4   8   3    7.46    0.44
  -4   8   3    8.56    0.52
  -4   8   3    7.34    0.61
  -4   8   3    7.00    0.47
   3  -8  -3    1.14    0.34
   3  -8  -3    0.80    0.41
   3  -8  -3    1.02    0.26
   3  -8  -3    0.96    0.28
   3  -8  -3    1.20    0.29
   3  -8  -3    1.19    0.33
  -3   8   3    0.95    0.22
  -3   8   3    1.06    0.27
  -3   8   3    0.72    0.23
  -3   8   3    0.47    0.22
  -3   8   3    1.09    0.25
  -3   8   3    0.77    0.27
   2  -8  -3   25.65    1.14
   2  -8  -3   26.55    1.21
   2  -8  -3   24.28    1.60
   2  -8  -3   27.57    1.14
  -2   8   3   27.15    1.12
  -2   8   3   23.29    1.12
  -2   8   3   25.04    1.11
  -2   8   3   25.81    1.04
  -2   8   3   25.81    1.07
  -2   8   3   24.98    1.01
   1  -8  -3    0.80    0.33
   1  -8  -3    0.88    0.35
   1  -8  -3    1.20    0.35
  -1   8   3    1.21    0.28
  -1   8   3    0.40    0.23
  -1   8   3    0.36    0.23
  -1   8   3    0.40    0.26
  -1   8   3    0.35    0.19
   0  -8  -3    9.68    0.81
   0  -8  -3   11.79    0.80
   0  -8  -3    9.85    0.80
   0   8   3   11.30    0.68
   0   8   3   11.12    0.68
   0   8   3   11.63    0.75
  -1  -8  -3    0.22    0.34
  -1  -8  -3    0.53    0.40
  -1  -8  -3    0.89    0.41
   1   8   3    0.50    0.31
   1   8   3    0.91    0.33
   1   8   3    1.20    0.40
  -2  -8  -3    4.92    0.58
  -2  -8  -3    3.93    0.61
   2   8   3    3.58    0.49
   2   8   3    3.26    0.49
   2   8   3    4.50    0.62
  -3  -8  -3    2.95    0.63
  -3  -8  -3    3.58    0.54
   3   8   3    3.71    0.60
   3   8   3    3.01    0.50
   3   8   3    3.18    0.52
  -4  -8  -3    0.55    0.51
  -4  -8  -3   -0.04    0.63
   4   8   3    0.66    0.61
   4   8   3    0.85    0.48
   4   8   3    0.50    0.51
   8  -9  -3   10.05    1.04
   8  -9  -3    6.91    0.84
  -8   9   3    5.82    0.70
  -8   9   3    6.88    0.62
  -8   9   3    7.93    0.57
   7  -9  -3    0.27    0.44
   7  -9  -3    1.64    0.42
   7  -9  -3    0.96    0.49
  -7   9   3    0.82    0.45
  -7   9   3    1.09    0.29
  -7   9   3    1.10    0.29
   6  -9  -3    1.89    0.57
   6  -9  -3    1.70    0.46
   6  -9  -3    1.45    0.40
   6  -9  -3    0.98    0.35
  -6   9   3    1.86    0.31
  -6   9   3    2.37    0.44
  -6   9   3    1.27    0.28
   5  -9  -3    1.89    0.37
   5  -9  -3    1.38    0.37
   5  -9  -3    1.20    0.49
   5  -9  -3    1.32    0.41
  -5   9   3    1.48    0.37
  -5   9   3    1.10    0.28
  -5   9   3    1.94    0.32
   4  -9  -3    1.53    0.51
   4  -9  -3    1.49    0.36
   4  -9  -3    1.95    0.39
   4  -9  -3    2.03    0.48
  -4   9   3    1.49    0.31
  -4   9   3    1.34    0.28
  -4   9   3    1.59    0.37
   3  -9  -3    0.60    0.28
   3  -9  -3    0.34    0.32
   3  -9  -3    0.48    0.39
   3  -9  -3   -0.94    0.44
  -3   9   3    0.77    0.26
  -3   9   3    0.36    0.26
  -3   9   3    0.15    0.28
   2  -9  -3    0.81    0.38
   2  -9  -3    0.32    0.50
   2  -9  -3   -0.18    0.35
  -2   9   3    0.42    0.31
  -2   9   3    0.22    0.25
  -2   9   3    0.54    0.31
   1  -9  -3   11.04    0.83
   1  -9  -3   10.34    0.86
  -1   9   3   10.39    0.75
  -1   9   3    9.23    0.70
  -1   9   3    9.83    0.69
   0  -9  -3    1.17    0.42
   0  -9  -3    1.69    0.53
   0   9   3    1.41    0.36
   0   9   3    1.90    0.41
   0   9   3    1.16    0.38
  -1  -9  -3    7.99    0.89
  -1  -9  -3    8.35    0.82
   1   9   3    7.57    0.82
   1   9   3    7.39    0.74
   1   9   3    8.84    0.80
  -2  -9  -3    0.48    0.46
  -2  -9  -3   -0.27    0.59
   2   9   3   -0.92    0.47
   2   9   3    0.15    0.41
   2   9   3    0.38    0.43
   7 -10  -3    1.84    0.50
   7 -10  -3    1.01    0.60
   7 -10  -3    1.56    0.63
  -7  10   3    0.94    0.53
  -7  10   3    0.87    0.34
   6 -10  -3    2.59    0.52
   6 -10  -3    3.23    0.65
   6 -10  -3    2.09    0.59
  -6  10   3    2.68    0.54
  -6  10   3    1.94    0.36
  -6  10   3    2.35    0.37
   5 -10  -3    3.27    0.67
   5 -10  -3    3.76    0.68
   5 -10  -3    3.85    0.55
  -5  10   3    2.77    0.41
  -5  10   3    3.96    0.53
  -5  10   3    3.20    0.40
   4 -10  -3   -0.16    0.54
   4 -10  -3   -0.08    0.49
   4 -10  -3    0.92    0.39
  -4  10   3    0.05    0.29
  -4  10   3    0.65    0.31
  -4  10   3    0.60    0.36
   3 -10  -3    1.66    0.50
   3 -10  -3    1.51    0.52
   3 -10  -3    1.40    0.65
  -3  10   3    1.21    0.38
  -3  10   3    1.30    0.35
  -3  10   3    1.90    0.38
   2 -10  -3    0.85    0.53
   2 -10  -3    1.75    0.67
   2 -10  -3    1.25    0.56
  -2  10   3    2.13    0.38
  -2  10   3    0.94    0.39
  -2  10   3    1.67    0.45
   1 -10  -3    3.99    0.64
   1 -10  -3    3.12    0.79
   1 -10  -3    2.89    0.65
  -1  10   3    3.90    0.52
  -1  10   3    3.77    0.53
  -1  10   3    3.94    0.51
   0 -10  -3    2.33    0.56
   0 -10  -3    2.23    0.70
   0  10   3    3.81    0.58
   0  10   3    2.82    0.55
   0  10   3    2.71    0.49
  -1 -10  -3    3.81    0.70
  -1 -10  -3    5.06    0.83
   1  10   3    5.49    0.68
   1  10   3    4.49    0.65
   1  10   3    5.00    0.69
   4 -11  -3   -0.17    0.68
   4 -11  -3    1.03    0.74
  -4  11   3    0.89    0.38
  -4  11   3    0.45    0.45
  -4  11   3    1.48    0.52
   3 -11  -3    2.20    0.78
   3 -11  -3    2.04    0.74
  -3  11   3    1.56    0.42
  -3  11   3    0.57    0.46
  -3  11   3    1.82    0.50
   2 -11  -3   -0.98    0.77
  -2  11   3    0.59    0.45
  -2  11   3    0.63    0.49
  -2  11   3   -0.06    0.52
   0  11  -4    1.24    0.25
   0  11  -4    0.62    0.33
   0  11  -4    0.49    0.49
   0 -11   4    2.27    0.62
   0 -11   4    1.01    0.79
  -1  11  -4    1.02    0.29
  -1  11  -4    1.46    0.49
   1 -11   4   -0.04    0.52
   1 -11   4   -0.01    0.70
  -2  11  -4    3.11    0.53
  -2  11  -4    1.52    0.27
   2 -11   4    1.44    0.61
   2 -11   4    2.23    0.73
  -3  11  -4    3.42    0.53
   3 -11   4    3.96    0.68
   3 -11   4    3.69    0.81
  -4  11  -4    0.89    0.34
  -4  11  -4    0.29    0.43
   4 -11   4    0.76    0.55
   4 -11   4    0.04    0.54
  -5  11  -4    2.55    0.51
  -5  11  -4    2.25    0.43
   5 -11   4    1.41    0.59
   5 -11   4    2.97    0.64
   5 -11   4    2.15    0.67
   2  10  -4    1.24    0.50
   2  10  -4    0.75    0.36
   2  10  -4    1.11    0.32
  -2 -10   4    0.74    0.52
  -2 -10   4    0.77    0.77
   1  10  -4    7.85    0.62
   1  10  -4    7.36    0.53
   1  10  -4    9.43    0.86
  -1 -10   4    8.23    0.89
  -1 -10   4    8.02    1.02
   0  10  -4    0.17    0.23
   0  10  -4    0.05    0.38
   0  10  -4    0.34    0.26
   0 -10   4    0.64    0.61
   0 -10   4    0.77    0.45
  -1  10  -4    1.87    0.27
  -1  10  -4    1.54    0.46
   1 -10   4    2.73    0.55
   1 -10   4    1.31    0.58
  -2  10  -4    1.21    0.37
  -2  10  -4    1.65    0.21
  -2  10  -4    1.73    0.26
  -2  10  -4    1.80    0.22
   2 -10   4    2.56    0.61
   2 -10   4    0.70    0.47
  -3  10  -4    2.58    0.45
  -3  10  -4    3.00    0.35
   3 -10   4    2.79    0.53
   3 -10   4    2.52    0.58
  -4  10  -4    1.87    0.27
  -4  10  -4    1.23    0.36
  -4  10  -4    1.60    0.33
   4 -10   4    1.06    0.41
   4 -10   4    2.91    0.52
   4 -10   4    1.52    0.52
  -5  10  -4   10.27    0.77
   5 -10   4    9.21    1.00
   5 -10   4   10.92    0.94
   5 -10   4   10.13    0.89
  -6  10  -4   -0.36    0.36
   6 -10   4   -0.38    0.50
   6 -10   4    0.52    0.43
   6 -10   4    0.49    0.50
  -7  10  -4    1.38    0.51
   7 -10   4    1.65    0.54
   7 -10   4    2.17    0.63
   7 -10   4    2.04    0.61
   4   9  -4    3.22    0.48
   4   9  -4    2.38    0.51
   4   9  -4    3.89    0.62
  -4  -9   4    2.85    0.54
  -4  -9   4    3.70    0.87
   3   9  -4    4.70    0.55
   3   9  -4    4.42    0.52
   3   9  -4    4.16    0.59
  -3  -9   4    4.94    0.61
  -3  -9   4    5.58    0.93
   2   9  -4    1.65    0.41
   2   9  -4    1.55    0.29
   2   9  -4    1.82    0.34
  -2  -9   4    2.08    0.49
  -2  -9   4    1.01    0.64
   1   9  -4    1.24    0.23
   1   9  -4    1.22    0.28
   1   9  -4    0.34    0.34
  -1  -9   4    0.82    0.40
  -1  -9   4    0.08    0.51
   0   9  -4    1.89    0.37
   0   9  -4    2.08    0.26
   0   9  -4    2.47    0.27
   0   9  -4    1.98    0.28
   0  -9   4    1.33    0.53
   0  -9   4    2.32    0.45
  -1   9  -4    4.65    0.35
  -1   9  -4    4.15    0.54
  -1   9  -4    4.49    0.25
  -1   9  -4    4.04    0.30
   1  -9   4    4.52    0.68
   1  -9   4    4.95    0.65
  -2   9  -4    1.59    0.24
  -2   9  -4    1.22    0.16
  -2   9  -4    1.48    0.33
  -2   9  -4    1.49    0.18
   2  -9   4    1.45    0.18
   2  -9   4    1.45    0.48
   2  -9   4    1.35    0.42
  -3   9  -4    1.63    0.33
  -3   9  -4    1.87    0.27
  -3   9  -4    1.93    0.36
   3  -9   4    1.01    0.39
   3  -9   4    2.25    0.40
   3  -9   4    1.48    0.47
   3  -9   4    1.52    0.20
  -4   9  -4    0.71    0.18
  -4   9  -4    0.31    0.25
   4  -9   4    0.71    0.37
   4  -9   4    0.46    0.39
   4  -9   4    0.39    0.31
  -5   9  -4    3.50    0.43
   5  -9   4    2.79    0.48
   5  -9   4    4.13    0.62
   5  -9   4    3.18    0.48
  -6   9  -4    2.30    0.22
  -6   9  -4    1.92    0.22
  -6   9  -4    2.33    0.43
   6  -9   4    2.37    0.52
   6  -9   4    2.45    0.46
   6  -9   4    3.06    0.59
   6  -9   4    1.89    0.47
  -7   9  -4    0.73    0.16
  -7   9  -4    0.18    0.40
   7  -9   4    0.15    0.49
   7  -9   4    0.02    0.55
   7  -9   4    1.59    0.44
  -8   9  -4    5.08    0.37
  -8   9  -4    6.00    0.75
   8  -9   4    4.57    0.66
   8  -9   4    3.92    0.80
   5   8  -4    7.67    0.81
   5   8  -4   10.18    0.75
   5   8  -4    8.06    0.86
  -5  -8   4    8.31    1.31
   4   8  -4    3.03    0.50
   4   8  -4    2.85    0.41
   4   8  -4    3.18    0.48
  -4  -8   4    2.65    0.75
  -4  -8   4    3.75    0.52
   3   8  -4    5.06    0.64
   3   8  -4    5.31    0.49
   3   8  -4    5.89    0.57
  -3  -8   4    5.65    0.67
  -3  -8   4    6.48    0.87
  -3  -8   4    6.47    0.64
   2   8  -4   14.90    0.88
   2   8  -4   13.75    0.67
   2   8  -4   13.72    0.75
  -2  -8   4   15.01    0.82
  -2  -8   4   16.30    0.90
   1   8  -4    0.93    0.19
   1   8  -4    1.30    0.25
   1   8  -4    0.52    0.30
   1   8  -4    1.24    0.23
   1   8  -4    0.85    0.19
  -1  -8   4    0.95    0.46
  -1  -8   4    0.91    0.32
  -1  -8   4    0.87    0.31
  -1  -8   4    0.20    0.29
   0   8  -4    1.04    0.13
   0   8  -4    0.85    0.15
   0   8  -4    0.88    0.16
   0   8  -4    0.73    0.28
   0  -8   4    1.25    0.42
   0  -8   4    0.93    0.25
   0  -8   4    0.77    0.26
   0  -8   4    1.39    0.33
  -1   8  -4    0.94    0.11
  -1   8  -4    1.03    0.16
  -1   8  -4    1.13    0.28
  -1   8  -4    1.31    0.18
   1  -8   4    1.05    0.41
   1  -8   4    0.85    0.36
   1  -8   4    1.20    0.23
   1  -8   4    1.33    0.21
   1  -8   4    0.95    0.14
  -2   8  -4    0.34    0.24
  -2   8  -4    0.73    0.09
  -2   8  -4    0.77    0.18
  -2   8  -4    0.94    0.26
  -2   8  -4    0.67    0.12
   2  -8   4    0.68    0.18
   2  -8   4    0.72    0.35
   2  -8   4    0.62    0.11
   2  -8   4    0.88    0.31
  -3   8  -4   12.08    0.66
  -3   8  -4   11.61    0.60
  -3   8  -4   11.37    0.59
   3  -8   4   11.00    0.46
   3  -8   4   11.29    0.44
   3  -8   4   11.42    0.76
   3  -8   4   11.72    0.83
   3  -8   4   11.07    0.70
  -4   8  -4   10.89    0.55
  -4   8  -4   11.38    0.49
  -4   8  -4   11.66    0.65
   4  -8   4   10.71    0.48
   4  -8   4   11.90    0.72
   4  -8   4   11.32    0.46
   4  -8   4   10.78    0.78
   4  -8   4   12.30    0.77
  -5   8  -4    6.55    0.29
   5  -8   4    5.94    0.70
   5  -8   4    7.18    0.59
   5  -8   4    6.36    0.47
   5  -8   4    7.25    0.66
   5  -8   4    5.98    0.69
  -6   8  -4    1.38    0.21
  -6   8  -4    0.93    0.35
  -6   8  -4    1.27    0.14
   6  -8   4    0.73    0.43
   6  -8   4    1.29    0.41
   6  -8   4    1.18    0.34
   6  -8   4    1.01    0.37
  -7   8  -4    1.97    0.23
  -7   8  -4    1.53    0.42
   7  -8   4    2.78    0.45
   7  -8   4    2.10    0.54
   7  -8   4    2.08    0.43
  -8   8  -4    1.02    0.49
  -8   8  -4    0.47    0.19
  -8   8  -4    0.75    0.16
   8  -8   4    0.21    0.42
   8  -8   4   -0.09    0.54
   6   7  -4    3.16    0.54
   6   7  -4    3.23    0.52
   6   7  -4    2.75    0.54
  -6  -7   4    4.52    0.91
  -6  -7   4    1.11    0.99
   5   7  -4    0.07    0.34
   5   7  -4    0.70    0.37
   5   7  -4    0.80    0.33
  -5  -7   4    1.55    0.49
  -5  -7   4    0.65    0.64
   4   7  -4    1.72    0.39
   4   7  -4    2.24    0.34
   4   7  -4    1.66    0.37
  -4  -7   4    2.24    0.62
  -4  -7   4    2.18    0.43
  -4  -7   4    2.78    0.43
   3   7  -4   17.49    0.85
   3   7  -4   18.08    0.80
   3   7  -4   15.31    0.90
   3   7  -4   15.49    0.89
   3   7  -4   16.67    0.87
  -3  -7   4   17.58    0.97
  -3  -7   4   17.53    0.87
  -3  -7   4   18.02    0.93
  -3  -7   4   18.48    1.10
   2   7  -4   35.07    1.25
   2   7  -4   32.92    1.22
   2   7  -4   32.04    1.27
   2   7  -4   33.28    1.38
   2   7  -4   32.67    1.28
  -2  -7   4   30.58    1.30
  -2  -7   4   31.90    1.44
  -2  -7   4   33.74    1.30
  -2  -7   4   32.02    1.52
   1   7  -4    0.39    0.21
   1   7  -4    0.70    0.18
   1   7  -4    0.78    0.18
   1   7  -4    0.50    0.16
   1   7  -4    0.62    0.14
  -1  -7   4    0.52    0.28
  -1  -7   4    0.80    0.24
  -1  -7   4   -0.06    0.32
  -1  -7   4    1.13    0.24
  -1  -7   4    0.74    0.25
   0   7  -4    0.05    0.08
   0   7  -4    0.36    0.11
   0   7  -4    0.12    0.09
   0   7  -4    0.08    0.19
   0   7  -4    0.06    0.11
   0   7  -4    0.12    0.10
   0  -7   4    0.33    0.30
   0  -7   4   -0.01    0.16
   0  -7   4    0.18    0.27
   0  -7   4    0.18    0.22
   0  -7   4    0.12    0.14
   0  -7   4    0.22    0.18
  -1   7  -4    3.87    0.27
  -1   7  -4    3.98    0.24
  -1   7  -4    4.81    0.42
  -1   7  -4    4.31    0.20
   1  -7   4    4.35    0.21
   1  -7   4    5.15    0.46
   1  -7   4    4.34    0.56
   1  -7   4    4.23    0.29
   1  -7   4    4.17    0.25
   1  -7   4    4.14    0.52
   1  -7   4    4.05    0.22
  -2   7  -4    5.41    0.34
  -2   7  -4    5.14    0.40
   2  -7   4    5.15    0.49
   2  -7   4    4.98    0.22
   2  -7   4    5.14    0.27
   2  -7   4    5.56    0.55
   2  -7   4    4.98    0.44
  -3   7  -4    0.40    0.17
  -3   7  -4    0.44    0.12
   3  -7   4   -0.04    0.22
   3  -7   4    0.39    0.20
   3  -7   4    0.58    0.25
   3  -7   4    0.31    0.24
  -4   7  -4    4.28    0.41
  -4   7  -4    6.24    0.80
  -4   7  -4    3.98    0.30
  -4   7  -4    4.16    0.23
   4  -7   4    4.22    0.24
   4  -7   4    3.84    0.29
   4  -7   4    4.99    0.44
   4  -7   4    4.91    0.49
   4  -7   4    3.67    0.50
   4  -7   4    3.36    0.48
  -5   7  -4    1.96    0.15
  -5   7  -4    1.94    0.22
  -5   7  -4    1.64    0.31
  -5   7  -4    1.84    0.22
   5  -7   4    1.13    0.31
   5  -7   4    1.60    0.18
   5  -7   4    1.53    0.25
   5  -7   4    2.16    0.38
   5  -7   4    1.60    0.36
   5  -7   4    1.94    0.36
  -6   7  -4    0.04    0.08
  -6   7  -4    0.06    0.11
  -6   7  -4   -0.15    0.17
  -6   7  -4    0.21    0.30
  -6   7  -4    0.10    0.19
  -6   7  -4   -0.39    0.14
   6  -7   4    0.14    0.30
   6  -7   4   -0.02    0.22
   6  -7   4   -0.31    0.27
  -7   7  -4    2.98    0.49
  -7   7  -4    2.86    0.23
   7  -7   4    3.21    0.40
   7  -7   4    3.56    0.51
  -8   7  -4   -1.03    0.41
  -8   7  -4    0.72    0.22
  -8   7  -4    0.82    0.18
   8  -7   4    0.67    0.47
   8  -7   4    0.17    0.34
  -9   7  -4    1.02    0.35
   9  -7   4   -0.41    0.43
   9  -7   4    0.43    0.57
   7   6  -4    4.89    0.67
   7   6  -4    6.17    0.80
  -7  -6   4    5.28    0.76
   6   6  -4    1.90    0.42
   6   6  -4    0.69    0.39
   6   6  -4    0.87    0.40
  -6  -6   4    1.44    0.48
   5   6  -4    1.00    0.34
   5   6  -4    0.53    0.30
   5   6  -4    0.81    0.28
  -5  -6   4    0.16    0.37
  -5  -6   4    0.74    0.34
   4   6  -4    6.00    0.59
   4   6  -4    5.39    0.52
   4   6  -4    5.64    0.56
   4   6  -4    5.77    0.46
   4   6  -4    6.43    0.57
  -4  -6   4    5.81    0.58
  -4  -6   4    4.90    0.60
  -4  -6   4    4.28    0.61
  -4  -6   4    5.60    0.75
  -4  -6   4    5.16    0.57
   3   6  -4    2.26    0.32
   3   6  -4    2.69    0.33
   3   6  -4    1.78    0.30
  -3  -6   4    2.95    0.48
  -3  -6   4    2.63    0.39
  -3  -6   4    2.55    0.37
  -3  -6   4    2.50    0.34
   2   6  -4    0.11    0.15
   2   6  -4    0.41    0.19
   2   6  -4    0.64    0.20
   2   6  -4    0.50    0.32
   2   6  -4    0.06    0.13
   2   6  -4    0.48    0.21
  -2  -6   4    0.22    0.21
  -2  -6   4    0.32    0.20
  -2  -6   4    0.37    0.22
  -2  -6   4    0.36    0.31
  -2  -6   4    0.53    0.26
   1   6  -4    0.07    0.12
   1   6  -4    0.36    0.17
   1   6  -4    0.23    0.11
   1   6  -4    0.42    0.15
   1   6  -4    0.39    0.12
   1   6  -4    0.45    0.31
  -1  -6   4    0.18    0.16
  -1  -6   4    0.38    0.22
  -1  -6   4    0.23    0.17
  -1  -6   4    0.48    0.20
  -1  -6   4    0.30    0.18
  -1  -6   4   -0.07    0.26
   0   6  -4    2.36    0.29
   0   6  -4    3.01    0.46
   0   6  -4    2.58    0.39
   0   6  -4    2.70    0.16
   0   6  -4    2.33    0.16
   0   6  -4    2.22    0.30
   0   6  -4    2.63    0.20
   0   6  -4    2.40    0.16
   0  -6   4    2.26    0.21
   0  -6   4    2.85    0.33
   0  -6   4    2.35    0.19
   0  -6   4    2.41    0.26
   0  -6   4    2.04    0.33
   0  -6   4    2.38    0.39
  -1   6  -4   12.84    0.64
  -1   6  -4   14.47    0.57
  -1   6  -4   14.11    0.48
  -1   6  -4   14.75    0.66
  -1   6  -4   13.58    0.72
  -1   6  -4   13.88    0.50
  -1   6  -4   14.46    0.85
   1  -6   4   12.83    0.76
   1  -6   4   13.94    0.48
   1  -6   4   14.26    0.70
   1  -6   4   13.70    0.78
   1  -6   4   13.37    0.51
  -2   6  -4    2.17    0.23
  -2   6  -4    2.02    0.29
  -2   6  -4    1.49    0.22
  -2   6  -4    1.52    0.22
  -2   6  -4    1.91    0.29
   2  -6   4    1.67    0.24
   2  -6   4    1.96    0.29
   2  -6   4    1.95    0.32
   2  -6   4    2.20    0.35
   2  -6   4    2.00    0.34
  -3   6  -4    6.96    0.48
  -3   6  -4    7.39    0.44
  -3   6  -4    6.45    0.43
  -3   6  -4    7.71    0.34
   3  -6   4    6.95    0.45
   3  -6   4    7.20    0.48
   3  -6   4    7.10    0.51
   3  -6   4    7.10    0.52
  -4   6  -4    0.78    0.09
  -4   6  -4    0.84    0.20
  -4   6  -4    0.83    0.09
  -4   6  -4    0.62    0.20
  -4   6  -4    0.64    0.10
   4  -6   4    0.75    0.11
   4  -6   4    0.73    0.24
   4  -6   4    0.55    0.18
   4  -6   4    0.84    0.16
   4  -6   4    0.97    0.24
   4  -6   4    0.52    0.21
  -5   6  -4    0.01    0.06
  -5   6  -4    0.07    0.09
  -5   6  -4   -0.21    0.12
  -5   6  -4    0.19    0.13
  -5   6  -4    0.41    0.22
  -5   6  -4    0.13    0.20
   5  -6   4    0.03    0.17
   5  -6   4    0.01    0.21
   5  -6   4    0.05    0.23
   5  -6   4    0.06    0.21
   5  -6   4    0.28    0.21
   5  -6   4    0.15    0.10
  -6   6  -4    2.50    0.29
  -6   6  -4    2.66    0.28
  -6   6  -4    2.77    0.33
  -6   6  -4    3.02    0.43
  -6   6  -4    2.68    0.25
  -6   6  -4    3.12    0.19
   6  -6   4    2.82    0.33
   6  -6   4    2.51    0.27
   6  -6   4    3.08    0.48
   6  -6   4    2.73    0.39
   6  -6   4    2.58    0.34
  -7   6  -4   14.35    0.62
  -7   6  -4   13.06    0.70
  -7   6  -4   13.31    0.86
  -7   6  -4   13.39    0.55
   7  -6   4   13.73    0.78
   7  -6   4   11.34    0.83
  -8   6  -4    1.26    0.27
  -8   6  -4    2.21    0.49
  -8   6  -4    1.42    0.22
   8  -6   4    1.79    0.38
   8  -6   4    1.10    0.42
  -9   6  -4    5.25    0.47
  -9   6  -4    5.96    0.60
  -9   6  -4    5.50    0.73
   9  -6   4    6.23    0.90
   9  -6   4    5.90    0.72
   7   5  -4    4.62    0.63
   7   5  -4    4.22    0.54
   7   5  -4    3.46    0.51
  -7  -5   4    3.84    0.61
   6   5  -4    1.37    0.33
   6   5  -4    0.72    0.33
   6   5  -4    1.07    0.37
  -6  -5   4    0.49    0.39
  -6  -5   4    0.44    0.31
   5   5  -4    7.32    0.53
   5   5  -4    6.58    0.72
   5   5  -4    6.39    0.67
   5   5  -4    6.70    0.59
   5   5  -4    7.49    0.58
  -5  -5   4    6.37    0.59
  -5  -5   4    7.17    0.58
  -5  -5   4    7.00    0.66
   4   5  -4   11.27    0.68
   4   5  -4   11.76    0.65
   4   5  -4   10.94    0.67
   4   5  -4   10.67    0.77
   4   5  -4   11.56    0.60
  -4  -5   4   10.67    0.70
  -4  -5   4   11.21    0.67
  -4  -5   4   11.37    0.65
   3   5  -4   38.88    1.40
   3   5  -4   40.34    1.45
   3   5  -4   36.23    1.45
   3   5  -4   40.12    1.50
   3   5  -4   38.89    1.44
  -3  -5   4   38.24    1.44
  -3  -5   4   39.14    1.56
  -3  -5   4   38.05    1.48
  -3  -5   4   37.55    1.51
  -3  -5   4   37.53    1.46
   2   5  -4    2.23    0.28
   2   5  -4    2.19    0.27
   2   5  -4    2.92    0.26
   2   5  -4    2.39    0.28
   2   5  -4    2.48    0.23
   2   5  -4    2.32    0.35
   2   5  -4    2.86    0.42
  -2  -5   4    2.05    0.25
  -2  -5   4    2.98    0.42
  -2  -5   4    2.55    0.30
  -2  -5   4    2.39    0.31
  -2  -5   4    1.56    0.29
  -2  -5   4    2.31    0.36
  -2  -5   4    2.57    0.30
  -2  -5   4    2.09    0.27
   1   5  -4    0.51    0.19
   1   5  -4    0.69    0.26
   1   5  -4    0.77    0.13
   1   5  -4    0.44    0.14
   1   5  -4    0.41    0.21
   1   5  -4    0.32    0.20
   1   5  -4    0.54    0.10
   1   5  -4    0.64    0.13
   1   5  -4    0.49    0.13
  -1  -5   4    0.55    0.14
  -1  -5   4    0.53    0.15
  -1  -5   4    0.59    0.21
  -1  -5   4    0.27    0.18
  -1  -5   4    0.47    0.14
  -1  -5   4    0.55    0.24
  -1  -5   4    0.72    0.16
   0   5  -4    8.77    0.47
   0   5  -4    8.81    0.47
   0   5  -4    8.88    0.37
   0   5  -4    8.53    0.36
   0   5  -4    8.94    0.33
   0   5  -4   10.04    0.54
   0   5  -4   10.06    0.59
   0   5  -4    8.75    0.39
   0   5  -4    8.92    0.53
   0   5  -4    8.56    0.33
   0  -5   4    9.31    0.58
   0  -5   4    8.59    0.50
   0  -5   4    8.80    0.37
   0  -5   4    8.98    0.36
   0  -5   4    8.86    0.37
   0  -5   4    8.95    0.57
  -1   5  -4    1.98    0.24
  -1   5  -4    2.43    0.37
  -1   5  -4    2.15    0.23
  -1   5  -4    2.25    0.28
  -1   5  -4    2.60    0.21
  -1   5  -4    2.32    0.30
  -1   5  -4    2.82    0.38
   1  -5   4    2.15    0.34
   1  -5   4    2.35    0.29
   1  -5   4    2.37    0.34
   1  -5   4    2.23    0.29
  -2   5  -4    0.53    0.26
  -2   5  -4    0.46    0.19
  -2   5  -4    0.44    0.14
  -2   5  -4    0.07    0.21
  -2   5  -4    0.17    0.12
  -2   5  -4    0.25    0.09
  -2   5  -4    0.25    0.12
  -2   5  -4    0.41    0.14
   2  -5   4    0.40    0.19
   2  -5   4    0.63    0.17
   2  -5   4    0.33    0.16
   2  -5   4    0.18    0.11
   2  -5   4    0.53    0.21
  -3   5  -4    3.62    0.28
  -3   5  -4    3.90    0.19
  -3   5  -4    3.10    0.26
  -3   5  -4    2.91    0.47
  -3   5  -4    3.48    0.44
  -3   5  -4    3.47    0.33
  -3   5  -4    3.74    0.32
   3  -5   4    3.53    0.15
   3  -5   4    3.70    0.41
   3  -5   4    3.42    0.32
   3  -5   4    3.26    0.36
   3  -5   4    3.34    0.29
   3  -5   4    3.27    0.34
  -4   5  -4    1.46    0.22
  -4   5  -4    1.18    0.16
  -4   5  -4    1.05    0.12
  -4   5  -4    1.27    0.11
  -4   5  -4    1.08    0.30
  -4   5  -4    1.08    0.19
  -4   5  -4    1.14    0.11
  -4   5  -4    1.03    0.14
  -4   5  -4    1.10    0.22
   4  -5   4    1.37    0.21
   4  -5   4    1.13    0.19
   4  -5   4    1.24    0.14
   4  -5   4    1.08    0.17
   4  -5   4    1.11    0.14
   4  -5   4    0.72    0.20
   4  -5   4    1.21    0.11
   4  -5   4    1.17    0.24
  -5   5  -4    1.22    0.26
  -5   5  -4    0.80    0.11
  -5   5  -4    0.79    0.13
  -5   5  -4    1.00    0.17
  -5   5  -4    0.91    0.13
  -5   5  -4    0.72    0.14
  -5   5  -4    0.60    0.18
   5  -5   4    0.95    0.18
   5  -5   4    0.78    0.22
   5  -5   4    0.58    0.19
   5  -5   4    0.82    0.15
   5  -5   4    0.75    0.22
   5  -5   4    0.84    0.19
  -6   5  -4    4.93    0.42
  -6   5  -4    4.77    0.44
  -6   5  -4    4.90    0.53
  -6   5  -4    5.34    0.30
  -6   5  -4    5.21    0.32
  -6   5  -4    5.02    0.37
   6  -5   4    5.49    0.48
   6  -5   4    5.75    0.38
   6  -5   4    5.63    0.45
   6  -5   4    4.94    0.42
  -7   5  -4    1.35    0.32
  -7   5  -4    1.01    0.34
  -7   5  -4    1.97    0.28
   7  -5   4    1.67    0.31
   7  -5   4    1.55    0.30
   7  -5   4    1.48    0.35
  -8   5  -4    3.82    0.55
  -8   5  -4    4.09    0.39
  -8   5  -4    3.37    0.46
   8  -5   4    3.68    0.55
   8  -5   4    3.28    0.49
  -9   5  -4    1.38    0.30
  -9   5  -4    2.40    0.41
  -9   5  -4    0.72    0.51
   9  -5   4    0.90    0.45
   8   4  -4    1.07    0.41
   8   4  -4    1.37    0.49
   8   4  -4    0.82    0.44
  -8  -4   4    1.06    0.46
   7   4  -4    0.28    0.30
   7   4  -4    0.33    0.30
   7   4  -4    0.51    0.35
  -7  -4   4    0.50    0.55
  -7  -4   4    0.34    0.39
   6   4  -4    4.76    0.53
   6   4  -4    4.50    0.57
   6   4  -4    5.35    0.54
  -6  -4   4    6.33    0.61
  -6  -4   4    5.60    0.64
  -6  -4   4    5.80    0.50
  -6  -4   4    5.02    0.36
   5   4  -4    0.27    0.30
   5   4  -4    0.49    0.30
   5   4  -4    0.70    0.24
   5   4  -4    0.53    0.23
   5   4  -4    0.47    0.28
  -5  -4   4    0.87    0.29
  -5  -4   4    0.39    0.14
  -5  -4   4    0.59    0.24
  -5  -4   4    0.83    0.28
   4   4  -4   44.15    1.55
   4   4  -4   42.06    1.59
   4   4  -4   40.52    1.61
   4   4  -4   41.54    1.59
   4   4  -4   38.34    1.61
   4   4  -4   43.31    1.59
  -4  -4   4   43.49    1.62
  -4  -4   4   42.15    1.60
  -4  -4   4   44.60    1.59
   3   4  -4   28.41    1.19
   3   4  -4   28.70    1.15
   3   4  -4   29.50    1.15
   3   4  -4   28.64    1.12
   3   4  -4   29.34    1.09
   3   4  -4   29.21    1.11
  -3  -4   4   26.58    1.13
  -3  -4   4   28.92    1.18
  -3  -4   4   27.61    1.17
  -3  -4   4   33.54    1.23
  -3  -4   4   29.86    1.12
  -3  -4   4   28.48    1.13
  -3  -4   4   28.33    1.12
   2   4  -4    4.80    0.33
   2   4  -4    4.93    0.41
   2   4  -4    5.12    0.35
   2   4  -4    4.60    0.30
   2   4  -4    4.62    0.28
   2   4  -4    4.80    0.31
  -2  -4   4    5.02    0.33
  -2  -4   4    5.28    0.33
  -2  -4   4    4.84    0.39
  -2  -4   4    4.37    0.44
  -2  -4   4    4.47    0.39
  -2  -4   4    4.82    0.35
  -2  -4   4    4.86    0.33
   1   4  -4    7.56    0.40
   1   4  -4    7.36    0.41
   1   4  -4    7.50    0.34
   1   4  -4    7.80    0.34
   1   4  -4    7.43    0.36
   1   4  -4    7.30    0.32
   1   4  -4    6.85    0.45
   1   4  -4    8.02    0.46
   1   4  -4    7.42    0.48
  -1  -4   4    7.61    0.35
  -1  -4   4    7.64    0.35
  -1  -4   4    7.83    0.43
  -1  -4   4    7.59    0.35
  -1  -4   4    7.45    0.47
  -1  -4   4    7.58    0.43
  -1  -4   4    7.21    0.35
  -1  -4   4    7.25    0.48
   0   4  -4   57.52    1.96
   0   4  -4   54.76    1.77
   0   4  -4   54.97    1.95
   0   4  -4   53.83    1.89
   0   4  -4   53.12    1.79
   0   4  -4   54.07    1.82
   0   4  -4   54.08    1.90
   0   4  -4   55.43    1.98
   0   4  -4   56.07    1.78
   0   4  -4   54.97    1.81
   0   4  -4   63.02    2.01
   0  -4   4   55.06    1.80
   0  -4   4   54.13    1.93
   0  -4   4   53.85    1.80
   0  -4   4   57.23    1.98
   0  -4   4   53.91    2.00
   0  -4   4   55.09    1.79
   0  -4   4   54.39    1.80
  -1   4  -4    2.36    0.21
  -1   4  -4    2.47    0.32
  -1   4  -4    2.46    0.20
  -1   4  -4    2.24    0.18
  -1   4  -4    2.07    0.31
  -1   4  -4    2.20    0.20
  -1   4  -4    2.30    0.26
  -1   4  -4    2.56    0.24
   1  -4   4    2.37    0.30
   1  -4   4    2.33    0.22
   1  -4   4    2.40    0.24
   1  -4   4    2.64    0.27
   1  -4   4    3.04    0.29
  -2   4  -4   17.48    0.65
  -2   4  -4   15.69    0.74
  -2   4  -4   15.72    0.57
  -2   4  -4   13.36    0.73
  -2   4  -4   14.44    0.61
  -2   4  -4   15.30    0.64
  -2   4  -4   15.54    0.66
  -2   4  -4   15.88    0.61
   2  -4   4   14.57    0.69
   2  -4   4   15.08    0.74
   2  -4   4   15.93    0.64
   2  -4   4   15.53    0.65
   2  -4   4   14.81    0.71
  -3   4  -4    3.01    0.17
  -3   4  -4    3.57    0.28
  -3   4  -4    3.22    0.29
  -3   4  -4    3.25    0.24
  -3   4  -4    2.83    0.24
  -3   4  -4    3.65    0.38
  -3   4  -4    2.99    0.39
  -3   4  -4    3.35    0.16
  -3   4  -4    3.03    0.16
   3  -4   4    3.13    0.18
   3  -4   4    2.90    0.31
   3  -4   4    3.34    0.20
   3  -4   4    2.99    0.29
   3  -4   4    3.21    0.26
   3  -4   4    3.11    0.24
   3  -4   4    3.27    0.36
  -4   4  -4    7.30    0.51
  -4   4  -4    7.37    0.33
  -4   4  -4    6.48    0.30
  -4   4  -4    6.75    0.27
  -4   4  -4    6.93    0.46
  -4   4  -4    6.58    0.37
  -4   4  -4    6.87    0.38
  -4   4  -4    7.14    0.36
  -4   4  -4    6.67    0.58
  -4   4  -4    6.64    0.29
   4  -4   4    7.13    0.39
   4  -4   4    6.10    0.41
   4  -4   4    7.08    0.38
   4  -4   4    7.21    0.33
   4  -4   4    6.82    0.36
   4  -4   4    6.82    0.51
   4  -4   4    7.02    0.35
  -5   4  -4    4.44    0.30
  -5   4  -4    5.32    0.48
  -5   4  -4    4.26    0.43
  -5   4  -4    4.06    0.27
  -5   4  -4    4.78    0.34
  -5   4  -4    4.27    0.31
  -5   4  -4    4.95    0.25
  -5   4  -4    4.28    0.21
   5  -4   4    4.04    0.33
   5  -4   4    4.71    0.33
   5  -4   4    4.41    0.41
   5  -4   4    4.57    0.34
   5  -4   4    4.53    0.37
  -6   4  -4   12.24    0.59
  -6   4  -4   12.30    0.55
  -6   4  -4   13.33    0.75
  -6   4  -4   11.70    0.63
  -6   4  -4    9.29    1.06
  -6   4  -4   12.53    0.68
  -6   4  -4   11.81    0.50
   6  -4   4   12.49    0.64
   6  -4   4   12.10    0.61
   6  -4   4   11.72    0.61
  -7   4  -4    4.30    0.50
  -7   4  -4    4.32    0.50
  -7   4  -4    4.01    0.43
  -7   4  -4    4.74    0.57
  -7   4  -4    4.09    0.38
   7  -4   4    5.03    0.48
   7  -4   4    4.40    0.45
   7  -4   4    4.60    0.51
  -8   4  -4    1.87    0.50
  -8   4  -4    2.92    0.40
  -8   4  -4    2.55    0.33
   8  -4   4    2.52    0.37
   8  -4   4    2.30    0.40
   8  -4   4    2.61    0.58
  -9   4  -4    4.59    0.69
  -9   4  -4    4.95    0.64
  -9   4  -4    4.18    0.47
   9  -4   4    4.98    0.64
   9  -4   4    4.44    0.68
   8   3  -4    4.74    0.59
   8   3  -4    3.10    0.50
   8   3  -4    3.83    0.54
  -8  -3   4    2.32    0.84
  -8  -3   4    2.46    0.50
   7   3  -4    3.63    0.46
   7   3  -4    2.49    0.46
   7   3  -4    2.35    0.35
  -7  -3   4    1.76    0.42
  -7  -3   4    2.65    0.32
  -7  -3   4    2.31    0.34
  -7  -3   4    2.85    0.46
   6   3  -4   13.69    0.86
   6   3  -4   14.70    0.76
   6   3  -4   12.71    0.87
   6   3  -4   13.51    0.74
   6   3  -4   13.02    0.78
  -6  -3   4   15.22    0.73
  -6  -3   4   14.09    0.63
  -6  -3   4   15.94    0.81
  -6  -3   4   14.42    0.84
   5   3  -4   16.38    0.87
   5   3  -4   18.38    0.85
   5   3  -4   18.15    0.81
   5   3  -4   18.48    0.89
   5   3  -4   17.83    0.83
   5   3  -4   18.73    0.91
  -5  -3   4   18.21    0.70
  -5  -3   4   17.85    0.88
  -5  -3   4   18.57    0.86
  -5  -3   4   16.95    0.82
   4   3  -4    5.66    0.44
   4   3  -4    5.55    0.39
   4   3  -4    5.64    0.44
   4   3  -4    5.86    0.41
   4   3  -4    6.37    0.48
   4   3  -4    6.46    0.39
  -4  -3   4    6.11    0.48
  -4  -3   4    5.80    0.30
  -4  -3   4    6.49    0.45
  -4  -3   4    5.95    0.47
  -4  -3   4    6.23    0.43
   3   3  -4   39.82    1.48
   3   3  -4   40.92    1.51
   3   3  -4   41.26    1.48
   3   3  -4   42.38    1.51
   3   3  -4   40.97    1.44
   3   3  -4   40.13    1.46
  -3  -3   4   43.36    1.51
  -3  -3   4   40.12    1.47
  -3  -3   4   40.96    1.52
  -3  -3   4   41.13    1.34
  -3  -3   4   41.55    1.46
  -3  -3   4   42.43    1.50
  -3  -3   4   40.77    1.48
  -3  -3   4   37.17    1.50
   2   3  -4    1.78    0.24
   2   3  -4    1.86    0.18
   2   3  -4    1.75    0.21
   2   3  -4    1.57    0.20
   2   3  -4    2.20    0.22
   2   3  -4    1.71    0.26
   2   3  -4    1.74    0.17
  -2  -3   4    1.94    0.21
  -2  -3   4    2.12    0.27
  -2  -3   4    2.03    0.25
  -2  -3   4    2.26    0.23
  -2  -3   4    1.65    0.19
  -2  -3   4    2.09    0.28
   1   3  -4    5.89    0.38
   1   3  -4    5.73    0.25
   1   3  -4    6.44    0.37
   1   3  -4    5.30    0.35
   1   3  -4    5.93    0.29
   1   3  -4    5.68    0.27
   1   3  -4    5.54    0.26
   1   3  -4    5.52    0.31
   1   3  -4    5.84    0.23
  -1  -3   4    5.55    0.27
  -1  -3   4    5.54    0.38
  -1  -3   4    5.68    0.27
  -1  -3   4    5.64    0.28
  -1  -3   4    5.03    0.33
  -1  -3   4    5.37    0.27
   0   3  -4   47.95    1.54
   0   3  -4   46.17    1.60
   0   3  -4   47.91    1.69
   0   3  -4   45.69    1.64
   0   3  -4   48.47    1.60
   0   3  -4   47.27    1.68
   0   3  -4   47.27    1.65
   0   3  -4   47.63    1.61
   0   3  -4   48.58    1.52
   0   3  -4   46.43    1.52
   0  -3   4   46.27    1.68
   0  -3   4   48.19    1.61
   0  -3   4   47.45    1.53
   0  -3   4   46.82    1.71
   0  -3   4   47.24    1.53
   0  -3   4   43.48    1.65
   0  -3   4   47.62    1.64
  -1   3  -4   53.05    1.93
  -1   3  -4   57.14    1.89
  -1   3  -4   59.00    1.89
  -1   3  -4   60.48    1.88
  -1   3  -4   61.04    2.01
  -1   3  -4   58.92    1.95
  -1   3  -4   50.00    1.97
   1  -3   4   55.87    1.97
   1  -3   4   53.52    1.97
   1  -3   4   57.92    2.03
   1  -3   4   58.16    1.94
   1  -3   4   57.55    1.92
  -2   3  -4    2.99    0.16
  -2   3  -4    2.89    0.18
  -2   3  -4    2.92    0.23
  -2   3  -4    2.99    0.15
  -2   3  -4    3.17    0.31
  -2   3  -4    3.06    0.21
  -2   3  -4    2.38    0.17
  -2   3  -4    3.25    0.20
  -2   3  -4    2.65    0.30
   2  -3   4    3.23    0.31
   2  -3   4    2.74    0.20
   2  -3   4    2.88    0.26
   2  -3   4    2.71    0.15
   2  -3   4    3.11    0.24
  -3   3  -4   29.76    1.00
  -3   3  -4   28.52    0.98
  -3   3  -4   30.99    1.06
  -3   3  -4   31.82    0.99
  -3   3  -4   30.93    1.16
  -3   3  -4   28.83    1.13
  -3   3  -4   28.98    1.02
  -3   3  -4   28.76    1.03
  -3   3  -4   29.33    0.99
  -3   3  -4   27.59    1.17
   3  -3   4   27.03    1.10
   3  -3   4   29.75    1.01
   3  -3   4   30.41    1.02
   3  -3   4   29.61    1.03
   3  -3   4   28.41    1.17
   3  -3   4   31.27    1.07
   3  -3   4   31.65    1.02
  -4   3  -4    0.26    0.18
  -4   3  -4    0.40    0.11
  -4   3  -4    0.26    0.12
  -4   3  -4    0.24    0.11
  -4   3  -4    0.14    0.10
  -4   3  -4    0.19    0.19
  -4   3  -4    0.25    0.07
  -4   3  -4    0.28    0.11
  -4   3  -4    0.19    0.09
  -4   3  -4    0.12    0.16
   4  -3   4    0.22    0.09
   4  -3   4    0.32    0.11
   4  -3   4    0.23    0.18
   4  -3   4    0.27    0.12
   4  -3   4    0.23    0.16
   4  -3   4    0.41    0.14
   4  -3   4    0.27    0.13
   4  -3   4    0.24    0.14
  -5   3  -4    8.52    0.46
  -5   3  -4    8.12    0.35
  -5   3  -4    7.58    0.45
  -5   3  -4    8.73    0.52
  -5   3  -4    8.68    0.43
  -5   3  -4    8.49    0.43
  -5   3  -4    9.24    0.58
   5  -3   4    8.14    0.47
   5  -3   4    8.87    0.45
   5  -3   4    8.27    0.34
   5  -3   4    7.22    0.52
   5  -3   4    8.37    0.47
  -6   3  -4    4.54    0.36
  -6   3  -4    4.15    0.44
  -6   3  -4    4.97    0.42
  -6   3  -4    4.28    0.49
  -6   3  -4    4.93    0.44
   6  -3   4    4.70    0.47
   6  -3   4    4.77    0.37
   6  -3   4    5.27    0.38
   6  -3   4    4.33    0.43
   6  -3   4    4.05    0.25
  -7   3  -4    0.87    0.34
  -7   3  -4    1.30    0.26
  -7   3  -4    1.12    0.35
  -7   3  -4    0.71    0.24
  -7   3  -4    0.89    0.29
  -7   3  -4    0.90    0.35
   7  -3   4    0.62    0.25
   7  -3   4    0.95    0.31
  -8   3  -4    0.51    0.41
  -8   3  -4    0.55    0.28
   8  -3   4    0.26    0.38
   8  -3   4   -0.08    0.27
   8  -3   4    0.39    0.29
  -9   3  -4    0.69    0.40
  -9   3  -4    0.36    0.36
  -9   3  -4    0.25    0.52
   9  -3   4    0.30    0.33
   9  -3   4    0.07    0.37
   9   2  -4    4.53    0.67
   9   2  -4    2.67    0.56
   9   2  -4    3.86    0.52
   9   2  -4    3.55    0.51
  -9  -2   4    2.82    0.56
   8   2  -4    2.89    0.48
   8   2  -4    2.79    0.41
   8   2  -4    2.51    0.39
   8   2  -4    3.38    0.54
  -8  -2   4    3.10    0.49
  -8  -2   4    2.81    0.58
  -8  -2   4    1.94    0.37
   7   2  -4   10.08    0.85
   7   2  -4    8.02    0.75
   7   2  -4   10.47    1.01
   7   2  -4   10.37    0.66
   7   2  -4   11.18    0.65
  -7  -2   4    9.50    0.58
  -7  -2   4    9.53    0.59
  -7  -2   4   10.46    0.70
  -7  -2   4    9.43    0.77
   6   2  -4    9.49    0.62
   6   2  -4    8.74    0.55
   6   2  -4    8.28    0.63
   6   2  -4    8.33    0.67
  -6  -2   4    8.64    0.60
  -6  -2   4    8.97    0.64
  -6  -2   4    9.04    0.54
  -6  -2   4    8.71    0.49
   5   2  -4   52.57    1.91
   5   2  -4   50.10    1.89
   5   2  -4   53.27    1.89
   5   2  -4   52.66    1.88
   5   2  -4   53.14    1.97
   5   2  -4   51.10    1.94
  -5  -2   4   54.54    1.81
  -5  -2   4   54.27    1.91
  -5  -2   4   56.27    1.90
  -5  -2   4   47.90    1.95
  -5  -2   4   53.38    1.93
   4   2  -4   33.28    1.24
   4   2  -4   31.99    1.28
   4   2  -4   33.23    1.22
   4   2  -4   34.33    1.27
   4   2  -4   32.04    1.25
   4   2  -4   33.39    1.24
  -4  -2   4   32.62    1.23
  -4  -2   4   32.81    1.28
  -4  -2   4   32.16    1.25
  -4  -2   4   31.13    1.26
  -4  -2   4   33.39    1.15
  -4  -2   4   34.68    1.26
   3   2  -4   20.31    0.80
   3   2  -4   19.99    0.78
   3   2  -4   19.86    0.82
   3   2  -4   19.54    0.81
   3   2  -4   19.88    0.77
   3   2  -4   19.92    0.80
   3   2  -4   20.20    0.72
  -3  -2   4   19.73    0.72
  -3  -2   4   19.52    0.81
  -3  -2   4   20.06    0.80
  -3  -2   4   19.67    0.79
  -3  -2   4   19.92    0.78
  -3  -2   4   20.06    0.83
  -3  -2   4   20.78    0.79
  -3  -2   4   21.22    0.84
   2   2  -4    0.14    0.07
   2   2  -4    0.05    0.11
   2   2  -4    0.10    0.09
   2   2  -4    0.06    0.06
   2   2  -4    0.00    0.06
   2   2  -4    0.05    0.09
   2   2  -4    0.03    0.11
   2   2  -4    0.18    0.08
   2   2  -4    0.12    0.06
  -2  -2   4    0.10    0.08
  -2  -2   4    0.09    0.11
  -2  -2   4    0.32    0.12
  -2  -2   4    0.20    0.09
  -2  -2   4    0.07    0.07
  -2  -2   4    0.22    0.09
  -2  -2   4    0.22    0.12
  -2  -2   4    0.00    0.07
   1   2  -4  123.79    3.94
   1   2  -4  120.22    3.90
   1   2  -4  121.19    3.94
   1   2  -4  121.53    3.88
   1   2  -4  121.67    3.86
   1   2  -4  118.65    3.85
   1   2  -4  120.90    3.90
   1   2  -4  116.72    3.86
   1   2  -4  119.96    3.87
  -1  -2   4  118.79    3.86
  -1  -2   4  117.61    3.86
  -1  -2   4  119.47    3.91
  -1  -2   4  114.24    3.96
  -1  -2   4  122.44    3.88
  -1  -2   4  122.43    3.92
  -1  -2   4  126.22    4.00
  -1  -2   4  121.36    3.87
   0   2  -4   43.97    1.52
   0   2  -4   44.04    1.48
   0   2  -4   40.31    1.50
   0   2  -4   44.26    1.43
   0   2  -4   44.74    1.48
   0   2  -4   45.55    1.44
   0   2  -4   44.12    1.43
   0   2  -4   45.47    1.44
   0   2  -4   48.23    1.53
   0   2  -4   44.61    1.54
   0  -2   4   44.49    1.55
   0  -2   4   43.46    1.43
   0  -2   4   43.78    1.49
   0  -2   4   42.96    1.53
   0  -2   4   43.14    1.58
   0  -2   4   42.56    1.43
   0  -2   4   44.59    1.44
  -1   2  -4   28.81    0.95
  -1   2  -4   27.50    0.91
  -1   2  -4   24.86    0.94
  -1   2  -4   27.93    0.90
  -1   2  -4   29.16    1.05
  -1   2  -4   26.67    0.93
  -1   2  -4   27.90    1.00
  -1   2  -4   26.74    0.94
  -1   2  -4   28.71    1.05
  -1   2  -4   27.10    0.92
  -1   2  -4   31.95    1.00
   1  -2   4   27.67    0.91
   1  -2   4   28.99    1.02
   1  -2   4   27.75    0.92
   1  -2   4   27.40    0.91
   1  -2   4   25.95    0.96
   1  -2   4   26.27    1.06
   1  -2   4   28.21    0.97
  -2   2  -4    1.23    0.09
  -2   2  -4    1.45    0.16
  -2   2  -4    1.43    0.13
  -2   2  -4    1.46    0.22
  -2   2  -4    1.02    0.12
  -2   2  -4    1.37    0.12
  -2   2  -4    1.32    0.10
  -2   2  -4    1.18    0.11
  -2   2  -4    1.42    0.10
  -2   2  -4    1.10    0.17
   2  -2   4    1.33    0.13
   2  -2   4    1.04    0.13
   2  -2   4    1.52    0.22
   2  -2   4    1.03    0.14
   2  -2   4    1.55    0.16
   2  -2   4    1.29    0.11
   2  -2   4    1.39    0.13
  -3   2  -4    7.45    0.40
  -3   2  -4    7.23    0.33
  -3   2  -4    7.11    0.44
  -3   2  -4    7.30    0.36
  -3   2  -4    6.80    0.31
  -3   2  -4    7.38    0.34
  -3   2  -4    7.06    0.34
  -3   2  -4    7.70    0.29
   3  -2   4    7.18    0.36
   3  -2   4    7.16    0.43
   3  -2   4    7.05    0.35
   3  -2   4    7.21    0.33
   3  -2   4    6.73    0.35
   3  -2   4    6.65    0.33
   3  -2   4    5.87    0.35
  -4   2  -4    1.94    0.23
  -4   2  -4    2.12    0.22
  -4   2  -4    2.17    0.16
  -4   2  -4    2.03    0.17
  -4   2  -4    2.37    0.34
  -4   2  -4    2.09    0.23
  -4   2  -4    2.05    0.21
  -4   2  -4    2.01    0.26
   4  -2   4    1.87    0.19
   4  -2   4    2.05    0.15
   4  -2   4    2.10    0.27
   4  -2   4    2.29    0.29
   4  -2   4    2.10    0.25
   4  -2   4    2.04    0.29
   4  -2   4    2.05    0.21
   4  -2   4    1.77    0.23
  -5   2  -4    6.69    0.41
  -5   2  -4    6.61    0.33
  -5   2  -4    6.80    0.50
  -5   2  -4    6.39    0.28
  -5   2  -4    6.39    0.43
  -5   2  -4    5.80    0.41
  -5   2  -4    6.22    0.40
   5  -2   4    6.08    0.43
   5  -2   4    6.28    0.37
   5  -2   4    6.95    0.30
  -6   2  -4   39.07    1.57
  -6   2  -4   37.23    1.47
  -6   2  -4   36.34    1.30
  -6   2  -4   37.92    1.43
  -6   2  -4   36.78    1.49
  -6   2  -4   38.84    1.45
   6  -2   4   39.07    1.48
   6  -2   4   38.54    1.29
   6  -2   4   40.19    1.42
  -7   2  -4    2.08    0.42
  -7   2  -4    1.86    0.34
  -7   2  -4    1.89    0.32
  -7   2  -4    2.32    0.38
   7  -2   4    1.58    0.29
   7  -2   4    2.71    0.41
   7  -2   4    2.75    0.44
  -8   2  -4    1.52    0.48
  -8   2  -4    1.89    0.38
  -8   2  -4    1.88    0.41
   8  -2   4    1.37    0.32
   8  -2   4    1.79    0.45
  -9   2  -4    2.23    0.51
  -9   2  -4    2.08    0.44
  -9   2  -4    2.31    0.59
   9  -2   4    1.38    0.39
   9  -2   4    1.66    0.43
   9   1  -4    3.26    0.54
   9   1  -4    2.80    0.46
   9   1  -4    2.96    0.52
   9   1  -4    2.76    0.45
  -9  -1   4    3.52    0.53
  -9  -1   4    3.44    0.63
  -9  -1   4    2.96    0.50
   8   1  -4    6.69    0.55
   8   1  -4    5.53    0.60
   8   1  -4    5.72    0.73
   8   1  -4    5.11    0.52
  -8  -1   4    4.53    0.57
  -8  -1   4    5.37    0.52
  -8  -1   4    6.36    0.68
  -8  -1   4    5.41    0.59
   7   1  -4    3.20    0.36
   7   1  -4    3.09    0.44
   7   1  -4    3.91    0.42
   7   1  -4    4.00    0.47
   7   1  -4    2.80    0.41
  -7  -1   4    3.24    0.46
  -7  -1   4    3.41    0.41
  -7  -1   4    3.36    0.38
   6   1  -4    6.61    0.45
   6   1  -4    6.42    0.51
   6   1  -4    5.68    0.45
   6   1  -4    5.37    0.58
   6   1  -4    6.69    0.51
   6   1  -4    6.38    0.46
   6   1  -4    5.92    0.43
  -6  -1   4    5.78    0.43
  -6  -1   4    6.23    0.50
  -6  -1   4    5.98    0.46
   5   1  -4    2.34    0.27
   5   1  -4    2.39    0.31
   5   1  -4    2.87    0.37
   5   1  -4    2.69    0.36
   5   1  -4    2.30    0.27
   5   1  -4    2.24    0.27
   5   1  -4    2.18    0.26
   5   1  -4    1.92    0.27
  -5  -1   4    2.59    0.33
  -5  -1   4    2.75    0.36
  -5  -1   4    2.06    0.34
  -5  -1   4    2.61    0.44
  -5  -1   4    2.16    0.26
  -5  -1   4    2.87    0.30
   4   1  -4    3.47    0.32
   4   1  -4    3.63    0.27
   4   1  -4    3.34    0.26
   4   1  -4    3.87    0.29
   4   1  -4    3.73    0.27
   4   1  -4    3.68    0.26
   4   1  -4    3.69    0.31
   4   1  -4    3.54    0.39
  -4  -1   4    2.95    0.24
  -4  -1   4    3.90    0.26
  -4  -1   4    3.56    0.32
  -4  -1   4    3.83    0.31
  -4  -1   4    3.82    0.28
  -4  -1   4    3.16    0.32
  -4  -1   4    3.17    0.31
   3   1  -4   14.81    0.62
   3   1  -4   15.34    0.65
   3   1  -4   15.39    0.62
   3   1  -4   15.31    0.63
   3   1  -4   15.59    0.66
   3   1  -4   15.64    0.67
   3   1  -4   16.01    0.62
   3   1  -4   15.98    0.63
  -3  -1   4   16.22    0.65
  -3  -1   4   15.31    0.64
  -3  -1   4   17.21    0.58
  -3  -1   4   15.04    0.66
  -3  -1   4   17.43    0.67
  -3  -1   4   15.79    0.63
  -3  -1   4   15.99    0.61
   2   1  -4   71.75    2.36
   2   1  -4   73.01    2.34
   2   1  -4   68.75    2.37
   2   1  -4   70.37    2.35
   2   1  -4   74.55    2.39
   2   1  -4   71.97    2.36
   2   1  -4   70.89    2.37
   2   1  -4   68.80    2.34
  -2  -1   4   72.37    2.35
  -2  -1   4   71.89    2.36
  -2  -1   4   71.36    2.38
  -2  -1   4   69.67    2.39
  -2  -1   4   70.64    2.35
  -2  -1   4   74.02    2.37
  -2  -1   4   72.00    2.32
   1   1  -4   69.98    2.24
   1   1  -4   66.60    2.24
   1   1  -4   67.99    2.22
   1   1  -4   68.19    2.23
   1   1  -4   67.80    2.24
   1   1  -4   73.85    2.26
   1   1  -4   67.79    2.26
   1   1  -4   64.92    2.22
   1   1  -4   68.93    2.24
  -1  -1   4   68.88    2.22
  -1  -1   4   68.70    2.26
  -1  -1   4   68.59    2.29
  -1  -1   4   68.08    2.23
  -1  -1   4   68.06    2.26
  -1  -1   4   68.49    2.23
  -1  -1   4   68.48    2.27
   0   1  -4  135.70    4.40
   0   1  -4  135.36    4.37
   0   1  -4  136.55    4.36
   0   1  -4  129.11    4.38
   0   1  -4  142.76    4.43
   0   1  -4  124.41    4.36
   0   1  -4  134.84    4.36
   0   1  -4  134.68    4.36
   0   1  -4  132.99    4.37
   0   1  -4  148.49    4.44
   0  -1   4  136.82    4.36
   0  -1   4  136.64    4.44
   0  -1   4  138.87    4.37
   0  -1   4  135.48    4.37
   0  -1   4  141.49    4.39
   0  -1   4  140.14    4.40
   0  -1   4  145.67    4.49
  -1   1  -4    7.52    0.29
  -1   1  -4    7.57    0.30
  -1   1  -4    7.56    0.31
  -1   1  -4    7.52    0.32
  -1   1  -4    7.79    0.27
  -1   1  -4    7.57    0.30
  -1   1  -4    7.20    0.28
   1  -1   4    7.77    0.31
   1  -1   4    7.57    0.34
   1  -1   4    7.49    0.29
   1  -1   4    7.41    0.28
   1  -1   4    6.73    0.43
   1  -1   4    7.54    0.31
   1  -1   4    7.65    0.30
   1  -1   4    7.53    0.32
  -2   1  -4   67.52    2.25
  -2   1  -4   66.77    2.23
  -2   1  -4   67.62    2.25
  -2   1  -4   70.81    2.21
  -2   1  -4   68.34    2.21
   2  -1   4   66.54    2.25
   2  -1   4   67.54    2.23
   2  -1   4   68.16    2.24
   2  -1   4   68.62    2.24
   2  -1   4   68.74    2.20
   2  -1   4   65.65    2.20
  -3   1  -4    3.58    0.20
  -3   1  -4    3.43    0.23
  -3   1  -4    3.28    0.19
  -3   1  -4    3.60    0.26
  -3   1  -4    3.57    0.24
  -3   1  -4    3.73    0.25
   3  -1   4    3.34    0.19
   3  -1   4    3.72    0.26
   3  -1   4    3.22    0.27
   3  -1   4    3.56    0.20
   3  -1   4    3.57    0.27
   3  -1   4    2.74    0.43
  -4   1  -4    5.78    0.36
  -4   1  -4    5.40    0.23
  -4   1  -4    5.99    0.30
  -4   1  -4    5.79    0.36
  -4   1  -4    5.90    0.39
   4  -1   4    5.83    0.40
   4  -1   4    5.32    0.26
   4  -1   4    5.59    0.37
   4  -1   4    5.41    0.30
   4  -1   4    5.37    0.39
   4  -1   4    5.69    0.38
   4  -1   4    5.04    0.38
  -5   1  -4    4.13    0.37
  -5   1  -4    3.58    0.28
  -5   1  -4    3.29    0.42
  -5   1  -4    3.66    0.21
  -5   1  -4    3.49    0.37
  -5   1  -4    3.82    0.34
  -5   1  -4    3.52    0.36
   5  -1   4    4.09    0.24
   5  -1   4    3.98    0.30
   5  -1   4    3.65    0.18
   5  -1   4    3.85    0.43
   5  -1   4    3.69    0.39
  -6   1  -4   16.08    0.88
  -6   1  -4   16.83    0.99
  -6   1  -4   15.80    0.63
  -6   1  -4   16.01    0.82
  -6   1  -4   17.02    0.89
  -6   1  -4   16.13    0.78
   6  -1   4   15.29    0.89
   6  -1   4   16.20    0.64
   6  -1   4   16.43    0.83
   6  -1   4   15.83    0.59
   6  -1   4   17.62    0.74
  -7   1  -4    7.82    0.67
  -7   1  -4    8.93    0.63
  -7   1  -4    9.16    0.76
  -7   1  -4    7.62    0.65
   7  -1   4    9.52    0.72
   7  -1   4    6.84    0.58
   7  -1   4    7.83    0.37
  -8   1  -4    0.41    0.34
  -8   1  -4    0.67    0.39
  -8   1  -4    0.36    0.45
   8  -1   4    0.96    0.31
   8  -1   4    0.39    0.42
  -9   1  -4    1.90    0.53
  -9   1  -4    2.35    0.66
  -9   1  -4    3.39    0.60
   9  -1   4    3.04    0.66
   9  -1   4    2.26    0.48
   9   0  -4    4.92    0.53
   9   0  -4    4.41    0.55
   9   0  -4    6.19    0.82
   9   0  -4    5.48    0.62
  -9   0   4    5.80    0.67
  -9   0   4    4.67    0.56
  -9   0   4    6.25    0.83
   8   0  -4    0.17    0.30
   8   0  -4    0.07    0.33
   8   0  -4    0.19    0.21
   8   0  -4    0.28    0.26
  -8   0   4   -0.09    0.35
  -8   0   4    0.74    0.29
  -8   0   4    0.28    0.29
   7   0  -4    9.70    0.58
   7   0  -4   10.14    0.66
   7   0  -4    9.41    0.62
   7   0  -4    8.88    0.62
   7   0  -4   10.23    0.52
  -7   0   4    9.50    0.61
  -7   0   4    9.37    0.65
   6   0  -4    4.26    0.42
   6   0  -4    3.56    0.30
   6   0  -4    3.41    0.33
   6   0  -4    3.71    0.37
   6   0  -4    4.61    0.53
   6   0  -4    4.04    0.39
   6   0  -4    4.13    0.40
  -6   0   4    3.60    0.37
  -6   0   4    3.69    0.25
  -6   0   4    3.98    0.37
  -6   0   4    3.70    0.50
  -6   0   4    3.56    0.41
   5   0  -4    7.18    0.43
   5   0  -4    6.17    0.35
   5   0  -4    7.62    0.52
   5   0  -4    7.42    0.43
   5   0  -4    6.88    0.47
   5   0  -4    6.90    0.39
   5   0  -4    6.90    0.41
  -5   0   4    6.83    0.41
  -5   0   4    5.51    0.43
  -5   0   4    7.00    0.41
  -5   0   4    6.81    0.44
  -5   0   4    6.35    0.45
  -5   0   4    6.30    0.47
   4   0  -4   39.43    1.35
   4   0  -4   39.60    1.39
   4   0  -4   37.68    1.38
   4   0  -4   39.27    1.41
   4   0  -4   38.23    1.44
   4   0  -4   39.59    1.39
   4   0  -4   38.95    1.39
  -4   0   4   40.13    1.42
  -4   0   4   38.75    1.38
  -4   0   4   37.72    1.41
  -4   0   4   40.13    1.38
  -4   0   4   37.42    1.40
  -4   0   4   39.73    1.43
   3   0  -4    7.77    0.36
   3   0  -4    8.01    0.38
   3   0  -4    7.77    0.37
   3   0  -4    7.94    0.36
   3   0  -4    8.01    0.40
   3   0  -4    8.11    0.39
   3   0  -4    7.43    0.34
   3   0  -4    8.14    0.37
  -3   0   4    7.77    0.38
  -3   0   4    7.99    0.39
  -3   0   4    7.62    0.38
  -3   0   4    7.67    0.36
  -3   0   4    7.87    0.37
  -3   0   4    7.61    0.38
   2   0  -4   21.58    0.75
   2   0  -4   21.50    0.76
   2   0  -4   20.68    0.79
   2   0  -4   21.76    0.79
   2   0  -4   21.09    0.76
   2   0  -4   20.37    0.77
   2   0  -4   22.19    0.71
   2   0  -4   21.31    0.76
   2   0  -4   21.14    0.77
  -2   0   4   22.35    0.78
  -2   0   4   21.48    0.76
  -2   0   4   21.68    0.79
  -2   0   4   20.80    0.78
  -2   0   4   21.12    0.77
  -2   0   4   20.61    0.78
  -2   0   4   21.33    0.77
   1   0  -4    4.12    0.21
   1   0  -4    4.32    0.20
   1   0  -4    4.59    0.21
   1   0  -4    4.44    0.21
   1   0  -4    4.59    0.21
   1   0  -4    4.57    0.21
  -1   0   4    4.39    0.26
  -1   0   4    4.27    0.20
  -1   0   4    4.41    0.21
  -1   0   4    4.42    0.22
  -1   0   4    4.06    0.22
  -1   0   4    4.43    0.21
  -1   0   4    4.54    0.22
  -1   0   4    4.50    0.21
   0   0  -4    4.70    0.27
   0   0  -4    4.45    0.22
   0   0  -4    5.05    0.21
   0   0  -4    4.87    0.22
   0   0  -4    4.73    0.23
   0   0  -4    4.81    0.21
   0   0  -4    4.39    0.20
   0   0   4    5.17    0.24
   0   0   4    4.77    0.22
   0   0   4    4.64    0.21
   0   0   4    4.62    0.21
   0   0   4    4.85    0.22
   0   0   4    4.84    0.21
  -1   0  -4    2.93    0.19
  -1   0  -4    3.04    0.19
  -1   0  -4    2.95    0.17
  -1   0  -4    2.97    0.16
  -1   0  -4    3.03    0.18
   1   0   4    3.00    0.12
   1   0   4    2.98    0.19
   1   0   4    3.18    0.18
   1   0   4    2.88    0.13
   1   0   4    2.76    0.18
   1   0   4    2.95    0.16
  -2   0  -4   28.20    0.97
  -2   0  -4   28.04    1.02
  -2   0  -4   28.44    1.00
  -2   0  -4   28.34    1.03
  -2   0  -4   28.12    0.98
   2   0   4   27.56    1.00
   2   0   4   28.17    1.01
   2   0   4   27.26    1.02
   2   0   4   27.86    0.93
   2   0   4   26.58    1.06
   2   0   4   29.60    0.96
   2   0   4   26.10    1.01
  -3   0  -4    3.27    0.26
  -3   0  -4    3.13    0.28
  -3   0  -4    3.36    0.22
  -3   0  -4    3.23    0.27
  -3   0  -4    2.90    0.23
   3   0   4    3.22    0.31
   3   0   4    3.08    0.25
   3   0   4    3.26    0.27
   3   0   4    3.41    0.28
   3   0   4    2.78    0.27
   3   0   4    3.31    0.20
  -4   0  -4    5.31    0.38
  -4   0  -4    5.40    0.23
  -4   0  -4    5.22    0.34
  -4   0  -4    5.09    0.37
  -4   0  -4    5.25    0.41
  -4   0  -4    4.82    0.31
   4   0   4    4.54    0.42
   4   0   4    5.41    0.42
   4   0   4    5.20    0.39
   4   0   4    5.01    0.22
   4   0   4    5.05    0.30
   4   0   4    5.41    0.28
   4   0   4    4.86    0.39
  -5   0  -4   74.81    2.45
  -5   0  -4   68.51    2.45
  -5   0  -4   71.42    2.52
  -5   0  -4   70.25    2.50
  -5   0  -4   74.49    2.56
   5   0   4   70.17    2.35
   5   0   4   63.20    2.37
   5   0   4   73.84    2.56
   5   0   4   73.75    2.51
  -6   0  -4    0.76    0.28
  -6   0  -4    0.99    0.28
  -6   0  -4    0.76    0.29
   6   0   4    0.39    0.32
   6   0   4    0.63    0.13
   6   0   4    0.52    0.17
   6   0   4    1.15    0.32
  -7   0  -4    1.65    0.44
  -7   0  -4    1.54    0.37
  -7   0  -4    1.25    0.34
   7   0   4    1.19    0.18
   7   0   4    0.53    0.40
   7   0   4    1.48    0.43
  -8   0  -4    2.10    0.50
  -8   0  -4    1.68    0.50
  -8   0  -4    1.84    0.47
   8   0   4    2.75    0.57
   8   0   4    1.82    0.36
   9  -1  -4   -0.29    0.30
   9  -1  -4   -0.17    0.36
   9  -1  -4   -0.16    0.39
   9  -1  -4    0.10    0.23
  -9   1   4   -0.06    0.31
  -9   1   4   -0.38    0.34
  -9   1   4    0.15    0.40
   8  -1  -4    2.28    0.26
   8  -1  -4    1.49    0.36
   8  -1  -4    2.52    0.34
   8  -1  -4    2.24    0.41
  -8   1   4    1.55    0.42
  -8   1   4    1.98    0.37
  -8   1   4    1.52    0.37
   7  -1  -4    3.96    0.32
   7  -1  -4    4.48    0.46
   7  -1  -4    4.04    0.43
  -7   1   4    3.58    0.34
  -7   1   4    4.14    0.49
  -7   1   4    4.71    0.48
  -7   1   4    4.50    0.61
   6  -1  -4   18.37    0.82
   6  -1  -4   17.37    0.86
   6  -1  -4   18.67    0.83
   6  -1  -4   19.32    0.80
   6  -1  -4   18.89    0.73
   6  -1  -4   19.45    0.94
  -6   1   4   19.29    0.82
  -6   1   4   18.90    0.86
  -6   1   4   18.82    0.84
  -6   1   4   16.92    0.88
   5  -1  -4    0.62    0.19
   5  -1  -4    0.40    0.18
   5  -1  -4    0.48    0.20
   5  -1  -4    0.53    0.14
   5  -1  -4    0.58    0.15
   5  -1  -4    0.48    0.15
   5  -1  -4    0.61    0.12
  -5   1   4    0.65    0.16
  -5   1   4    0.23    0.19
  -5   1   4    0.68    0.21
  -5   1   4    0.50    0.15
  -5   1   4    0.15    0.14
  -5   1   4    0.43    0.17
   4  -1  -4    3.88    0.31
   4  -1  -4    3.70    0.23
   4  -1  -4    4.00    0.31
   4  -1  -4    3.82    0.25
   4  -1  -4    3.93    0.22
   4  -1  -4    3.86    0.31
   4  -1  -4    3.93    0.26
   4  -1  -4    4.15    0.27
  -4   1   4    4.41    0.29
  -4   1   4    3.66    0.28
  -4   1   4    3.68    0.29
  -4   1   4    4.11    0.31
  -4   1   4    4.14    0.30
   3  -1  -4    3.94    0.19
   3  -1  -4    4.03    0.21
   3  -1  -4    4.25    0.24
   3  -1  -4    3.91    0.25
   3  -1  -4    3.84    0.23
   3  -1  -4    3.96    0.24
   3  -1  -4    3.84    0.27
   3  -1  -4    3.94    0.28
  -3   1   4    4.13    0.23
  -3   1   4    4.13    0.26
  -3   1   4    3.94    0.25
  -3   1   4    4.15    0.24
  -3   1   4    4.32    0.27
  -3   1   4    4.35    0.27
  -3   1   4    3.94    0.26
   2  -1  -4   33.36    1.11
   2  -1  -4   31.50    1.08
   2  -1  -4   30.03    1.08
   2  -1  -4   31.59    1.09
   2  -1  -4   31.91    1.12
   2  -1  -4   30.54    1.06
  -2   1   4   30.89    1.09
  -2   1   4   30.88    1.09
  -2   1   4   31.12    1.05
  -2   1   4   31.91    1.08
  -2   1   4   31.26    1.12
  -2   1   4   30.91    1.09
  -2   1   4   31.70    1.07
  -2   1   4   32.01    1.09
   1  -1  -4   11.10    0.43
   1  -1  -4   11.31    0.44
   1  -1  -4   11.03    0.48
   1  -1  -4   11.00    0.44
   1  -1  -4   11.20    0.44
   1  -1  -4   11.10    0.39
   1  -1  -4   11.86    0.43
  -1   1   4   11.68    0.49
  -1   1   4   11.88    0.43
  -1   1   4   11.26    0.44
  -1   1   4   10.76    0.43
  -1   1   4   11.50    0.44
  -1   1   4   11.88    0.42
  -1   1   4   11.49    0.43
  -1   1   4   10.62    0.46
   0  -1  -4   23.73    0.82
   0  -1  -4   23.62    0.83
   0  -1  -4   23.86    0.82
   0  -1  -4   24.06    0.85
   0  -1  -4   22.92    0.88
   0   1   4   24.77    0.85
   0   1   4   23.36    0.83
   0   1   4   23.49    0.83
   0   1   4   23.56    0.82
   0   1   4   22.59    0.82
   0   1   4   23.35    0.80
  -1  -1  -4   12.74    0.49
  -1  -1  -4   12.23    0.47
  -1  -1  -4   11.91    0.51
  -1  -1  -4   11.90    0.51
  -1  -1  -4   11.60    0.54
  -1  -1  -4   11.85    0.50
   1   1   4   11.69    0.51
   1   1   4   11.85    0.48
   1   1   4   11.72    0.42
   1   1   4   11.66    0.49
   1   1   4   11.70    0.46
   1   1   4   11.88    0.49
  -2  -1  -4    5.11    0.27
  -2  -1  -4    4.52    0.28
  -2  -1  -4    4.67    0.27
  -2  -1  -4    4.60    0.31
  -2  -1  -4    4.78    0.31
   2   1   4    4.27    0.28
   2   1   4    5.02    0.30
   2   1   4    4.57    0.24
   2   1   4    4.04    0.22
   2   1   4    4.54    0.29
   2   1   4    4.46    0.32
  -3  -1  -4    5.63    0.36
  -3  -1  -4    5.57    0.33
  -3  -1  -4    5.04    0.33
  -3  -1  -4    5.39    0.37
  -3  -1  -4    5.18    0.39
   3   1   4    4.70    0.31
   3   1   4    5.43    0.29
   3   1   4    5.10    0.37
   3   1   4    5.65    0.26
   3   1   4    5.14    0.42
   3   1   4    6.02    0.37
   3   1   4    5.86    0.37
  -4  -1  -4    3.27    0.38
  -4  -1  -4    2.96    0.31
  -4  -1  -4    2.94    0.30
  -4  -1  -4    2.93    0.33
  -4  -1  -4    3.10    0.22
   4   1   4    2.92    0.36
   4   1   4    2.80    0.21
   4   1   4    3.21    0.25
   4   1   4    3.09    0.25
   4   1   4    3.45    0.41
   4   1   4    2.55    0.32
  -5  -1  -4   71.77    2.58
  -5  -1  -4   73.38    2.48
  -5  -1  -4   69.05    2.46
  -5  -1  -4   70.97    2.54
  -5  -1  -4   71.91    2.53
   5   1   4   64.11    2.36
   5   1   4   69.65    2.56
   5   1   4   74.39    2.55
   5   1   4   71.35    2.33
  -6  -1  -4    4.88    0.57
  -6  -1  -4    5.03    0.59
  -6  -1  -4    4.13    0.54
  -6  -1  -4    5.09    0.61
   6   1   4    4.96    0.63
   6   1   4    4.85    0.31
   6   1   4    5.08    0.57
  -7  -1  -4    1.74    0.43
  -7  -1  -4    2.09    0.45
  -7  -1  -4    2.89    0.48
   7   1   4    2.53    0.47
   7   1   4    2.01    0.49
   7   1   4    2.13    0.26
  -8  -1  -4    4.77    0.70
  -8  -1  -4    6.23    0.79
  -8  -1  -4    6.66    0.89
   8   1   4    7.19    0.92
  10  -2  -4    1.48    0.52
  10  -2  -4    2.56    0.46
  10  -2  -4    1.93    0.52
 -10   2   4    2.61    0.53
 -10   2   4    2.56    0.56
 -10   2   4    3.23    0.59
   9  -2  -4   -0.09    0.35
   9  -2  -4    0.70    0.40
   9  -2  -4    0.29    0.29
   9  -2  -4    0.55    0.31
  -9   2   4    0.87    0.35
  -9   2   4    0.72    0.39
  -9   2   4    0.56    0.38
   8  -2  -4    0.75    0.17
   8  -2  -4    0.73    0.25
   8  -2  -4    0.29    0.28
   8  -2  -4    0.56    0.31
  -8   2   4    0.45    0.30
  -8   2   4    0.27    0.26
  -8   2   4    0.43    0.51
   7  -2  -4    9.75    0.61
   7  -2  -4    9.99    0.60
   7  -2  -4   10.25    0.45
  -7   2   4   10.61    0.66
  -7   2   4   10.04    0.63
  -7   2   4    9.99    0.70
  -7   2   4    8.96    0.66
   6  -2  -4    4.48    0.34
   6  -2  -4    5.14    0.38
   6  -2  -4    5.45    0.40
   6  -2  -4    5.39    0.50
   6  -2  -4    4.67    0.27
  -6   2   4    5.24    0.41
  -6   2   4    4.61    0.42
  -6   2   4    4.67    0.48
  -6   2   4    3.98    0.47
   5  -2  -4   24.62    0.94
   5  -2  -4   23.14    0.97
   5  -2  -4   24.12    1.00
   5  -2  -4   23.73    0.91
   5  -2  -4   22.55    0.99
   5  -2  -4   23.09    0.84
   5  -2  -4   23.93    0.93
  -5   2   4   25.25    0.99
  -5   2   4   22.32    0.94
  -5   2   4   24.61    0.92
  -5   2   4   23.20    0.97
  -5   2   4   24.59    0.97
  -5   2   4   24.22    0.95
   4  -2  -4    1.77    0.24
   4  -2  -4    1.86    0.20
   4  -2  -4    1.93    0.18
   4  -2  -4    1.71    0.19
   4  -2  -4    1.85    0.25
   4  -2  -4    1.51    0.23
   4  -2  -4    1.79    0.14
  -4   2   4    1.77    0.24
  -4   2   4    1.98    0.23
  -4   2   4    1.97    0.19
  -4   2   4    1.42    0.18
  -4   2   4    1.35    0.19
  -4   2   4    1.71    0.22
  -4   2   4    1.44    0.19
   3  -2  -4    5.78    0.35
   3  -2  -4    5.78    0.28
   3  -2  -4    5.41    0.25
   3  -2  -4    5.75    0.31
   3  -2  -4    6.36    0.34
   3  -2  -4    5.78    0.30
   3  -2  -4    5.80    0.28
   3  -2  -4    5.88    0.29
   3  -2  -4    5.82    0.29
  -3   2   4    5.48    0.33
  -3   2   4    5.61    0.28
  -3   2   4    5.18    0.29
  -3   2   4    5.37    0.28
  -3   2   4    6.06    0.32
  -3   2   4    5.19    0.30
  -3   2   4    5.76    0.31
   2  -2  -4   14.70    0.56
   2  -2  -4   14.50    0.57
   2  -2  -4   14.59    0.55
   2  -2  -4   14.67    0.62
   2  -2  -4   14.66    0.57
  -2   2   4   14.53    0.62
  -2   2   4   14.11    0.55
  -2   2   4   15.28    0.58
  -2   2   4   15.48    0.56
  -2   2   4   14.87    0.57
  -2   2   4   15.63    0.58
  -2   2   4   15.09    0.51
  -2   2   4   14.96    0.57
   1  -2  -4    1.50    0.10
   1  -2  -4    1.26    0.15
   1  -2  -4    1.37    0.13
   1  -2  -4    1.36    0.12
   1  -2  -4    0.99    0.15
   1  -2  -4    1.29    0.14
  -1   2   4    1.26    0.13
  -1   2   4    1.34    0.13
  -1   2   4    1.35    0.17
  -1   2   4    1.32    0.15
  -1   2   4    1.33    0.14
  -1   2   4    1.35    0.12
  -1   2   4    1.47    0.13
   0  -2  -4   15.37    0.64
   0  -2  -4   14.44    0.58
   0  -2  -4   14.15    0.60
   0  -2  -4   15.51    0.58
   0  -2  -4   14.85    0.61
   0  -2  -4   15.50    0.57
   0   2   4   14.95    0.58
   0   2   4   15.39    0.59
   0   2   4   14.94    0.59
   0   2   4   15.22    0.56
   0   2   4   15.92    0.65
   0   2   4   15.11    0.51
  -1  -2  -4   77.19    2.59
  -1  -2  -4   77.53    2.63
  -1  -2  -4   76.26    2.63
  -1  -2  -4   77.07    2.57
  -1  -2  -4   76.80    2.59
  -1  -2  -4   79.10    2.64
   1   2   4   80.84    2.64
   1   2   4   78.94    2.56
   1   2   4   77.92    2.60
   1   2   4   77.68    2.60
   1   2   4   78.20    2.59
  -2  -2  -4    0.70    0.16
  -2  -2  -4    0.75    0.14
  -2  -2  -4    1.08    0.22
  -2  -2  -4    0.84    0.21
  -2  -2  -4    0.81    0.15
  -2  -2  -4    0.96    0.20
   2   2   4    1.03    0.14
   2   2   4    0.78    0.17
   2   2   4    0.69    0.17
   2   2   4    0.68    0.12
   2   2   4    0.89    0.18
   2   2   4    0.70    0.16
  -3  -2  -4    1.64    0.19
  -3  -2  -4    2.13    0.28
  -3  -2  -4    1.17    0.22
  -3  -2  -4    1.81    0.24
  -3  -2  -4    2.39    0.27
  -3  -2  -4    1.88    0.23
   3   2   4    2.65    0.31
   3   2   4    1.41    0.24
   3   2   4    1.74    0.21
   3   2   4    2.21    0.29
   3   2   4    2.04    0.28
   3   2   4    1.54    0.21
  -4  -2  -4   11.42    0.65
  -4  -2  -4   12.70    0.67
  -4  -2  -4   10.99    0.51
  -4  -2  -4   12.28    0.62
  -4  -2  -4   11.07    0.69
  -4  -2  -4   11.81    0.61
   4   2   4   11.07    0.68
   4   2   4   11.25    0.65
   4   2   4   12.02    0.69
   4   2   4   12.75    0.52
   4   2   4   11.47    0.56
  -5  -2  -4    4.24    0.56
  -5  -2  -4    3.84    0.50
  -5  -2  -4    3.21    0.40
  -5  -2  -4    4.48    0.30
   5   2   4    4.29    0.32
   5   2   4    4.42    0.49
   5   2   4    4.43    0.54
  -6  -2  -4   10.06    0.80
  -6  -2  -4    9.23    0.73
   6   2   4    8.28    0.48
   6   2   4    7.76    0.83
   6   2   4    9.31    0.83
  -7  -2  -4    1.72    0.51
  -7  -2  -4    1.69    0.47
  -7  -2  -4    0.76    0.42
   7   2   4    2.29    0.77
   7   2   4    1.95    0.49
  -8  -2  -4    8.92    1.04
  -8  -2  -4   10.47    1.02
  -8  -2  -4    7.85    1.07
   8   2   4   10.70    1.06
  10  -3  -4    1.90    0.50
  10  -3  -4    1.78    0.51
  10  -3  -4    1.24    0.42
 -10   3   4    1.29    0.51
 -10   3   4    0.72    0.39
 -10   3   4    1.66    0.47
   9  -3  -4    1.29    0.41
   9  -3  -4    1.26    0.40
   9  -3  -4    1.01    0.32
   9  -3  -4    1.96    0.39
  -9   3   4    0.64    0.31
  -9   3   4    0.83    0.39
  -9   3   4    0.69    0.36
   8  -3  -4    4.22    0.31
   8  -3  -4    4.02    0.49
   8  -3  -4    3.90    0.44
   8  -3  -4    4.05    0.28
   8  -3  -4    4.28    0.45
   8  -3  -4    3.70    0.43
  -8   3   4    3.78    0.42
  -8   3   4    4.68    0.55
  -8   3   4    4.40    0.59
   7  -3  -4    1.64    0.30
   7  -3  -4    1.37    0.30
   7  -3  -4    2.35    0.45
   7  -3  -4    1.58    0.17
   7  -3  -4    1.44    0.18
   7  -3  -4    2.11    0.31
  -7   3   4    1.28    0.24
  -7   3   4    1.70    0.37
  -7   3   4    1.60    0.33
  -7   3   4    1.34    0.29
   6  -3  -4    0.72    0.20
   6  -3  -4    0.78    0.38
   6  -3  -4    1.01    0.19
   6  -3  -4    1.21    0.21
   6  -3  -4    1.21    0.15
   6  -3  -4    1.51    0.23
  -6   3   4    1.12    0.25
  -6   3   4    1.07    0.18
  -6   3   4    0.51    0.26
  -6   3   4    1.16    0.22
  -6   3   4    1.12    0.26
   5  -3  -4   11.51    0.53
   5  -3  -4   11.39    0.52
   5  -3  -4   10.84    0.60
   5  -3  -4    9.48    0.58
   5  -3  -4   10.49    0.43
   5  -3  -4   11.72    0.52
   5  -3  -4   11.28    0.53
   5  -3  -4   10.40    0.64
  -5   3   4   10.12    0.58
  -5   3   4   11.07    0.54
  -5   3   4   10.77    0.48
  -5   3   4   11.10    0.58
  -5   3   4   11.14    0.57
  -5   3   4   10.04    0.49
  -5   3   4   11.41    0.58
   4  -3  -4    1.67    0.18
   4  -3  -4    1.87    0.15
   4  -3  -4    1.95    0.20
   4  -3  -4    1.71    0.20
   4  -3  -4    1.88    0.25
   4  -3  -4    1.63    0.20
   4  -3  -4    1.74    0.19
   4  -3  -4    2.05    0.25
   4  -3  -4    2.00    0.19
  -4   3   4    1.96    0.19
  -4   3   4    2.05    0.23
  -4   3   4    1.74    0.17
  -4   3   4    1.69    0.20
  -4   3   4    2.01    0.24
  -4   3   4    2.18    0.25
  -4   3   4    1.93    0.25
   3  -3  -4   13.95    0.56
   3  -3  -4   13.33    0.58
   3  -3  -4   13.50    0.51
   3  -3  -4   13.24    0.53
   3  -3  -4   12.96    0.55
   3  -3  -4   12.99    0.56
   3  -3  -4   13.33    0.55
   3  -3  -4   13.41    0.63
  -3   3   4   14.87    0.53
  -3   3   4   13.74    0.57
  -3   3   4   13.24    0.61
  -3   3   4   13.65    0.54
  -3   3   4   13.09    0.55
  -3   3   4   14.40    0.57
  -3   3   4   13.51    0.57
   2  -3  -4   24.08    0.88
   2  -3  -4   24.74    0.96
   2  -3  -4   24.93    0.90
   2  -3  -4   24.59    0.87
   2  -3  -4   24.86    0.89
   2  -3  -4   24.02    0.90
   2  -3  -4   24.81    0.91
  -2   3   4   25.36    0.87
  -2   3   4   23.88    0.89
  -2   3   4   24.71    0.96
  -2   3   4   25.18    0.89
  -2   3   4   26.44    0.91
  -2   3   4   24.11    0.90
  -2   3   4   24.76    0.90
   1  -3  -4   90.93    3.00
   1  -3  -4   91.59    2.98
   1  -3  -4   95.29    2.98
   1  -3  -4   82.80    2.98
   1  -3  -4   91.47    2.96
   1  -3  -4   92.44    3.00
  -1   3   4   91.42    2.98
  -1   3   4   90.66    2.96
  -1   3   4   96.87    2.98
  -1   3   4   90.48    3.04
  -1   3   4   89.70    2.95
  -1   3   4   88.68    3.00
  -1   3   4   89.85    2.98
  -1   3   4   89.84    2.93
   0  -3  -4    9.21    0.40
   0  -3  -4    9.01    0.41
   0  -3  -4    8.50    0.46
   0  -3  -4    8.48    0.40
   0  -3  -4    8.45    0.44
   0  -3  -4    8.95    0.44
   0   3   4    8.74    0.41
   0   3   4    8.42    0.40
   0   3   4    8.36    0.46
   0   3   4    9.45    0.42
   0   3   4    9.57    0.44
   0   3   4    8.94    0.36
   0   3   4    8.56    0.38
  -1  -3  -4   13.51    0.62
  -1  -3  -4   14.59    0.61
  -1  -3  -4   14.22    0.65
  -1  -3  -4   14.33    0.59
  -1  -3  -4   14.09    0.66
  -1  -3  -4   15.49    0.67
   1   3   4   14.69    0.58
   1   3   4   14.20    0.62
   1   3   4   14.40    0.66
   1   3   4   14.05    0.56
   1   3   4   14.10    0.61
   1   3   4   14.48    0.63
  -2  -3  -4    0.02    0.18
  -2  -3  -4    0.29    0.21
  -2  -3  -4    0.14    0.12
  -2  -3  -4    0.05    0.16
  -2  -3  -4    0.20    0.12
  -2  -3  -4    0.38    0.16
  -2  -3  -4    0.23    0.12
   2   3   4    0.23    0.15
   2   3   4    0.20    0.12
   2   3   4    0.25    0.13
   2   3   4    0.11    0.14
   2   3   4    0.10    0.14
   2   3   4    0.22    0.18
  -3  -3  -4   11.43    0.68
  -3  -3  -4   10.87    0.60
  -3  -3  -4   10.87    0.57
  -3  -3  -4   11.54    0.53
  -3  -3  -4   11.46    0.60
  -3  -3  -4   11.11    0.64
  -3  -3  -4   10.80    0.66
   3   3   4   11.56    0.63
   3   3   4   12.55    0.68
   3   3   4   10.89    0.60
   3   3   4   10.47    0.53
  -4  -3  -4  125.57    4.34
  -4  -3  -4  129.49    4.30
  -4  -3  -4  131.47    4.39
  -4  -3  -4  124.22    4.29
  -4  -3  -4  129.92    4.19
   4   3   4  125.33    4.36
   4   3   4  123.82    4.18
   4   3   4  127.38    4.32
  -5  -3  -4    6.75    0.72
  -5  -3  -4    7.26    0.43
  -5  -3  -4    7.76    0.68
  -5  -3  -4    5.39    0.62
   5   3   4    7.21    0.47
   5   3   4    7.63    0.71
  -6  -3  -4    5.65    0.68
  -6  -3  -4    5.41    0.71
   6   3   4    5.11    0.68
   6   3   4    4.82    0.45
   6   3   4    3.94    0.56
  -7  -3  -4    1.85    0.58
  -7  -3  -4    2.15    0.60
  -7  -3  -4    2.71    0.56
   7   3   4    2.70    0.54
  10  -4  -4    0.69    0.49
  10  -4  -4    0.26    0.34
  10  -4  -4    0.72    0.49
 -10   4   4   -0.09    0.47
 -10   4   4    0.37    0.38
   9  -4  -4    4.77    0.54
   9  -4  -4    4.00    0.50
   9  -4  -4    4.47    0.59
  -9   4   4    4.33    0.61
  -9   4   4    4.52    0.52
  -9   4   4    5.24    0.63
   8  -4  -4    0.69    0.14
   8  -4  -4    0.78    0.26
   8  -4  -4    0.71    0.29
   8  -4  -4    0.65    0.29
   8  -4  -4    0.87    0.28
  -8   4   4    0.56    0.33
  -8   4   4    1.00    0.24
  -8   4   4    0.55    0.29
   7  -4  -4    1.46    0.27
   7  -4  -4    1.58    0.30
   7  -4  -4    1.68    0.29
   7  -4  -4    1.59    0.26
   7  -4  -4    1.57    0.18
  -7   4   4    1.15    0.32
  -7   4   4    2.07    0.38
  -7   4   4    1.37    0.26
  -7   4   4    1.30    0.23
   6  -4  -4    1.59    0.24
   6  -4  -4    1.52    0.23
   6  -4  -4    0.93    0.20
   6  -4  -4    1.38    0.17
   6  -4  -4    1.07    0.21
  -6   4   4    1.81    0.31
  -6   4   4    1.51    0.22
  -6   4   4    1.60    0.32
  -6   4   4    1.86    0.31
   5  -4  -4    1.35    0.21
   5  -4  -4    1.20    0.16
   5  -4  -4    1.66    0.22
   5  -4  -4    1.87    0.24
   5  -4  -4    1.15    0.19
   5  -4  -4    1.25    0.24
  -5   4   4    1.35    0.16
  -5   4   4    0.80    0.15
  -5   4   4    1.73    0.22
  -5   4   4    1.29    0.24
  -5   4   4    1.66    0.26
  -5   4   4    1.43    0.24
   4  -4  -4    0.17    0.09
   4  -4  -4    0.19    0.10
   4  -4  -4    0.24    0.15
   4  -4  -4    0.13    0.11
   4  -4  -4    0.49    0.20
   4  -4  -4    0.05    0.22
   4  -4  -4    0.14    0.11
   4  -4  -4    0.31    0.17
  -4   4   4    0.25    0.14
  -4   4   4    0.15    0.10
  -4   4   4    0.26    0.09
  -4   4   4    0.20    0.15
  -4   4   4    0.20    0.13
  -4   4   4    0.13    0.14
  -4   4   4    0.20    0.10
   3  -4  -4    6.92    0.37
   3  -4  -4    7.37    0.38
   3  -4  -4    6.70    0.47
   3  -4  -4    7.17    0.35
   3  -4  -4    7.22    0.34
   3  -4  -4    7.68    0.38
   3  -4  -4    6.65    0.39
  -3   4   4    7.49    0.38
  -3   4   4    7.21    0.37
  -3   4   4    7.09    0.38
  -3   4   4    6.95    0.32
  -3   4   4    6.79    0.35
  -3   4   4    7.44    0.37
  -3   4   4    7.20    0.43
   2  -4  -4   50.79    1.77
   2  -4  -4   50.34    1.70
   2  -4  -4   49.87    1.68
   2  -4  -4   50.43    1.67
   2  -4  -4   46.87    1.66
   2  -4  -4   49.02    1.69
   2  -4  -4   48.90    1.71
  -2   4   4   47.70    1.68
  -2   4   4   49.63    1.69
  -2   4   4   48.07    1.65
  -2   4   4   48.77    1.70
  -2   4   4   49.58    1.66
  -2   4   4   48.59    1.68
  -2   4   4   50.42    1.76
   1  -4  -4    5.60    0.29
   1  -4  -4    5.56    0.34
   1  -4  -4    5.53    0.32
   1  -4  -4    5.27    0.30
   1  -4  -4    5.50    0.38
   1  -4  -4    5.53    0.34
   1  -4  -4    5.62    0.31
  -1   4   4    5.18    0.31
  -1   4   4    5.58    0.31
  -1   4   4    5.87    0.32
  -1   4   4    5.30    0.27
  -1   4   4    5.46    0.37
  -1   4   4    5.30    0.33
  -1   4   4    5.33    0.29
  -1   4   4    5.28    0.30
   0  -4  -4   13.83    0.59
   0  -4  -4   13.72    0.60
   0  -4  -4   13.80    0.65
   0  -4  -4   14.49    0.67
   0  -4  -4   14.80    0.64
   0  -4  -4   14.61    0.66
   0   4   4   14.18    0.60
   0   4   4   14.27    0.62
   0   4   4   14.62    0.62
   0   4   4   15.04    0.66
   0   4   4   14.85    0.59
   0   4   4   14.47    0.68
   0   4   4   14.17    0.56
  -1  -4  -4    9.48    0.50
  -1  -4  -4    9.62    0.50
  -1  -4  -4    8.69    0.45
  -1  -4  -4    8.50    0.53
  -1  -4  -4    9.13    0.55
  -1  -4  -4    8.78    0.47
  -1  -4  -4    9.54    0.54
   1   4   4    9.13    0.44
   1   4   4    9.53    0.49
   1   4   4    9.52    0.53
   1   4   4    9.36    0.49
   1   4   4    8.93    0.45
  -2  -4  -4    9.67    0.60
  -2  -4  -4   10.09    0.52
  -2  -4  -4   10.25    0.61
  -2  -4  -4   10.44    0.63
  -2  -4  -4    9.69    0.54
  -2  -4  -4    9.84    0.56
  -2  -4  -4    9.41    0.52
   2   4   4    9.47    0.56
   2   4   4    9.61    0.55
   2   4   4    9.28    0.51
   2   4   4    9.72    0.57
   2   4   4   10.06    0.61
  -3  -4  -4    2.20    0.41
  -3  -4  -4    2.31    0.34
  -3  -4  -4    2.39    0.36
  -3  -4  -4    2.13    0.27
  -3  -4  -4    2.29    0.32
   3   4   4    2.30    0.39
   3   4   4    2.87    0.34
   3   4   4    2.18    0.34
   3   4   4    2.09    0.33
  -4  -4  -4    9.20    0.54
  -4  -4  -4    8.71    0.70
  -4  -4  -4    9.25    0.76
  -4  -4  -4    7.74    0.64
   4   4   4    8.87    0.55
   4   4   4    8.65    0.72
  -5  -4  -4    0.91    0.38
  -5  -4  -4    1.15    0.27
  -5  -4  -4    0.61    0.44
   5   4   4    1.95    0.42
   5   4   4    1.33    0.42
   5   4   4    1.63    0.30
  -6  -4  -4    0.44    0.49
  -6  -4  -4    0.23    0.46
   6   4   4   -0.53    0.47
   6   4   4    0.02    0.40
   6   4   4    0.52    0.31
  -7  -4  -4   24.37    1.44
  -7  -4  -4   25.01    1.48
  -7  -4  -4   27.74    1.66
   7   4   4   25.07    1.44
   9  -5  -4   -0.21    0.35
   9  -5  -4   -0.46    0.36
  -9   5   4    0.24    0.30
  -9   5   4   -0.20    0.28
  -9   5   4   -0.53    0.42
   8  -5  -4   -0.32    0.39
   8  -5  -4    0.27    0.29
   8  -5  -4    0.08    0.28
  -8   5   4   -0.38    0.33
  -8   5   4    0.19    0.23
   7  -5  -4    1.92    0.31
   7  -5  -4    1.77    0.23
   7  -5  -4    1.93    0.29
   7  -5  -4    2.59    0.34
  -7   5   4    2.06    0.38
  -7   5   4    1.68    0.36
  -7   5   4    2.21    0.33
  -7   5   4    2.20    0.28
   6  -5  -4    4.13    0.38
   6  -5  -4    3.81    0.39
   6  -5  -4    4.26    0.37
   6  -5  -4    3.87    0.38
   6  -5  -4    4.21    0.27
  -6   5   4    3.64    0.41
  -6   5   4    4.22    0.47
  -6   5   4    3.46    0.44
  -6   5   4    4.28    0.60
  -6   5   4    3.80    0.36
  -6   5   4    3.66    0.30
   5  -5  -4    3.44    0.31
   5  -5  -4    3.15    0.30
   5  -5  -4    3.35    0.37
   5  -5  -4    2.61    0.24
   5  -5  -4    3.24    0.30
  -5   5   4    3.23    0.29
  -5   5   4    2.97    0.34
  -5   5   4    2.51    0.23
  -5   5   4    3.11    0.36
  -5   5   4    2.93    0.26
  -5   5   4    3.09    0.40
   4  -5  -4    0.37    0.23
   4  -5  -4    0.18    0.15
   4  -5  -4    0.16    0.12
   4  -5  -4    0.19    0.14
   4  -5  -4    0.15    0.13
   4  -5  -4    0.31    0.19
  -4   5   4    0.46    0.10
  -4   5   4    0.34    0.17
  -4   5   4    0.26    0.17
  -4   5   4    0.21    0.14
  -4   5   4    0.22    0.12
  -4   5   4    0.04    0.10
   3  -5  -4    8.31    0.45
   3  -5  -4    9.29    0.45
   3  -5  -4    7.23    0.55
   3  -5  -4    9.28    0.45
   3  -5  -4    8.73    0.42
   3  -5  -4    7.68    0.43
   3  -5  -4    7.98    0.41
  -3   5   4    8.72    0.45
  -3   5   4    8.76    0.41
  -3   5   4    7.74    0.37
  -3   5   4    7.92    0.35
  -3   5   4    8.24    0.43
  -3   5   4    7.88    0.42
  -3   5   4    8.16    0.49
  -3   5   4    7.60    0.44
  -3   5   4    8.59    0.43
   2  -5  -4   12.75    0.59
   2  -5  -4   13.33    0.60
   2  -5  -4   12.75    0.56
   2  -5  -4   13.47    0.56
   2  -5  -4   11.48    0.53
   2  -5  -4   12.35    0.66
   2  -5  -4   12.99    0.58
  -2   5   4   12.24    0.54
  -2   5   4   12.64    0.56
  -2   5   4   12.24    0.54
  -2   5   4   12.54    0.52
  -2   5   4   12.20    0.56
  -2   5   4   12.07    0.55
  -2   5   4   12.34    0.57
  -2   5   4   12.61    0.63
   1  -5  -4    8.46    0.52
   1  -5  -4    7.50    0.43
   1  -5  -4    9.03    0.48
   1  -5  -4    8.12    0.42
   1  -5  -4    8.57    0.49
   1  -5  -4    8.92    0.49
  -1   5   4    9.14    0.45
  -1   5   4    8.66    0.41
  -1   5   4    9.02    0.51
  -1   5   4    8.54    0.48
  -1   5   4    8.83    0.42
  -1   5   4    8.66    0.43
  -1   5   4    9.49    0.45
   0  -5  -4    3.29    0.38
   0  -5  -4    2.55    0.32
   0  -5  -4    3.08    0.28
   0  -5  -4    3.42    0.33
   0  -5  -4    3.27    0.32
   0  -5  -4    3.62    0.37
   0  -5  -4    3.28    0.40
   0   5   4    2.76    0.34
   0   5   4    3.05    0.27
   0   5   4    4.56    0.42
   0   5   4    2.96    0.28
   0   5   4    2.75    0.34
   0   5   4    3.00    0.30
   0   5   4    3.14    0.32
  -1  -5  -4    8.96    0.56
  -1  -5  -4    8.62    0.50
  -1  -5  -4    7.34    0.54
  -1  -5  -4    8.48    0.58
  -1  -5  -4    6.86    0.46
  -1  -5  -4    8.55    0.52
   1   5   4    7.54    0.45
   1   5   4    8.56    0.51
   1   5   4    7.48    0.49
   1   5   4    8.04    0.48
   1   5   4    8.27    0.55
  -2  -5  -4   33.45    1.37
  -2  -5  -4   33.88    1.45
  -2  -5  -4   33.41    1.31
  -2  -5  -4   29.75    1.29
  -2  -5  -4   33.27    1.38
  -2  -5  -4   34.94    1.43
   2   5   4   32.02    1.27
   2   5   4   34.57    1.36
   2   5   4   33.86    1.30
   2   5   4   35.56    1.41
   2   5   4   31.79    1.30
  -3  -5  -4   28.52    1.18
  -3  -5  -4   29.23    1.27
  -3  -5  -4   30.66    1.33
  -3  -5  -4   29.50    1.35
   3   5   4   28.31    1.25
   3   5   4   31.23    1.35
   3   5   4   25.02    1.21
   3   5   4   27.12    1.14
   3   5   4   28.58    1.17
  -4  -5  -4    2.76    0.36
  -4  -5  -4    2.15    0.48
  -4  -5  -4    1.82    0.46
   4   5   4    1.75    0.45
   4   5   4    2.82    0.38
   4   5   4    2.41    0.41
  -5  -5  -4    0.45    0.29
  -5  -5  -4    0.19    0.44
  -5  -5  -4    0.24    0.45
   5   5   4    0.11    0.33
   5   5   4   -0.34    0.58
   5   5   4   -0.16    0.37
  -6  -5  -4    0.16    0.57
  -6  -5  -4    0.24    0.56
   6   5   4   -0.22    0.63
   6   5   4    0.44    0.50
   9  -6  -4    3.72    0.54
   9  -6  -4    2.96    0.51
   9  -6  -4    3.24    0.51
  -9   6   4    2.41    0.56
  -9   6   4    3.24    0.40
  -9   6   4    2.68    0.41
   8  -6  -4    1.31    0.42
   8  -6  -4    0.69    0.31
  -8   6   4    0.71    0.28
  -8   6   4    0.86    0.25
  -8   6   4    0.76    0.41
   7  -6  -4    1.04    0.26
   7  -6  -4    1.44    0.32
   7  -6  -4    1.14    0.27
   7  -6  -4    1.34    0.21
   7  -6  -4    1.22    0.28
  -7   6   4    0.75    0.22
  -7   6   4    0.72    0.34
  -7   6   4    0.88    0.25
   6  -6  -4    0.18    0.17
   6  -6  -4    0.06    0.22
   6  -6  -4   -0.05    0.20
   6  -6  -4    0.02    0.25
   6  -6  -4    0.05    0.18
  -6   6   4    0.28    0.25
  -6   6   4   -0.12    0.14
  -6   6   4   -0.20    0.28
  -6   6   4    0.03    0.15
  -6   6   4   -0.11    0.24
  -6   6   4    0.14    0.15
   5  -6  -4    0.15    0.18
   5  -6  -4    0.11    0.23
   5  -6  -4    0.00    0.15
   5  -6  -4    0.32    0.18
   5  -6  -4    0.17    0.16
  -5   6   4    0.31    0.23
  -5   6   4    0.44    0.16
  -5   6   4    0.43    0.21
  -5   6   4    0.29    0.12
  -5   6   4    0.44    0.32
   4  -6  -4    4.23    0.34
   4  -6  -4    3.93    0.34
   4  -6  -4    4.04    0.36
   4  -6  -4    4.44    0.36
   4  -6  -4    4.33    0.52
  -4   6   4    4.26    0.36
  -4   6   4    4.06    0.30
  -4   6   4    3.58    0.37
  -4   6   4    4.40    0.44
  -4   6   4    3.80    0.38
  -4   6   4    3.93    0.33
  -4   6   4    3.58    0.26
   3  -6  -4   37.76    1.37
   3  -6  -4   37.32    1.38
   3  -6  -4   37.13    1.37
   3  -6  -4   37.09    1.38
  -3   6   4   35.36    1.28
  -3   6   4   38.84    1.44
  -3   6   4   37.37    1.37
  -3   6   4   34.54    1.35
  -3   6   4   37.03    1.30
  -3   6   4   37.29    1.34
  -3   6   4   37.62    1.35
  -3   6   4   34.90    1.33
   2  -6  -4   38.97    1.44
   2  -6  -4   39.74    1.42
   2  -6  -4   40.32    1.50
   2  -6  -4   40.15    1.46
   2  -6  -4   38.03    1.45
  -2   6   4   36.32    1.37
  -2   6   4   37.34    1.38
  -2   6   4   39.42    1.44
  -2   6   4   36.57    1.35
  -2   6   4   38.27    1.40
  -2   6   4   36.49    1.39
  -2   6   4   39.07    1.48
   1  -6  -4    0.13    0.20
   1  -6  -4    0.20    0.17
   1  -6  -4    0.26    0.19
   1  -6  -4    0.33    0.21
  -1   6   4    0.58    0.19
  -1   6   4    0.22    0.16
  -1   6   4    0.61    0.19
  -1   6   4    0.18    0.20
  -1   6   4    0.44    0.16
  -1   6   4    0.56    0.18
   0  -6  -4    3.39    0.41
   0  -6  -4    3.90    0.45
   0  -6  -4    3.75    0.40
   0  -6  -4    3.31    0.43
   0   6   4    3.97    0.39
   0   6   4    3.77    0.42
   0   6   4    3.78    0.38
   0   6   4    3.64    0.33
   0   6   4    4.03    0.42
   0   6   4    3.76    0.36
  -1  -6  -4    6.31    0.77
  -1  -6  -4    6.77    0.52
  -1  -6  -4    6.52    0.62
  -1  -6  -4    7.69    0.63
   1   6   4    6.82    0.57
   1   6   4    6.98    0.63
   1   6   4    7.05    0.50
   1   6   4    6.78    0.48
  -2  -6  -4    1.15    0.40
  -2  -6  -4    0.91    0.31
  -2  -6  -4    0.53    0.36
  -2  -6  -4    0.94    0.27
   2   6   4    0.44    0.26
   2   6   4    0.89    0.31
   2   6   4    0.62    0.30
   2   6   4    0.93    0.33
   2   6   4    1.52    0.31
  -3  -6  -4    3.05    0.42
  -3  -6  -4    3.97    0.55
  -3  -6  -4    2.47    0.46
   3   6   4    2.17    0.49
   3   6   4    3.31    0.42
   3   6   4    2.94    0.46
  -4  -6  -4    4.30    0.63
  -4  -6  -4    3.90    0.47
  -4  -6  -4    4.37    0.72
   4   6   4    4.00    0.57
   4   6   4    3.77    0.54
   4   6   4    3.63    0.57
  -5  -6  -4    0.72    0.65
  -5  -6  -4    0.92    0.55
   5   6   4    2.02    0.61
   5   6   4    0.88    0.52
   5   6   4    1.74    0.43
   9  -7  -4    2.92    0.57
   9  -7  -4    2.85    0.55
   9  -7  -4    3.02    0.50
  -9   7   4    3.32    0.65
  -9   7   4    2.01    0.40
  -9   7   4    1.65    0.36
   8  -7  -4    4.79    0.56
   8  -7  -4    4.87    0.64
   8  -7  -4    4.92    0.65
  -8   7   4    4.62    0.59
  -8   7   4    4.52    0.47
  -8   7   4    4.30    0.52
   7  -7  -4    4.47    0.56
   7  -7  -4    4.31    0.55
   7  -7  -4    3.24    0.42
   7  -7  -4    2.79    0.45
  -7   7   4    2.59    0.33
  -7   7   4    3.39    0.40
  -7   7   4    2.62    0.47
   6  -7  -4    1.26    0.30
   6  -7  -4    1.66    0.27
   6  -7  -4    0.96    0.32
   6  -7  -4    0.86    0.26
   6  -7  -4    1.04    0.29
   6  -7  -4    0.88    0.35
  -6   7   4    0.86    0.31
  -6   7   4    1.12    0.37
  -6   7   4    0.79    0.23
  -6   7   4    0.90    0.21
   5  -7  -4    1.44    0.27
   5  -7  -4    1.82    0.29
   5  -7  -4    1.03    0.30
   5  -7  -4    1.23    0.26
   5  -7  -4    1.26    0.27
   5  -7  -4    1.18    0.35
  -5   7   4    1.08    0.16
  -5   7   4    1.15    0.22
  -5   7   4    1.35    0.25
  -5   7   4    1.36    0.27
  -5   7   4    1.36    0.30
  -5   7   4    1.10    0.31
   4  -7  -4    3.26    0.44
   4  -7  -4    3.97    0.43
   4  -7  -4    3.69    0.44
   4  -7  -4    3.89    0.52
   4  -7  -4    3.71    0.39
   4  -7  -4    3.82    0.40
  -4   7   4    3.26    0.33
  -4   7   4    3.29    0.28
  -4   7   4    4.06    0.43
  -4   7   4    3.57    0.36
  -4   7   4    3.68    0.71
   3  -7  -4    0.72    0.35
   3  -7  -4    0.60    0.21
   3  -7  -4    0.80    0.24
   3  -7  -4    0.52    0.35
   3  -7  -4    0.57    0.24
   3  -7  -4    0.69    0.24
  -3   7   4    0.28    0.22
  -3   7   4    0.76    0.21
  -3   7   4    0.52    0.23
  -3   7   4    0.90    0.21
  -3   7   4    0.57    0.19
  -3   7   4    0.52    0.25
   2  -7  -4    1.51    0.30
   2  -7  -4    2.15    0.34
   2  -7  -4    1.50    0.28
  -2   7   4    1.35    0.26
  -2   7   4    1.95    0.28
  -2   7   4    1.70    0.43
  -2   7   4    1.64    0.25
  -2   7   4    1.72    0.30
  -2   7   4    1.60    0.27
   1  -7  -4    2.45    0.36
   1  -7  -4    2.42    0.44
   1  -7  -4    3.28    0.40
   1  -7  -4    2.75    0.37
  -1   7   4    2.57    0.32
  -1   7   4    3.27    0.41
  -1   7   4    2.89    0.36
  -1   7   4    2.65    0.33
  -1   7   4    2.44    0.31
  -1   7   4    2.15    0.31
   0  -7  -4    1.18    0.33
   0  -7  -4    0.56    0.34
   0  -7  -4    0.71    0.34
   0  -7  -4    1.45    0.33
   0   7   4    0.89    0.21
   0   7   4    1.19    0.33
   0   7   4    1.27    0.28
   0   7   4    1.63    0.36
  -1  -7  -4    8.91    0.75
  -1  -7  -4    9.74    0.80
  -1  -7  -4    8.80    0.70
  -1  -7  -4    8.55    0.67
   1   7   4    7.81    0.75
   1   7   4    8.06    0.58
   1   7   4    8.17    0.64
  -2  -7  -4    2.39    0.56
  -2  -7  -4    3.49    0.45
  -2  -7  -4    4.05    0.58
   2   7   4    2.51    0.42
   2   7   4    2.92    0.42
   2   7   4    3.48    0.55
  -3  -7  -4    6.16    0.67
  -3  -7  -4    7.43    0.81
  -3  -7  -4    5.50    0.70
   3   7   4    6.25    0.68
   3   7   4    4.99    0.68
   3   7   4    5.49    0.67
  -4  -7  -4    1.16    0.58
  -4  -7  -4    2.18    0.46
   4   7   4    1.52    0.56
   4   7   4    1.74    0.49
   4   7   4    2.11    0.49
   8  -8  -4    3.08    0.52
   8  -8  -4    3.72    0.51
   8  -8  -4    2.22    0.52
  -8   8   4    2.98    0.39
  -8   8   4    2.30    0.54
  -8   8   4    2.86    0.39
   7  -8  -4    0.11    0.32
   7  -8  -4    0.92    0.39
   7  -8  -4    0.50    0.36
   7  -8  -4    0.20    0.41
  -7   8   4    0.63    0.24
  -7   8   4    0.14    0.24
  -7   8   4    1.00    0.39
   6  -8  -4   -0.17    0.30
   6  -8  -4    0.44    0.40
   6  -8  -4    0.13    0.26
   6  -8  -4   -0.24    0.27
   6  -8  -4   -0.11    0.37
  -6   8   4    0.11    0.22
  -6   8   4    0.46    0.23
  -6   8   4   -0.24    0.32
   5  -8  -4    1.66    0.36
   5  -8  -4    1.06    0.32
   5  -8  -4    1.49    0.45
   5  -8  -4    1.35    0.30
   5  -8  -4    1.37    0.42
  -5   8   4    0.96    0.24
  -5   8   4    1.73    0.36
  -5   8   4    1.12    0.26
   4  -8  -4   15.73    0.91
   4  -8  -4   15.78    1.05
   4  -8  -4   15.00    0.81
   4  -8  -4   15.50    0.83
   4  -8  -4   14.51    0.83
  -4   8   4   14.96    0.72
  -4   8   4   15.40    0.87
  -4   8   4   14.36    0.79
  -4   8   4   15.30    0.77
   3  -8  -4    3.49    0.45
   3  -8  -4    5.48    0.76
   3  -8  -4    4.36    0.47
   3  -8  -4    4.37    0.56
   3  -8  -4    4.25    0.51
   3  -8  -4    4.35    0.53
  -3   8   4    4.39    0.53
  -3   8   4    4.02    0.41
  -3   8   4    4.40    0.49
  -3   8   4    4.41    0.46
  -3   8   4    3.72    0.44
   2  -8  -4    0.87    0.33
   2  -8  -4    1.33    0.37
   2  -8  -4    1.29    0.34
   2  -8  -4    1.47    0.36
  -2   8   4    1.10    0.28
  -2   8   4    2.00    0.34
  -2   8   4    0.93    0.54
  -2   8   4    0.89    0.29
   1  -8  -4    0.72    0.31
   1  -8  -4    0.86    0.36
   1  -8  -4    0.39    0.31
   1  -8  -4    0.93    0.36
  -1   8   4    0.19    0.27
  -1   8   4    0.49    0.29
  -1   8   4    0.83    0.32
   0  -8  -4    6.41    0.71
   0  -8  -4    5.37    0.62
   0  -8  -4    6.80    0.75
   0   8   4    6.76    0.58
   0   8   4    8.19    0.68
  -1  -8  -4    4.93    0.66
  -1  -8  -4    6.20    0.72
  -1  -8  -4    5.72    0.67
   1   8   4    7.30    0.73
   1   8   4    5.38    0.61
   1   8   4    5.61    0.65
  -2  -8  -4    5.39    0.70
  -2  -8  -4    4.34    0.64
   2   8   4    3.95    0.57
   2   8   4    2.68    0.48
   2   8   4    4.79    0.57
  -3  -8  -4    5.29    0.76
  -3  -8  -4    4.49    0.62
   3   8   4    4.63    0.59
   3   8   4    4.29    0.64
   3   8   4    3.54    0.66
   7  -9  -4    2.19    0.62
   7  -9  -4    2.21    0.54
   7  -9  -4    2.03    0.45
  -7   9   4    2.13    0.35
  -7   9   4    2.36    0.39
  -7   9   4    3.01    0.56
   6  -9  -4    1.99    0.40
   6  -9  -4    1.23    0.49
   6  -9  -4    1.88    0.45
   6  -9  -4    0.33    0.57
  -6   9   4    1.40    0.32
  -6   9   4    1.29    0.44
  -6   9   4    1.93    0.32
   5  -9  -4   11.82    0.83
   5  -9  -4   12.69    0.79
   5  -9  -4   11.59    1.07
   5  -9  -4   12.44    0.94
  -5   9   4   11.19    0.85
  -5   9   4   11.04    0.71
  -5   9   4   11.90    0.67
   4  -9  -4    1.73    0.38
   4  -9  -4    1.52    0.40
   4  -9  -4    2.21    0.46
   4  -9  -4    2.07    0.57
  -4   9   4    1.55    0.33
  -4   9   4    1.87    0.41
  -4   9   4    2.21    0.36
   3  -9  -4    0.06    0.35
   3  -9  -4    0.70    0.35
   3  -9  -4    0.41    0.38
   3  -9  -4    0.14    0.49
  -3   9   4    0.53    0.28
  -3   9   4   -0.31    0.30
  -3   9   4    0.48    0.30
   2  -9  -4    0.43    0.38
   2  -9  -4    1.02    0.43
  -2   9   4   -0.22    0.26
  -2   9   4    0.76    0.33
  -2   9   4    0.46    0.34
   1  -9  -4    0.85    0.55
   1  -9  -4    1.56    0.46
  -1   9   4    2.00    0.37
  -1   9   4    1.76    0.40
  -1   9   4    0.77    0.39
   0  -9  -4    3.88    0.59
   0  -9  -4    3.59    0.62
   0   9   4    3.10    0.49
   0   9   4    3.71    0.55
   0   9   4    3.54    0.52
  -1  -9  -4    2.14    0.63
  -1  -9  -4    1.36    0.47
   1   9   4    1.73    0.50
   1   9   4    1.97    0.47
   1   9   4    1.26    0.43
  -2  -9  -4    1.82    0.67
  -2  -9  -4    2.89    0.57
   2   9   4    1.70    0.51
   2   9   4    1.78    0.52
   2   9   4    1.95    0.61
   6 -10  -4    1.68    0.47
   6 -10  -4    1.35    0.62
   6 -10  -4    0.75    0.56
  -6  10   4    2.08    0.53
  -6  10   4    1.92    0.39
  -6  10   4    0.82    0.37
   5 -10  -4   14.96    1.12
   5 -10  -4   11.99    0.94
   5 -10  -4   10.68    1.26
  -5  10   4   14.50    1.00
  -5  10   4   13.35    0.80
  -5  10   4   13.24    0.85
   4 -10  -4    1.40    0.66
   4 -10  -4    2.59    0.62
   4 -10  -4    1.74    0.42
   4 -10  -4    2.03    0.58
  -4  10   4    2.07    0.44
  -4  10   4    1.72    0.39
  -4  10   4    2.05    0.47
   3 -10  -4    2.82    0.71
   3 -10  -4    0.75    0.86
   3 -10  -4    1.35    0.62
  -3  10   4    1.81    0.46
  -3  10   4    1.78    0.39
  -3  10   4    1.74    0.45
   2 -10  -4   -0.26    0.51
   2 -10  -4    0.87    0.58
   2 -10  -4    0.51    0.61
  -2  10   4    1.02    0.43
  -2  10   4    0.34    0.38
  -2  10   4    0.26    0.40
   1 -10  -4    2.90    0.60
   1 -10  -4    1.97    0.66
  -1  10   4    2.98    0.52
  -1  10   4    3.17    0.54
   0 -10  -4    0.99    0.67
   0 -10  -4    1.36    0.58
   0  10   4    0.24    0.47
   0  10   4    0.23    0.47
   0  10   4    1.43    0.52
   0  11  -5   -0.25    0.52
   0  11  -5    0.57    0.28
   0 -11   5   -0.44    0.54
   0 -11   5    0.48    0.78
  -1  11  -5    1.45    0.25
  -1  11  -5    1.50    0.50
   1 -11   5    1.71    0.61
   1 -11   5    1.61    0.73
  -2  11  -5    2.04    0.50
   2 -11   5    1.92    0.58
   2 -11   5    1.85    0.72
  -3  11  -5    0.24    0.33
  -3  11  -5    0.67    0.46
   3 -11   5    0.12    0.60
   3 -11   5    1.33    0.59
  -4  11  -5    1.33    0.47
   4 -11   5    1.65    0.66
   4 -11   5    1.56    0.61
  -5  11  -5    4.83    0.56
  -5  11  -5    4.52    0.62
   5 -11   5    3.88    0.69
   5 -11   5    4.25    0.81
   5 -11   5    5.68    0.79
   2  10  -5    4.98    0.50
   2  10  -5    5.01    0.59
   2  10  -5    4.43    0.64
  -2 -10   5    5.99    1.01
  -2 -10   5    5.62    0.74
   1  10  -5    2.62    0.36
   1  10  -5    2.37    0.53
   1  10  -5    2.72    0.35
  -1 -10   5    3.05    0.62
  -1 -10   5    2.67    0.78
   0  10  -5    2.33    0.29
   0  10  -5    2.47    0.48
   0 -10   5    1.41    0.65
   0 -10   5    2.01    0.50
  -1  10  -5    1.00    0.37
  -1  10  -5    1.17    0.20
  -1  10  -5    1.22    0.15
   1 -10   5    1.87    0.61
   1 -10   5    1.10    0.44
  -2  10  -5    3.17    0.47
   2 -10   5    2.76    0.66
   2 -10   5    2.38    0.54
  -3  10  -5    4.09    0.47
  -3  10  -5    4.08    0.49
  -3  10  -5    3.02    0.38
   3 -10   5    4.40    0.63
   3 -10   5    4.65    0.68
  -4  10  -5    8.98    0.68
  -4  10  -5    7.26    0.71
  -4  10  -5    7.96    0.49
   4 -10   5    8.39    0.89
   4 -10   5    7.30    0.94
   4 -10   5    7.47    0.81
  -5  10  -5    5.18    0.71
  -5  10  -5    6.10    0.67
   5 -10   5    5.94    0.95
   5 -10   5    5.58    0.81
   5 -10   5    6.96    0.88
  -6  10  -5    0.91    0.44
  -6  10  -5    1.60    0.44
   6 -10   5    2.67    0.65
   6 -10   5    1.44    0.51
   6 -10   5    1.15    0.56
   4   9  -5    0.23    0.36
  -4  -9   5    0.80    0.82
   3   9  -5   12.01    0.93
   3   9  -5   12.19    0.69
   3   9  -5   11.07    0.76
  -3  -9   5   12.31    0.95
  -3  -9   5   11.27    1.30
   2   9  -5    1.27    0.25
   2   9  -5    0.69    0.28
   2   9  -5    0.65    0.37
  -2  -9   5    1.25    0.61
  -2  -9   5    1.28    0.41
   1   9  -5    4.93    0.58
   1   9  -5    3.56    0.32
   1   9  -5    3.86    0.42
  -1  -9   5    3.27    0.70
  -1  -9   5    3.67    0.56
   0   9  -5    3.32    0.34
   0   9  -5    3.25    0.26
   0   9  -5    3.67    0.50
   0  -9   5    4.38    0.68
   0  -9   5    4.61    0.64
  -1   9  -5    0.54    0.15
  -1   9  -5    0.10    0.27
  -1   9  -5    0.18    0.14
  -1   9  -5    0.24    0.09
   1  -9   5    0.34    0.33
   1  -9   5    0.61    0.45
  -2   9  -5    7.23    0.45
  -2   9  -5    7.38    0.64
   2  -9   5    7.28    0.82
   2  -9   5    8.38    0.75
  -3   9  -5    7.89    0.64
  -3   9  -5    8.12    0.49
  -3   9  -5    8.04    0.53
   3  -9   5    8.23    0.80
   3  -9   5    8.29    0.77
  -4   9  -5   15.61    0.83
  -4   9  -5   15.58    0.87
  -4   9  -5   16.11    0.66
   4  -9   5   14.57    1.06
   4  -9   5   16.63    1.00
   4  -9   5   16.02    0.95
  -5   9  -5    1.52    0.36
  -5   9  -5    1.42    0.35
   5  -9   5    1.59    0.46
   5  -9   5    1.53    0.50
   5  -9   5    1.59    0.48
   5  -9   5    1.87    0.41
  -6   9  -5    0.36    0.36
   6  -9   5    0.81    0.44
   6  -9   5    1.07    0.52
   6  -9   5    0.71    0.37
   6  -9   5    0.08    0.46
  -7   9  -5   -0.50    0.41
   7  -9   5    0.18    0.60
   7  -9   5    0.32    0.41
   5   8  -5    7.52    0.88
   5   8  -5    8.48    0.80
   5   8  -5    7.63    0.68
  -5  -8   5    6.50    1.05
   4   8  -5    2.11    0.42
   4   8  -5    2.99    0.50
   4   8  -5    2.58    0.38
  -4  -8   5    2.34    0.75
   3   8  -5   14.94    0.92
   3   8  -5   12.69    0.70
   3   8  -5   14.06    0.78
  -3  -8   5   14.60    0.91
  -3  -8   5   13.77    1.16
   2   8  -5    2.43    0.40
   2   8  -5    2.71    0.37
   2   8  -5    1.75    0.29
  -2  -8   5    2.26    0.50
  -2  -8   5    1.28    0.64
  -2  -8   5    1.73    0.44
  -2  -8   5    2.33    0.41
   1   8  -5    4.35    0.52
   1   8  -5    5.19    0.37
   1   8  -5    4.61    0.30
   1   8  -5    4.19    0.31
   1   8  -5    4.72    0.38
  -1  -8   5    4.97    0.49
  -1  -8   5    4.80    0.58
  -1  -8   5    5.29    0.70
  -1  -8   5    4.49    0.65
   0   8  -5    3.68    0.36
   0   8  -5    3.79    0.49
   0   8  -5    4.03    0.26
   0  -8   5    4.80    0.68
   0  -8   5    4.38    0.54
   0  -8   5    3.88    0.59
   0  -8   5    3.90    0.36
  -1   8  -5    4.29    0.24
  -1   8  -5    4.26    0.29
  -1   8  -5    4.37    0.20
  -1   8  -5    4.79    0.48
   1  -8   5    4.12    0.31
   1  -8   5    4.34    0.64
   1  -8   5    4.89    0.67
   1  -8   5    4.19    0.23
   1  -8   5    3.57    0.47
  -2   8  -5    0.39    0.24
  -2   8  -5    0.18    0.17
   2  -8   5    0.55    0.53
   2  -8   5    0.28    0.34
  -3   8  -5    6.78    0.40
  -3   8  -5    6.57    0.47
  -3   8  -5    7.25    0.52
   3  -8   5    6.86    0.58
   3  -8   5    7.52    0.64
   3  -8   5    4.57    0.74
  -4   8  -5   12.85    0.72
  -4   8  -5   13.90    0.72
  -4   8  -5   13.20    0.55
   4  -8   5   14.25    0.86
   4  -8   5   13.41    0.90
   4  -8   5   13.58    0.80
   4  -8   5   12.24    0.90
  -5   8  -5    0.68    0.11
  -5   8  -5    1.11    0.31
   5  -8   5    1.16    0.52
   5  -8   5    1.10    0.36
   5  -8   5    1.46    0.34
   5  -8   5    1.08    0.41
  -6   8  -5    1.74    0.39
   6  -8   5    1.71    0.41
   6  -8   5    1.36    0.36
   6  -8   5    1.31    0.47
  -7   8  -5    5.25    0.29
  -7   8  -5    4.66    0.58
   7  -8   5    5.21    0.86
   7  -8   5    5.40    0.67
  -8   8  -5    1.27    0.21
  -8   8  -5    1.97    0.55
   8  -8   5    0.63    0.44
   8  -8   5    1.63    0.62
   6   7  -5    2.91    0.55
   6   7  -5    3.48    0.59
   6   7  -5    3.39    0.52
  -6  -7   5    2.51    0.84
   5   7  -5    1.96    0.38
   5   7  -5    2.90    0.46
   5   7  -5    2.88    0.51
  -5  -7   5    2.64    0.70
  -5  -7   5    2.52    0.58
   4   7  -5   31.74    1.35
   4   7  -5   30.04    1.28
   4   7  -5   34.02    1.43
  -4  -7   5   33.16    1.40
  -4  -7   5   30.64    1.47
  -4  -7   5   32.46    1.64
   3   7  -5    0.56    0.22
   3   7  -5    1.13    0.26
   3   7  -5    1.54    0.33
  -3  -7   5    1.24    0.33
  -3  -7   5    0.37    0.46
  -3  -7   5    1.03    0.32
  -3  -7   5    1.03    0.40
   2   7  -5   16.17    0.73
   2   7  -5   16.79    0.77
   2   7  -5   16.41    0.75
   2   7  -5   16.90    0.70
   2   7  -5   16.08    0.86
  -2  -7   5   16.49    0.96
  -2  -7   5   17.16    0.89
  -2  -7   5   15.99    0.82
  -2  -7   5   18.62    1.08
  -2  -7   5   16.18    0.81
   1   7  -5    4.10    0.33
   1   7  -5    4.52    0.47
   1   7  -5    4.71    0.28
   1   7  -5    4.86    0.30
  -1  -7   5    5.38    0.41
  -1  -7   5    3.49    0.48
  -1  -7   5    4.40    0.62
  -1  -7   5    4.58    0.57
   0   7  -5   17.61    0.63
   0   7  -5   16.95    0.65
   0   7  -5   16.69    0.82
   0  -7   5   17.16    0.67
   0  -7   5   15.39    0.94
   0  -7   5   15.71    0.64
   0  -7   5   17.87    0.89
   0  -7   5   16.30    0.95
   0  -7   5   16.78    0.64
  -1   7  -5    0.20    0.18
  -1   7  -5    0.21    0.12
   1  -7   5    0.11    0.29
   1  -7   5    0.22    0.28
   1  -7   5    0.17    0.24
   1  -7   5    0.18    0.11
  -2   7  -5   10.88    0.53
  -2   7  -5   10.44    0.60
  -2   7  -5   11.11    0.53
   2  -7   5   11.32    0.74
   2  -7   5    9.76    0.76
   2  -7   5   10.97    0.68
  -3   7  -5   22.53    0.86
  -3   7  -5   24.20    0.97
  -3   7  -5   24.52    0.97
   3  -7   5   22.76    1.03
   3  -7   5   25.57    1.15
   3  -7   5   23.99    1.06
   3  -7   5   22.80    1.20
   3  -7   5   19.12    1.07
  -4   7  -5    5.07    0.27
  -4   7  -5    5.72    0.47
  -4   7  -5    5.94    0.43
   4  -7   5    5.53    0.57
   4  -7   5    5.77    0.58
   4  -7   5    4.94    0.48
   4  -7   5    5.37    0.53
  -5   7  -5    1.05    0.32
  -5   7  -5    1.33    0.37
  -5   7  -5    1.23    0.14
  -5   7  -5    1.27    0.18
   5  -7   5    1.34    0.32
   5  -7   5    1.80    0.36
   5  -7   5    1.10    0.29
   5  -7   5    1.23    0.36
   5  -7   5    1.13    0.23
   5  -7   5    1.24    0.22
  -6   7  -5    5.54    0.62
  -6   7  -5    6.63    0.38
  -6   7  -5    6.61    0.30
   6  -7   5    5.98    0.58
   6  -7   5    6.24    0.82
   6  -7   5    5.63    0.56
  -7   7  -5    0.46    0.11
  -7   7  -5    0.82    0.39
   7  -7   5   -0.10    0.38
   7  -7   5   -0.06    0.32
  -8   7  -5    2.51    0.53
  -8   7  -5    2.93    0.38
  -8   7  -5    2.25    0.26
   8  -7   5    2.34    0.56
   8  -7   5    1.61    0.41
   6   6  -5    9.99    0.73
   6   6  -5    8.75    0.82
   6   6  -5   10.37    0.82
  -6  -6   5    8.94    1.07
  -6  -6   5    8.15    1.04
   5   6  -5    2.49    0.40
   5   6  -5    2.01    0.34
   5   6  -5    2.10    0.36
  -5  -6   5    1.60    0.60
  -5  -6   5    1.75    0.41
  -5  -6   5    2.13    0.45
   4   6  -5    8.13    0.53
   4   6  -5    7.91    0.62
   4   6  -5    7.33    0.76
   4   6  -5    8.98    0.59
  -4  -6   5    7.71    0.72
  -4  -6   5    9.67    0.83
  -4  -6   5    8.76    0.65
  -4  -6   5    8.54    0.68
   3   6  -5   29.50    1.16
   3   6  -5   29.55    1.10
   3   6  -5   27.37    1.17
   3   6  -5   29.08    1.23
  -3  -6   5   26.87    1.34
  -3  -6   5   27.66    1.29
  -3  -6   5   30.33    1.18
   2   6  -5   22.58    0.92
   2   6  -5   23.14    1.02
   2   6  -5   22.75    0.87
   2   6  -5   22.90    0.95
   2   6  -5   23.30    0.92
  -2  -6   5   23.31    1.11
  -2  -6   5   23.29    1.04
  -2  -6   5   22.99    1.13
  -2  -6   5   22.81    0.95
  -2  -6   5   23.02    0.95
   1   6  -5   16.23    0.68
   1   6  -5   16.59    0.78
   1   6  -5   16.49    0.61
   1   6  -5   16.25    0.66
   1   6  -5   16.08    0.63
  -1  -6   5   16.93    0.81
  -1  -6   5   15.63    0.90
  -1  -6   5   16.67    0.89
  -1  -6   5   16.37    0.67
  -1  -6   5   16.67    0.67
  -1  -6   5   15.77    0.68
   0   6  -5   13.44    0.66
   0   6  -5   13.86    0.52
   0   6  -5   13.49    0.51
   0   6  -5   13.86    0.52
   0  -6   5   13.37    0.79
   0  -6   5   13.63    0.50
   0  -6   5   13.32    0.53
   0  -6   5   14.57    0.73
   0  -6   5   13.51    0.53
   0  -6   5   13.79    0.51
   0  -6   5   13.52    0.78
  -1   6  -5   16.78    0.71
  -1   6  -5   17.18    0.67
  -1   6  -5   17.36    0.76
  -1   6  -5   16.80    0.76
  -1   6  -5   20.71    1.21
   1  -6   5   15.59    0.89
   1  -6   5   16.71    0.87
   1  -6   5   16.09    0.80
  -2   6  -5   13.70    0.56
  -2   6  -5   12.09    0.62
  -2   6  -5   13.17    0.60
  -2   6  -5   12.40    0.71
  -2   6  -5   13.64    0.62
   2  -6   5   13.16    0.68
   2  -6   5   13.34    0.80
   2  -6   5   12.59    0.74
   2  -6   5   14.10    0.75
   2  -6   5   12.60    0.65
  -3   6  -5   33.89    1.22
  -3   6  -5   34.45    1.14
  -3   6  -5   33.14    1.27
  -3   6  -5   33.12    1.30
   3  -6   5   31.81    1.44
   3  -6   5   32.96    1.28
   3  -6   5   28.61    1.33
   3  -6   5   34.42    1.30
   3  -6   5   31.04    1.36
  -4   6  -5    5.30    0.36
  -4   6  -5    5.36    0.24
  -4   6  -5    4.82    0.44
  -4   6  -5    5.43    0.45
   4  -6   5    5.42    0.42
   4  -6   5    4.38    0.48
   4  -6   5    5.58    0.53
   4  -6   5    5.71    0.46
   4  -6   5    4.92    0.27
  -5   6  -5    1.25    0.29
  -5   6  -5    1.52    0.15
  -5   6  -5    1.70    0.15
  -5   6  -5    1.22    0.17
  -5   6  -5    1.35    0.27
  -5   6  -5    1.73    0.20
   5  -6   5    1.34    0.26
   5  -6   5    1.55    0.25
   5  -6   5    1.19    0.31
   5  -6   5    1.64    0.19
   5  -6   5    1.66    0.29
  -6   6  -5    5.83    0.37
  -6   6  -5    5.99    0.28
  -6   6  -5    6.49    0.40
  -6   6  -5    6.42    0.35
  -6   6  -5    6.43    0.32
  -6   6  -5    7.89    0.66
   6  -6   5    5.79    0.52
   6  -6   5    6.86    0.63
  -7   6  -5    3.88    0.52
  -7   6  -5    3.52    0.35
  -7   6  -5    3.84    0.27
   7  -6   5    3.92    0.46
   7  -6   5    2.95    0.48
  -8   6  -5    3.03    0.35
  -8   6  -5    3.18    0.56
  -8   6  -5    3.13    0.33
   8  -6   5    3.01    0.54
   8  -6   5    3.03    0.46
   7   5  -5    7.56    0.82
   7   5  -5    6.36    0.72
   7   5  -5    7.78    0.74
  -7  -5   5    8.34    0.85
   6   5  -5   -0.36    0.29
   6   5  -5    0.25    0.32
   6   5  -5    0.05    0.29
  -6  -5   5    0.07    0.48
  -6  -5   5    0.58    0.35
  -6  -5   5    0.09    0.36
   5   5  -5    1.17    0.30
   5   5  -5    0.72    0.27
   5   5  -5    0.80    0.36
   5   5  -5    1.28    0.28
  -5  -5   5    1.12    0.45
  -5  -5   5    1.02    0.34
  -5  -5   5    1.24    0.35
  -5  -5   5    1.32    0.45
   4   5  -5    4.52    0.46
   4   5  -5    4.42    0.48
   4   5  -5    4.05    0.44
   4   5  -5    4.09    0.42
   4   5  -5    5.54    0.66
  -4  -5   5    4.44    0.45
  -4  -5   5    4.07    0.53
  -4  -5   5    4.45    0.50
  -4  -5   5    4.22    0.51
   3   5  -5   45.09    1.71
   3   5  -5   46.00    1.75
   3   5  -5   47.14    1.78
   3   5  -5   47.71    1.68
  -3  -5   5   48.17    1.85
  -3  -5   5   50.89    1.88
  -3  -5   5   49.02    1.73
   2   5  -5   13.52    0.59
   2   5  -5   13.89    0.56
   2   5  -5   12.79    0.59
   2   5  -5   12.90    0.62
   2   5  -5   14.04    0.68
  -2  -5   5   13.17    0.63
  -2  -5   5   13.75    0.61
  -2  -5   5   13.55    0.62
  -2  -5   5   13.55    0.76
  -2  -5   5   13.04    0.75
  -2  -5   5   14.19    0.70
   1   5  -5   24.31    1.09
   1   5  -5   25.58    1.03
   1   5  -5   22.90    1.10
   1   5  -5   25.72    1.02
   1   5  -5   26.20    0.91
   1   5  -5   25.66    0.92
   1   5  -5   25.18    0.95
   1   5  -5   26.05    0.88
  -1  -5   5   24.91    0.93
  -1  -5   5   24.34    1.10
  -1  -5   5   26.39    0.93
  -1  -5   5   26.20    1.05
  -1  -5   5   24.91    0.93
  -1  -5   5   25.91    0.92
  -1  -5   5   26.92    1.06
  -1  -5   5   25.58    1.14
   0   5  -5    7.68    0.31
   0   5  -5    7.01    0.56
   0   5  -5    8.14    0.36
   0   5  -5    7.99    0.33
   0   5  -5    7.17    0.43
   0   5  -5    9.30    0.59
   0   5  -5    6.93    0.48
   0   5  -5    8.02    0.52
   0   5  -5    7.95    0.44
   0  -5   5    7.84    0.56
   0  -5   5    7.73    0.32
   0  -5   5    7.63    0.53
   0  -5   5    7.78    0.34
   0  -5   5    7.67    0.32
   0  -5   5    8.28    0.49
   0  -5   5    7.55    0.30
  -1   5  -5    0.87    0.29
  -1   5  -5    0.68    0.21
  -1   5  -5    0.84    0.26
  -1   5  -5    0.59    0.16
  -1   5  -5    0.33    0.11
  -1   5  -5    0.36    0.13
  -1   5  -5    0.29    0.15
  -1   5  -5    0.38    0.12
   1  -5   5    0.30    0.18
   1  -5   5    0.28    0.18
   1  -5   5    0.54    0.19
   1  -5   5    0.47    0.21
  -2   5  -5    4.52    0.32
  -2   5  -5    4.60    0.49
  -2   5  -5    4.85    0.31
  -2   5  -5    4.34    0.40
  -2   5  -5    5.30    0.53
  -2   5  -5    5.71    0.35
  -2   5  -5    5.87    0.29
  -2   5  -5    5.05    0.35
   2  -5   5    5.07    0.38
   2  -5   5    5.75    0.44
   2  -5   5    5.20    0.41
   2  -5   5    5.19    0.49
   2  -5   5    5.39    0.36
  -3   5  -5    1.76    0.25
  -3   5  -5    2.33    0.32
  -3   5  -5    2.24    0.16
  -3   5  -5    2.88    0.30
  -3   5  -5    2.26    0.22
   3  -5   5    2.35    0.29
   3  -5   5    2.31    0.27
   3  -5   5    2.34    0.33
   3  -5   5    2.55    0.33
   3  -5   5    1.71    0.34
  -4   5  -5    0.72    0.09
  -4   5  -5    0.81    0.11
  -4   5  -5    0.87    0.11
  -4   5  -5    0.94    0.21
  -4   5  -5    0.81    0.12
  -4   5  -5    0.68    0.19
  -4   5  -5    0.97    0.23
   4  -5   5    1.02    0.23
   4  -5   5    0.74    0.20
   4  -5   5    0.88    0.16
   4  -5   5    1.32    0.33
   4  -5   5    0.96    0.20
   4  -5   5    0.79    0.14
  -5   5  -5    2.73    0.37
  -5   5  -5    2.45    0.24
  -5   5  -5    2.64    0.31
  -5   5  -5    2.44    0.19
  -5   5  -5    2.51    0.21
  -5   5  -5    2.54    0.22
   5  -5   5    2.51    0.32
   5  -5   5    1.81    0.23
   5  -5   5    1.92    0.27
   5  -5   5    2.35    0.37
  -6   5  -5   12.81    0.62
  -6   5  -5   12.65    0.52
  -6   5  -5   13.60    0.59
  -6   5  -5   11.97    0.55
  -6   5  -5   12.39    0.81
  -6   5  -5   12.07    0.52
   6  -5   5   12.96    0.64
   6  -5   5   12.82    0.74
   6  -5   5   12.42    0.60
   6  -5   5   13.29    0.69
  -7   5  -5    2.35    0.30
  -7   5  -5    3.10    0.35
  -7   5  -5    2.21    0.43
   7  -5   5    1.54    0.35
   7  -5   5    2.56    0.37
  -8   5  -5    8.19    0.85
  -8   5  -5    4.89    0.45
  -8   5  -5    6.13    0.52
   8  -5   5    5.84    0.73
   8  -5   5    5.58    0.60
  -9   5  -5    5.40    0.55
  -9   5  -5    5.47    1.07
  -9   5  -5    5.10    0.65
   9  -5   5    4.16    0.62
   9  -5   5    4.36    0.56
   8   4  -5   -0.28    0.39
   8   4  -5    0.67    0.40
   8   4  -5   -0.32    0.45
  -8  -4   5    0.41    0.49
   7   4  -5    4.84    0.63
   7   4  -5    5.50    0.62
   7   4  -5    6.71    0.73
  -7  -4   5    5.90    0.68
   6   4  -5    1.06    0.29
   6   4  -5    0.79    0.33
   6   4  -5    0.63    0.27
  -6  -4   5    1.05    0.41
  -6  -4   5    0.55    0.33
  -6  -4   5    1.07    0.37
  -6  -4   5    0.58    0.33
   5   4  -5    4.08    0.45
   5   4  -5    2.78    0.40
   5   4  -5    3.36    0.44
   5   4  -5    3.47    0.39
   5   4  -5    3.28    0.44
  -5  -4   5    3.69    0.48
  -5  -4   5    3.14    0.47
  -5  -4   5    3.30    0.43
  -5  -4   5    3.16    0.42
   4   4  -5   61.82    2.10
   4   4  -5   59.61    2.13
   4   4  -5   58.39    2.15
   4   4  -5   59.44    2.18
   4   4  -5   61.80    2.17
  -4  -4   5   59.85    2.20
  -4  -4   5   59.75    2.13
  -4  -4   5   60.55    2.19
  -4  -4   5   58.93    2.15
   3   4  -5    4.02    0.29
   3   4  -5    3.86    0.46
   3   4  -5    3.99    0.36
   3   4  -5    4.18    0.31
   3   4  -5    3.71    0.34
  -3  -4   5    3.89    0.44
  -3  -4   5    3.23    0.37
  -3  -4   5    4.47    0.34
  -3  -4   5    4.27    0.44
   2   4  -5    1.09    0.20
   2   4  -5    0.91    0.13
   2   4  -5    1.15    0.18
   2   4  -5    1.15    0.19
   2   4  -5    0.95    0.15
   2   4  -5    1.27    0.24
   2   4  -5    1.32    0.27
  -2  -4   5    1.16    0.25
  -2  -4   5    0.86    0.16
  -2  -4   5    0.75    0.17
  -2  -4   5    1.27    0.26
  -2  -4   5    0.95    0.19
  -2  -4   5    1.02    0.18
  -2  -4   5    1.21    0.24
   1   4  -5    9.83    0.40
   1   4  -5   10.36    0.58
   1   4  -5    9.37    0.41
   1   4  -5   10.71    0.56
   1   4  -5    9.75    0.48
   1   4  -5    9.30    0.43
   1   4  -5    9.39    0.36
   1   4  -5    9.17    0.55
   1   4  -5    9.06    0.46
   1   4  -5    9.57    0.37
   1   4  -5    9.25    0.49
  -1  -4   5    9.56    0.43
  -1  -4   5    9.97    0.41
  -1  -4   5    9.94    0.41
  -1  -4   5    9.61    0.43
  -1  -4   5    9.49    0.52
  -1  -4   5    9.73    0.58
  -1  -4   5    8.87    0.54
   0   4  -5    4.53    0.30
   0   4  -5    4.29    0.27
   0   4  -5    4.58    0.42
   0   4  -5    4.25    0.40
   0   4  -5    4.87    0.35
   0   4  -5    4.67    0.29
   0   4  -5    4.74    0.19
   0   4  -5    4.63    0.17
   0   4  -5    4.53    0.37
   0  -4   5    4.27    0.37
   0  -4   5    4.99    0.19
   0  -4   5    4.19    0.32
   0  -4   5    4.56    0.22
   0  -4   5    4.37    0.35
   0  -4   5    4.38    0.23
   0  -4   5    4.52    0.40
  -1   4  -5   21.09    0.94
  -1   4  -5   20.89    0.80
  -1   4  -5   20.80    0.78
  -1   4  -5   21.84    0.86
  -1   4  -5   20.74    0.94
  -1   4  -5   20.38    0.87
  -1   4  -5   21.19    0.80
   1  -4   5   21.10    0.90
   1  -4   5   21.48    0.96
   1  -4   5   21.27    0.91
  -2   4  -5   10.31    0.50
  -2   4  -5    9.90    0.49
  -2   4  -5   10.65    0.45
  -2   4  -5   10.58    0.54
  -2   4  -5   10.37    0.62
  -2   4  -5   12.02    0.64
  -2   4  -5   10.15    0.46
  -2   4  -5   10.30    0.42
   2  -4   5   10.27    0.62
   2  -4   5   10.51    0.49
   2  -4   5   11.27    0.57
   2  -4   5   10.77    0.57
  -3   4  -5    1.64    0.21
  -3   4  -5    2.11    0.19
  -3   4  -5    2.12    0.32
  -3   4  -5    2.02    0.12
  -3   4  -5    1.33    0.30
  -3   4  -5    1.93    0.25
  -3   4  -5    1.90    0.13
  -3   4  -5    1.86    0.14
  -3   4  -5    2.29    0.26
   3  -4   5    2.17    0.34
   3  -4   5    2.12    0.17
   3  -4   5    2.00    0.17
   3  -4   5    2.00    0.22
   3  -4   5    1.82    0.26
  -4   4  -5    0.27    0.08
  -4   4  -5    0.33    0.08
  -4   4  -5    0.31    0.07
  -4   4  -5    0.24    0.08
  -4   4  -5    0.18    0.11
  -4   4  -5    0.30    0.17
  -4   4  -5    0.40    0.26
  -4   4  -5    0.15    0.11
  -4   4  -5    0.17    0.16
   4  -4   5    0.30    0.14
   4  -4   5   -0.08    0.12
   4  -4   5    0.01    0.14
   4  -4   5    0.27    0.15
   4  -4   5    0.23    0.12
   4  -4   5    0.14    0.23
   4  -4   5    0.01    0.10
  -5   4  -5    1.46    0.16
  -5   4  -5    1.86    0.24
  -5   4  -5    1.50    0.18
  -5   4  -5    1.58    0.16
  -5   4  -5    1.75    0.20
  -5   4  -5    2.04    0.24
  -5   4  -5    1.64    0.20
  -5   4  -5    1.35    0.34
  -5   4  -5    1.50    0.31
   5  -4   5    1.70    0.24
   5  -4   5    1.64    0.27
   5  -4   5    1.65    0.23
   5  -4   5    0.99    0.27
   5  -4   5    1.27    0.22
  -6   4  -5    3.27    0.33
  -6   4  -5    3.04    0.23
  -6   4  -5    3.70    0.37
  -6   4  -5    3.39    0.39
  -6   4  -5    3.30    0.44
  -6   4  -5    3.71    0.31
  -6   4  -5    2.97    0.44
   6  -4   5    2.94    0.40
   6  -4   5    3.29    0.44
   6  -4   5    3.01    0.37
   6  -4   5    3.83    0.43
  -7   4  -5    0.09    0.20
  -7   4  -5    0.34    0.34
  -7   4  -5    0.37    0.22
   7  -4   5    0.41    0.26
   7  -4   5    0.04    0.23
   7  -4   5   -0.25    0.29
  -8   4  -5    1.99    0.52
  -8   4  -5    1.83    0.37
  -8   4  -5    2.14    0.32
   8  -4   5    1.75    0.40
   8  -4   5    2.44    0.39
  -9   4  -5    0.94    0.65
  -9   4  -5    2.24    0.40
  -9   4  -5    1.37    0.44
   9  -4   5    1.33    0.43
   9  -4   5    1.47    0.47
   8   3  -5    0.60    0.39
   8   3  -5    0.90    0.37
   8   3  -5    1.06    0.45
   8   3  -5    1.11    0.38
  -8  -3   5   -0.01    0.40
   7   3  -5    1.52    0.35
   7   3  -5    1.61    0.37
   7   3  -5    1.86    0.37
   7   3  -5    2.09    0.41
  -7  -3   5    1.80    0.37
  -7  -3   5    1.61    0.39
  -7  -3   5    1.99    0.28
  -7  -3   5    1.28    0.41
   6   3  -5    1.48    0.31
   6   3  -5    1.53    0.30
   6   3  -5    1.50    0.31
   6   3  -5    1.39    0.37
  -6  -3   5    2.03    0.39
  -6  -3   5    1.64    0.23
  -6  -3   5    1.12    0.31
  -6  -3   5    1.84    0.33
  -6  -3   5    1.73    0.34
   5   3  -5    1.84    0.28
   5   3  -5    1.51    0.26
   5   3  -5    2.11    0.37
   5   3  -5    1.89    0.26
   5   3  -5    2.00    0.36
  -5  -3   5    1.87    0.25
  -5  -3   5    1.91    0.33
  -5  -3   5    1.58    0.28
  -5  -3   5    1.50    0.30
  -5  -3   5    2.03    0.34
   4   3  -5   84.68    3.24
   4   3  -5   94.03    3.23
   4   3  -5   93.17    3.17
   4   3  -5   99.12    3.21
   4   3  -5   91.86    3.05
   4   3  -5   93.44    3.20
   4   3  -5   89.75    3.23
   4   3  -5   96.88    3.16
  -4  -3   5   94.50    3.24
  -4  -3   5   93.56    3.18
  -4  -3   5   97.62    3.18
  -4  -3   5   96.32    3.20
  -4  -3   5   96.32    3.05
   3   3  -5   17.75    0.68
   3   3  -5   16.63    0.78
   3   3  -5   17.60    0.73
   3   3  -5   16.35    0.60
   3   3  -5   16.90    0.80
   3   3  -5   17.24    0.70
   3   3  -5   17.00    0.74
  -3  -3   5   16.60    0.61
  -3  -3   5   16.37    0.71
  -3  -3   5   17.13    0.70
  -3  -3   5   16.12    0.73
  -3  -3   5   15.17    0.74
  -3  -3   5   15.99    0.79
  -3  -3   5   16.64    0.77
  -3  -3   5   16.14    0.72
   2   3  -5    5.87    0.26
   2   3  -5    6.08    0.35
   2   3  -5    6.00    0.35
   2   3  -5    5.18    0.40
   2   3  -5    5.61    0.34
   2   3  -5    6.21    0.31
   2   3  -5    6.13    0.41
   2   3  -5    6.16    0.29
   2   3  -5    5.49    0.33
  -2  -3   5    5.83    0.36
  -2  -3   5    6.05    0.44
  -2  -3   5    5.85    0.40
  -2  -3   5    6.31    0.36
  -2  -3   5    5.84    0.32
  -2  -3   5    6.27    0.34
  -2  -3   5    6.15    0.40
   1   3  -5    3.20    0.31
   1   3  -5    3.05    0.23
   1   3  -5    3.04    0.17
   1   3  -5    3.26    0.19
   1   3  -5    3.21    0.28
   1   3  -5    3.38    0.22
   1   3  -5    3.13    0.23
   1   3  -5    2.85    0.29
   1   3  -5    3.29    0.18
   1   3  -5    3.33    0.21
  -1  -3   5    3.22    0.33
  -1  -3   5    3.65    0.29
  -1  -3   5    3.09    0.22
  -1  -3   5    2.98    0.18
  -1  -3   5    3.02    0.21
  -1  -3   5    2.96    0.27
  -1  -3   5    3.14    0.19
   0   3  -5   29.99    1.01
   0   3  -5   30.35    1.07
   0   3  -5   32.34    1.13
   0   3  -5   31.18    1.18
   0   3  -5   30.03    0.99
   0   3  -5   29.74    1.14
   0   3  -5   30.87    1.00
   0   3  -5   29.41    1.07
   0   3  -5   30.58    1.03
   0   3  -5   30.51    1.08
   0  -3   5   30.51    1.00
   0  -3   5   28.91    1.14
   0  -3   5   31.19    1.18
   0  -3   5   29.85    1.02
   0  -3   5   29.40    1.09
   0  -3   5   29.61    1.20
   0  -3   5   30.19    1.01
  -1   3  -5    0.88    0.22
  -1   3  -5    0.38    0.14
  -1   3  -5    0.56    0.11
  -1   3  -5    0.25    0.16
  -1   3  -5    0.31    0.09
  -1   3  -5    0.66    0.10
  -1   3  -5    0.63    0.07
   1  -3   5    0.59    0.07
   1  -3   5    0.50    0.13
   1  -3   5    0.60    0.12
   1  -3   5    0.66    0.08
   1  -3   5    0.64    0.08
   1  -3   5    0.93    0.22
   1  -3   5    0.44    0.14
  -2   3  -5    0.29    0.07
  -2   3  -5    0.19    0.12
  -2   3  -5    0.10    0.15
  -2   3  -5    0.41    0.05
  -2   3  -5    0.60    0.19
  -2   3  -5    0.26    0.08
  -2   3  -5    0.66    0.08
  -2   3  -5    0.38    0.06
  -2   3  -5    0.26    0.09
  -2   3  -5    0.33    0.11
   2  -3   5    0.43    0.08
   2  -3   5    0.50    0.06
   2  -3   5    0.44    0.14
   2  -3   5    0.45    0.12
   2  -3   5    0.43    0.08
   2  -3   5    0.38    0.10
   2  -3   5    0.26    0.16
   2  -3   5    0.30    0.08
  -3   3  -5    1.44    0.17
  -3   3  -5    1.28    0.18
  -3   3  -5    1.26    0.15
  -3   3  -5    1.30    0.09
  -3   3  -5    1.25    0.14
  -3   3  -5    0.96    0.22
  -3   3  -5    1.29    0.16
  -3   3  -5    1.14    0.11
  -3   3  -5    1.20    0.11
  -3   3  -5    1.49    0.26
  -3   3  -5    1.38    0.12
   3  -3   5    1.04    0.19
   3  -3   5    1.25    0.16
   3  -3   5    1.12    0.15
   3  -3   5    1.31    0.15
   3  -3   5    1.38    0.17
   3  -3   5    1.06    0.23
   3  -3   5    1.22    0.14
  -4   3  -5    3.02    0.21
  -4   3  -5    3.03    0.18
  -4   3  -5    2.99    0.25
  -4   3  -5    2.62    0.36
  -4   3  -5    3.21    0.26
  -4   3  -5    2.77    0.33
  -4   3  -5    3.32    0.24
   4  -3   5    2.97    0.22
   4  -3   5    3.03    0.26
   4  -3   5    3.38    0.29
   4  -3   5    3.26    0.30
   4  -3   5    2.35    0.28
   4  -3   5    3.02    0.39
   4  -3   5    2.46    0.30
   4  -3   5    2.70    0.24
  -5   3  -5   13.59    0.72
  -5   3  -5   15.95    0.70
  -5   3  -5   16.06    0.68
  -5   3  -5   15.18    0.65
  -5   3  -5   15.13    0.59
  -5   3  -5   15.31    0.57
  -5   3  -5   15.94    0.81
  -5   3  -5   15.00    0.64
   5  -3   5   15.45    0.59
   5  -3   5   15.49    0.71
   5  -3   5   15.11    0.79
   5  -3   5   14.82    0.71
   5  -3   5   15.74    0.67
  -6   3  -5    2.85    0.34
  -6   3  -5    2.54    0.25
  -6   3  -5    2.94    0.39
  -6   3  -5    2.69    0.37
  -6   3  -5    2.35    0.42
  -6   3  -5    2.53    0.35
  -6   3  -5    2.54    0.33
   6  -3   5    2.24    0.35
   6  -3   5    2.04    0.28
   6  -3   5    2.30    0.34
   6  -3   5    2.55    0.36
   6  -3   5    2.40    0.25
  -7   3  -5    5.00    0.51
  -7   3  -5    5.54    0.63
  -7   3  -5    4.65    0.47
   7  -3   5    3.85    0.46
   7  -3   5    5.50    0.69
   7  -3   5    5.25    0.57
  -8   3  -5    3.30    0.47
  -8   3  -5    4.74    0.65
  -8   3  -5    3.59    0.42
   8  -3   5    3.17    0.53
   8  -3   5    3.85    0.51
  -9   3  -5    1.11    0.62
  -9   3  -5    0.18    0.39
  -9   3  -5    0.12    0.46
   9  -3   5    0.21    0.38
   9  -3   5    0.44    0.41
   9   2  -5    1.76    0.55
   9   2  -5    0.38    0.38
   9   2  -5    1.15    0.50
   9   2  -5    1.26    0.45
  -9  -2   5    2.05    0.49
   8   2  -5    8.39    0.77
   8   2  -5    8.37    0.70
   8   2  -5    8.39    0.69
   8   2  -5    8.44    0.67
  -8  -2   5    8.87    0.67
  -8  -2   5    9.25    0.87
  -8  -2   5    8.99    0.75
   7   2  -5    5.74    0.52
   7   2  -5    5.81    0.62
   7   2  -5    5.71    0.55
   7   2  -5    6.12    0.55
  -7  -2   5    5.96    0.50
  -7  -2   5    6.14    0.65
  -7  -2   5    5.23    0.54
  -7  -2   5    7.00    0.59
   6   2  -5    5.00    0.44
   6   2  -5    3.77    0.42
   6   2  -5    4.24    0.48
   6   2  -5    4.64    0.56
   6   2  -5    4.32    0.42
  -6  -2   5    3.97    0.37
  -6  -2   5    4.50    0.46
  -6  -2   5    4.33    0.50
  -6  -2   5    4.31    0.45
   5   2  -5   21.73    1.00
   5   2  -5   22.43    0.87
   5   2  -5   21.90    0.92
   5   2  -5   22.73    0.94
   5   2  -5   21.35    0.99
   5   2  -5   22.48    0.95
   5   2  -5   22.02    0.92
   5   2  -5   21.69    1.02
  -5  -2   5   22.83    0.90
  -5  -2   5   22.73    0.95
  -5  -2   5   24.24    0.99
  -5  -2   5   21.53    0.85
  -5  -2   5   21.12    0.96
   4   2  -5    6.74    0.46
   4   2  -5    6.21    0.39
   4   2  -5    5.91    0.38
   4   2  -5    6.69    0.35
   4   2  -5    6.74    0.48
   4   2  -5    6.39    0.37
   4   2  -5    6.06    0.46
   4   2  -5    5.66    0.45
   4   2  -5    6.27    0.40
  -4  -2   5    5.71    0.44
  -4  -2   5    7.09    0.39
  -4  -2   5    6.25    0.47
  -4  -2   5    6.88    0.47
  -4  -2   5    6.52    0.35
  -4  -2   5    5.90    0.47
  -4  -2   5    6.06    0.43
  -4  -2   5    6.82    0.40
   3   2  -5    6.49    0.34
   3   2  -5    7.07    0.43
   3   2  -5    6.78    0.36
   3   2  -5    6.65    0.41
   3   2  -5    6.88    0.43
   3   2  -5    7.21    0.38
   3   2  -5    6.48    0.32
   3   2  -5    7.19    0.39
   3   2  -5    7.00    0.40
  -3  -2   5    6.82    0.41
  -3  -2   5    6.40    0.35
  -3  -2   5    7.13    0.39
  -3  -2   5    6.70    0.33
  -3  -2   5    6.10    0.44
  -3  -2   5    6.86    0.39
  -3  -2   5    6.94    0.36
  -3  -2   5    6.21    0.43
   2   2  -5    5.35    0.34
   2   2  -5    4.99    0.29
   2   2  -5    4.49    0.34
   2   2  -5    5.09    0.29
   2   2  -5    5.04    0.26
   2   2  -5    4.89    0.28
   2   2  -5    4.73    0.25
   2   2  -5    4.82    0.30
   2   2  -5    5.09    0.25
  -2  -2   5    4.67    0.33
  -2  -2   5    4.84    0.29
  -2  -2   5    5.30    0.31
  -2  -2   5    4.86    0.37
  -2  -2   5    5.33    0.28
  -2  -2   5    4.84    0.28
   1   2  -5  171.40    6.08
   1   2  -5  187.29    6.01
   1   2  -5  188.81    6.06
   1   2  -5  190.08    6.06
   1   2  -5  192.13    6.12
   1   2  -5  190.22    6.04
   1   2  -5  192.15    6.03
   1   2  -5  200.02    6.10
   1   2  -5  184.66    6.01
   1   2  -5  194.40    6.04
  -1  -2   5  179.28    6.13
  -1  -2   5  185.56    6.02
  -1  -2   5  196.97    6.09
  -1  -2   5  187.82    6.07
  -1  -2   5  191.42    6.18
  -1  -2   5  182.86    6.01
  -1  -2   5  193.72    6.04
   0   2  -5   12.69    0.46
   0   2  -5   12.74    0.45
   0   2  -5   12.59    0.57
   0   2  -5   12.61    0.53
   0   2  -5   12.90    0.46
   0   2  -5   12.82    0.49
   0   2  -5   12.73    0.49
   0   2  -5   12.45    0.53
   0   2  -5   12.32    0.47
   0   2  -5   12.42    0.49
   0   2  -5   12.28    0.55
   0  -2   5   12.24    0.52
   0  -2   5   13.78    0.54
   0  -2   5   12.68    0.46
   0  -2   5   12.79    0.61
   0  -2   5   12.71    0.46
   0  -2   5   12.77    0.45
   0  -2   5   12.83    0.47
   0  -2   5   12.37    0.57
  -1   2  -5    0.45    0.12
  -1   2  -5    0.54    0.08
  -1   2  -5    0.32    0.07
  -1   2  -5    0.57    0.15
  -1   2  -5    0.55    0.09
  -1   2  -5    0.53    0.07
  -1   2  -5    0.52    0.08
  -1   2  -5    0.61    0.08
  -1   2  -5    0.60    0.07
  -1   2  -5    0.42    0.10
   1  -2   5    0.50    0.09
   1  -2   5    0.47    0.12
   1  -2   5    0.52    0.09
   1  -2   5    0.59    0.17
   1  -2   5    0.68    0.11
   1  -2   5    0.57    0.08
   1  -2   5    0.52    0.07
  -2   2  -5   20.41    0.69
  -2   2  -5   21.03    0.72
  -2   2  -5   19.60    0.73
  -2   2  -5   19.74    0.74
  -2   2  -5   21.40    0.86
  -2   2  -5   19.75    0.77
  -2   2  -5   20.24    0.71
  -2   2  -5   21.14    0.73
   2  -2   5   19.22    0.86
   2  -2   5   19.87    0.74
   2  -2   5   20.52    0.74
   2  -2   5   20.66    0.73
   2  -2   5   19.51    0.80
   2  -2   5   19.93    0.73
   2  -2   5   19.94    0.73
   2  -2   5   20.02    0.70
  -3   2  -5    2.62    0.18
  -3   2  -5    2.56    0.20
  -3   2  -5    2.38    0.16
  -3   2  -5    2.50    0.21
  -3   2  -5    2.92    0.35
  -3   2  -5    2.77    0.23
   3  -2   5    2.28    0.19
   3  -2   5    2.62    0.23
   3  -2   5    2.77    0.24
   3  -2   5    2.44    0.23
   3  -2   5    2.59    0.21
   3  -2   5    2.50    0.24
   3  -2   5    2.65    0.32
   3  -2   5    2.55    0.19
  -4   2  -5    7.24    0.40
  -4   2  -5    7.85    0.37
  -4   2  -5    7.69    0.43
  -4   2  -5    7.12    0.34
  -4   2  -5    7.10    0.34
  -4   2  -5    7.74    0.41
   4  -2   5    6.24    0.55
   4  -2   5    7.01    0.48
   4  -2   5    7.82    0.37
   4  -2   5    7.64    0.34
   4  -2   5    7.01    0.45
   4  -2   5    7.29    0.42
   4  -2   5    7.76    0.45
   4  -2   5    7.15    0.41
  -5   2  -5    2.67    0.37
  -5   2  -5    2.86    0.34
  -5   2  -5    2.57    0.23
  -5   2  -5    3.23    0.36
  -5   2  -5    2.86    0.33
   5  -2   5    2.55    0.27
   5  -2   5    3.28    0.31
   5  -2   5    2.91    0.37
   5  -2   5    2.87    0.23
   5  -2   5    3.14    0.39
   5  -2   5    3.10    0.52
  -6   2  -5    6.03    0.38
  -6   2  -5    5.94    0.46
  -6   2  -5    7.08    0.61
  -6   2  -5    6.13    0.51
  -6   2  -5    5.09    0.49
   6  -2   5    5.32    0.33
   6  -2   5    6.16    0.43
   6  -2   5    4.16    0.57
   6  -2   5    6.75    0.54
   6  -2   5    5.65    0.44
  -7   2  -5    6.01    0.53
  -7   2  -5    5.54    0.58
  -7   2  -5    7.54    0.74
   7  -2   5    5.23    0.51
   7  -2   5    7.84    0.68
   7  -2   5    5.89    0.56
  -8   2  -5    1.60    0.52
  -8   2  -5    1.53    0.39
  -8   2  -5    1.85    0.44
   8  -2   5    1.90    0.52
   8  -2   5    1.99    0.39
   8  -2   5    1.68    0.34
  -9   2  -5   -0.61    0.60
  -9   2  -5   -0.19    0.44
   9  -2   5    0.06    0.39
   9  -2   5    0.46    0.40
   9   1  -5    4.30    0.63
   9   1  -5    4.79    0.56
   9   1  -5    3.50    0.45
   9   1  -5    2.75    0.50
  -9  -1   5    4.40    0.57
  -9  -1   5    3.67    0.55
  -9  -1   5    3.78    0.68
   8   1  -5    7.57    0.56
   8   1  -5    7.60    0.61
   8   1  -5    6.62    0.62
   8   1  -5    7.55    0.71
  -8  -1   5    6.39    0.63
  -8  -1   5    6.54    0.62
  -8  -1   5    7.38    0.61
  -8  -1   5    7.40    0.78
   7   1  -5    2.21    0.33
   7   1  -5    2.13    0.35
   7   1  -5    1.68    0.36
   7   1  -5    1.22    0.44
   7   1  -5    1.80    0.30
   7   1  -5    2.00    0.35
  -7  -1   5    1.27    0.34
  -7  -1   5    1.83    0.30
  -7  -1   5    1.57    0.35
  -7  -1   5    1.39    0.32
   6   1  -5    8.40    0.53
   6   1  -5    8.95    0.54
   6   1  -5    9.00    0.51
   6   1  -5    9.21    0.70
   6   1  -5    7.89    0.61
   6   1  -5    8.76    0.57
   6   1  -5    7.74    0.53
  -6  -1   5    8.84    0.60
  -6  -1   5    8.59    0.54
  -6  -1   5    8.95    0.52
  -6  -1   5    9.05    0.41
   5   1  -5   76.54    2.66
   5   1  -5   78.82    2.74
   5   1  -5   78.25    2.71
   5   1  -5   76.97    2.66
   5   1  -5   77.91    2.63
   5   1  -5   76.20    2.62
   5   1  -5   74.54    2.67
   5   1  -5   78.26    2.65
  -5  -1   5   76.96    2.61
  -5  -1   5   80.94    2.70
  -5  -1   5   80.11    2.66
  -5  -1   5   74.17    2.72
   4   1  -5    5.14    0.33
   4   1  -5    4.97    0.41
   4   1  -5    4.93    0.32
   4   1  -5    5.61    0.40
   4   1  -5    5.59    0.34
   4   1  -5    5.41    0.34
   4   1  -5    4.78    0.37
   4   1  -5    5.32    0.34
  -4  -1   5    5.29    0.38
  -4  -1   5    5.27    0.34
  -4  -1   5    5.71    0.33
  -4  -1   5    5.61    0.41
  -4  -1   5    5.52    0.38
  -4  -1   5    5.45    0.41
   3   1  -5    7.15    0.40
   3   1  -5    7.50    0.39
   3   1  -5    7.34    0.37
   3   1  -5    7.65    0.37
   3   1  -5    7.07    0.36
   3   1  -5    8.01    0.41
   3   1  -5    7.73    0.42
   3   1  -5    7.79    0.37
  -3  -1   5    7.32    0.42
  -3  -1   5    7.49    0.37
  -3  -1   5    7.64    0.37
  -3  -1   5    8.31    0.40
  -3  -1   5    7.26    0.41
  -3  -1   5    7.26    0.39
   2   1  -5    0.25    0.07
   2   1  -5    0.22    0.08
   2   1  -5    0.30    0.09
   2   1  -5    0.39    0.10
   2   1  -5    0.22    0.07
   2   1  -5    0.36    0.11
   2   1  -5    0.20    0.09
   2   1  -5    0.36    0.11
   2   1  -5    0.37    0.11
  -2  -1   5    0.39    0.11
  -2  -1   5    0.33    0.09
  -2  -1   5    0.27    0.10
  -2  -1   5    0.29    0.10
  -2  -1   5    0.29    0.12
  -2  -1   5    0.24    0.08
   1   1  -5   20.27    0.72
   1   1  -5   21.06    0.75
   1   1  -5   20.03    0.73
   1   1  -5   20.32    0.73
   1   1  -5   19.86    0.73
   1   1  -5   19.95    0.75
   1   1  -5   19.65    0.71
   1   1  -5   20.38    0.71
  -1  -1   5   19.99    0.79
  -1  -1   5   21.03    0.77
  -1  -1   5   20.03    0.75
  -1  -1   5   20.30    0.72
  -1  -1   5   20.17    0.73
  -1  -1   5   20.20    0.71
   0   1  -5    5.07    0.24
   0   1  -5    5.21    0.31
   0   1  -5    5.05    0.24
   0   1  -5    5.49    0.27
   0   1  -5    5.44    0.23
   0   1  -5    5.39    0.24
   0   1  -5    5.09    0.22
   0   1  -5    5.00    0.24
   0   1  -5    5.32    0.31
   0   1  -5    5.31    0.23
   0  -1   5    5.35    0.24
   0  -1   5    5.44    0.24
   0  -1   5    5.25    0.35
   0  -1   5    5.43    0.26
   0  -1   5    5.62    0.30
   0  -1   5    5.00    0.27
   0  -1   5    5.36    0.23
   0  -1   5    5.14    0.24
  -1   1  -5   20.70    0.73
  -1   1  -5   20.42    0.70
  -1   1  -5   21.24    0.72
  -1   1  -5   22.06    0.74
  -1   1  -5   20.69    0.69
  -1   1  -5   20.92    0.76
  -1   1  -5   20.20    0.75
   1  -1   5   21.82    0.74
   1  -1   5   20.70    0.71
   1  -1   5   20.48    0.71
   1  -1   5   20.26    0.74
   1  -1   5   20.10    0.79
   1  -1   5   19.43    0.84
   1  -1   5   21.06    0.76
   1  -1   5   20.77    0.72
   1  -1   5   21.71    0.75
  -2   1  -5   12.32    0.51
  -2   1  -5   12.39    0.47
  -2   1  -5   11.71    0.51
  -2   1  -5   12.71    0.47
  -2   1  -5   12.34    0.49
   2  -1   5   12.38    0.46
   2  -1   5   11.98    0.51
   2  -1   5   12.50    0.51
   2  -1   5   12.82    0.48
   2  -1   5   12.35    0.48
   2  -1   5   11.79    0.52
   2  -1   5   12.03    0.53
   2  -1   5   11.45    0.58
  -3   1  -5   27.21    1.02
  -3   1  -5   27.25    0.99
  -3   1  -5   28.63    0.99
  -3   1  -5   28.02    1.05
  -3   1  -5   27.42    1.06
   3  -1   5   29.81    0.98
   3  -1   5   27.22    1.02
   3  -1   5   26.92    1.04
   3  -1   5   27.06    1.08
   3  -1   5   28.49    1.06
   3  -1   5   29.06    0.98
  -4   1  -5   11.58    0.50
  -4   1  -5   11.05    0.45
  -4   1  -5   11.34    0.56
  -4   1  -5   11.18    0.54
  -4   1  -5   11.19    0.58
  -4   1  -5   11.24    0.51
   4  -1   5   11.04    0.46
   4  -1   5   11.52    0.58
   4  -1   5   11.17    0.58
   4  -1   5   10.23    0.59
   4  -1   5   12.01    0.49
  -5   1  -5   25.43    1.03
  -5   1  -5   26.34    1.12
  -5   1  -5   25.98    1.07
  -5   1  -5   27.00    1.09
  -5   1  -5   27.37    1.01
   5  -1   5   27.08    1.14
   5  -1   5   25.54    0.99
   5  -1   5   27.26    1.10
   5  -1   5   25.79    1.04
   5  -1   5   25.98    0.94
  -6   1  -5    2.13    0.36
  -6   1  -5    2.33    0.32
  -6   1  -5    2.56    0.36
  -6   1  -5    1.97    0.35
  -6   1  -5    2.42    0.33
  -6   1  -5    1.93    0.39
   6  -1   5    2.03    0.22
   6  -1   5    2.42    0.41
   6  -1   5    2.59    0.30
   6  -1   5    2.51    0.40
  -7   1  -5    1.86    0.42
  -7   1  -5    0.87    0.32
  -7   1  -5    1.63    0.45
   7  -1   5    0.91    0.42
   7  -1   5    0.99    0.33
  -8   1  -5    0.74    0.42
  -8   1  -5    1.58    0.56
  -8   1  -5    1.82    0.44
   8  -1   5    1.68    0.36
   9   0  -5    7.38    0.74
   9   0  -5    6.92    0.59
   9   0  -5    7.16    0.68
   9   0  -5    7.47    0.84
  -9   0   5    7.39    0.74
  -9   0   5    7.26    0.91
  -9   0   5    6.33    0.75
   8   0  -5    3.11    0.43
   8   0  -5    3.63    0.44
   8   0  -5    2.91    0.38
  -8   0   5    3.66    0.51
  -8   0   5    3.35    0.44
  -8   0   5    3.04    0.44
   7   0  -5    2.78    0.51
   7   0  -5    2.12    0.34
   7   0  -5    2.16    0.40
   7   0  -5    3.68    0.41
   7   0  -5    2.21    0.28
   7   0  -5    3.09    0.40
  -7   0   5    2.63    0.51
  -7   0   5    2.68    0.35
  -7   0   5    2.78    0.38
   6   0  -5    0.35    0.30
   6   0  -5    0.09    0.14
   6   0  -5    0.30    0.23
   6   0  -5    0.18    0.16
   6   0  -5    0.04    0.19
   6   0  -5    0.11    0.19
  -6   0   5    0.13    0.19
  -6   0   5    0.13    0.18
  -6   0   5    0.37    0.31
  -6   0   5   -0.01    0.19
   5   0  -5    1.69    0.26
   5   0  -5    1.67    0.29
   5   0  -5    2.04    0.25
   5   0  -5    2.04    0.28
   5   0  -5    2.16    0.24
   5   0  -5    1.79    0.24
   5   0  -5    2.08    0.26
   5   0  -5    2.10    0.28
  -5   0   5    2.37    0.33
  -5   0   5    1.43    0.22
  -5   0   5    2.18    0.27
  -5   0   5    1.74    0.24
   4   0  -5    0.23    0.14
   4   0  -5    0.08    0.10
   4   0  -5    0.02    0.08
   4   0  -5    0.13    0.11
   4   0  -5    0.03    0.09
   4   0  -5    0.08    0.16
   4   0  -5    0.06    0.16
   4   0  -5    0.02    0.09
  -4   0   5    0.12    0.14
  -4   0   5    0.06    0.13
  -4   0   5   -0.07    0.14
  -4   0   5    0.19    0.15
  -4   0   5    0.05    0.10
  -4   0   5    0.34    0.13
   3   0  -5    6.95    0.33
   3   0  -5    6.65    0.34
   3   0  -5    7.24    0.34
   3   0  -5    6.37    0.33
   3   0  -5    7.03    0.33
   3   0  -5    6.63    0.38
   3   0  -5    7.00    0.37
   3   0  -5    6.88    0.37
  -3   0   5    6.45    0.33
  -3   0   5    6.55    0.36
  -3   0   5    6.86    0.37
  -3   0   5    6.86    0.36
  -3   0   5    6.33    0.37
  -3   0   5    6.46    0.36
   2   0  -5  135.13    4.43
   2   0  -5  135.70    4.43
   2   0  -5  132.61    4.44
   2   0  -5  137.40    4.42
   2   0  -5  144.81    4.40
   2   0  -5  135.28    4.43
   2   0  -5  141.29    4.46
   2   0  -5  137.71    4.46
  -2   0   5  138.30    4.42
  -2   0   5  137.98    4.47
  -2   0   5  144.53    4.46
  -2   0   5  131.10    4.45
  -2   0   5  132.34    4.45
  -2   0   5  138.73    4.45
  -2   0   5  143.17    4.46
  -2   0   5  133.92    4.43
   1   0  -5    6.36    0.28
   1   0  -5    6.44    0.28
   1   0  -5    6.11    0.28
   1   0  -5    6.55    0.29
   1   0  -5    6.06    0.28
   1   0  -5    5.99    0.28
   1   0  -5    6.63    0.34
   1   0  -5    5.89    0.28
  -1   0   5    5.96    0.30
  -1   0   5    6.08    0.29
  -1   0   5    6.24    0.29
  -1   0   5    6.63    0.35
  -1   0   5    6.63    0.29
  -1   0   5    6.35    0.30
   0   0  -5   19.15    0.77
   0   0  -5   19.16    0.72
   0   0  -5   19.91    0.69
   0   0  -5   19.88    0.71
   0   0  -5   19.58    0.67
   0   0  -5   20.21    0.70
   0   0  -5   19.38    0.70
   0   0   5   19.57    0.71
   0   0   5   19.22    0.71
   0   0   5   19.42    0.70
   0   0   5   17.96    0.72
   0   0   5   20.54    0.70
   0   0   5   19.05    0.70
   0   0   5   19.99    0.69
  -1   0  -5   11.02    0.44
  -1   0  -5   10.62    0.47
  -1   0  -5   11.54    0.43
  -1   0  -5   11.09    0.44
  -1   0  -5   11.10    0.54
  -1   0  -5   10.87    0.47
   1   0   5   11.09    0.48
   1   0   5   11.32    0.44
   1   0   5   11.38    0.46
   1   0   5   11.02    0.40
   1   0   5   11.07    0.47
   1   0   5   11.06    0.44
  -2   0  -5    3.40    0.27
  -2   0  -5    3.29    0.21
  -2   0  -5    3.22    0.23
  -2   0  -5    3.13    0.25
  -2   0  -5    3.31    0.20
   2   0   5    3.07    0.16
   2   0   5    3.36    0.20
   2   0   5    3.06    0.25
   2   0   5    3.04    0.25
   2   0   5    3.49    0.23
   2   0   5    3.22    0.28
   2   0   5    3.54    0.31
  -3   0  -5   16.40    0.72
  -3   0  -5   16.61    0.64
  -3   0  -5   15.53    0.64
  -3   0  -5   15.47    0.66
  -3   0  -5   15.69    0.70
   3   0   5   15.75    0.67
   3   0   5   15.74    0.59
   3   0   5   15.20    0.69
   3   0   5   15.63    0.60
   3   0   5   15.66    0.68
   3   0   5   16.35    0.70
   3   0   5   16.10    0.73
  -4   0  -5    2.72    0.31
  -4   0  -5    2.43    0.26
  -4   0  -5    3.00    0.33
  -4   0  -5    3.50    0.30
  -4   0  -5    2.80    0.36
   4   0   5    2.81    0.35
   4   0   5    2.84    0.36
   4   0   5    2.65    0.23
   4   0   5    2.70    0.23
  -5   0  -5    0.44    0.23
  -5   0  -5    0.57    0.18
  -5   0  -5    0.14    0.22
  -5   0  -5    0.56    0.23
  -5   0  -5    0.75    0.27
   5   0   5    0.54    0.31
   5   0   5    0.64    0.16
   5   0   5    0.73    0.19
   5   0   5    0.42    0.25
   5   0   5    0.61    0.16
  -6   0  -5   -0.06    0.27
  -6   0  -5    0.13    0.29
  -6   0  -5    0.43    0.29
  -6   0  -5    0.02    0.26
   6   0   5    0.18    0.29
   6   0   5    0.07    0.18
   6   0   5   -0.02    0.36
  -7   0  -5    0.64    0.37
  -7   0  -5    0.01    0.34
  -7   0  -5   -0.10    0.39
   7   0   5    0.87    0.35
   7   0   5    0.74    0.43
  -8   0  -5    5.58    0.74
  -8   0  -5    6.55    0.80
  -8   0  -5    6.60    0.88
   8   0   5    6.50    0.63
   8   0   5    7.63    0.94
   9  -1  -5    0.23    0.32
   9  -1  -5    0.35    0.25
   9  -1  -5    0.86    0.46
   9  -1  -5    0.27    0.37
  -9   1   5    0.15    0.41
  -9   1   5    0.44    0.41
  -9   1   5   -0.04    0.35
   8  -1  -5    1.50    0.36
   8  -1  -5    2.15    0.33
   8  -1  -5    1.14    0.24
   8  -1  -5    1.35    0.35
  -8   1   5    1.03    0.35
  -8   1   5    1.24    0.37
  -8   1   5    1.62    0.34
   7  -1  -5    3.90    0.43
   7  -1  -5    4.44    0.43
   7  -1  -5    4.57    0.48
   7  -1  -5    4.29    0.33
  -7   1   5    4.12    0.44
  -7   1   5    3.90    0.49
  -7   1   5    4.08    0.48
   6  -1  -5   31.06    1.23
   6  -1  -5   33.03    1.15
   6  -1  -5   31.85    1.24
   6  -1  -5   30.76    1.21
   6  -1  -5   28.80    1.28
   6  -1  -5   29.84    1.33
  -6   1   5   33.20    1.27
  -6   1   5   32.52    1.26
  -6   1   5   33.47    1.23
  -6   1   5   29.91    1.30
   5  -1  -5    1.72    0.29
   5  -1  -5    1.55    0.18
   5  -1  -5    1.07    0.19
   5  -1  -5    1.26    0.24
   5  -1  -5    1.05    0.18
   5  -1  -5    1.36    0.22
   5  -1  -5    1.21    0.26
   5  -1  -5    1.43    0.20
  -5   1   5    1.42    0.22
  -5   1   5    0.95    0.25
  -5   1   5    1.37    0.26
  -5   1   5    1.33    0.19
  -5   1   5    1.60    0.24
   4  -1  -5    8.15    0.47
   4  -1  -5    7.92    0.46
   4  -1  -5    8.16    0.42
   4  -1  -5    8.39    0.38
   4  -1  -5    8.69    0.42
   4  -1  -5    8.15    0.48
   4  -1  -5    8.97    0.36
   4  -1  -5    8.62    0.42
  -4   1   5    8.92    0.46
  -4   1   5    8.68    0.41
  -4   1   5    8.82    0.44
  -4   1   5    8.45    0.46
  -4   1   5    8.20    0.45
  -4   1   5    8.58    0.47
   3  -1  -5    3.26    0.23
   3  -1  -5    3.90    0.24
   3  -1  -5    3.90    0.18
   3  -1  -5    3.67    0.24
   3  -1  -5    3.67    0.21
   3  -1  -5    3.70    0.30
   3  -1  -5    3.70    0.26
  -3   1   5    3.86    0.26
  -3   1   5    3.76    0.27
  -3   1   5    3.45    0.28
  -3   1   5    3.71    0.23
  -3   1   5    3.42    0.26
  -3   1   5    4.28    0.26
  -3   1   5    3.79    0.28
   2  -1  -5    1.28    0.16
   2  -1  -5    0.90    0.15
   2  -1  -5    1.46    0.15
   2  -1  -5    0.99    0.11
   2  -1  -5    0.96    0.13
   2  -1  -5    1.11    0.13
   2  -1  -5    1.07    0.13
  -2   1   5    1.15    0.15
  -2   1   5    1.08    0.12
  -2   1   5    1.00    0.13
  -2   1   5    1.27    0.15
  -2   1   5    1.04    0.16
  -2   1   5    1.05    0.12
  -2   1   5    1.14    0.14
  -2   1   5    1.07    0.15
   1  -1  -5   19.86    0.72
   1  -1  -5   20.75    0.72
   1  -1  -5   19.61    0.66
   1  -1  -5   19.70    0.73
   1  -1  -5   20.30    0.74
   1  -1  -5   19.44    0.74
   1  -1  -5   20.31    0.72
   1  -1  -5   18.86    0.78
  -1   1   5   20.45    0.73
  -1   1   5   20.28    0.73
  -1   1   5   19.53    0.72
  -1   1   5   20.64    0.74
  -1   1   5   20.20    0.81
  -1   1   5   19.22    0.74
  -1   1   5   19.99    0.73
  -1   1   5   21.59    0.73
   0  -1  -5    3.92    0.24
   0  -1  -5    3.91    0.21
   0  -1  -5    3.91    0.21
   0  -1  -5    4.22    0.30
   0  -1  -5    3.95    0.25
   0  -1  -5    3.98    0.22
   0   1   5    3.80    0.21
   0   1   5    4.13    0.20
   0   1   5    3.64    0.24
   0   1   5    4.22    0.23
   0   1   5    3.97    0.22
   0   1   5    3.90    0.24
  -1  -1  -5  100.32    3.42
  -1  -1  -5  102.74    3.35
  -1  -1  -5  105.93    3.33
  -1  -1  -5  101.79    3.38
  -1  -1  -5  103.00    3.39
  -1  -1  -5  100.65    3.34
   1   1   5  100.32    3.32
   1   1   5  106.28    3.36
   1   1   5   99.51    3.38
   1   1   5  103.58    3.36
   1   1   5  104.79    3.35
   1   1   5   99.84    3.27
  -2  -1  -5   11.95    0.52
  -2  -1  -5   11.74    0.51
  -2  -1  -5   11.82    0.50
  -2  -1  -5   11.68    0.57
  -2  -1  -5   11.25    0.55
   2   1   5   11.02    0.53
   2   1   5   11.33    0.52
   2   1   5   11.70    0.41
   2   1   5   11.20    0.43
   2   1   5   11.32    0.47
   2   1   5   11.16    0.57
   2   1   5   11.94    0.55
  -3  -1  -5    2.29    0.31
  -3  -1  -5    2.14    0.25
  -3  -1  -5    2.17    0.26
  -3  -1  -5    2.29    0.29
  -3  -1  -5    2.27    0.27
   3   1   5    2.42    0.33
   3   1   5    2.16    0.33
   3   1   5    2.63    0.30
   3   1   5    1.90    0.17
   3   1   5    2.13    0.21
   3   1   5    2.40    0.28
   3   1   5    1.82    0.26
  -4  -1  -5   10.26    0.55
  -4  -1  -5   11.95    0.67
  -4  -1  -5   10.14    0.55
  -4  -1  -5   10.84    0.63
  -4  -1  -5   11.15    0.46
   4   1   5   11.16    0.68
   4   1   5   10.38    0.51
   4   1   5   10.71    0.43
   4   1   5   11.02    0.50
   4   1   5   10.59    0.62
  -5  -1  -5    8.75    0.54
  -5  -1  -5    8.10    0.66
  -5  -1  -5    7.75    0.59
  -5  -1  -5    8.03    0.36
  -5  -1  -5    6.94    0.54
  -5  -1  -5    8.73    0.60
   5   1   5    8.79    0.68
   5   1   5    8.46    0.61
  -6  -1  -5    3.00    0.45
   6   1   5    2.24    0.43
   6   1   5    3.01    0.25
   6   1   5    3.48    0.52
  -7  -1  -5    4.94    0.61
  -7  -1  -5    6.32    0.81
  -7  -1  -5    7.14    0.86
   7   1   5    6.25    0.78
  -8  -1  -5    3.77    0.64
  -8  -1  -5    3.09    0.66
  -8  -1  -5    3.96    0.70
   8   1   5    3.80    0.72
   9  -2  -5    1.08    0.43
   9  -2  -5    0.68    0.37
   9  -2  -5    1.40    0.37
   9  -2  -5    1.36    0.35
  -9   2   5    0.75    0.42
  -9   2   5    0.42    0.41
   8  -2  -5    2.72    0.40
   8  -2  -5    3.65    0.31
   8  -2  -5    2.92    0.41
   8  -2  -5    3.48    0.44
  -8   2   5    3.33    0.40
  -8   2   5    3.15    0.45
   7  -2  -5    3.14    0.34
   7  -2  -5    2.69    0.27
   7  -2  -5    3.20    0.38
   7  -2  -5    3.61    0.44
  -7   2   5    3.38    0.38
  -7   2   5    3.18    0.46
  -7   2   5    2.64    0.35
  -7   2   5    3.67    0.48
   6  -2  -5   -0.05    0.17
   6  -2  -5   -0.24    0.26
   6  -2  -5    0.15    0.11
   6  -2  -5    0.19    0.15
   6  -2  -5    0.27    0.12
   6  -2  -5    0.43    0.18
  -6   2   5    0.24    0.21
  -6   2   5    0.38    0.15
  -6   2   5    0.28    0.23
  -6   2   5   -0.02    0.17
   5  -2  -5    2.60    0.33
   5  -2  -5    1.55    0.28
   5  -2  -5    1.87    0.23
   5  -2  -5    2.38    0.25
   5  -2  -5    2.85    0.35
   5  -2  -5    2.20    0.27
   5  -2  -5    2.56    0.20
  -5   2   5    2.46    0.32
  -5   2   5    2.90    0.34
  -5   2   5    2.36    0.24
  -5   2   5    2.69    0.29
  -5   2   5    1.86    0.28
   4  -2  -5    0.05    0.09
   4  -2  -5   -0.08    0.18
   4  -2  -5    0.15    0.15
   4  -2  -5    0.05    0.07
   4  -2  -5    0.03    0.09
   4  -2  -5   -0.08    0.13
   4  -2  -5    0.10    0.12
   4  -2  -5    0.04    0.11
  -4   2   5   -0.22    0.12
  -4   2   5    0.24    0.15
  -4   2   5    0.13    0.13
  -4   2   5    0.11    0.11
  -4   2   5    0.08    0.10
  -4   2   5    0.07    0.14
  -4   2   5   -0.01    0.10
   3  -2  -5   39.88    1.51
   3  -2  -5   43.28    1.42
   3  -2  -5   42.82    1.46
   3  -2  -5   41.84    1.46
   3  -2  -5   41.23    1.46
   3  -2  -5   42.27    1.42
   3  -2  -5   41.29    1.48
   3  -2  -5   42.04    1.45
  -3   2   5   41.48    1.47
  -3   2   5   42.41    1.44
  -3   2   5   43.91    1.44
  -3   2   5   43.13    1.46
  -3   2   5   40.72    1.47
  -3   2   5   42.02    1.51
  -3   2   5   39.41    1.46
   2  -2  -5    2.37    0.19
   2  -2  -5    2.48    0.20
   2  -2  -5    2.06    0.17
   2  -2  -5    2.04    0.18
   2  -2  -5    2.01    0.24
   2  -2  -5    2.25    0.16
   2  -2  -5    2.24    0.18
  -2   2   5    1.98    0.18
  -2   2   5    1.99    0.20
  -2   2   5    2.24    0.24
  -2   2   5    2.04    0.13
  -2   2   5    1.96    0.18
  -2   2   5    2.28    0.20
  -2   2   5    1.93    0.17
  -2   2   5    2.27    0.17
   1  -2  -5   18.63    0.73
   1  -2  -5   18.96    0.71
   1  -2  -5   19.24    0.75
   1  -2  -5   19.05    0.66
   1  -2  -5   18.82    0.73
   1  -2  -5   18.17    0.78
   1  -2  -5   19.66    0.71
  -1   2   5   19.89    0.73
  -1   2   5   20.03    0.75
  -1   2   5   19.80    0.71
  -1   2   5   20.25    0.74
  -1   2   5   19.80    0.71
  -1   2   5   19.02    0.80
   0  -2  -5    0.36    0.11
   0  -2  -5    0.35    0.10
   0  -2  -5    0.43    0.11
   0  -2  -5    0.31    0.09
   0  -2  -5    0.19    0.07
   0  -2  -5    0.48    0.17
   0   2   5    0.25    0.08
   0   2   5    0.27    0.11
   0   2   5    0.29    0.09
   0   2   5    0.39    0.11
   0   2   5    0.44    0.10
   0   2   5    0.20    0.12
  -1  -2  -5   -0.01    0.16
  -1  -2  -5    0.18    0.13
  -1  -2  -5    0.03    0.08
  -1  -2  -5   -0.07    0.11
  -1  -2  -5    0.25    0.10
  -1  -2  -5    0.22    0.11
   1   2   5    0.38    0.11
   1   2   5    0.25    0.13
   1   2   5    0.28    0.12
   1   2   5    0.14    0.06
   1   2   5    0.09    0.15
   1   2   5    0.15    0.08
   1   2   5    0.28    0.09
  -2  -2  -5    0.38    0.17
  -2  -2  -5    0.38    0.14
  -2  -2  -5    0.32    0.13
  -2  -2  -5    0.24    0.12
  -2  -2  -5    0.22    0.16
  -2  -2  -5    0.73    0.22
   2   2   5    0.18    0.16
   2   2   5    0.31    0.12
   2   2   5    0.32    0.17
   2   2   5    0.32    0.12
   2   2   5    0.49    0.15
   2   2   5    0.41    0.17
  -3  -2  -5    1.90    0.26
  -3  -2  -5    1.74    0.25
  -3  -2  -5    1.55    0.39
  -3  -2  -5    1.81    0.23
  -3  -2  -5    1.46    0.28
  -3  -2  -5    1.46    0.29
   3   2   5    1.69    0.19
   3   2   5    1.46    0.26
   3   2   5    2.01    0.31
   3   2   5    1.45    0.25
   3   2   5    1.39    0.21
  -4  -2  -5   53.27    1.86
  -4  -2  -5   47.48    1.81
  -4  -2  -5   51.93    1.73
  -4  -2  -5   49.73    1.94
  -4  -2  -5   47.34    1.84
  -4  -2  -5   49.23    1.91
   4   2   5   51.13    1.94
   4   2   5   51.42    1.89
   4   2   5   52.13    1.71
   4   2   5   47.96    1.70
  -5  -2  -5    3.00    0.42
  -5  -2  -5    4.63    0.47
  -5  -2  -5    4.69    0.56
  -5  -2  -5    3.74    0.31
   5   2   5    3.92    0.51
   5   2   5    4.21    0.31
   5   2   5    5.19    0.55
  -6  -2  -5    7.81    0.75
  -6  -2  -5    6.86    0.81
   6   2   5    8.67    0.52
   6   2   5    7.06    0.84
   6   2   5    9.86    0.79
  -7  -2  -5    0.52    0.47
  -7  -2  -5    1.63    0.54
  -7  -2  -5    0.54    0.48
   7   2   5    1.25    0.53
   9  -3  -5    0.82    0.41
   9  -3  -5    1.40    0.42
   9  -3  -5    1.46    0.41
   9  -3  -5    0.94    0.31
  -9   3   5    0.99    0.44
  -9   3   5    0.54    0.32
  -9   3   5    1.46    0.40
   8  -3  -5    8.83    0.58
   8  -3  -5    8.44    0.62
   8  -3  -5    8.67    0.63
   8  -3  -5    7.54    0.42
   8  -3  -5    8.74    0.65
  -8   3   5    8.28    0.73
  -8   3   5    7.43    0.55
  -8   3   5    7.74    0.63
   7  -3  -5    4.58    0.30
   7  -3  -5    4.54    0.46
   7  -3  -5    4.44    0.44
   7  -3  -5    3.71    0.45
   7  -3  -5    4.50    0.42
  -7   3   5    4.51    0.48
  -7   3   5    4.43    0.41
  -7   3   5    4.42    0.53
  -7   3   5    5.13    0.65
   6  -3  -5   16.40    0.74
   6  -3  -5   16.61    0.74
   6  -3  -5   16.27    0.73
   6  -3  -5   15.89    0.62
   6  -3  -5   15.62    0.72
  -6   3   5   15.87    0.75
  -6   3   5   15.38    0.71
  -6   3   5   16.29    0.81
  -6   3   5   16.03    0.83
   5  -3  -5    0.10    0.09
   5  -3  -5    0.00    0.14
   5  -3  -5   -0.03    0.12
   5  -3  -5    0.08    0.19
   5  -3  -5   -0.13    0.11
   5  -3  -5   -0.05    0.13
  -5   3   5    0.09    0.14
  -5   3   5    0.05    0.14
  -5   3   5   -0.10    0.17
  -5   3   5   -0.25    0.17
  -5   3   5   -0.05    0.20
  -5   3   5    0.04    0.11
   4  -3  -5    1.28    0.19
   4  -3  -5    0.79    0.15
   4  -3  -5    0.42    0.17
   4  -3  -5    0.58    0.22
   4  -3  -5    1.01    0.17
   4  -3  -5    0.70    0.19
   4  -3  -5    0.77    0.14
   4  -3  -5    0.52    0.10
   4  -3  -5    0.68    0.14
  -4   3   5    1.03    0.15
  -4   3   5    0.97    0.19
  -4   3   5    0.48    0.16
  -4   3   5    0.66    0.17
  -4   3   5    0.70    0.14
  -4   3   5    0.79    0.20
  -4   3   5    0.80    0.14
   3  -3  -5    1.08    0.22
   3  -3  -5    0.92    0.14
   3  -3  -5    1.02    0.16
   3  -3  -5    0.98    0.16
   3  -3  -5    1.13    0.14
   3  -3  -5    1.16    0.18
   3  -3  -5    1.29    0.15
   3  -3  -5    1.04    0.15
  -3   3   5    1.33    0.17
  -3   3   5    0.98    0.17
  -3   3   5    1.00    0.13
  -3   3   5    0.62    0.14
  -3   3   5    1.37    0.23
  -3   3   5    1.35    0.17
  -3   3   5    1.52    0.20
   2  -3  -5    9.59    0.52
   2  -3  -5    9.93    0.40
   2  -3  -5   10.19    0.46
   2  -3  -5   10.09    0.44
   2  -3  -5    9.97    0.46
   2  -3  -5   10.23    0.43
  -2   3   5    9.26    0.44
  -2   3   5    9.73    0.45
  -2   3   5   10.13    0.46
  -2   3   5    9.52    0.41
  -2   3   5    9.68    0.51
  -2   3   5    9.68    0.43
  -2   3   5    9.80    0.45
   1  -3  -5    8.12    0.42
   1  -3  -5    8.59    0.39
   1  -3  -5    8.14    0.38
   1  -3  -5    8.34    0.35
   1  -3  -5    7.51    0.39
   1  -3  -5    7.84    0.41
   1  -3  -5    7.59    0.46
  -1   3   5    8.10    0.32
  -1   3   5    7.79    0.36
  -1   3   5    8.22    0.40
  -1   3   5    7.99    0.37
  -1   3   5    8.09    0.42
  -1   3   5    8.65    0.49
  -1   3   5    7.85    0.38
  -1   3   5    8.82    0.40
   0  -3  -5   39.70    1.40
   0  -3  -5   38.91    1.37
   0  -3  -5   37.96    1.43
   0  -3  -5   38.87    1.45
   0  -3  -5   41.12    1.44
   0  -3  -5   39.75    1.39
   0   3   5   39.02    1.34
   0   3   5   40.20    1.43
   0   3   5   38.89    1.30
   0   3   5   38.49    1.36
   0   3   5   39.63    1.40
   0   3   5   38.60    1.40
   0   3   5   39.70    1.48
   0   3   5   39.77    1.38
  -1  -3  -5    0.25    0.13
  -1  -3  -5    0.51    0.17
  -1  -3  -5    0.82    0.23
  -1  -3  -5    0.66    0.15
  -1  -3  -5    0.22    0.16
  -1  -3  -5    0.56    0.15
   1   3   5    0.61    0.16
   1   3   5    0.69    0.18
   1   3   5    0.53    0.16
   1   3   5    0.48    0.17
   1   3   5    0.53    0.13
   1   3   5    0.63    0.12
  -2  -3  -5    1.29    0.31
  -2  -3  -5    2.00    0.29
  -2  -3  -5    1.16    0.25
  -2  -3  -5    1.54    0.23
  -2  -3  -5    1.18    0.19
  -2  -3  -5    1.45    0.23
   2   3   5    1.80    0.26
   2   3   5    2.21    0.33
   2   3   5    1.27    0.36
   2   3   5    1.26    0.21
   2   3   5    1.33    0.19
  -3  -3  -5    0.01    0.24
  -3  -3  -5    0.44    0.26
  -3  -3  -5    0.34    0.21
  -3  -3  -5    0.18    0.15
  -3  -3  -5    0.14    0.17
  -3  -3  -5    0.13    0.21
   3   3   5   -0.07    0.14
   3   3   5    0.05    0.19
   3   3   5    0.26    0.23
   3   3   5    0.43    0.39
  -4  -3  -5    1.97    0.26
  -4  -3  -5    1.98    0.37
  -4  -3  -5    2.51    0.35
  -4  -3  -5    1.86    0.36
  -4  -3  -5    1.67    0.31
   4   3   5    2.27    0.26
   4   3   5    2.04    0.23
   4   3   5    2.43    0.39
   4   3   5    2.77    0.44
  -5  -3  -5    3.20    0.35
  -5  -3  -5    3.03    0.50
  -5  -3  -5    3.55    0.53
   5   3   5    3.52    0.37
   5   3   5    3.82    0.56
   5   3   5    3.37    0.49
  -6  -3  -5    4.38    0.63
  -6  -3  -5    3.01    0.55
   6   3   5    3.43    0.65
   6   3   5    2.80    0.53
  -7  -3  -5    3.47    0.64
  -7  -3  -5    2.74    0.73
  -7  -3  -5    3.11    0.67
   7   3   5    3.32    0.63
   9  -4  -5    0.72    0.38
   9  -4  -5    1.47    0.42
   9  -4  -5    1.15    0.33
  -9   4   5    1.23    0.38
  -9   4   5    1.30    0.35
  -9   4   5    0.94    0.44
   8  -4  -5    6.02    0.36
   8  -4  -5    7.26    0.58
   8  -4  -5    7.18    0.62
   8  -4  -5    6.56    0.61
   8  -4  -5    6.69    0.53
  -8   4   5    6.80    0.61
  -8   4   5    6.55    0.69
  -8   4   5    6.62    0.50
   7  -4  -5    9.18    0.59
   7  -4  -5    9.35    0.61
   7  -4  -5    8.90    0.43
   7  -4  -5    8.53    0.54
   7  -4  -5    9.23    0.57
  -7   4   5    8.44    0.73
  -7   4   5    9.98    0.71
  -7   4   5    9.80    0.54
   6  -4  -5    2.17    0.22
   6  -4  -5    1.68    0.25
   6  -4  -5    1.74    0.27
   6  -4  -5    2.94    0.34
  -6   4   5    1.70    0.33
  -6   4   5    3.01    0.35
  -6   4   5    2.77    0.37
  -6   4   5    2.12    0.24
  -6   4   5    2.49    0.37
   5  -4  -5   13.56    0.63
   5  -4  -5   13.68    0.59
   5  -4  -5   14.61    0.66
   5  -4  -5   13.87    0.56
   5  -4  -5   14.36    0.63
   5  -4  -5   14.12    0.64
   5  -4  -5   12.50    0.71
  -5   4   5   14.08    0.61
  -5   4   5   14.37    0.70
  -5   4   5   13.86    0.59
  -5   4   5   14.26    0.65
  -5   4   5   14.20    0.74
  -5   4   5   14.12    0.69
   4  -4  -5    1.84    0.25
   4  -4  -5    2.42    0.30
   4  -4  -5    1.82    0.20
   4  -4  -5    1.79    0.25
   4  -4  -5    1.66    0.23
   4  -4  -5    2.22    0.22
  -4   4   5    1.84    0.24
  -4   4   5    1.99    0.26
  -4   4   5    1.92    0.21
  -4   4   5    2.11    0.29
  -4   4   5    2.26    0.24
  -4   4   5    2.13    0.21
   3  -4  -5    6.28    0.32
   3  -4  -5    5.64    0.38
   3  -4  -5    5.71    0.31
   3  -4  -5    5.62    0.35
   3  -4  -5    5.40    0.46
   3  -4  -5    5.59    0.35
   3  -4  -5    5.77    0.35
  -3   4   5    5.33    0.34
  -3   4   5    5.64    0.36
  -3   4   5    5.12    0.30
  -3   4   5    6.11    0.36
  -3   4   5    5.85    0.33
  -3   4   5    5.51    0.36
  -3   4   5    5.48    0.41
   2  -4  -5    6.09    0.33
   2  -4  -5    5.75    0.36
   2  -4  -5    4.88    0.34
   2  -4  -5    5.20    0.32
   2  -4  -5    5.17    0.43
   2  -4  -5    5.43    0.35
   2  -4  -5    5.22    0.29
  -2   4   5    6.00    0.34
  -2   4   5    5.19    0.34
  -2   4   5    5.42    0.29
  -2   4   5    5.61    0.30
  -2   4   5    5.67    0.34
  -2   4   5    5.91    0.41
  -2   4   5    5.74    0.34
  -2   4   5    5.56    0.33
   1  -4  -5   10.51    0.51
   1  -4  -5   10.84    0.55
   1  -4  -5   11.47    0.53
   1  -4  -5   11.28    0.50
   1  -4  -5   11.66    0.56
  -1   4   5   10.51    0.48
  -1   4   5   10.75    0.50
  -1   4   5   10.99    0.55
  -1   4   5   11.68    0.52
  -1   4   5   11.33    0.61
  -1   4   5   11.54    0.45
  -1   4   5   11.46    0.52
   0  -4  -5    9.68    0.54
   0  -4  -5    9.28    0.46
   0  -4  -5    9.25    0.49
   0  -4  -5    9.09    0.46
   0  -4  -5    8.79    0.55
   0  -4  -5   10.36    0.54
   0   4   5    9.57    0.44
   0   4   5    8.59    0.45
   0   4   5   10.10    0.54
   0   4   5    9.37    0.49
   0   4   5    9.60    0.47
   0   4   5    9.65    0.49
   0   4   5    8.94    0.56
   0   4   5    9.53    0.40
  -1  -4  -5    2.86    0.36
  -1  -4  -5    3.20    0.40
  -1  -4  -5    2.31    0.30
  -1  -4  -5    2.53    0.28
  -1  -4  -5    2.24    0.29
  -1  -4  -5    2.25    0.35
   1   4   5    2.69    0.31
   1   4   5    2.60    0.36
   1   4   5    2.56    0.30
   1   4   5    2.66    0.32
   1   4   5    2.46    0.25
  -2  -4  -5    0.51    0.27
  -2  -4  -5    0.32    0.18
  -2  -4  -5    0.17    0.24
  -2  -4  -5    0.17    0.16
  -2  -4  -5    0.04    0.17
   2   4   5    0.11    0.17
   2   4   5    0.43    0.24
   2   4   5    0.22    0.18
   2   4   5    0.53    0.22
   2   4   5    0.27    0.21
  -3  -4  -5   72.68    2.61
  -3  -4  -5   67.39    2.47
  -3  -4  -5   71.22    2.44
  -3  -4  -5   61.82    2.68
   3   4   5   71.87    2.53
   3   4   5   69.98    2.41
   3   4   5   70.77    2.58
  -4  -4  -5    4.47    0.43
  -4  -4  -5    4.70    0.57
  -4  -4  -5    4.68    0.56
  -4  -4  -5    4.96    0.67
   4   4   5    4.44    0.57
   4   4   5    4.51    0.46
   4   4   5    4.53    0.57
  -5  -4  -5    1.55    0.29
  -5  -4  -5    2.16    0.53
  -5  -4  -5    2.24    0.50
   5   4   5    2.21    0.45
   5   4   5    1.81    0.49
   5   4   5    1.83    0.33
  -6  -4  -5    0.05    0.53
  -6  -4  -5    0.24    0.49
   6   4   5   -0.08    0.72
   6   4   5    0.15    0.46
   9  -5  -5   14.57    0.91
   9  -5  -5   13.33    0.91
  -9   5   5   11.73    0.83
  -9   5   5   13.22    1.03
  -9   5   5   13.35    0.77
   8  -5  -5    2.62    0.41
   8  -5  -5    1.84    0.37
   8  -5  -5    2.67    0.42
  -8   5   5    2.73    0.38
  -8   5   5    2.83    0.35
  -8   5   5    2.67    0.48
   7  -5  -5   23.70    1.01
   7  -5  -5   22.69    0.99
   7  -5  -5   23.09    1.00
   7  -5  -5   21.80    0.85
  -7   5   5   21.95    0.94
  -7   5   5   21.31    0.99
  -7   5   5   22.49    1.10
   6  -5  -5    0.06    0.19
   6  -5  -5    0.19    0.19
   6  -5  -5   -0.17    0.20
   6  -5  -5   -0.11    0.20
   6  -5  -5    0.31    0.14
  -6   5   5   -0.04    0.17
  -6   5   5    0.23    0.25
  -6   5   5    0.01    0.16
  -6   5   5   -0.27    0.17
  -6   5   5    0.53    0.29
   5  -5  -5    0.88    0.18
   5  -5  -5    1.42    0.26
   5  -5  -5    1.24    0.23
   5  -5  -5    1.24    0.19
   5  -5  -5    1.18    0.20
  -5   5   5    1.46    0.22
  -5   5   5    0.97    0.28
  -5   5   5    1.75    0.32
  -5   5   5    1.35    0.21
  -5   5   5    1.18    0.24
  -5   5   5    1.19    0.17
   4  -5  -5    3.11    0.29
   4  -5  -5    3.22    0.32
   4  -5  -5    2.71    0.43
   4  -5  -5    3.27    0.28
   4  -5  -5    2.84    0.30
  -4   5   5    2.97    0.24
  -4   5   5    3.01    0.26
  -4   5   5    2.61    0.35
  -4   5   5    2.61    0.28
  -4   5   5    2.37    0.33
  -4   5   5    3.27    0.40
   3  -5  -5   13.15    0.57
   3  -5  -5   11.96    0.61
   3  -5  -5   13.70    0.63
   3  -5  -5   12.99    0.59
   3  -5  -5   13.46    0.61
  -3   5   5   13.42    0.61
  -3   5   5   13.81    0.70
  -3   5   5   12.44    0.54
  -3   5   5   12.73    0.61
  -3   5   5   13.53    0.61
  -3   5   5   11.94    0.57
   2  -5  -5   29.58    1.12
   2  -5  -5   28.38    1.08
   2  -5  -5   29.18    1.12
   2  -5  -5   28.13    1.08
   2  -5  -5   28.63    1.05
  -2   5   5   29.63    1.16
  -2   5   5   24.78    1.06
  -2   5   5   28.48    1.06
  -2   5   5   29.07    1.08
  -2   5   5   26.57    1.02
  -2   5   5   28.53    1.02
  -2   5   5   29.10    1.11
  -2   5   5   27.64    1.07
   1  -5  -5    4.73    0.38
   1  -5  -5    5.04    0.35
   1  -5  -5    4.84    0.41
   1  -5  -5    4.80    0.40
  -1   5   5    5.51    0.45
  -1   5   5    5.11    0.37
  -1   5   5    4.86    0.31
  -1   5   5    4.63    0.39
  -1   5   5    4.72    0.33
  -1   5   5    5.03    0.36
  -1   5   5    5.46    0.37
   0  -5  -5    3.45    0.42
   0  -5  -5    3.20    0.38
   0  -5  -5    2.87    0.30
   0  -5  -5    2.92    0.35
   0   5   5    2.55    0.30
   0   5   5    2.17    0.29
   0   5   5    3.52    0.39
   0   5   5    2.91    0.34
   0   5   5    2.59    0.26
  -1  -5  -5    0.30    0.24
  -1  -5  -5    0.20    0.15
  -1  -5  -5    0.31    0.18
  -1  -5  -5   -0.24    0.23
  -1  -5  -5    0.38    0.19
   1   5   5    0.25    0.22
   1   5   5    0.37    0.18
   1   5   5    0.52    0.20
   1   5   5   -0.11    0.19
  -2  -5  -5    6.40    0.60
  -2  -5  -5    7.28    0.57
  -2  -5  -5    7.21    0.65
  -2  -5  -5    6.43    0.50
   2   5   5    6.29    0.50
   2   5   5    6.44    0.53
   2   5   5    6.83    0.49
   2   5   5    6.36    0.70
   2   5   5    7.69    0.63
  -3  -5  -5    4.21    0.51
  -3  -5  -5    3.86    0.53
  -3  -5  -5    4.15    0.47
  -3  -5  -5    4.97    0.68
   3   5   5    5.00    0.59
   3   5   5    3.59    0.43
   3   5   5    3.93    0.49
   3   5   5    3.72    0.45
  -4  -5  -5    8.92    1.41
  -4  -5  -5    7.68    0.61
  -4  -5  -5    6.08    0.77
   4   5   5    9.63    0.64
   4   5   5    8.59    0.75
   4   5   5    7.44    0.88
  -5  -5  -5    1.12    0.53
  -5  -5  -5    1.79    0.61
   5   5   5    1.13    0.54
   5   5   5    1.98    0.42
   5   5   5    1.84    0.48
   9  -6  -5    5.10    0.59
   9  -6  -5    3.84    0.53
  -9   6   5    2.57    0.39
  -9   6   5    3.56    0.61
   8  -6  -5    3.97    0.55
   8  -6  -5    5.67    0.60
  -8   6   5    4.20    0.59
  -8   6   5    3.86    0.46
  -8   6   5    2.65    0.40
   7  -6  -5    3.15    0.40
   7  -6  -5    4.08    0.44
   7  -6  -5    3.23    0.38
   7  -6  -5    2.98    0.36
  -7   6   5    4.05    0.38
  -7   6   5    3.40    0.44
  -7   6   5    3.44    0.54
   6  -6  -5    2.87    0.44
   6  -6  -5    2.65    0.36
   6  -6  -5    2.57    0.29
   6  -6  -5    2.97    0.39
  -6   6   5    2.19    0.29
  -6   6   5    2.87    0.31
  -6   6   5    2.87    0.36
  -6   6   5    2.37    0.36
  -6   6   5    2.51    0.42
   5  -6  -5    1.61    0.26
   5  -6  -5    1.20    0.28
   5  -6  -5    1.36    0.32
   5  -6  -5    0.96    0.22
   5  -6  -5    1.33    0.23
  -5   6   5    0.89    0.18
  -5   6   5    0.64    0.18
  -5   6   5    1.55    0.27
  -5   6   5    1.18    0.27
  -5   6   5    1.26    0.32
   4  -6  -5   10.49    0.54
   4  -6  -5   10.63    0.55
   4  -6  -5    9.52    0.55
   4  -6  -5   11.18    0.59
   4  -6  -5    9.99    0.71
  -4   6   5   10.20    0.55
  -4   6   5   11.39    0.72
  -4   6   5    9.55    0.55
  -4   6   5    9.40    0.47
  -4   6   5    9.86    0.60
   3  -6  -5    0.63    0.17
   3  -6  -5    0.87    0.22
   3  -6  -5    0.41    0.19
   3  -6  -5    0.61    0.21
  -3   6   5    0.52    0.19
  -3   6   5    0.28    0.22
  -3   6   5    0.22    0.18
  -3   6   5    0.46    0.19
  -3   6   5    0.49    0.22
  -3   6   5    0.55    0.19
   2  -6  -5   10.05    0.53
   2  -6  -5   10.08    0.61
   2  -6  -5    9.83    0.59
   2  -6  -5    9.63    0.57
  -2   6   5   10.34    0.51
  -2   6   5   10.67    0.59
  -2   6   5   10.14    0.54
  -2   6   5    9.15    0.56
  -2   6   5   10.98    0.63
   1  -6  -5    1.65    0.28
   1  -6  -5    2.14    0.29
   1  -6  -5    1.46    0.30
   1  -6  -5    1.37    0.30
  -1   6   5    1.60    0.31
  -1   6   5    1.35    0.21
  -1   6   5    1.77    0.23
  -1   6   5    1.70    0.31
  -1   6   5    2.04    0.28
  -1   6   5    1.69    0.34
   0  -6  -5    2.74    0.42
   0  -6  -5    1.53    0.36
   0  -6  -5    2.19    0.37
   0  -6  -5    2.05    0.32
   0   6   5    2.62    0.32
   0   6   5    1.87    0.34
   0   6   5    1.77    0.24
  -1  -6  -5    2.66    0.44
  -1  -6  -5    2.53    0.39
  -1  -6  -5    2.50    0.42
  -1  -6  -5    2.42    0.38
   1   6   5    2.89    0.42
   1   6   5    2.55    0.33
   1   6   5    2.31    0.36
   1   6   5    3.13    0.41
  -2  -6  -5   16.34    0.94
  -2  -6  -5   17.03    1.05
  -2  -6  -5   17.53    0.91
  -2  -6  -5   18.61    1.01
   2   6   5   18.05    0.95
   2   6   5   15.26    0.83
   2   6   5   17.53    0.88
   2   6   5   17.29    1.00
  -3  -6  -5    4.11    0.61
  -3  -6  -5    3.53    0.57
  -3  -6  -5    4.16    0.59
   3   6   5    5.14    0.59
   3   6   5    5.50    0.59
   3   6   5    6.14    0.76
  -4  -6  -5    0.66    0.70
  -4  -6  -5    0.89    0.54
  -4  -6  -5    1.72    0.55
   4   6   5    1.32    0.52
   4   6   5    2.62    0.52
   4   6   5    2.18    0.44
  -5  -6  -5    1.65    0.80
  -5  -6  -5    1.73    0.68
   5   6   5    1.16    0.58
   5   6   5    2.44    0.68
   9  -7  -5    7.08    0.84
   8  -7  -5   -0.12    0.35
   8  -7  -5    0.70    0.39
   8  -7  -5    0.24    0.44
  -8   7   5   -0.30    0.25
  -8   7   5    0.84    0.47
  -8   7   5    0.05    0.26
   7  -7  -5   -0.06    0.32
   7  -7  -5   -0.20    0.32
   7  -7  -5    0.44    0.29
  -7   7   5   -0.28    0.35
  -7   7   5    0.20    0.26
  -7   7   5    0.14    0.23
   6  -7  -5    1.40    0.30
   6  -7  -5    0.86    0.32
   6  -7  -5    1.11    0.28
   6  -7  -5    0.98    0.35
   6  -7  -5    1.55    0.29
  -6   7   5    0.77    0.24
  -6   7   5    1.07    0.25
  -6   7   5    1.64    0.41
   5  -7  -5    1.22    0.27
   5  -7  -5    0.65    0.26
   5  -7  -5    0.33    0.33
   5  -7  -5    0.83    0.26
   5  -7  -5    0.93    0.26
  -5   7   5    0.95    0.21
  -5   7   5    0.73    0.24
  -5   7   5    0.88    0.34
   4  -7  -5   10.32    0.58
   4  -7  -5    9.65    0.60
   4  -7  -5    9.73    0.63
   4  -7  -5    8.71    0.78
   4  -7  -5    9.34    0.62
  -4   7   5    9.94    0.59
  -4   7   5    9.72    0.70
  -4   7   5    9.48    0.54
  -4   7   5    9.42    0.57
   3  -7  -5    8.70    0.58
   3  -7  -5    8.01    0.60
   3  -7  -5    8.53    0.63
   3  -7  -5    7.75    0.58
   3  -7  -5    8.25    0.53
  -3   7   5    8.33    0.51
  -3   7   5    7.71    0.47
  -3   7   5    8.35    0.74
  -3   7   5    8.92    0.52
  -3   7   5    8.40    0.62
   2  -7  -5    0.67    0.29
   2  -7  -5    0.83    0.29
   2  -7  -5    0.85    0.27
   2  -7  -5    1.02    0.31
  -2   7   5    0.98    0.24
  -2   7   5    1.06    0.26
  -2   7   5    0.53    0.18
  -2   7   5    1.01    0.26
   1  -7  -5    0.34    0.30
   1  -7  -5    0.77    0.29
   1  -7  -5    0.38    0.25
   1  -7  -5    0.94    0.36
  -1   7   5    0.87    0.26
  -1   7   5    0.24    0.19
  -1   7   5    0.88    0.30
  -1   7   5    0.77    0.30
  -1   7   5    0.15    0.23
   0  -7  -5    0.78    0.39
   0  -7  -5    0.79    0.35
   0  -7  -5    0.88    0.33
   0  -7  -5    1.00    0.30
   0   7   5    0.54    0.29
   0   7   5    0.97    0.28
   0   7   5    0.94    0.26
  -1  -7  -5    5.95    0.62
  -1  -7  -5    5.65    0.63
  -1  -7  -5    4.90    0.61
  -1  -7  -5    5.38    0.62
   1   7   5    4.74    0.58
   1   7   5    5.22    0.66
   1   7   5    5.52    0.58
  -2  -7  -5    5.03    0.68
  -2  -7  -5    4.81    0.71
  -2  -7  -5    4.89    0.66
  -2  -7  -5    5.01    0.67
   2   7   5    5.00    0.62
   2   7   5    5.81    0.76
   2   7   5    5.86    0.70
  -3  -7  -5    2.71    0.61
  -3  -7  -5    1.49    0.42
  -3  -7  -5    2.11    0.60
   3   7   5    1.41    0.42
   3   7   5    2.29    0.48
   3   7   5    2.43    0.57
  -4  -7  -5   -0.37    0.60
  -4  -7  -5    0.09    0.44
   4   7   5   -0.40    0.50
   4   7   5   -0.94    0.56
   4   7   5   -0.13    0.44
   8  -8  -5    7.01    0.79
   8  -8  -5    7.46    0.90
   8  -8  -5    6.89    0.82
  -8   8   5    7.45    0.65
  -8   8   5    5.75    0.59
  -8   8   5    8.23    1.00
   7  -8  -5    0.14    0.35
   7  -8  -5    0.68    0.44
   7  -8  -5    0.57    0.38
   7  -8  -5    0.54    0.44
  -7   8   5   -0.05    0.26
  -7   8   5   -0.47    0.25
  -7   8   5   -0.32    0.43
   6  -8  -5    2.77    0.48
   6  -8  -5    2.50    0.39
   6  -8  -5    2.16    0.49
   6  -8  -5    3.10    0.42
  -6   8   5    1.83    0.31
  -6   8   5    2.00    0.33
  -6   8   5    2.30    0.48
   5  -8  -5    0.28    0.37
   5  -8  -5    0.01    0.32
   5  -8  -5    0.29    0.31
   5  -8  -5   -0.08    0.26
   5  -8  -5    0.09    0.42
  -5   8   5    0.01    0.33
  -5   8   5    0.00    0.23
  -5   8   5    0.12    0.24
   4  -8  -5    2.68    0.47
   4  -8  -5    1.48    0.37
   4  -8  -5    1.87    0.35
   4  -8  -5    2.10    0.40
   4  -8  -5    2.20    0.51
  -4   8   5    1.74    0.30
  -4   8   5    1.93    0.33
  -4   8   5    1.61    0.37
   3  -8  -5    0.71    0.31
   3  -8  -5    0.56    0.47
   3  -8  -5    0.61    0.33
   3  -8  -5    0.38    0.31
   3  -8  -5    0.23    0.26
   3  -8  -5    0.61    0.31
  -3   8   5    0.53    0.24
  -3   8   5    0.51    0.30
  -3   8   5    0.45    0.30
   2  -8  -5    1.50    0.39
   2  -8  -5    0.65    0.35
   2  -8  -5    0.65    0.36
   2  -8  -5    0.56    0.36
  -2   8   5    1.04    0.32
  -2   8   5    0.95    0.29
  -2   8   5    0.95    0.35
   1  -8  -5    1.55    0.39
   1  -8  -5    2.08    0.43
   1  -8  -5    0.73    0.35
  -1   8   5    1.64    0.38
  -1   8   5    1.63    0.35
  -1   8   5    1.59    0.40
   0  -8  -5    0.71    0.46
   0  -8  -5    0.86    0.37
   0  -8  -5    0.64    0.44
   0  -8  -5    0.63    0.38
   0   8   5   -0.20    0.33
   0   8   5    1.25    0.35
  -1  -8  -5    4.85    0.61
  -1  -8  -5    4.13    0.73
  -1  -8  -5    5.79    0.72
   1   8   5    4.21    0.55
   1   8   5    5.23    0.67
   1   8   5    5.47    0.74
  -2  -8  -5    2.15    0.60
  -2  -8  -5    2.09    0.50
   2   8   5    1.94    0.49
   2   8   5    1.83    0.47
   2   8   5    1.27    0.50
  -3  -8  -5    2.42    0.70
  -3  -8  -5    2.69    0.60
   3   8   5    2.71    0.58
   3   8   5    2.80    0.67
   7  -9  -5    0.87    0.42
   7  -9  -5    0.57    0.55
  -7   9   5    0.98    0.55
  -7   9   5    0.90    0.35
  -7   9   5    1.13    0.36
   6  -9  -5    1.09    0.39
   6  -9  -5    1.22    0.46
   6  -9  -5    1.54    0.56
   6  -9  -5    0.64    0.48
  -6   9   5    1.18    0.35
  -6   9   5    2.08    0.53
  -6   9   5    0.92    0.33
   5  -9  -5    8.04    0.85
   5  -9  -5    8.84    1.05
   5  -9  -5    8.51    0.78
   5  -9  -5    9.19    0.72
   5  -9  -5    9.67    0.80
  -5   9   5    7.93    0.68
  -5   9   5    7.90    0.63
  -5   9   5    6.37    0.81
   4  -9  -5    2.91    0.67
   4  -9  -5    3.67    0.55
   4  -9  -5    3.02    0.48
   4  -9  -5    1.66    0.62
   4  -9  -5    4.05    0.56
  -4   9   5    3.01    0.47
  -4   9   5    2.39    0.38
  -4   9   5    2.92    0.41
   3  -9  -5    0.68    0.42
   3  -9  -5    0.28    0.42
   3  -9  -5    1.39    0.56
   3  -9  -5    0.19    0.37
  -3   9   5    0.26    0.37
  -3   9   5    1.45    0.35
  -3   9   5    0.52    0.34
   2  -9  -5    0.96    0.46
   2  -9  -5    0.28    0.41
   2  -9  -5    0.20    0.37
  -2   9   5    0.40    0.36
  -2   9   5   -0.38    0.31
  -2   9   5   -0.42    0.34
   1  -9  -5    5.88    0.70
   1  -9  -5    5.17    0.66
   1  -9  -5    4.98    0.63
  -1   9   5    6.16    0.67
  -1   9   5    5.80    0.77
   0  -9  -5    0.85    0.49
   0  -9  -5   -0.20    0.56
   0   9   5    0.32    0.40
   0   9   5   -0.14    0.41
   0   9   5    0.33    0.41
  -1  -9  -5    3.51    0.72
  -1  -9  -5    1.45    0.52
   1   9   5    1.99    0.53
   1   9   5    1.71    0.54
   1   9   5    0.97    0.48
   5 -10  -5    1.11    0.68
   5 -10  -5   -0.26    0.56
   5 -10  -5    2.08    0.49
  -5  10   5    0.30    0.39
  -5  10   5    1.04    0.41
  -5  10   5    0.88    0.49
   4 -10  -5    0.44    0.51
   4 -10  -5   -0.15    0.68
   4 -10  -5    1.06    0.59
  -4  10   5    0.37    0.39
  -4  10   5   -0.11    0.45
  -4  10   5   -0.55    0.37
   3 -10  -5    3.52    0.80
   3 -10  -5    3.72    0.69
   3 -10  -5    4.59    0.71
  -3  10   5    4.84    0.55
  -3  10   5    4.36    0.63
  -3  10   5    6.56    0.81
   2 -10  -5   -0.76    0.61
   2 -10  -5    1.38    0.63
   2 -10  -5    0.75    0.71
  -2  10   5    1.33    0.48
  -2  10   5    0.11    0.41
  -2  10   5    0.88    0.47
   1 -10  -5    2.71    0.75
   1 -10  -5    1.86    0.65
  -1  10   5    1.17    0.54
   0  11  -6    0.96    0.25
   0  11  -6    0.64    0.50
   0 -11   6   -0.19    0.75
  -1  11  -6    2.03    0.53
   1 -11   6    1.87    0.80
   1 -11   6    1.17    0.61
  -2  11  -6    1.11    0.49
  -2  11  -6    1.21    0.41
   2 -11   6    0.88    0.53
   2 -11   6    2.38    0.71
  -3  11  -6    0.60    0.46
  -3  11  -6    1.32    0.36
   3 -11   6    0.05    0.55
   3 -11   6    0.57    0.64
  -4  11  -6    0.84    0.47
   4 -11   6   -0.04    0.57
   4 -11   6    1.23    0.65
   2  10  -6    0.28    0.51
   2  10  -6    1.22    0.34
   2  10  -6    1.24    0.27
  -2 -10   6    0.98    0.83
  -2 -10   6    1.34    0.55
   1  10  -6    0.71    0.44
   1  10  -6    1.19    0.26
  -1 -10   6    0.84    0.48
  -1 -10   6    1.78    0.72
   0  10  -6    5.28    0.71
   0  10  -6    4.51    0.36
   0 -10   6    4.86    0.82
   0 -10   6    4.39    0.62
  -1  10  -6    1.24    0.40
   1 -10   6   -0.16    0.58
   1 -10   6    1.29    0.48
  -2  10  -6    3.37    0.51
  -2  10  -6    2.99    0.38
   2 -10   6    2.33    0.62
   2 -10   6    3.34    0.56
  -3  10  -6    6.28    0.67
  -3  10  -6    4.29    0.47
  -3  10  -6    5.31    0.51
   3 -10   6    4.80    0.67
   3 -10   6    4.49    0.73
  -4  10  -6    1.06    0.38
  -4  10  -6    0.65    0.38
   4 -10   6    0.10    0.50
   4 -10   6   -0.11    0.43
  -5  10  -6    2.93    0.51
  -5  10  -6    3.54    0.52
   5 -10   6    4.05    0.62
   5 -10   6    2.43    0.64
   5 -10   6    3.71    0.63
  -6  10  -6    0.70    0.45
  -6  10  -6    0.68    0.45
   6 -10   6    0.09    0.55
   6 -10   6    0.74    0.65
   6 -10   6   -0.13    0.48
   6 -10   6    0.58    0.56
   3   9  -6    4.77    0.55
   3   9  -6    3.68    0.56
   3   9  -6    3.67    0.48
  -3  -9   6    4.52    0.87
   2   9  -6   -0.06    0.36
   2   9  -6    0.16    0.23
   2   9  -6   -0.09    0.20
  -2  -9   6    0.54    0.36
  -2  -9   6   -0.10    0.64
   1   9  -6    1.83    0.22
   1   9  -6    2.25    0.27
   1   9  -6    1.63    0.40
  -1  -9   6    2.02    0.65
  -1  -9   6    0.83    0.52
  -1  -9   6    2.28    0.48
   0   9  -6    1.15    0.15
   0   9  -6    1.21    0.17
   0   9  -6    0.75    0.32
   0  -9   6    0.55    0.40
   0  -9   6    1.41    0.57
   0  -9   6    1.69    0.55
  -1   9  -6    0.73    0.32
   1  -9   6    0.88    0.39
   1  -9   6    0.71    0.50
  -2   9  -6    3.91    0.52
  -2   9  -6    4.35    0.39
  -2   9  -6    4.47    0.44
   2  -9   6    3.38    0.51
   2  -9   6    4.89    0.79
  -3   9  -6    2.34    0.32
  -3   9  -6    1.56    0.34
  -3   9  -6    2.18    0.27
   3  -9   6    1.82    0.49
   3  -9   6    1.95    0.46
  -4   9  -6    7.16    0.65
  -4   9  -6    6.39    0.59
  -4   9  -6    5.89    0.39
   4  -9   6    7.41    0.76
   4  -9   6    6.16    0.72
   4  -9   6    7.57    0.82
   4  -9   6    5.64    0.83
  -5   9  -6    0.00    0.33
   5  -9   6   -0.20    0.43
   5  -9   6   -0.42    0.39
   5  -9   6   -0.49    0.42
   5  -9   6    0.38    0.37
  -6   9  -6    1.04    0.39
  -6   9  -6   -0.20    0.65
   6  -9   6   -0.06    0.55
   6  -9   6    0.69    0.45
   6  -9   6    0.14    0.37
  -7   9  -6   -0.25    0.45
   7  -9   6    1.44    0.67
   7  -9   6   -0.05    0.44
   5   8  -6    0.55    0.37
   4   8  -6    0.92    0.39
   4   8  -6    1.79    0.34
   4   8  -6    1.08    0.33
  -4  -8   6    1.49    0.58
  -4  -8   6    0.73    0.70
   3   8  -6    2.10    0.32
   3   8  -6    1.82    0.46
   3   8  -6    2.60    0.31
  -3  -8   6    2.40    0.58
  -3  -8   6    1.51    0.63
   2   8  -6    1.57    0.34
   2   8  -6    1.77    0.26
   2   8  -6    1.53    0.36
  -2  -8   6    1.38    0.58
  -2  -8   6    2.05    0.42
  -2  -8   6    1.71    0.51
   1   8  -6    1.25    0.16
   1   8  -6    1.58    0.36
   1   8  -6    1.63    0.22
   1   8  -6    1.61    0.22
   1   8  -6    1.65    0.19
  -1  -8   6    1.48    0.40
  -1  -8   6    0.93    0.48
   0   8  -6   -0.04    0.10
   0   8  -6    0.49    0.27
   0   8  -6    0.27    0.12
   0  -8   6    0.47    0.32
   0  -8   6    0.28    0.39
   0  -8   6    0.22    0.18
  -1   8  -6    1.97    0.25
  -1   8  -6    2.12    0.29
  -1   8  -6    1.95    0.34
   1  -8   6    2.04    0.41
   1  -8   6    2.52    0.52
  -2   8  -6    3.34    0.47
  -2   8  -6    4.34    0.38
  -2   8  -6    5.76    0.41
   2  -8   6    4.95    0.72
   2  -8   6    4.58    0.57
   2  -8   6    5.38    0.69
  -3   8  -6   -0.14    0.23
  -3   8  -6    0.18    0.15
  -3   8  -6    0.28    0.22
   3  -8   6   -0.08    0.33
   3  -8   6    0.57    0.33
   3  -8   6    0.18    0.34
   3  -8   6   -0.01    0.27
  -4   8  -6   12.77    0.73
  -4   8  -6   12.89    0.71
  -4   8  -6   13.04    0.54
   4  -8   6   13.21    0.93
   4  -8   6   12.58    0.92
   4  -8   6   11.84    0.79
   4  -8   6   12.92    0.91
  -5   8  -6    2.22    0.34
  -5   8  -6    1.87    0.19
   5  -8   6    1.85    0.49
   5  -8   6    1.93    0.42
   5  -8   6    1.64    0.41
   5  -8   6    2.39    0.41
  -6   8  -6    1.35    0.32
  -6   8  -6    0.46    0.36
   6  -8   6    0.90    0.37
   6  -8   6    0.81    0.50
  -7   8  -6    2.21    0.47
   7  -8   6    1.13    0.57
   7  -8   6    2.04    0.42
   5   7  -6    2.09    0.41
   5   7  -6    1.70    0.43
   5   7  -6    1.48    0.36
  -5  -7   6    0.40    0.85
  -5  -7   6    1.45    0.52
   4   7  -6    5.26    0.62
   4   7  -6    4.49    0.50
   4   7  -6    5.42    0.47
  -4  -7   6    5.13    0.77
  -4  -7   6    5.37    0.74
   3   7  -6    5.19    0.55
   3   7  -6    5.66    0.41
   3   7  -6    5.03    0.45
  -3  -7   6    4.02    0.65
  -3  -7   6    5.57    0.55
  -3  -7   6    5.29    0.70
   2   7  -6    5.11    0.38
   2   7  -6    5.04    0.40
   2   7  -6    4.96    0.32
   2   7  -6    5.58    0.46
   2   7  -6    5.22    0.51
  -2  -7   6    5.81    0.68
  -2  -7   6    4.49    0.54
  -2  -7   6    4.60    0.61
  -2  -7   6    4.76    0.47
   1   7  -6   29.42    0.99
   1   7  -6   26.16    1.50
   1   7  -6   28.96    1.01
   1   7  -6   30.11    1.08
  -1  -7   6   28.01    1.38
  -1  -7   6   29.36    1.06
  -1  -7   6   28.85    1.38
  -1  -7   6   29.61    1.27
   0   7  -6   19.02    0.67
   0   7  -6   16.63    0.66
   0   7  -6   17.94    0.67
   0   7  -6   20.13    0.89
   0   7  -6   19.41    0.67
   0  -7   6   18.65    1.06
   0  -7   6   18.68    0.69
   0  -7   6   18.09    0.69
   0  -7   6   18.98    1.03
  -1   7  -6    0.35    0.20
  -1   7  -6   -0.03    0.16
  -1   7  -6    0.03    0.13
   1  -7   6    0.76    0.37
   1  -7   6    0.24    0.26
   1  -7   6    0.04    0.27
  -2   7  -6    7.95    0.48
  -2   7  -6    8.81    0.54
  -2   7  -6    9.45    0.47
   2  -7   6    9.30    0.69
   2  -7   6    8.32    0.74
   2  -7   6    8.25    0.67
   2  -7   6    8.24    0.62
  -3   7  -6    1.71    0.19
  -3   7  -6    1.98    0.27
  -3   7  -6    1.74    0.27
   3  -7   6    1.68    0.35
   3  -7   6    1.83    0.33
   3  -7   6    1.70    0.39
   3  -7   6    1.55    0.37
   3  -7   6    1.81    0.45
  -4   7  -6    1.28    0.17
  -4   7  -6    1.87    0.27
  -4   7  -6    1.56    0.30
   4  -7   6    0.68    0.42
   4  -7   6    2.17    0.35
   4  -7   6    1.27    0.38
   4  -7   6    1.65    0.40
   4  -7   6    1.13    0.28
  -5   7  -6    1.28    0.23
  -5   7  -6    1.71    0.16
  -5   7  -6    1.51    0.27
  -5   7  -6    1.49    0.31
   5  -7   6    1.34    0.32
   5  -7   6    2.04    0.44
  -6   7  -6    0.54    0.34
  -6   7  -6    0.65    0.25
   6  -7   6    0.58    0.30
   6  -7   6    0.06    0.36
  -7   7  -6    9.10    0.84
   7  -7   6    8.91    0.72
   7  -7   6    8.18    0.89
  -8   7  -6    0.24    0.22
  -8   7  -6    0.06    0.52
   8  -7   6    0.99    0.54
   8  -7   6    0.44    0.41
   6   6  -6    0.92    0.39
   6   6  -6    0.38    0.38
   6   6  -6    1.24    0.44
  -6  -6   6    1.57    0.64
   5   6  -6    0.35    0.29
   5   6  -6    0.43    0.36
   5   6  -6    0.16    0.27
  -5  -6   6    0.70    0.36
  -5  -6   6    0.36    0.53
  -5  -6   6    0.85    0.42
   4   6  -6    0.31    0.24
   4   6  -6    0.47    0.21
   4   6  -6    0.26    0.28
  -4  -6   6    0.66    0.44
  -4  -6   6    0.39    0.27
  -4  -6   6    1.35    0.39
   3   6  -6    0.74    0.24
   3   6  -6    0.72    0.18
   3   6  -6    0.53    0.25
   3   6  -6    0.53    0.25
   3   6  -6    0.71    0.20
  -3  -6   6    0.21    0.37
  -3  -6   6    0.01    0.24
  -3  -6   6    0.52    0.34
  -3  -6   6    0.80    0.25
   2   6  -6   19.04    0.78
   2   6  -6   18.14    0.82
   2   6  -6   18.80    0.78
   2   6  -6   18.67    0.73
   2   6  -6   18.60    0.90
  -2  -6   6   18.38    1.01
  -2  -6   6   19.07    0.81
  -2  -6   6   19.82    0.81
  -2  -6   6   19.54    1.03
   1   6  -6    4.60    0.32
   1   6  -6    4.28    0.27
   1   6  -6    4.20    0.22
   1   6  -6    3.86    0.39
   1   6  -6    4.42    0.27
  -1  -6   6    4.42    0.56
  -1  -6   6    3.65    0.45
  -1  -6   6    3.85    0.35
  -1  -6   6    3.10    0.51
  -1  -6   6    4.15    0.30
   0   6  -6   15.06    0.53
   0   6  -6   15.22    0.69
   0   6  -6   15.30    0.56
   0   6  -6   14.64    0.70
   0  -6   6   15.18    0.55
   0  -6   6   13.20    0.80
   0  -6   6   15.27    0.76
   0  -6   6   15.03    0.58
   0  -6   6   14.67    0.87
  -1   6  -6    4.30    0.47
  -1   6  -6    4.22    0.29
  -1   6  -6    3.93    0.34
  -1   6  -6    4.04    0.31
   1  -6   6    3.65    0.46
   1  -6   6    4.18    0.46
   1  -6   6    3.41    0.52
   1  -6   6    3.78    0.40
  -2   6  -6   14.22    0.64
  -2   6  -6   13.67    0.58
  -2   6  -6   14.37    0.64
  -2   6  -6   12.62    0.71
   2  -6   6   12.88    0.78
   2  -6   6   14.64    0.70
   2  -6   6   13.52    0.85
   2  -6   6   13.13    0.78
   2  -6   6   14.11    0.71
  -3   6  -6   31.12    1.20
  -3   6  -6   31.31    1.06
  -3   6  -6   31.02    1.13
  -3   6  -6   27.95    1.24
   3  -6   6   27.89    1.30
   3  -6   6   31.16    1.22
   3  -6   6   30.09    1.40
   3  -6   6   28.21    1.29
   3  -6   6   29.65    1.21
  -4   6  -6    4.18    0.23
  -4   6  -6    4.06    0.44
  -4   6  -6    4.21    0.33
  -4   6  -6    3.29    0.46
   4  -6   6    4.46    0.43
   4  -6   6    4.61    0.63
   4  -6   6    4.47    0.49
  -5   6  -6    1.13    0.15
  -5   6  -6    0.71    0.27
  -5   6  -6    0.94    0.16
  -5   6  -6    1.11    0.15
  -5   6  -6    0.90    0.19
  -5   6  -6    0.21    0.31
   5  -6   6    0.86    0.17
   5  -6   6    1.01    0.22
   5  -6   6    0.86    0.27
   5  -6   6    0.74    0.33
  -6   6  -6    0.96    0.19
  -6   6  -6    1.70    0.41
  -6   6  -6    1.41    0.23
  -6   6  -6    1.24    0.17
   6  -6   6    0.84    0.29
   6  -6   6    0.97    0.37
  -7   6  -6    6.83    0.77
  -7   6  -6    6.26    0.44
  -7   6  -6    6.50    0.33
   7  -6   6    5.89    0.74
   7  -6   6    6.39    0.60
  -8   6  -6    0.39    0.48
  -8   6  -6    1.33    0.22
  -8   6  -6    1.27    0.30
   8  -6   6    1.47    0.39
   8  -6   6    0.63    0.47
   7   5  -6    3.68    0.53
   7   5  -6    3.95    0.53
   7   5  -6    3.93    0.54
   7   5  -6    3.14    0.53
  -7  -5   6    4.10    0.61
   6   5  -6    0.67    0.30
   6   5  -6    0.38    0.33
   6   5  -6   -0.20    0.32
  -6  -5   6    0.62    0.40
  -6  -5   6    0.57    0.40
  -6  -5   6    0.00    0.50
   5   5  -6    1.01    0.30
   5   5  -6    2.16    0.35
   5   5  -6    1.42    0.28
  -5  -5   6    1.27    0.39
  -5  -5   6    1.25    0.35
  -5  -5   6    0.73    0.43
   4   5  -6    0.01    0.17
   4   5  -6   -0.14    0.26
   4   5  -6    0.53    0.26
   4   5  -6    0.25    0.20
   4   5  -6   -0.29    0.21
  -4  -5   6    0.23    0.33
  -4  -5   6    0.40    0.25
  -4  -5   6    0.12    0.26
  -4  -5   6    0.12    0.28
   3   5  -6    1.55    0.30
   3   5  -6    1.11    0.24
   3   5  -6    1.49    0.20
   3   5  -6    1.67    0.24
   3   5  -6    1.50    0.28
  -3  -5   6    1.62    0.36
  -3  -5   6    1.20    0.34
  -3  -5   6    1.46    0.27
  -3  -5   6    1.39    0.27
   2   5  -6   13.53    0.60
   2   5  -6   13.76    0.68
   2   5  -6   13.51    0.55
   2   5  -6   12.89    0.66
   2   5  -6   13.33    0.64
   2   5  -6   14.32    0.59
  -2  -5   6   12.73    0.65
  -2  -5   6   14.81    0.77
  -2  -5   6   13.56    0.60
  -2  -5   6   13.19    0.79
  -2  -5   6   13.31    0.61
   1   5  -6   17.83    0.61
   1   5  -6   17.57    0.66
   1   5  -6   16.11    0.77
   1   5  -6   17.25    0.75
   1   5  -6   17.51    0.77
   1   5  -6   17.26    0.60
   1   5  -6   17.38    0.70
   1   5  -6   17.83    0.65
   1   5  -6   17.60    0.61
  -1  -5   6   15.88    0.84
  -1  -5   6   18.43    0.93
  -1  -5   6   17.86    0.65
  -1  -5   6   16.41    0.69
  -1  -5   6   16.45    0.69
  -1  -5   6   16.48    0.82
   0   5  -6    0.44    0.07
   0   5  -6    0.53    0.15
   0   5  -6    0.50    0.16
   0   5  -6    0.63    0.18
   0   5  -6    0.62    0.12
   0   5  -6    0.03    0.26
   0   5  -6    0.48    0.10
   0   5  -6    0.63    0.27
   0  -5   6    0.55    0.25
   0  -5   6    0.52    0.20
   0  -5   6    0.38    0.08
   0  -5   6    0.49    0.20
   0  -5   6    0.49    0.07
   0  -5   6    0.33    0.12
  -1   5  -6   21.04    0.83
  -1   5  -6   20.99    0.94
  -1   5  -6   21.39    0.82
  -1   5  -6   21.49    0.84
  -1   5  -6   20.95    1.03
  -1   5  -6   21.83    0.81
   1  -5   6   19.91    0.94
   1  -5   6   20.96    1.02
   1  -5   6   17.89    0.94
  -2   5  -6    3.83    0.32
  -2   5  -6    3.37    0.40
  -2   5  -6    4.00    0.30
  -2   5  -6    3.51    0.27
  -2   5  -6    3.90    0.25
   2  -5   6    3.94    0.42
   2  -5   6    3.55    0.34
   2  -5   6    3.92    0.48
   2  -5   6    3.36    0.39
  -3   5  -6    2.02    0.16
  -3   5  -6    1.73    0.30
  -3   5  -6    2.33    0.27
  -3   5  -6    1.52    0.19
  -3   5  -6    2.75    0.32
   3  -5   6    1.66    0.28
   3  -5   6    2.35    0.40
   3  -5   6    2.06    0.29
  -4   5  -6    0.55    0.08
  -4   5  -6    0.51    0.09
  -4   5  -6    0.59    0.14
  -4   5  -6    0.47    0.10
  -4   5  -6    0.17    0.23
  -4   5  -6    0.67    0.23
  -4   5  -6    0.84    0.21
  -4   5  -6    0.64    0.09
   4  -5   6    0.71    0.32
   4  -5   6    0.32    0.15
   4  -5   6    0.49    0.22
   4  -5   6    0.46    0.14
   4  -5   6    0.60    0.19
  -5   5  -6    0.89    0.23
  -5   5  -6    0.60    0.14
  -5   5  -6    0.66    0.10
  -5   5  -6    0.89    0.16
  -5   5  -6    0.69    0.10
  -5   5  -6    0.67    0.13
  -5   5  -6    1.03    0.16
   5  -5   6    0.96    0.27
   5  -5   6    0.87    0.16
   5  -5   6    0.95    0.23
   5  -5   6    0.49    0.35
  -6   5  -6   25.07    1.25
  -6   5  -6   26.23    0.93
  -6   5  -6   24.96    0.93
  -6   5  -6   26.75    1.01
  -6   5  -6   26.17    1.00
   6  -5   6   26.92    1.21
   6  -5   6   25.37    1.10
  -7   5  -6    1.95    0.23
  -7   5  -6    1.53    0.45
  -7   5  -6    2.13    0.31
   7  -5   6    1.59    0.33
   7  -5   6    1.96    0.44
  -8   5  -6    2.53    0.55
  -8   5  -6    1.71    0.34
  -8   5  -6    1.22    0.26
   8  -5   6    1.23    0.37
   8  -5   6    1.31    0.47
   8   4  -6    2.54    0.54
   8   4  -6    4.08    0.54
   8   4  -6    3.86    0.61
  -8  -4   6    4.92    0.66
   7   4  -6    0.22    0.32
   7   4  -6   -0.04    0.34
   7   4  -6    0.16    0.36
   7   4  -6   -0.58    0.32
  -7  -4   6   -0.23    0.37
   6   4  -6    1.44    0.32
   6   4  -6    1.67    0.35
   6   4  -6    1.76    0.33
   6   4  -6    1.48    0.35
  -6  -4   6    0.97    0.35
  -6  -4   6    1.29    0.69
  -6  -4   6    1.10    0.39
   5   4  -6    0.99    0.34
   5   4  -6    0.95    0.24
   5   4  -6    0.90    0.34
   5   4  -6    0.93    0.24
   5   4  -6    0.98    0.28
   5   4  -6    1.12    0.28
  -5  -4   6    0.94    0.28
  -5  -4   6    0.79    0.33
  -5  -4   6    1.03    0.34
  -5  -4   6    0.57    0.36
   4   4  -6    3.70    0.41
   4   4  -6    3.98    0.45
   4   4  -6    3.97    0.41
   4   4  -6    3.83    0.34
   4   4  -6    3.80    0.45
   4   4  -6    3.63    0.36
  -4  -4   6    3.60    0.50
  -4  -4   6    3.59    0.50
  -4  -4   6    3.88    0.42
  -4  -4   6    3.30    0.40
   3   4  -6   10.14    0.51
   3   4  -6   10.17    0.55
   3   4  -6   10.04    0.48
   3   4  -6    8.90    0.55
   3   4  -6   10.10    0.56
   3   4  -6    9.54    0.54
  -3  -4   6   10.79    0.67
  -3  -4   6   10.81    0.53
  -3  -4   6   11.16    0.62
   2   4  -6    9.95    0.48
   2   4  -6   10.30    0.51
   2   4  -6    9.79    0.61
   2   4  -6   10.04    0.43
   2   4  -6    9.77    0.39
   2   4  -6   10.24    0.53
   2   4  -6   10.09    0.45
   2   4  -6   10.32    0.52
  -2  -4   6   10.56    0.48
  -2  -4   6   10.01    0.51
  -2  -4   6   10.29    0.65
  -2  -4   6   11.41    0.60
  -2  -4   6   11.01    0.48
  -2  -4   6    9.71    0.57
  -2  -4   6    9.90    0.60
   1   4  -6    4.43    0.23
   1   4  -6    4.08    0.38
   1   4  -6    4.66    0.33
   1   4  -6    4.21    0.26
   1   4  -6    4.43    0.25
   1   4  -6    4.60    0.29
   1   4  -6    4.21    0.44
   1   4  -6    4.61    0.31
   1   4  -6    3.54    0.40
   1   4  -6    4.64    0.22
   1   4  -6    4.34    0.34
  -1  -4   6    4.36    0.45
  -1  -4   6    4.50    0.38
  -1  -4   6    4.50    0.30
  -1  -4   6    4.85    0.29
  -1  -4   6    4.84    0.25
  -1  -4   6    4.80    0.39
  -1  -4   6    4.53    0.25
   0   4  -6   12.65    0.47
   0   4  -6   12.53    0.53
   0   4  -6   11.71    0.63
   0   4  -6   12.26    0.43
   0   4  -6   11.38    0.54
   0   4  -6   11.64    0.52
   0   4  -6   11.88    0.59
   0   4  -6   11.39    0.54
   0   4  -6   11.84    0.43
   0   4  -6   13.26    0.69
   0   4  -6   12.00    0.41
   0  -4   6   11.65    0.46
   0  -4   6   11.53    0.68
   0  -4   6   11.40    0.64
   0  -4   6   11.74    0.43
   0  -4   6   11.71    0.62
   0  -4   6   11.72    0.46
   0  -4   6   12.35    0.58
   0  -4   6   12.64    0.43
  -1   4  -6   29.73    1.18
  -1   4  -6   29.43    1.25
  -1   4  -6   27.85    1.25
  -1   4  -6   32.03    1.08
  -1   4  -6   27.63    1.13
  -1   4  -6   31.66    1.09
  -1   4  -6   30.30    1.08
   1  -4   6   29.78    0.99
   1  -4   6   30.65    1.20
   1  -4   6   30.72    0.98
   1  -4   6   29.31    1.27
  -2   4  -6   12.37    0.48
  -2   4  -6   11.78    0.49
  -2   4  -6   11.69    0.61
  -2   4  -6   12.99    0.52
  -2   4  -6   12.23    0.70
  -2   4  -6   11.42    0.72
  -2   4  -6   11.08    0.61
   2  -4   6   12.26    0.55
   2  -4   6   12.05    0.44
   2  -4   6   11.45    0.63
   2  -4   6   11.20    0.69
   2  -4   6   11.70    0.42
  -3   4  -6    4.32    0.22
  -3   4  -6    3.71    0.37
  -3   4  -6    3.82    0.22
  -3   4  -6    3.10    0.47
  -3   4  -6    3.76    0.28
  -3   4  -6    3.86    0.18
  -3   4  -6    3.99    0.36
   3  -4   6    3.77    0.45
   3  -4   6    4.02    0.30
   3  -4   6    3.16    0.34
   3  -4   6    3.86    0.23
   3  -4   6    4.06    0.25
  -4   4  -6    0.55    0.11
  -4   4  -6    0.70    0.15
  -4   4  -6    0.61    0.09
  -4   4  -6    0.62    0.21
  -4   4  -6    0.83    0.12
  -4   4  -6    0.84    0.11
  -4   4  -6    0.83    0.20
  -4   4  -6    0.61    0.08
  -4   4  -6    0.47    0.41
  -4   4  -6    0.64    0.10
   4  -4   6    0.76    0.18
   4  -4   6    0.40    0.18
   4  -4   6    0.57    0.18
   4  -4   6    0.95    0.17
   4  -4   6    0.24    0.17
   4  -4   6    0.89    0.31
  -5   4  -6    1.43    0.22
  -5   4  -6    1.74    0.18
  -5   4  -6    1.54    0.21
  -5   4  -6    1.87    0.19
  -5   4  -6    1.43    0.23
  -5   4  -6    1.86    0.19
  -5   4  -6    1.22    0.33
   5  -4   6    1.42    0.22
   5  -4   6    2.23    0.40
   5  -4   6    1.39    0.25
   5  -4   6    1.64    0.27
   5  -4   6    1.31    0.27
   5  -4   6    2.11    0.27
  -6   4  -6    3.71    0.28
  -6   4  -6    3.62    0.40
  -6   4  -6    3.85    0.43
  -6   4  -6    5.10    0.61
  -6   4  -6    3.55    0.33
   6  -4   6    4.12    0.42
   6  -4   6    2.99    0.45
  -7   4  -6    2.02    0.46
  -7   4  -6    1.49    0.31
  -7   4  -6    1.68    0.27
   7  -4   6    1.92    0.40
   7  -4   6    1.04    0.29
  -8   4  -6    6.24    0.66
  -8   4  -6    6.17    0.54
  -8   4  -6    6.01    0.78
   8  -4   6    6.04    0.63
   8  -4   6    6.72    0.73
   8   3  -6    3.56    0.50
   8   3  -6    2.53    0.44
   8   3  -6    2.39    0.46
   8   3  -6    3.18    0.53
  -8  -3   6    2.46    0.50
   7   3  -6    0.90    0.32
   7   3  -6    1.23    0.37
   7   3  -6    1.11    0.33
   7   3  -6    1.45    0.35
  -7  -3   6    0.50    0.38
  -7  -3   6    0.71    0.34
   6   3  -6    2.45    0.36
   6   3  -6    1.67    0.29
   6   3  -6    1.59    0.33
   6   3  -6    1.96    0.32
  -6  -3   6    2.00    0.25
  -6  -3   6    1.56    0.37
  -6  -3   6    2.19    0.36
  -6  -3   6    1.63    0.33
  -6  -3   6    1.50    0.33
   5   3  -6    9.59    0.61
   5   3  -6   10.83    0.61
   5   3  -6    9.83    0.70
   5   3  -6   10.70    0.49
   5   3  -6   10.96    0.62
   5   3  -6    8.31    0.75
   5   3  -6   10.77    0.62
  -5  -3   6   10.33    0.61
  -5  -3   6   10.26    0.49
  -5  -3   6    9.62    0.61
  -5  -3   6   10.03    0.68
  -5  -3   6   10.43    0.65
   4   3  -6    8.01    0.47
   4   3  -6    8.07    0.55
   4   3  -6    7.77    0.38
   4   3  -6    7.41    0.69
   4   3  -6    8.25    0.44
   4   3  -6    8.47    0.48
   4   3  -6    7.12    0.55
   4   3  -6    7.67    0.48
  -4  -3   6    7.84    0.40
  -4  -3   6    8.60    0.48
  -4  -3   6    7.24    0.49
  -4  -3   6    8.03    0.51
  -4  -3   6    8.10    0.58
   3   3  -6   12.93    0.65
   3   3  -6   13.41    0.72
   3   3  -6   13.76    0.53
   3   3  -6   13.58    0.58
   3   3  -6   13.79    0.62
   3   3  -6   13.60    0.57
   3   3  -6   13.93    0.70
   3   3  -6   13.68    0.64
  -3  -3   6   11.96    0.69
  -3  -3   6   13.16    0.72
  -3  -3   6   12.77    0.64
  -3  -3   6   13.74    0.60
  -3  -3   6   14.30    0.64
   2   3  -6    1.11    0.13
   2   3  -6    1.21    0.18
   2   3  -6    1.40    0.19
   2   3  -6    1.08    0.16
   2   3  -6    1.32    0.20
   2   3  -6    1.09    0.15
   2   3  -6    1.53    0.17
   2   3  -6    1.01    0.21
   2   3  -6    1.35    0.25
  -2  -3   6    1.26    0.20
  -2  -3   6    1.29    0.19
  -2  -3   6    1.09    0.23
  -2  -3   6    1.64    0.29
  -2  -3   6    1.24    0.17
  -2  -3   6    1.09    0.15
  -2  -3   6    1.34    0.21
   1   3  -6    6.33    0.40
   1   3  -6    6.85    0.35
   1   3  -6    6.99    0.30
   1   3  -6    7.03    0.33
   1   3  -6    6.77    0.36
   1   3  -6    6.77    0.37
   1   3  -6    6.60    0.45
   1   3  -6    7.45    0.45
   1   3  -6    6.63    0.36
   1   3  -6    7.06    0.29
  -1  -3   6    6.49    0.44
  -1  -3   6    6.83    0.49
  -1  -3   6    6.83    0.34
  -1  -3   6    6.87    0.42
  -1  -3   6    7.16    0.35
  -1  -3   6    6.87    0.30
  -1  -3   6    7.18    0.30
  -1  -3   6    6.67    0.40
   0   3  -6   18.01    0.72
   0   3  -6   18.46    0.69
   0   3  -6   18.05    0.81
   0   3  -6   19.10    0.63
   0   3  -6   17.96    0.65
   0   3  -6   19.03    0.70
   0   3  -6   18.24    0.64
   0   3  -6   17.61    0.78
   0   3  -6   18.48    0.69
   0   3  -6   16.28    0.73
   0   3  -6   18.16    0.62
   0  -3   6   18.89    0.63
   0  -3   6   17.27    0.76
   0  -3   6   15.37    0.77
   0  -3   6   18.26    0.73
   0  -3   6   17.53    0.85
   0  -3   6   17.90    0.65
   0  -3   6   17.50    0.64
  -1   3  -6   59.98    2.08
  -1   3  -6   62.60    2.04
  -1   3  -6   62.91    2.08
  -1   3  -6   59.28    2.22
  -1   3  -6   63.12    2.03
  -1   3  -6   64.14    2.18
  -1   3  -6   62.43    2.14
  -1   3  -6   62.86    2.01
  -1   3  -6   62.80    2.07
   1  -3   6   63.26    2.02
   1  -3   6   65.29    2.29
   1  -3   6   61.38    2.21
   1  -3   6   61.36    2.12
   1  -3   6   64.81    2.04
   1  -3   6   63.10    2.03
  -2   3  -6    8.60    0.39
  -2   3  -6    9.21    0.36
  -2   3  -6    8.88    0.39
  -2   3  -6    8.79    0.35
  -2   3  -6    8.49    0.48
  -2   3  -6    9.25    0.38
  -2   3  -6    8.16    0.55
  -2   3  -6    9.04    0.33
  -2   3  -6    9.08    0.38
   2  -3   6    8.83    0.33
   2  -3   6    9.34    0.42
   2  -3   6    9.02    0.36
   2  -3   6    9.66    0.44
   2  -3   6    8.56    0.48
   2  -3   6    9.36    0.58
   2  -3   6    8.92    0.39
  -3   3  -6    3.11    0.22
  -3   3  -6    3.10    0.17
  -3   3  -6    3.30    0.31
  -3   3  -6    2.94    0.21
  -3   3  -6    3.31    0.26
  -3   3  -6    3.39    0.19
   3  -3   6    3.36    0.31
   3  -3   6    3.26    0.25
   3  -3   6    3.42    0.28
   3  -3   6    2.74    0.25
   3  -3   6    3.05    0.40
   3  -3   6    3.36    0.19
   3  -3   6    3.50    0.27
   3  -3   6    3.14    0.26
  -4   3  -6    1.58    0.21
  -4   3  -6    1.56    0.16
  -4   3  -6    1.42    0.17
  -4   3  -6    1.78    0.22
  -4   3  -6    1.49    0.19
  -4   3  -6    1.28    0.19
   4  -3   6    1.76    0.24
   4  -3   6    1.58    0.23
   4  -3   6    1.19    0.21
   4  -3   6    1.62    0.23
   4  -3   6    1.79    0.24
   4  -3   6    1.61    0.24
   4  -3   6    1.14    0.31
  -5   3  -6    3.70    0.29
  -5   3  -6    3.54    0.28
  -5   3  -6    3.19    0.35
  -5   3  -6    3.89    0.34
  -5   3  -6    3.67    0.33
  -5   3  -6    3.61    0.26
  -5   3  -6    4.21    0.51
   5  -3   6    3.40    0.30
   5  -3   6    3.50    0.44
   5  -3   6    3.60    0.36
   5  -3   6    3.45    0.45
   5  -3   6    3.61    0.32
  -6   3  -6    2.26    0.32
  -6   3  -6    2.59    0.45
  -6   3  -6    2.18    0.28
  -6   3  -6    2.35    0.33
  -6   3  -6    2.31    0.33
   6  -3   6    2.14    0.29
   6  -3   6    2.48    0.36
   6  -3   6    2.87    0.34
   6  -3   6    2.72    0.39
  -7   3  -6    1.92    0.37
  -7   3  -6    2.12    0.46
  -7   3  -6    2.97    0.36
   7  -3   6    2.85    0.46
   7  -3   6    2.86    0.43
   7  -3   6    2.53    0.38
  -8   3  -6    1.70    0.41
  -8   3  -6    2.03    0.38
  -8   3  -6    1.30    0.57
   8  -3   6    1.71    0.37
   8  -3   6    1.67    0.43
   8   2  -6    3.18    0.51
   8   2  -6    4.82    0.61
   8   2  -6    5.17    0.63
   8   2  -6    3.89    0.45
  -8  -2   6    4.50    0.54
   7   2  -6    4.12    0.52
   7   2  -6    3.10    0.41
   7   2  -6    4.02    0.49
   7   2  -6    3.73    0.44
  -7  -2   6    4.03    0.53
  -7  -2   6    3.52    0.47
  -7  -2   6    3.55    0.47
  -7  -2   6    3.06    0.49
   6   2  -6    1.21    0.38
   6   2  -6    1.29    0.28
   6   2  -6    1.12    0.26
   6   2  -6    1.71    0.28
   6   2  -6    2.09    0.30
  -6  -2   6    1.10    0.30
  -6  -2   6    2.03    0.27
  -6  -2   6    1.96    0.33
  -6  -2   6    0.99    0.30
   5   2  -6   12.30    0.63
   5   2  -6   13.27    0.65
   5   2  -6   12.92    0.63
   5   2  -6   13.63    0.77
   5   2  -6   11.60    0.73
   5   2  -6   12.51    0.60
   5   2  -6   11.39    0.73
   5   2  -6   13.13    0.66
  -5  -2   6   13.38    0.59
  -5  -2   6   13.15    0.65
  -5  -2   6   12.46    0.69
  -5  -2   6   12.86    0.72
  -5  -2   6   12.54    0.53
   4   2  -6    5.91    0.44
   4   2  -6    6.18    0.38
   4   2  -6    5.71    0.38
   4   2  -6    5.55    0.39
   4   2  -6    5.83    0.45
   4   2  -6    6.01    0.50
   4   2  -6    6.14    0.47
   4   2  -6    6.38    0.37
   4   2  -6    6.00    0.37
  -4  -2   6    5.65    0.43
  -4  -2   6    5.90    0.32
  -4  -2   6    5.94    0.35
  -4  -2   6    5.82    0.48
  -4  -2   6    6.03    0.39
   3   2  -6    1.48    0.18
   3   2  -6    1.10    0.15
   3   2  -6    0.83    0.18
   3   2  -6    1.00    0.20
   3   2  -6    1.16    0.16
   3   2  -6    1.38    0.19
   3   2  -6    1.09    0.24
   3   2  -6    1.11    0.21
   3   2  -6    1.04    0.18
  -3  -2   6    1.09    0.18
  -3  -2   6    0.92    0.17
  -3  -2   6    1.12    0.26
  -3  -2   6    1.14    0.20
  -3  -2   6    1.06    0.16
  -3  -2   6    1.11    0.20
  -3  -2   6    1.11    0.23
  -3  -2   6    1.17    0.17
   2   2  -6    1.31    0.17
   2   2  -6    1.27    0.15
   2   2  -6    1.14    0.19
   2   2  -6    1.08    0.16
   2   2  -6    1.27    0.18
   2   2  -6    1.22    0.15
   2   2  -6    1.24    0.21
   2   2  -6    1.53    0.21
   2   2  -6    1.37    0.18
   2   2  -6    1.47    0.19
  -2  -2   6    1.58    0.23
  -2  -2   6    1.41    0.19
  -2  -2   6    1.62    0.21
  -2  -2   6    1.24    0.17
  -2  -2   6    1.25    0.26
   1   2  -6    2.95    0.24
   1   2  -6    3.15    0.30
   1   2  -6    3.40    0.18
   1   2  -6    3.05    0.22
   1   2  -6    3.21    0.18
   1   2  -6    3.40    0.23
   1   2  -6    3.78    0.23
   1   2  -6    3.65    0.22
   1   2  -6    3.36    0.29
   1   2  -6    3.63    0.27
  -1  -2   6    3.36    0.22
  -1  -2   6    3.48    0.19
  -1  -2   6    3.66    0.28
  -1  -2   6    3.13    0.28
  -1  -2   6    3.32    0.19
  -1  -2   6    3.22    0.33
  -1  -2   6    2.83    0.22
   0   2  -6   49.69    1.65
   0   2  -6   51.19    1.67
   0   2  -6   50.15    1.65
   0   2  -6   48.73    1.74
   0   2  -6   50.17    1.73
   0   2  -6   50.13    1.67
   0   2  -6   53.03    1.79
   0   2  -6   51.72    1.78
   0   2  -6   47.93    1.69
   0   2  -6   49.77    1.66
   0   2  -6   51.45    1.68
   0  -2   6   49.06    1.85
   0  -2   6   49.93    1.66
   0  -2   6   51.04    1.79
   0  -2   6   50.27    1.71
   0  -2   6   50.57    1.73
   0  -2   6   49.31    1.66
   0  -2   6   50.41    1.65
   0  -2   6   50.06    1.66
  -1   2  -6   19.10    0.66
  -1   2  -6   18.74    0.67
  -1   2  -6   18.82    0.69
  -1   2  -6   19.38    0.67
  -1   2  -6   19.38    0.67
  -1   2  -6   19.42    0.78
  -1   2  -6   19.03    0.70
  -1   2  -6   19.68    0.70
  -1   2  -6   18.30    0.82
   1  -2   6   19.56    0.69
   1  -2   6   19.57    0.69
   1  -2   6   19.33    0.70
   1  -2   6   19.38    0.74
   1  -2   6   18.98    0.67
   1  -2   6   17.01    0.77
   1  -2   6   18.95    0.86
   1  -2   6   19.32    0.68
  -2   2  -6   17.18    0.68
  -2   2  -6   17.58    0.64
  -2   2  -6   17.41    0.73
  -2   2  -6   18.05    0.81
  -2   2  -6   17.26    0.62
  -2   2  -6   17.42    0.65
  -2   2  -6   17.71    0.64
  -2   2  -6   17.71    0.69
   2  -2   6   17.60    0.69
   2  -2   6   20.50    0.78
   2  -2   6   17.33    0.83
   2  -2   6   17.49    0.66
   2  -2   6   17.69    0.68
   2  -2   6   18.08    0.64
   2  -2   6   17.50    0.68
   2  -2   6   17.39    0.66
  -3   2  -6    3.18    0.29
  -3   2  -6    3.43    0.21
  -3   2  -6    3.08    0.28
  -3   2  -6    3.46    0.21
  -3   2  -6    3.83    0.27
  -3   2  -6    3.52    0.24
   3  -2   6    3.36    0.24
   3  -2   6    3.45    0.30
   3  -2   6    3.29    0.29
   3  -2   6    3.46    0.23
   3  -2   6    3.41    0.39
   3  -2   6    3.31    0.31
   3  -2   6    3.45    0.25
   3  -2   6    3.12    0.28
  -4   2  -6    0.77    0.19
  -4   2  -6    0.99    0.15
  -4   2  -6    0.81    0.17
  -4   2  -6    1.04    0.18
  -4   2  -6    1.18    0.21
  -4   2  -6    1.04    0.16
   4  -2   6    1.15    0.24
   4  -2   6    1.09    0.25
   4  -2   6    1.02    0.27
   4  -2   6    0.88    0.15
   4  -2   6    1.12    0.17
   4  -2   6    0.72    0.17
  -5   2  -6    7.49    0.49
  -5   2  -6    7.24    0.47
  -5   2  -6    6.77    0.40
  -5   2  -6    6.75    0.33
  -5   2  -6    6.29    0.79
   5  -2   6    7.48    0.42
   5  -2   6    7.15    0.48
   5  -2   6    7.14    0.58
   5  -2   6    6.71    0.38
   5  -2   6    7.78    0.57
   5  -2   6    6.80    0.51
  -6   2  -6    1.04    0.28
  -6   2  -6    1.30    0.29
  -6   2  -6    1.18    0.29
  -6   2  -6    0.74    0.35
  -6   2  -6    1.21    0.30
  -6   2  -6    1.14    0.23
   6  -2   6    0.88    0.25
   6  -2   6    1.19    0.32
   6  -2   6    1.26    0.21
   6  -2   6    1.01    0.24
  -7   2  -6    3.55    0.49
  -7   2  -6    3.39    0.42
  -7   2  -6    2.92    0.53
   7  -2   6    2.92    0.48
   7  -2   6    2.92    0.51
  -8   2  -6    4.45    0.72
  -8   2  -6    4.56    0.53
  -8   2  -6    4.16    0.56
   8  -2   6    4.27    0.59
   8  -2   6    4.58    0.63
   9   1  -6    8.30    0.85
   9   1  -6    8.73    0.80
   9   1  -6    9.48    0.93
   9   1  -6    8.61    0.73
  -9  -1   6   10.32    0.86
   8   1  -6    1.35    0.36
   8   1  -6    1.48    0.38
   8   1  -6    1.54    0.41
   8   1  -6    1.01    0.31
  -8  -1   6    0.81    0.36
  -8  -1   6    1.34    0.38
  -8  -1   6    0.65    0.41
  -8  -1   6    1.19    0.39
   7   1  -6    8.61    0.67
   7   1  -6    9.86    0.98
   7   1  -6    9.24    0.63
   7   1  -6    9.53    0.63
  -7  -1   6   10.39    0.63
  -7  -1   6    9.72    0.65
  -7  -1   6   10.41    0.73
   6   1  -6   -0.48    0.34
   6   1  -6    0.55    0.29
   6   1  -6    0.00    0.20
   6   1  -6    0.07    0.23
   6   1  -6    0.21    0.21
   6   1  -6   -0.03    0.17
   6   1  -6    0.36    0.20
  -6  -1   6   -0.13    0.20
  -6  -1   6    0.27    0.25
  -6  -1   6    0.26    0.21
   5   1  -6   25.47    1.19
   5   1  -6   25.02    1.01
   5   1  -6   25.21    1.03
   5   1  -6   25.20    1.12
   5   1  -6   26.49    1.03
   5   1  -6   25.07    0.99
   5   1  -6   24.58    1.04
   5   1  -6   25.09    1.09
   5   1  -6   24.45    1.00
  -5  -1   6   26.27    1.00
  -5  -1   6   25.82    1.05
  -5  -1   6   25.25    1.02
   4   1  -6    0.66    0.15
   4   1  -6    1.04    0.20
   4   1  -6    0.95    0.16
   4   1  -6    1.20    0.20
   4   1  -6    0.86    0.22
   4   1  -6    0.89    0.17
   4   1  -6    1.18    0.18
   4   1  -6    1.07    0.23
  -4  -1   6    1.08    0.18
  -4  -1   6    1.33    0.25
  -4  -1   6    0.95    0.26
  -4  -1   6    0.99    0.19
   3   1  -6    2.08    0.23
   3   1  -6    1.86    0.19
   3   1  -6    2.38    0.24
   3   1  -6    1.87    0.21
   3   1  -6    2.53    0.26
   3   1  -6    1.92    0.20
   3   1  -6    2.19    0.25
   3   1  -6    1.85    0.21
  -3  -1   6    1.62    0.21
  -3  -1   6    2.53    0.27
  -3  -1   6    1.96    0.22
  -3  -1   6    2.13    0.26
  -3  -1   6    2.35    0.21
  -3  -1   6    1.86    0.23
   2   1  -6    2.53    0.22
   2   1  -6    2.10    0.23
   2   1  -6    2.82    0.24
   2   1  -6    2.51    0.18
   2   1  -6    2.30    0.21
   2   1  -6    2.41    0.18
   2   1  -6    2.46    0.20
   2   1  -6    2.57    0.20
   2   1  -6    2.37    0.22
  -2  -1   6    2.66    0.26
  -2  -1   6    2.57    0.19
  -2  -1   6    2.31    0.22
  -2  -1   6    2.21    0.21
  -2  -1   6    2.13    0.25
  -2  -1   6    2.60    0.20
  -2  -1   6    2.34    0.26
  -2  -1   6    2.19    0.24
   1   1  -6    9.29    0.41
   1   1  -6   10.03    0.43
   1   1  -6    9.73    0.41
   1   1  -6   10.03    0.40
   1   1  -6    9.58    0.46
   1   1  -6    9.62    0.41
   1   1  -6   10.03    0.41
   1   1  -6    9.61    0.39
   1   1  -6    9.30    0.46
  -1  -1   6    9.72    0.39
  -1  -1   6   10.32    0.46
  -1  -1   6    9.58    0.41
  -1  -1   6    9.57    0.41
  -1  -1   6    9.61    0.47
  -1  -1   6    9.70    0.44
   0   1  -6   33.55    1.15
   0   1  -6   34.01    1.16
   0   1  -6   33.76    1.14
   0   1  -6   32.04    1.16
   0   1  -6   33.37    1.11
   0   1  -6   35.19    1.24
   0   1  -6   32.26    1.23
   0   1  -6   33.79    1.14
   0   1  -6   32.74    1.15
   0  -1   6   34.64    1.31
   0  -1   6   33.44    1.16
   0  -1   6   33.56    1.15
   0  -1   6   34.01    1.15
   0  -1   6   34.30    1.17
   0  -1   6   32.09    1.18
   0  -1   6   33.42    1.15
   0  -1   6   35.82    1.24
  -1   1  -6    6.36    0.25
  -1   1  -6    6.59    0.28
  -1   1  -6    6.92    0.30
  -1   1  -6    6.62    0.43
  -1   1  -6    6.19    0.32
  -1   1  -6    6.70    0.33
  -1   1  -6    6.32    0.40
  -1   1  -6    6.43    0.29
   1  -1   6    5.69    0.32
   1  -1   6    6.07    0.27
   1  -1   6    5.78    0.42
   1  -1   6    6.50    0.29
   1  -1   6    6.42    0.33
   1  -1   6    6.40    0.31
   1  -1   6    7.04    0.36
   1  -1   6    6.33    0.31
  -2   1  -6   18.18    0.67
  -2   1  -6   17.75    0.65
  -2   1  -6   16.96    0.71
  -2   1  -6   17.35    0.67
  -2   1  -6   18.58    0.73
   2  -1   6   17.85    0.64
   2  -1   6   17.74    0.68
   2  -1   6   18.31    0.71
   2  -1   6   17.40    0.66
   2  -1   6   17.65    0.69
   2  -1   6   17.30    0.73
   2  -1   6   19.83    0.75
   2  -1   6   16.51    0.79
  -3   1  -6    0.50    0.16
  -3   1  -6    0.49    0.13
  -3   1  -6    0.54    0.11
  -3   1  -6    0.41    0.12
  -3   1  -6    0.52    0.16
   3  -1   6    0.50    0.16
   3  -1   6    0.31    0.10
   3  -1   6    0.44    0.21
   3  -1   6    0.39    0.17
   3  -1   6    0.50    0.15
   3  -1   6    0.27    0.13
   3  -1   6    0.35    0.11
  -4   1  -6    0.59    0.17
  -4   1  -6    0.32    0.19
  -4   1  -6    0.39    0.14
  -4   1  -6    0.31    0.15
  -4   1  -6    0.43    0.16
  -4   1  -6    0.58    0.19
   4  -1   6    0.58    0.23
   4  -1   6    0.64    0.21
   4  -1   6    0.32    0.13
   4  -1   6   -0.05    0.21
   4  -1   6    0.65    0.14
  -5   1  -6    7.67    0.45
  -5   1  -6    6.74    0.69
  -5   1  -6    7.20    0.51
  -5   1  -6    8.01    0.56
  -5   1  -6    7.94    0.48
   5  -1   6    7.90    0.43
   5  -1   6    8.06    0.42
   5  -1   6    8.22    0.56
   5  -1   6    8.01    0.57
   5  -1   6    7.47    0.63
  -6   1  -6    1.93    0.44
  -6   1  -6    1.72    0.41
  -6   1  -6    1.70    0.33
  -6   1  -6    2.32    0.40
   6  -1   6    1.19    0.23
   6  -1   6    1.87    0.41
   6  -1   6    1.26    0.25
  -7   1  -6    1.15    0.37
  -7   1  -6    1.29    0.37
  -7   1  -6    1.45    0.47
   7  -1   6    1.16    0.47
   7  -1   6    1.08    0.48
  -8   1  -6    0.63    0.43
  -8   1  -6    0.62    0.57
  -8   1  -6    0.65    0.45
   8  -1   6    0.12    0.32
   9   0  -6    5.76    0.67
   9   0  -6    4.71    0.59
   9   0  -6    4.63    0.55
   9   0  -6    5.26    0.63
  -9   0   6    6.79    0.91
  -9   0   6    4.21    0.57
  -9   0   6    4.48    0.56
   8   0  -6    3.49    0.45
   8   0  -6    2.78    0.44
   8   0  -6    2.30    0.37
   8   0  -6    2.93    0.45
  -8   0   6    2.48    0.46
  -8   0   6    3.05    0.44
   7   0  -6    7.00    0.53
   7   0  -6    6.24    0.82
   7   0  -6    7.47    0.57
   7   0  -6    6.89    0.59
   7   0  -6    7.20    0.47
  -7   0   6    7.53    0.56
  -7   0   6    6.20    0.61
  -7   0   6    6.57    0.54
   6   0  -6   81.68    2.68
   6   0  -6   76.77    2.93
   6   0  -6   77.78    2.71
   6   0  -6   83.50    2.76
   6   0  -6   79.87    2.86
   6   0  -6   71.01    2.74
  -6   0   6   80.58    2.78
  -6   0   6   80.54    2.74
  -6   0   6   80.84    2.74
   5   0  -6    8.03    0.45
   5   0  -6    8.28    0.51
   5   0  -6    8.30    0.57
   5   0  -6    7.63    0.41
   5   0  -6    7.88    0.44
   5   0  -6    7.14    0.54
   5   0  -6    7.23    0.44
   5   0  -6    7.88    0.46
  -5   0   6    8.38    0.49
  -5   0   6    7.03    0.57
  -5   0   6    8.48    0.49
   4   0  -6   12.20    0.59
   4   0  -6   11.92    0.57
   4   0  -6   11.00    0.52
   4   0  -6   11.84    0.51
   4   0  -6   11.96    0.54
   4   0  -6   11.23    0.53
   4   0  -6   12.15    0.51
  -4   0   6   12.17    0.57
  -4   0   6   11.90    0.53
  -4   0   6   11.32    0.59
  -4   0   6   11.05    0.60
  -4   0   6    9.91    0.57
  -4   0   6   12.39    0.57
   3   0  -6    4.91    0.29
   3   0  -6    4.83    0.33
   3   0  -6    4.84    0.33
   3   0  -6    4.89    0.29
   3   0  -6    4.61    0.33
   3   0  -6    4.33    0.27
   3   0  -6    5.16    0.30
   3   0  -6    4.64    0.27
  -3   0   6    5.06    0.33
  -3   0   6    4.90    0.28
  -3   0   6    4.42    0.32
  -3   0   6    4.38    0.33
  -3   0   6    4.87    0.33
  -3   0   6    4.63    0.32
   2   0  -6   18.40    0.70
   2   0  -6   17.61    0.70
   2   0  -6   19.30    0.69
   2   0  -6   19.82    0.69
   2   0  -6   18.59    0.71
   2   0  -6   18.74    0.73
   2   0  -6   18.87    0.75
   2   0  -6   18.56    0.71
   2   0  -6   19.27    0.70
  -2   0   6   18.63    0.74
  -2   0   6   18.25    0.70
  -2   0   6   18.14    0.72
  -2   0   6   18.64    0.69
  -2   0   6   17.93    0.74
  -2   0   6   19.19    0.77
  -2   0   6   17.94    0.71
  -2   0   6   18.47    0.73
   1   0  -6   21.70    0.82
   1   0  -6   22.73    0.81
   1   0  -6   22.03    0.82
   1   0  -6   22.82    0.82
   1   0  -6   22.43    0.88
   1   0  -6   23.34    0.82
   1   0  -6   21.93    0.81
  -1   0   6   23.35    0.81
  -1   0   6   22.17    0.85
  -1   0   6   22.51    0.82
  -1   0   6   22.58    0.91
  -1   0   6   22.82    0.83
  -1   0   6   23.05    0.82
  -1   0   6   22.60    0.83
  -1   0   6   23.21    0.84
   0   0  -6   10.66    0.41
   0   0  -6   10.20    0.39
   0   0  -6   10.27    0.44
   0   0  -6   10.42    0.43
   0   0  -6   10.12    0.44
   0   0  -6   10.38    0.42
   0   0  -6    9.89    0.51
   0   0   6   10.09    0.42
   0   0   6   10.44    0.42
   0   0   6    9.79    0.44
   0   0   6    9.31    0.45
   0   0   6   10.17    0.43
   0   0   6   10.54    0.43
   0   0   6   10.11    0.44
  -1   0  -6   10.16    0.43
  -1   0  -6   10.53    0.42
  -1   0  -6    9.77    0.47
  -1   0  -6   10.32    0.54
  -1   0  -6    9.84    0.43
  -1   0  -6   10.03    0.47
   1   0   6   10.28    0.39
   1   0   6   10.34    0.44
   1   0   6   10.44    0.48
   1   0   6   10.12    0.45
   1   0   6   10.10    0.43
   1   0   6    9.91    0.45
   1   0   6   10.76    0.47
  -2   0  -6    0.37    0.15
  -2   0  -6    0.48    0.10
  -2   0  -6    0.56    0.12
  -2   0  -6    0.69    0.16
  -2   0  -6    0.32    0.11
   2   0   6    0.52    0.12
   2   0   6    0.58    0.15
   2   0   6    0.84    0.22
   2   0   6    0.74    0.18
   2   0   6    0.49    0.16
   2   0   6    0.52    0.12
   2   0   6    0.63    0.08
  -3   0  -6    2.21    0.28
  -3   0  -6    1.99    0.25
  -3   0  -6    2.09    0.22
  -3   0  -6    1.63    0.24
  -3   0  -6    1.95    0.23
   3   0   6    2.09    0.30
   3   0   6    2.15    0.18
   3   0   6    2.35    0.31
   3   0   6    1.94    0.25
   3   0   6    2.00    0.22
  -4   0  -6    1.54    0.28
  -4   0  -6    1.89    0.23
  -4   0  -6    1.53    0.23
  -4   0  -6    1.72    0.24
  -4   0  -6    1.89    0.28
   4   0   6    1.73    0.29
   4   0   6    1.56    0.20
   4   0   6    1.92    0.32
   4   0   6    1.70    0.30
   4   0   6    1.74    0.23
  -5   0  -6   13.29    0.68
  -5   0  -6   13.77    0.52
  -5   0  -6   13.05    0.71
  -5   0  -6   13.26    0.52
  -5   0  -6   14.50    0.68
  -5   0  -6   13.49    0.75
  -5   0  -6   13.73    0.80
   5   0   6   13.51    0.69
   5   0   6   15.16    0.80
   5   0   6   13.02    0.84
   5   0   6   13.15    0.61
  -6   0  -6    1.51    0.30
  -6   0  -6    1.64    0.37
  -6   0  -6    1.91    0.40
   6   0   6    1.96    0.42
   6   0   6    1.42    0.27
  -7   0  -6    4.21    0.57
  -7   0  -6    4.81    0.60
  -7   0  -6    6.19    0.81
   7   0   6    4.71    0.79
  -8   0  -6    1.36    0.55
  -8   0  -6    2.15    0.61
  -8   0  -6    2.80    0.65
   8   0   6    1.81    0.65
   8   0   6    2.50    0.45
   9  -1  -6    0.34    0.26
   9  -1  -6    0.49    0.43
   9  -1  -6    0.47    0.39
   9  -1  -6    0.20    0.37
  -9   1   6    0.27    0.38
  -9   1   6    0.69    0.48
   8  -1  -6    7.26    0.62
   8  -1  -6    7.47    0.50
   8  -1  -6    7.99    0.65
  -8   1   6    7.83    0.66
  -8   1   6    8.61    0.75
   7  -1  -6    1.91    0.34
   7  -1  -6    1.89    0.30
   7  -1  -6    1.24    0.30
   7  -1  -6    1.98    0.23
  -7   1   6    1.54    0.28
  -7   1   6    2.18    0.36
  -7   1   6    2.14    0.38
   6  -1  -6   27.62    1.10
   6  -1  -6   26.96    1.21
   6  -1  -6   25.63    1.00
   6  -1  -6   25.87    1.10
   6  -1  -6   27.82    1.02
  -6   1   6   27.42    1.13
  -6   1   6   27.56    1.14
  -6   1   6   28.22    1.09
   5  -1  -6    3.21    0.32
   5  -1  -6    3.15    0.42
   5  -1  -6    3.94    0.41
   5  -1  -6    3.99    0.43
   5  -1  -6    3.45    0.26
   5  -1  -6    3.67    0.31
   5  -1  -6    3.70    0.32
  -5   1   6    3.64    0.35
  -5   1   6    3.45    0.30
  -5   1   6    3.49    0.43
  -5   1   6    3.38    0.37
   4  -1  -6    6.06    0.36
   4  -1  -6    6.31    0.36
   4  -1  -6    6.22    0.37
   4  -1  -6    6.26    0.43
   4  -1  -6    6.95    0.45
   4  -1  -6    5.94    0.41
   4  -1  -6    6.82    0.29
   4  -1  -6    6.33    0.33
  -4   1   6    6.39    0.43
  -4   1   6    6.66    0.40
  -4   1   6    5.69    0.42
  -4   1   6    7.06    0.43
  -4   1   6    5.52    0.42
  -4   1   6    6.75    0.37
   3  -1  -6    9.46    0.43
   3  -1  -6    8.56    0.48
   3  -1  -6    9.66    0.35
   3  -1  -6    9.43    0.46
   3  -1  -6    9.16    0.43
   3  -1  -6    8.91    0.40
   3  -1  -6    9.26    0.43
   3  -1  -6    8.39    0.52
  -3   1   6    9.03    0.41
  -3   1   6    9.53    0.47
  -3   1   6    9.51    0.44
  -3   1   6    9.42    0.47
  -3   1   6    9.20    0.46
  -3   1   6    9.83    0.50
  -3   1   6    9.01    0.45
   2  -1  -6    0.55    0.13
   2  -1  -6    0.78    0.15
   2  -1  -6    0.64    0.11
   2  -1  -6    0.51    0.11
   2  -1  -6    0.71    0.12
   2  -1  -6    0.38    0.09
   2  -1  -6    0.72    0.17
  -2   1   6    0.43    0.10
  -2   1   6    0.61    0.13
  -2   1   6    0.39    0.13
  -2   1   6    0.38    0.12
  -2   1   6    0.70    0.12
  -2   1   6    0.28    0.14
  -2   1   6    0.84    0.15
  -2   1   6    0.52    0.11
   1  -1  -6    9.93    0.42
   1  -1  -6    9.63    0.44
   1  -1  -6   10.08    0.41
   1  -1  -6    9.91    0.42
   1  -1  -6    9.70    0.44
   1  -1  -6   10.15    0.44
  -1   1   6    9.37    0.44
  -1   1   6    9.58    0.42
  -1   1   6    9.62    0.43
  -1   1   6    9.02    0.43
  -1   1   6   10.18    0.44
  -1   1   6   10.31    0.43
  -1   1   6   10.25    0.53
  -1   1   6   10.02    0.43
   0  -1  -6    0.73    0.14
   0  -1  -6    0.87    0.15
   0  -1  -6    0.79    0.12
   0  -1  -6    1.16    0.15
   0  -1  -6    0.87    0.14
   0  -1  -6    0.93    0.20
   0   1   6    1.28    0.16
   0   1   6    0.90    0.12
   0   1   6    0.94    0.14
   0   1   6    1.08    0.16
   0   1   6    1.04    0.15
   0   1   6    1.14    0.15
   0   1   6    0.87    0.15
  -1  -1  -6   23.26    1.00
  -1  -1  -6   24.77    0.95
  -1  -1  -6   24.45    0.90
  -1  -1  -6   24.32    0.89
  -1  -1  -6   24.33    0.88
  -1  -1  -6   23.84    0.94
   1   1   6   24.07    0.83
   1   1   6   24.22    0.88
   1   1   6   24.06    0.95
   1   1   6   23.43    0.91
   1   1   6   24.57    0.92
   1   1   6   23.48    0.89
  -2  -1  -6    9.99    0.47
  -2  -1  -6   10.46    0.49
  -2  -1  -6   10.60    0.49
  -2  -1  -6   10.05    0.54
  -2  -1  -6   10.24    0.56
  -2  -1  -6    8.79    0.61
   2   1   6   10.35    0.40
   2   1   6   10.34    0.57
   2   1   6   10.82    0.52
   2   1   6   10.39    0.37
   2   1   6   10.39    0.38
   2   1   6    9.48    0.51
   2   1   6   10.25    0.45
   2   1   6    9.43    0.48
  -3  -1  -6    0.68    0.17
  -3  -1  -6    1.22    0.25
  -3  -1  -6    0.66    0.22
  -3  -1  -6    0.72    0.18
  -3  -1  -6    0.91    0.18
   3   1   6    0.97    0.17
   3   1   6    0.84    0.22
   3   1   6    1.26    0.31
   3   1   6    1.17    0.24
   3   1   6    0.84    0.11
  -4  -1  -6   11.13    0.66
  -4  -1  -6   10.11    0.58
  -4  -1  -6   11.31    0.70
  -4  -1  -6   11.23    0.60
   4   1   6   10.58    0.74
   4   1   6    9.74    0.58
   4   1   6   12.17    0.68
  -5  -1  -6    2.56    0.35
  -5  -1  -6    2.13    0.35
  -5  -1  -6    2.48    0.39
  -5  -1  -6    2.72    0.34
  -5  -1  -6    2.32    0.26
  -5  -1  -6    2.11    0.41
   5   1   6    2.08    0.32
   5   1   6    1.75    0.39
   5   1   6    2.28    0.39
  -6  -1  -6    2.69    0.47
  -6  -1  -6    2.71    0.39
  -6  -1  -6    2.68    0.48
   6   1   6    3.00    0.50
  -7  -1  -6    3.33    0.56
  -7  -1  -6    5.05    0.69
  -7  -1  -6    4.32    0.65
   7   1   6    4.30    0.55
   7   1   6    3.65    0.64
   9  -2  -6    1.06    0.42
   9  -2  -6    0.14    0.33
   9  -2  -6    0.82    0.38
   9  -2  -6    0.33    0.37
  -9   2   6    0.79    0.41
  -9   2   6    0.42    0.42
  -9   2   6    0.15    0.34
   8  -2  -6    6.47    0.57
   8  -2  -6    4.76    0.38
   8  -2  -6    5.58    0.54
   8  -2  -6    4.84    0.62
  -8   2   6    5.88    0.51
  -8   2   6    5.57    0.63
   7  -2  -6   11.19    0.51
   7  -2  -6   10.89    0.66
   7  -2  -6   11.20    0.64
   7  -2  -6   10.83    0.67
  -7   2   6   11.15    0.63
  -7   2   6   10.98    0.69
   6  -2  -6    0.94    0.16
   6  -2  -6    1.09    0.22
   6  -2  -6    0.81    0.31
   6  -2  -6    0.63    0.20
  -6   2   6    0.65    0.32
  -6   2   6    1.01    0.24
  -6   2   6    1.24    0.24
  -6   2   6    1.06    0.26
   5  -2  -6    5.52    0.50
   5  -2  -6    5.72    0.38
   5  -2  -6    6.35    0.33
   5  -2  -6    5.75    0.39
   5  -2  -6    5.35    0.38
  -5   2   6    5.44    0.49
  -5   2   6    5.92    0.37
  -5   2   6    6.11    0.46
   4  -2  -6    8.32    0.43
   4  -2  -6    8.39    0.38
   4  -2  -6    8.49    0.40
   4  -2  -6    8.25    0.47
   4  -2  -6    7.33    0.49
   4  -2  -6    7.65    0.52
   4  -2  -6    8.29    0.43
   4  -2  -6    8.20    0.43
  -4   2   6    8.49    0.44
  -4   2   6    8.60    0.51
  -4   2   6    7.69    0.48
  -4   2   6    8.32    0.41
  -4   2   6    8.41    0.47
  -4   2   6    8.77    0.44
  -4   2   6    7.11    0.47
   3  -2  -6   20.69    0.79
   3  -2  -6   20.88    0.75
   3  -2  -6   19.90    0.79
   3  -2  -6   20.96    0.76
   3  -2  -6   20.50    0.83
   3  -2  -6   19.76    0.81
   3  -2  -6   20.08    0.87
   3  -2  -6   21.20    0.80
  -3   2   6   20.26    0.82
  -3   2   6   21.00    0.78
  -3   2   6   20.69    0.88
  -3   2   6   20.23    0.79
  -3   2   6   20.72    0.82
  -3   2   6   19.91    0.81
  -3   2   6   20.13    0.80
   2  -2  -6    1.10    0.14
   2  -2  -6    0.69    0.19
   2  -2  -6    0.97    0.15
   2  -2  -6    0.76    0.13
   2  -2  -6    0.87    0.15
   2  -2  -6    0.78    0.12
   2  -2  -6    0.63    0.12
   2  -2  -6    0.89    0.13
  -2   2   6    0.79    0.15
  -2   2   6    0.68    0.12
  -2   2   6    0.88    0.12
  -2   2   6    0.96    0.14
  -2   2   6    0.77    0.12
  -2   2   6    1.19    0.16
  -2   2   6    0.92    0.17
  -2   2   6    0.64    0.19
   1  -2  -6    1.13    0.17
   1  -2  -6    1.23    0.16
   1  -2  -6    1.31    0.16
   1  -2  -6    1.09    0.17
   1  -2  -6    1.00    0.18
   1  -2  -6    0.88    0.18
  -1   2   6    1.02    0.15
  -1   2   6    0.80    0.15
  -1   2   6    1.13    0.22
  -1   2   6    0.85    0.14
  -1   2   6    0.95    0.16
  -1   2   6    1.06    0.15
  -1   2   6    0.86    0.14
  -1   2   6    1.15    0.16
   0  -2  -6    1.94    0.23
   0  -2  -6    1.93    0.18
   0  -2  -6    1.50    0.20
   0  -2  -6    1.82    0.19
   0  -2  -6    1.65    0.25
   0   2   6    2.03    0.23
   0   2   6    1.74    0.19
   0   2   6    1.94    0.20
   0   2   6    1.80    0.18
   0   2   6    2.18    0.19
   0   2   6    1.91    0.26
  -1  -2  -6    2.32    0.31
  -1  -2  -6    2.00    0.27
  -1  -2  -6    1.85    0.22
  -1  -2  -6    2.34    0.23
  -1  -2  -6    2.02    0.29
   1   2   6    2.21    0.18
   1   2   6    1.74    0.20
   1   2   6    1.91    0.26
   1   2   6    1.94    0.25
   1   2   6    2.23    0.25
   1   2   6    1.85    0.22
  -2  -2  -6    3.03    0.29
  -2  -2  -6    2.71    0.28
  -2  -2  -6    2.58    0.28
  -2  -2  -6    3.14    0.37
  -2  -2  -6    2.06    0.29
   2   2   6    2.91    0.38
   2   2   6    2.31    0.30
   2   2   6    1.98    0.24
   2   2   6    2.45    0.31
   2   2   6    2.62    0.23
  -3  -2  -6    2.38    0.29
  -3  -2  -6    2.12    0.27
  -3  -2  -6    1.90    0.27
  -3  -2  -6    1.91    0.30
  -3  -2  -6    2.02    0.33
   3   2   6    2.94    0.39
   3   2   6    2.45    0.26
   3   2   6    2.48    0.33
  -4  -2  -6   54.61    1.93
  -4  -2  -6   50.88    1.92
  -4  -2  -6   51.64    1.98
  -4  -2  -6   54.02    2.03
  -4  -2  -6   49.88    1.79
   4   2   6   50.69    1.96
   4   2   6   54.74    1.75
   4   2   6   48.38    1.81
   4   2   6   52.03    2.02
  -5  -2  -6   10.13    0.50
  -5  -2  -6    9.82    0.67
  -5  -2  -6   10.69    0.83
  -5  -2  -6    9.99    0.75
   5   2   6   10.42    0.77
   5   2   6    9.93    0.45
   5   2   6    9.23    0.80
  -6  -2  -6   -0.24    0.41
  -6  -2  -6    0.79    0.47
   6   2   6    0.69    0.45
  -7  -2  -6    2.38    0.59
  -7  -2  -6    3.66    0.67
  -7  -2  -6    3.46    0.67
   7   2   6    4.65    0.69
   9  -3  -6    0.28    0.39
   9  -3  -6    0.18    0.34
   9  -3  -6    0.60    0.37
  -9   3   6    0.31    0.40
  -9   3   6    0.58    0.41
  -9   3   6    0.68    0.35
   8  -3  -6    3.74    0.47
   8  -3  -6    3.06    0.41
   8  -3  -6    3.19    0.43
   8  -3  -6    3.09    0.32
   8  -3  -6    2.82    0.41
  -8   3   6    3.63    0.52
  -8   3   6    3.77    0.47
  -8   3   6    3.47    0.41
   7  -3  -6    5.01    0.48
   7  -3  -6    5.49    0.34
   7  -3  -6    5.40    0.51
   7  -3  -6    4.72    0.48
   7  -3  -6    4.77    0.44
  -7   3   6    4.92    0.44
  -7   3   6    6.23    0.60
   6  -3  -6    8.76    0.52
   6  -3  -6    8.83    0.53
   6  -3  -6    9.08    0.42
   6  -3  -6    8.51    0.54
   6  -3  -6    8.24    0.51
  -6   3   6    9.39    0.66
  -6   3   6    7.99    0.50
  -6   3   6    8.74    0.54
  -6   3   6    9.05    0.64
   5  -3  -6    2.97    0.30
   5  -3  -6    3.69    0.42
   5  -3  -6    3.35    0.32
   5  -3  -6    3.54    0.25
   5  -3  -6    2.82    0.28
   5  -3  -6    3.40    0.32
  -5   3   6    2.82    0.28
  -5   3   6    3.24    0.33
  -5   3   6    2.44    0.32
  -5   3   6    3.01    0.40
  -5   3   6    2.18    0.29
   4  -3  -6    7.84    0.43
   4  -3  -6    7.98    0.41
   4  -3  -6    8.12    0.44
   4  -3  -6    8.96    0.41
   4  -3  -6    8.19    0.38
   4  -3  -6    7.32    0.47
   4  -3  -6    7.68    0.42
   4  -3  -6    8.12    0.51
  -4   3   6    7.99    0.43
  -4   3   6    6.93    0.48
  -4   3   6    7.58    0.41
  -4   3   6    7.52    0.46
  -4   3   6    7.89    0.51
  -4   3   6    7.84    0.41
   3  -3  -6    3.55    0.29
   3  -3  -6    3.69    0.42
   3  -3  -6    3.45    0.23
   3  -3  -6    3.41    0.30
   3  -3  -6    3.01    0.31
   3  -3  -6    3.35    0.26
   3  -3  -6    3.79    0.27
   3  -3  -6    3.84    0.23
  -3   3   6    2.94    0.26
  -3   3   6    3.32    0.30
  -3   3   6    4.16    0.27
  -3   3   6    3.72    0.36
  -3   3   6    4.24    0.28
  -3   3   6    3.47    0.31
   2  -3  -6    1.34    0.19
   2  -3  -6    0.86    0.18
   2  -3  -6    1.24    0.17
   2  -3  -6    0.86    0.17
   2  -3  -6    0.47    0.18
   2  -3  -6    0.70    0.12
   2  -3  -6    0.93    0.14
  -2   3   6    1.30    0.23
  -2   3   6    0.71    0.12
  -2   3   6    0.91    0.14
  -2   3   6    0.89    0.17
  -2   3   6    0.99    0.18
  -2   3   6    1.07    0.18
  -2   3   6    0.88    0.15
  -2   3   6    0.78    0.16
   1  -3  -6    3.68    0.38
   1  -3  -6    4.47    0.33
   1  -3  -6    4.23    0.28
   1  -3  -6    4.48    0.30
   1  -3  -6    4.23    0.28
  -1   3   6    4.37    0.29
  -1   3   6    3.90    0.28
  -1   3   6    3.73    0.32
  -1   3   6    4.15    0.27
  -1   3   6    3.69    0.30
  -1   3   6    3.57    0.27
  -1   3   6    3.89    0.38
   0  -3  -6    4.91    0.36
   0  -3  -6    4.67    0.30
   0  -3  -6    3.94    0.42
   0  -3  -6    3.92    0.35
   0  -3  -6    4.18    0.31
   0   3   6    4.19    0.19
   0   3   6    4.39    0.32
   0   3   6    4.46    0.28
   0   3   6    4.40    0.35
   0   3   6    4.60    0.29
   0   3   6    4.63    0.34
   0   3   6    3.56    0.27
  -1  -3  -6    2.52    0.28
  -1  -3  -6    2.37    0.27
  -1  -3  -6    1.97    0.28
  -1  -3  -6    2.68    0.35
  -1  -3  -6    2.37    0.27
   1   3   6    2.40    0.18
   1   3   6    2.44    0.22
   1   3   6    2.70    0.33
   1   3   6    2.43    0.27
   1   3   6    2.33    0.30
  -2  -3  -6    0.32    0.17
  -2  -3  -6    0.12    0.18
  -2  -3  -6    0.53    0.19
  -2  -3  -6    0.77    0.28
  -2  -3  -6    0.59    0.23
   2   3   6    0.81    0.17
   2   3   6    1.03    0.28
   2   3   6    0.31    0.20
  -3  -3  -6    1.95    0.32
  -3  -3  -6    2.50    0.41
  -3  -3  -6    1.65    0.59
  -3  -3  -6    2.42    0.28
  -3  -3  -6    1.56    0.25
   3   3   6    2.71    0.44
   3   3   6    2.19    0.25
   3   3   6    1.74    0.35
  -4  -3  -6   11.31    0.71
  -4  -3  -6   11.51    0.60
  -4  -3  -6   12.24    0.79
  -4  -3  -6   11.46    0.72
   4   3   6   11.52    0.56
   4   3   6   11.36    0.76
   4   3   6   11.87    0.88
   4   3   6    9.76    0.63
  -5  -3  -6    1.28    0.33
  -5  -3  -6    1.47    0.44
  -5  -3  -6    0.91    0.24
  -5  -3  -6    1.39    0.46
   5   3   6    0.52    0.48
   5   3   6    1.72    0.44
  -6  -3  -6    4.07    0.64
  -6  -3  -6    4.33    0.65
   6   3   6    3.30    0.59
   9  -4  -6    1.90    0.48
   9  -4  -6    1.83    0.40
   9  -4  -6    3.49    0.51
  -9   4   6    2.31    0.39
  -9   4   6    2.98    0.54
   8  -4  -6    3.10    0.42
   8  -4  -6    2.30    0.31
   8  -4  -6    2.34    0.40
   8  -4  -6    3.62    0.45
   8  -4  -6    2.45    0.36
  -8   4   6    2.20    0.38
  -8   4   6    2.70    0.46
  -8   4   6    3.18    0.40
   7  -4  -6    0.90    0.24
   7  -4  -6    1.49    0.31
   7  -4  -6    0.98    0.30
   7  -4  -6    1.18    0.27
   7  -4  -6    0.86    0.19
  -7   4   6    0.40    0.32
  -7   4   6    0.97    0.24
  -7   4   6    0.40    0.37
   6  -4  -6   20.59    0.92
   6  -4  -6   22.91    0.93
   6  -4  -6   21.51    0.83
   6  -4  -6   21.92    0.94
   6  -4  -6   22.64    0.95
  -6   4   6   23.10    0.96
  -6   4   6   21.34    0.89
  -6   4   6   20.26    0.88
  -6   4   6   20.76    1.02
  -6   4   6   21.70    1.05
   5  -4  -6    2.59    0.31
   5  -4  -6    3.38    0.27
   5  -4  -6    3.69    0.30
   5  -4  -6    4.10    0.37
   5  -4  -6    3.74    0.31
   5  -4  -6    3.73    0.35
  -5   4   6    3.80    0.32
  -5   4   6    3.59    0.41
  -5   4   6    2.52    0.31
  -5   4   6    3.54    0.34
  -5   4   6    3.76    0.44
   4  -4  -6    1.58    0.28
   4  -4  -6    1.77    0.22
   4  -4  -6    1.77    0.22
   4  -4  -6    2.06    0.29
   4  -4  -6    1.52    0.22
   4  -4  -6    1.44    0.20
  -4   4   6    1.39    0.22
  -4   4   6    1.83    0.24
  -4   4   6    1.68    0.29
  -4   4   6    1.74    0.21
  -4   4   6    1.19    0.21
   3  -4  -6    1.75    0.19
   3  -4  -6    1.89    0.22
   3  -4  -6    1.48    0.23
   3  -4  -6    1.99    0.26
   3  -4  -6    1.97    0.25
  -3   4   6    1.63    0.23
  -3   4   6    1.87    0.23
  -3   4   6    1.54    0.24
  -3   4   6    2.24    0.26
  -3   4   6    1.82    0.28
  -3   4   6    1.73    0.12
  -3   4   6    2.05    0.26
   2  -4  -6    3.56    0.33
   2  -4  -6    3.02    0.22
   2  -4  -6    3.10    0.31
   2  -4  -6    2.94    0.29
   2  -4  -6    3.12    0.31
   2  -4  -6    3.50    0.28
  -2   4   6    3.13    0.32
  -2   4   6    3.16    0.28
  -2   4   6    2.72    0.28
  -2   4   6    3.05    0.31
  -2   4   6    3.21    0.30
  -2   4   6    2.89    0.36
  -2   4   6    2.89    0.26
   1  -4  -6    3.63    0.31
   1  -4  -6    4.44    0.38
   1  -4  -6    4.51    0.34
   1  -4  -6    4.54    0.33
   1  -4  -6    4.33    0.37
  -1   4   6    3.58    0.36
  -1   4   6    4.15    0.25
  -1   4   6    4.00    0.31
  -1   4   6    4.93    0.38
  -1   4   6    4.27    0.33
  -1   4   6    4.06    0.30
  -1   4   6    5.09    0.44
   0  -4  -6    6.28    0.40
   0  -4  -6    5.84    0.39
   0  -4  -6    6.10    0.49
   0  -4  -6    6.22    0.42
   0  -4  -6    6.93    0.48
   0   4   6    6.18    0.40
   0   4   6    6.45    0.47
   0   4   6    6.03    0.37
   0   4   6    6.58    0.30
   0   4   6    6.78    0.43
  -1  -4  -6    0.22    0.22
  -1  -4  -6   -0.15    0.15
  -1  -4  -6   -0.11    0.23
  -1  -4  -6   -0.30    0.14
   1   4   6    0.09    0.20
   1   4   6    0.10    0.15
   1   4   6    0.11    0.13
   1   4   6    0.05    0.17
   1   4   6   -0.08    0.21
  -2  -4  -6    0.69    0.24
  -2  -4  -6    0.56    0.31
  -2  -4  -6    0.84    0.21
  -2  -4  -6    0.87    0.32
   2   4   6    0.84    0.21
   2   4   6    0.51    0.26
   2   4   6    0.81    0.30
   2   4   6    0.83    0.23
  -3  -4  -6   22.30    0.95
  -3  -4  -6   23.37    1.17
  -3  -4  -6   21.96    1.13
  -3  -4  -6   21.51    1.04
  -3  -4  -6   21.41    0.99
   3   4   6   18.59    1.31
   3   4   6   20.28    0.93
   3   4   6   22.01    0.93
   3   4   6   23.61    1.15
  -4  -4  -6    5.66    0.63
  -4  -4  -6    6.79    0.72
  -4  -4  -6    6.84    0.54
  -4  -4  -6    6.63    0.77
   4   4   6    7.01    0.54
   4   4   6    4.86    0.65
   4   4   6    8.27    0.84
  -5  -4  -6    0.83    0.48
  -5  -4  -6    0.51    0.47
   5   4   6   -0.39    0.38
   5   4   6    0.71    0.53
  -6  -4  -6    1.34    0.60
  -6  -4  -6    1.31    0.59
   6   4   6    0.56    0.55
   9  -5  -6    2.50    0.49
   9  -5  -6    2.77    0.50
  -9   5   6    2.36    0.54
  -9   5   6    2.27    0.39
  -9   5   6    2.99    0.45
   8  -5  -6    7.13    0.64
   8  -5  -6    6.96    0.65
   8  -5  -6    6.38    0.62
  -8   5   6    6.03    0.70
  -8   5   6    6.92    0.61
  -8   5   6    6.86    0.53
   7  -5  -6   13.09    0.74
   7  -5  -6   12.79    0.61
   7  -5  -6   13.06    0.75
   7  -5  -6   14.14    0.79
  -7   5   6   14.70    0.77
  -7   5   6   14.39    0.91
  -7   5   6   14.64    0.70
   6  -5  -6    0.64    0.26
   6  -5  -6    0.55    0.21
   6  -5  -6    0.37    0.27
   6  -5  -6    0.67    0.18
   6  -5  -6    0.39    0.25
  -6   5   6    0.26    0.31
  -6   5   6    0.62    0.22
  -6   5   6    0.46    0.21
  -6   5   6    0.41    0.20
  -6   5   6    0.22    0.28
   5  -5  -6    2.94    0.35
   5  -5  -6    3.13    0.30
   5  -5  -6    3.00    0.34
   5  -5  -6    2.79    0.30
   5  -5  -6    2.16    0.29
  -5   5   6    3.39    0.41
  -5   5   6    3.14    0.35
  -5   5   6    2.87    0.30
  -5   5   6    2.39    0.32
  -5   5   6    3.32    0.41
   4  -5  -6    9.72    0.50
   4  -5  -6   10.57    0.55
   4  -5  -6   10.44    0.52
   4  -5  -6   10.22    0.56
   4  -5  -6    8.72    0.62
  -4   5   6    9.65    0.54
  -4   5   6   10.03    0.51
  -4   5   6    9.77    0.65
  -4   5   6    9.75    0.57
  -4   5   6   10.67    0.55
   3  -5  -6   27.16    1.02
   3  -5  -6   23.69    1.01
   3  -5  -6   22.79    1.01
   3  -5  -6   24.54    0.97
   3  -5  -6   23.63    0.93
  -3   5   6   24.42    1.08
  -3   5   6   24.60    1.00
  -3   5   6   24.46    0.99
  -3   5   6   24.98    0.97
   2  -5  -6   30.61    1.21
   2  -5  -6   30.53    1.21
   2  -5  -6   29.05    1.17
   2  -5  -6   30.63    1.18
   2  -5  -6   30.62    1.11
  -2   5   6   29.78    1.15
  -2   5   6   31.12    1.17
  -2   5   6   29.03    1.08
  -2   5   6   31.68    1.21
  -2   5   6   30.95    1.28
   1  -5  -6    2.44    0.28
   1  -5  -6    1.82    0.26
   1  -5  -6    2.00    0.30
   1  -5  -6    2.73    0.36
  -1   5   6    2.18    0.24
  -1   5   6    1.92    0.31
  -1   5   6    2.74    0.37
  -1   5   6    2.29    0.30
  -1   5   6    2.46    0.28
   0  -5  -6    1.43    0.29
   0  -5  -6    0.70    0.26
   0  -5  -6    0.89    0.20
   0  -5  -6    1.47    0.27
   0   5   6    1.43    0.31
   0   5   6    0.98    0.20
   0   5   6    1.40    0.20
   0   5   6    1.57    0.28
   0   5   6    1.02    0.23
  -1  -5  -6    0.83    0.33
  -1  -5  -6    0.63    0.23
  -1  -5  -6    0.88    0.32
  -1  -5  -6    1.31    0.28
  -1  -5  -6    0.48    0.20
   1   5   6    0.80    0.21
   1   5   6    1.16    0.29
   1   5   6    0.42    0.38
   1   5   6    1.46    0.33
  -2  -5  -6    2.49    0.38
  -2  -5  -6    3.50    0.44
  -2  -5  -6    3.25    0.51
  -2  -5  -6    3.71    0.52
   2   5   6    2.98    0.42
   2   5   6    2.81    0.42
   2   5   6    3.03    0.41
   2   5   6    3.35    0.42
  -3  -5  -6   21.38    1.10
  -3  -5  -6   21.95    1.19
  -3  -5  -6   21.98    1.24
  -3  -5  -6   20.90    1.01
   3   5   6   21.28    0.98
   3   5   6   22.05    1.21
   3   5   6   21.57    1.12
  -4  -5  -6    0.32    0.42
  -4  -5  -6    0.55    0.31
  -4  -5  -6   -0.12    0.36
  -4  -5  -6   -1.10    0.43
   4   5   6    0.54    0.31
   4   5   6   -0.61    0.38
   4   5   6    0.59    0.47
  -5  -5  -6    1.11    0.64
  -5  -5  -6    0.33    0.56
   5   5   6    1.23    0.51
   5   5   6    0.77    1.07
   9  -6  -6    2.65    0.52
   9  -6  -6    1.66    0.49
  -9   6   6    1.83    0.58
  -9   6   6    2.03    0.40
   8  -6  -6    5.26    0.62
   8  -6  -6    5.01    0.62
  -8   6   6    4.43    0.57
  -8   6   6    5.12    0.68
  -8   6   6    4.49    0.52
   7  -6  -6   10.99    0.67
   7  -6  -6    9.62    0.56
   7  -6  -6   11.85    0.70
   7  -6  -6   10.23    0.67
  -7   6   6    8.70    0.62
  -7   6   6    8.94    0.59
  -7   6   6    8.38    0.83
   6  -6  -6    1.35    0.47
   6  -6  -6    1.65    0.26
   6  -6  -6    1.37    0.38
   6  -6  -6    1.67    0.30
   6  -6  -6    1.24    0.30
  -6   6   6    1.55    0.39
  -6   6   6    1.55    0.28
  -6   6   6    1.09    0.26
   5  -6  -6    5.56    0.57
   5  -6  -6    5.13    0.47
   5  -6  -6    4.19    0.47
   5  -6  -6    4.16    0.41
   5  -6  -6    5.44    0.43
  -5   6   6    5.08    0.52
  -5   6   6    5.61    0.40
  -5   6   6    4.54    0.57
   4  -6  -6    0.21    0.22
   4  -6  -6    0.33    0.16
   4  -6  -6    0.26    0.20
   4  -6  -6    0.22    0.24
   4  -6  -6    0.79    0.33
  -4   6   6    0.15    0.19
  -4   6   6    0.25    0.19
  -4   6   6    0.17    0.20
  -4   6   6    0.29    0.28
   3  -6  -6    2.51    0.31
   3  -6  -6    2.11    0.34
   3  -6  -6    2.00    0.32
  -3   6   6    1.56    0.25
  -3   6   6    2.26    0.31
  -3   6   6    2.13    0.35
  -3   6   6    1.90    0.28
   2  -6  -6    0.26    0.24
   2  -6  -6    0.02    0.25
   2  -6  -6    0.53    0.22
  -2   6   6    0.43    0.23
  -2   6   6    0.18    0.20
  -2   6   6    0.40    0.21
  -2   6   6    0.04    0.15
   1  -6  -6    1.67    0.34
   1  -6  -6    1.64    0.38
   1  -6  -6    1.41    0.34
  -1   6   6    1.27    0.30
  -1   6   6    1.53    0.24
  -1   6   6    1.88    0.29
  -1   6   6    1.44    0.25
   0  -6  -6    0.78    0.43
   0  -6  -6    0.96    0.29
   0  -6  -6    1.12    0.30
   0  -6  -6    0.42    0.33
   0   6   6    0.92    0.23
   0   6   6    0.70    0.30
   0   6   6    1.28    0.32
   0   6   6    0.47    0.22
  -1  -6  -6   10.40    0.80
  -1  -6  -6   10.85    0.84
  -1  -6  -6   10.60    0.73
  -1  -6  -6    9.13    0.65
   1   6   6    8.93    0.76
   1   6   6    9.76    0.70
  -2  -6  -6    3.78    0.51
  -2  -6  -6    4.51    0.58
  -2  -6  -6    5.59    0.69
  -2  -6  -6    4.40    0.50
   2   6   6    5.55    0.72
   2   6   6    4.35    0.54
   2   6   6    3.92    0.50
  -3  -6  -6    0.97    0.39
  -3  -6  -6    0.91    0.56
  -3  -6  -6    1.32    0.40
  -3  -6  -6    0.11    0.46
   3   6   6    1.64    0.39
   3   6   6    1.43    0.54
   3   6   6    1.54    0.43
  -4  -6  -6    1.34    0.42
  -4  -6  -6    0.17    0.57
  -4  -6  -6    0.88    0.62
   4   6   6    1.00    0.60
   4   6   6    1.52    0.51
   8  -7  -6    8.73    0.79
   8  -7  -6    8.25    0.79
  -8   7   6    8.29    1.00
  -8   7   6   10.32    0.73
  -8   7   6    9.11    0.64
   7  -7  -6    0.06    0.36
   7  -7  -6   -0.17    0.31
  -7   7   6   -0.10    0.39
  -7   7   6    0.05    0.25
  -7   7   6    0.47    0.26
   6  -7  -6    0.54    0.31
   6  -7  -6    0.63    0.29
   6  -7  -6    1.01    0.35
   6  -7  -6    1.59    0.33
   6  -7  -6    1.50    0.38
  -6   7   6    0.98    0.39
  -6   7   6    1.22    0.28
  -6   7   6    1.12    0.26
   5  -7  -6    1.27    0.40
   5  -7  -6    1.18    0.26
   5  -7  -6    0.86    0.31
   5  -7  -6    1.01    0.30
   5  -7  -6    1.04    0.59
  -5   7   6    1.03    0.26
  -5   7   6    1.10    0.35
  -5   7   6    0.87    0.25
   4  -7  -6   13.10    0.93
   4  -7  -6   14.70    0.83
   4  -7  -6   14.21    0.71
   4  -7  -6   13.43    0.76
   4  -7  -6   14.85    0.81
  -4   7   6   14.49    0.72
  -4   7   6   13.67    0.85
  -4   7   6   14.73    0.77
   3  -7  -6   10.06    0.58
   3  -7  -6   10.87    0.75
   3  -7  -6    9.77    0.67
   3  -7  -6    9.02    0.74
  -3   7   6   10.12    0.67
  -3   7   6    9.87    0.60
  -3   7   6    9.60    0.59
  -3   7   6    9.23    0.70
   2  -7  -6    1.97    0.39
   2  -7  -6    2.74    0.42
   2  -7  -6    2.83    0.45
  -2   7   6    2.63    0.43
  -2   7   6    2.33    0.34
  -2   7   6    2.37    0.39
  -2   7   6    2.29    0.32
   1  -7  -6    1.91    0.46
   1  -7  -6    1.18    0.33
   1  -7  -6    1.04    0.31
   1  -7  -6    1.13    0.39
  -1   7   6    0.67    0.21
  -1   7   6    0.85    0.35
  -1   7   6    0.98    0.33
  -1   7   6    1.13    0.30
   0  -7  -6    0.70    0.41
   0  -7  -6    1.01    0.41
   0  -7  -6    0.50    0.31
   0  -7  -6    0.33    0.32
   0   7   6    0.38    0.34
   0   7   6    0.03    0.29
  -1  -7  -6    8.75    0.74
  -1  -7  -6    9.31    0.85
  -1  -7  -6    7.71    0.78
  -1  -7  -6    8.45    0.91
   1   7   6   10.46    0.78
   1   7   6    8.18    0.81
   1   7   6    8.67    0.70
  -2  -7  -6   16.04    0.98
  -2  -7  -6   15.06    1.05
  -2  -7  -6   13.97    1.18
  -2  -7  -6   13.86    1.08
   2   7   6   14.76    0.93
   2   7   6   14.39    1.08
   2   7   6   15.88    1.01
  -3  -7  -6   -0.76    0.57
  -3  -7  -6   -0.08    0.41
  -3  -7  -6    1.20    0.66
   3   7   6    0.40    0.44
   3   7   6   -0.01    0.43
   3   7   6   -0.20    0.56
   7  -8  -6    0.89    0.39
   7  -8  -6    0.40    0.46
   7  -8  -6    0.45    0.42
  -7   8   6    0.01    0.46
  -7   8   6    0.29    0.30
  -7   8   6    1.49    0.33
   6  -8  -6    2.36    0.50
   6  -8  -6    1.64    0.37
   6  -8  -6    1.82    0.47
   6  -8  -6    2.58    0.44
   6  -8  -6    2.42    0.47
  -6   8   6    2.08    0.36
  -6   8   6    2.27    0.36
  -6   8   6    1.38    0.48
   5  -8  -6    5.07    0.61
   5  -8  -6    6.06    0.57
   5  -8  -6    6.58    0.66
   5  -8  -6    6.94    0.67
   5  -8  -6    7.91    0.88
  -5   8   6    6.33    0.61
  -5   8   6    6.43    0.69
  -5   8   6    6.07    0.55
   4  -8  -6    0.26    0.50
   4  -8  -6    1.48    0.43
   4  -8  -6    1.46    0.42
   4  -8  -6    1.04    0.36
   4  -8  -6    1.29    0.41
  -4   8   6    1.37    0.30
  -4   8   6    1.24    0.34
  -4   8   6    1.91    0.42
   3  -8  -6    4.71    0.63
   3  -8  -6    5.92    0.69
   3  -8  -6    5.40    0.66
   3  -8  -6    5.81    0.74
  -3   8   6    5.44    0.56
  -3   8   6    5.69    0.69
  -3   8   6    6.47    0.62
   2  -8  -6    0.25    0.37
   2  -8  -6   -0.04    0.32
   2  -8  -6    0.60    0.44
  -2   8   6    0.49    0.33
  -2   8   6    0.13    0.33
  -2   8   6    0.35    0.29
   1  -8  -6    1.06    0.44
   1  -8  -6    1.54    0.46
   1  -8  -6    0.78    0.40
   1  -8  -6    2.46    0.50
  -1   8   6    1.31    0.38
  -1   8   6    1.32    0.41
   0  -8  -6    6.77    0.81
   0  -8  -6    7.20    0.95
   0  -8  -6    6.64    0.88
   0  -8  -6    6.39    0.78
   0   8   6    6.84    0.77
   0   8   6    8.34    0.72
  -1  -8  -6    1.30    0.50
  -1  -8  -6    1.43    0.52
  -1  -8  -6    1.71    0.56
   1   8   6    1.27    0.46
   1   8   6    1.34    0.43
   1   8   6    1.46    0.52
  -2  -8  -6    0.32    0.51
  -2  -8  -6    0.25    0.64
   2   8   6    1.01    0.53
   2   8   6    0.46    0.57
   2   8   6    0.43    0.46
   6  -9  -6    3.22    0.67
   6  -9  -6    2.46    0.55
   6  -9  -6    2.77    0.62
   6  -9  -6    2.81    0.51
  -6   9   6    3.43    0.62
  -6   9   6    2.38    0.42
  -6   9   6    2.81    0.45
   5  -9  -6    3.23    0.54
   5  -9  -6    2.99    0.47
   5  -9  -6    2.79    0.68
   5  -9  -6    1.90    0.55
   5  -9  -6    3.83    0.58
  -5   9   6    3.51    0.47
  -5   9   6    3.76    0.49
  -5   9   6    2.27    0.55
   4  -9  -6    2.16    0.55
   4  -9  -6    2.00    0.42
   4  -9  -6    2.21    0.50
   4  -9  -6    1.62    0.46
   4  -9  -6    1.47    0.60
  -4   9   6    1.33    0.41
  -4   9   6    1.87    0.41
  -4   9   6    1.14    0.46
   3  -9  -6    1.13    0.63
   3  -9  -6    1.52    0.46
   3  -9  -6    1.43    0.49
   3  -9  -6    1.23    0.50
  -3   9   6    1.02    0.38
  -3   9   6    1.63    0.42
  -3   9   6    2.08    0.48
   2  -9  -6    2.78    0.62
   2  -9  -6    2.10    0.53
   2  -9  -6    1.37    0.52
  -2   9   6    1.94    0.49
  -2   9   6    2.74    0.50
  -2   9   6    2.15    0.43
   1  -9  -6    1.12    0.59
   1  -9  -6    1.40    0.51
   1  -9  -6    1.64    0.49
  -1   9   6    1.95    0.52
  -1   9   6    1.51    0.45
   0  -9  -6    1.51    0.57
   0  -9  -6    3.18    0.73
   0   9   6    2.84    0.55
   0   9   6    2.04    0.54
   0   9   6    2.24    0.56
  -2  11  -7    0.17    0.37
  -2  11  -7    0.13    0.48
   2 -11   7   -0.73    0.59
   2 -11   7    1.79    0.73
   1  10  -7    7.49    0.47
   1  10  -7    7.83    0.87
  -1 -10   7    6.68    0.97
  -1 -10   7    6.82    0.90
   0  10  -7    1.07    0.44
   0  10  -7    1.27    0.36
   0 -10   7    1.73    0.68
   0 -10   7    0.09    0.45
  -1  10  -7    5.68    0.71
  -1  10  -7    4.55    0.58
   1 -10   7    4.49    0.66
   1 -10   7    4.67    0.78
  -2  10  -7    1.19    0.38
  -2  10  -7    1.12    0.31
   2 -10   7    1.19    0.53
   2 -10   7    1.00    0.56
  -3  10  -7    7.30    0.74
  -3  10  -7    7.14    0.54
   3 -10   7    7.89    1.07
   3 -10   7    8.82    0.89
  -4  10  -7    9.27    0.79
  -4  10  -7    8.69    0.74
   4 -10   7    8.01    1.04
   4 -10   7   10.15    0.93
  -5  10  -7    5.46    0.61
  -5  10  -7    6.09    0.78
   5 -10   7    7.64    0.94
   5 -10   7    7.11    0.89
   5 -10   7    7.80    1.06
   3   9  -7    6.66    0.84
   3   9  -7    7.59    0.62
   3   9  -7    7.25    0.52
  -3  -9   7    6.21    0.95
  -3  -9   7    7.97    1.16
   2   9  -7    2.48    0.48
   2   9  -7    2.31    0.31
   2   9  -7    2.06    0.23
  -2  -9   7    1.83    0.67
  -2  -9   7    1.63    0.63
   1   9  -7    0.69    0.18
   1   9  -7    1.02    0.38
  -1  -9   7    0.64    0.37
  -1  -9   7    0.60    0.52
  -1  -9   7    0.82    0.58
   0   9  -7    5.39    0.64
   0   9  -7    5.81    0.56
   0  -9   7    6.13    0.95
   0  -9   7    5.87    0.70
   0  -9   7    7.02    0.92
  -1   9  -7    1.52    0.32
  -1   9  -7    1.39    0.34
   1  -9   7    1.81    0.56
   1  -9   7    1.59    0.46
   1  -9   7    1.29    0.50
  -2   9  -7    8.67    0.57
  -2   9  -7    8.27    0.66
  -2   9  -7    8.31    0.53
   2  -9   7    8.71    0.79
   2  -9   7    9.61    0.94
   2  -9   7    7.45    0.96
  -3   9  -7    1.19    0.23
  -3   9  -7    0.82    0.31
  -3   9  -7    0.63    0.29
   3  -9   7    1.39    0.43
   3  -9   7    0.76    0.49
  -4   9  -7    1.61    0.22
  -4   9  -7    1.58    0.36
   4  -9   7    0.85    0.48
   4  -9   7    1.76    0.46
   4  -9   7    0.53    0.40
   4  -9   7    1.00    0.48
  -5   9  -7    2.21    0.42
  -5   9  -7    3.46    0.46
   5  -9   7    2.06    0.57
   5  -9   7    2.03    0.50
   5  -9   7    3.45    0.54
   5  -9   7    1.89    0.59
  -6   9  -7    0.80    0.44
   6  -9   7    0.77    0.42
   6  -9   7    1.10    0.61
   4   8  -7    2.46    0.48
   4   8  -7    1.80    0.33
   4   8  -7    2.86    0.42
  -4  -8   7    2.25    0.64
  -4  -8   7    2.07    0.79
   3   8  -7    8.40    0.51
   3   8  -7    9.11    0.59
   3   8  -7    9.33    0.76
  -3  -8   7    6.63    1.08
  -3  -8   7    8.11    0.96
   2   8  -7    1.29    0.38
   2   8  -7    0.78    0.23
   2   8  -7    1.24    0.18
  -2  -8   7    1.22    0.50
  -2  -8   7    1.10    0.54
   1   8  -7    3.13    0.40
   1   8  -7    2.96    0.44
   1   8  -7    2.72    0.28
   1   8  -7    2.43    0.26
  -1  -8   7    3.33    0.58
  -1  -8   7    2.59    0.57
   0   8  -7    7.72    0.60
   0   8  -7    6.95    0.54
   0  -8   7    5.89    0.79
   0  -8   7    7.19    0.83
   0  -8   7    6.95    0.65
  -1   8  -7    6.67    0.39
   1  -8   7    5.81    0.80
   1  -8   7    7.03    0.64
   1  -8   7    7.11    0.77
  -2   8  -7    5.68    0.45
  -2   8  -7    6.78    0.55
  -2   8  -7    6.08    0.43
   2  -8   7    4.97    0.63
   2  -8   7    6.02    0.73
   2  -8   7    5.35    0.84
  -3   8  -7   27.74    1.00
  -3   8  -7   27.68    1.13
  -3   8  -7   26.40    1.12
   3  -8   7   25.32    1.23
   3  -8   7   25.88    1.45
   3  -8   7   25.23    1.33
   3  -8   7   23.75    1.33
  -4   8  -7    9.15    0.59
  -4   8  -7    7.30    0.39
  -4   8  -7    7.87    0.67
   4  -8   7    7.91    0.79
   4  -8   7    7.75    0.84
   4  -8   7    8.42    0.69
  -5   8  -7    0.14    0.28
  -5   8  -7    0.16    0.33
   5  -8   7    0.21    0.31
   5  -8   7    0.21    0.43
  -6   8  -7   -0.22    0.39
   6  -8   7    0.01    0.52
   6  -8   7   -0.17    0.33
  -7   8  -7   -0.61    0.47
   7  -8   7    0.08    0.41
   7  -8   7    0.30    0.55
   5   7  -7   -0.39    0.33
   5   7  -7    0.40    0.30
   5   7  -7   -0.01    0.39
  -5  -7   7   -0.15    1.11
  -5  -7   7    0.60    0.54
   4   7  -7    9.59    0.63
   4   7  -7    9.25    0.75
   4   7  -7    9.55    0.57
  -4  -7   7    8.33    1.06
  -4  -7   7    9.41    0.94
   3   7  -7    0.56    0.22
   3   7  -7    0.09    0.28
  -3  -7   7   -0.04    0.44
   2   7  -7    0.42    0.26
   2   7  -7    0.02    0.23
   2   7  -7    0.37    0.28
   2   7  -7    0.20    0.16
   2   7  -7    0.62    0.14
  -2  -7   7    0.85    0.57
  -2  -7   7    0.45    0.40
   1   7  -7    0.78    0.18
   1   7  -7    0.99    0.15
   1   7  -7    0.57    0.09
   1   7  -7    0.87    0.28
   1   7  -7    0.83    0.24
  -1  -7   7    0.85    0.18
  -1  -7   7    1.00    0.38
  -1  -7   7    0.99    0.40
   0   7  -7   16.87    0.78
   0   7  -7   17.01    0.83
   0   7  -7   15.96    0.64
   0   7  -7   17.28    0.60
   0  -7   7   16.05    1.05
   0  -7   7   17.06    0.60
   0  -7   7   15.62    0.63
   0  -7   7   17.92    1.00
  -1   7  -7    0.55    0.21
  -1   7  -7    0.51    0.17
  -1   7  -7    0.63    0.19
   1  -7   7    0.39    0.33
   1  -7   7    0.79    0.38
  -2   7  -7   12.61    0.58
  -2   7  -7   13.50    0.67
  -2   7  -7   13.25    0.63
   2  -7   7   11.30    1.04
   2  -7   7   11.91    0.84
  -3   7  -7   28.12    1.13
  -3   7  -7   29.32    1.05
  -3   7  -7   29.79    1.20
   3  -7   7   28.18    1.36
   3  -7   7   29.26    1.25
   3  -7   7   27.05    1.37
   3  -7   7   27.49    1.48
  -4   7  -7    0.91    0.14
  -4   7  -7    0.93    0.24
  -4   7  -7    1.17    0.31
   4  -7   7    1.13    0.46
   4  -7   7    0.83    0.41
   4  -7   7    0.64    0.36
  -5   7  -7    0.44    0.12
  -5   7  -7    0.36    0.32
  -5   7  -7    0.37    0.22
   5  -7   7    0.65    0.37
   5  -7   7    1.03    0.32
  -6   7  -7    2.74    0.50
   6  -7   7    1.96    0.39
   6  -7   7    2.81    0.54
  -7   7  -7    9.26    0.94
   7  -7   7    7.45    0.93
   7  -7   7    7.90    0.75
   6   6  -7    3.62    0.45
   6   6  -7    3.07    0.49
   6   6  -7    2.72    0.50
   6   6  -7    3.00    0.51
  -6  -6   7    3.33    0.76
   5   6  -7    1.86    0.35
   5   6  -7    2.43    0.45
   5   6  -7    2.12    0.34
   5   6  -7    2.60    0.43
  -5  -6   7    3.26    0.63
  -5  -6   7    1.54    0.54
  -5  -6   7    1.75    0.53
   4   6  -7    2.52    0.40
   4   6  -7    2.71    0.35
   4   6  -7    2.83    0.36
   4   6  -7    4.21    0.50
  -4  -6   7    1.80    0.49
  -4  -6   7    2.76    0.39
  -4  -6   7    3.03    0.54
   3   6  -7    1.35    0.23
   3   6  -7    1.19    0.29
   3   6  -7    0.81    0.26
   3   6  -7    1.17    0.27
   3   6  -7    1.22    0.20
  -3  -6   7    1.09    0.28
  -3  -6   7    1.01    0.41
  -3  -6   7    0.69    0.37
   2   6  -7    6.51    0.38
   2   6  -7    6.81    0.51
   2   6  -7    6.32    0.48
   2   6  -7    6.53    0.41
   2   6  -7    6.45    0.34
  -2  -6   7    5.84    0.64
  -2  -6   7    6.47    0.43
  -2  -6   7    5.97    0.43
  -2  -6   7    6.94    0.69
   1   6  -7    3.07    0.21
   1   6  -7    2.79    0.28
   1   6  -7    2.92    0.17
   1   6  -7    2.82    0.38
   1   6  -7    3.09    0.24
   1   6  -7    2.79    0.36
  -1  -6   7    2.63    0.29
  -1  -6   7    2.89    0.25
  -1  -6   7    2.44    0.28
  -1  -6   7    3.29    0.52
  -1  -6   7    3.57    0.53
   0   6  -7   25.71    1.00
   0   6  -7   24.91    0.82
   0   6  -7   25.17    1.02
   0   6  -7   23.32    0.91
   0   6  -7   24.86    0.90
   0   6  -7   24.64    0.85
   0  -6   7   25.39    1.25
   0  -6   7   23.21    0.87
   0  -6   7   24.46    0.83
   0  -6   7   23.11    1.13
  -1   6  -7   16.02    0.67
  -1   6  -7   15.10    0.70
  -1   6  -7   15.37    0.66
   1  -6   7   14.87    0.86
   1  -6   7   14.03    0.86
   1  -6   7   15.63    0.95
  -2   6  -7    7.55    0.48
  -2   6  -7    7.79    0.45
  -2   6  -7    7.77    0.39
   2  -6   7    6.80    0.61
   2  -6   7    8.85    0.74
   2  -6   7    6.85    0.60
  -3   6  -7   13.93    0.72
  -3   6  -7   14.85    0.58
  -3   6  -7   14.77    0.64
   3  -6   7   13.55    0.83
   3  -6   7   14.17    0.74
   3  -6   7   13.60    0.93
   3  -6   7   13.57    0.82
  -4   6  -7    5.68    0.37
  -4   6  -7    5.12    0.28
  -4   6  -7    5.05    0.64
  -4   6  -7    5.53    0.51
   4  -6   7    5.07    0.46
   4  -6   7    4.06    0.60
  -5   6  -7    1.83    0.22
  -5   6  -7    1.33    0.36
  -5   6  -7    1.80    0.20
  -5   6  -7    1.84    0.34
   5  -6   7    1.50    0.48
   5  -6   7    2.00    0.43
   5  -6   7    1.96    0.33
   5  -6   7    1.61    0.23
  -6   6  -7    7.96    0.77
  -6   6  -7    8.34    0.40
  -6   6  -7    7.93    0.40
   6  -6   7    8.77    0.64
   6  -6   7    8.59    0.79
  -7   6  -7    1.88    0.21
  -7   6  -7    2.09    0.25
  -7   6  -7    2.31    0.53
   7  -6   7    2.32    0.39
   7  -6   7    0.94    0.46
  -8   6  -7    2.11    0.69
  -8   6  -7    2.24    0.34
   8  -6   7    1.05    0.56
   8  -6   7    1.99    0.47
   7   5  -7    0.83    0.41
   7   5  -7    0.40    0.43
   7   5  -7    0.06    0.40
   7   5  -7    0.77    0.44
  -7  -5   7    1.46    0.68
   6   5  -7    2.23    0.43
   6   5  -7    2.31    0.37
   6   5  -7    2.27    0.42
   6   5  -7    2.34    0.42
  -6  -5   7    1.18    0.52
  -6  -5   7    1.77    0.44
   5   5  -7    0.28    0.29
   5   5  -7    0.58    0.29
   5   5  -7    0.16    0.23
   5   5  -7    0.95    0.30
  -5  -5   7    0.71    0.42
  -5  -5   7    0.34    0.40
  -5  -5   7    0.84    0.32
   4   5  -7    4.59    0.55
   4   5  -7    3.94    0.48
   4   5  -7    3.61    0.36
   4   5  -7    4.20    0.47
   4   5  -7    3.31    0.39
   4   5  -7    4.87    0.57
  -4  -5   7    3.69    0.48
  -4  -5   7    3.87    0.54
  -4  -5   7    4.69    0.65
  -4  -5   7    4.64    0.45
   3   5  -7    6.56    0.52
   3   5  -7    7.72    0.44
   3   5  -7    7.01    0.51
   3   5  -7    7.72    0.51
   3   5  -7    7.51    0.41
  -3  -5   7    7.45    0.63
  -3  -5   7    7.55    0.50
  -3  -5   7    7.39    0.67
  -3  -5   7    7.66    0.47
   2   5  -7    3.79    0.34
   2   5  -7    3.91    0.38
   2   5  -7    4.10    0.28
   2   5  -7    4.55    0.39
   2   5  -7    4.07    0.25
   2   5  -7    3.41    0.36
  -2  -5   7    4.17    0.34
  -2  -5   7    3.93    0.56
  -2  -5   7    5.08    0.49
  -2  -5   7    3.74    0.33
   1   5  -7   12.27    0.50
   1   5  -7   12.27    0.61
   1   5  -7   12.85    0.46
   1   5  -7   13.12    0.49
   1   5  -7   11.38    0.64
   1   5  -7   12.87    0.56
   1   5  -7   12.17    0.61
   1   5  -7   12.70    0.51
  -1  -5   7   11.84    0.56
  -1  -5   7   12.77    0.71
  -1  -5   7   11.27    0.74
  -1  -5   7   13.02    0.81
   0   5  -7    6.55    0.43
   0   5  -7    6.47    0.39
   0   5  -7    7.28    0.27
   0   5  -7    6.28    0.68
   0   5  -7    7.00    0.32
   0   5  -7    7.02    0.40
   0   5  -7    6.55    0.41
   0  -5   7    6.23    0.53
   0  -5   7    6.09    0.51
   0  -5   7    6.85    0.60
   0  -5   7    7.11    0.28
   0  -5   7    6.75    0.34
  -1   5  -7    9.70    0.50
  -1   5  -7   10.00    0.49
  -1   5  -7    9.85    0.46
   1  -5   7    9.26    0.63
   1  -5   7    9.69    0.62
   1  -5   7    9.75    0.70
  -2   5  -7  138.55    4.48
  -2   5  -7  144.34    4.38
  -2   5  -7  136.68    4.39
  -2   5  -7  130.24    4.52
  -2   5  -7  131.49    4.40
   2  -5   7  132.72    4.68
   2  -5   7  128.77    4.59
   2  -5   7  133.14    4.56
  -3   5  -7   12.42    0.49
  -3   5  -7   11.87    0.57
  -3   5  -7   12.13    0.51
  -3   5  -7   11.28    0.66
  -3   5  -7   12.18    0.66
   3  -5   7   12.18    0.73
   3  -5   7   12.10    0.82
   3  -5   7   12.35    0.62
  -4   5  -7    0.37    0.23
  -4   5  -7    0.55    0.10
  -4   5  -7    0.59    0.11
  -4   5  -7   -0.01    0.25
  -4   5  -7    0.34    0.24
  -4   5  -7    0.47    0.14
   4  -5   7    0.24    0.25
   4  -5   7    0.59    0.15
   4  -5   7    0.54    0.21
   4  -5   7    0.50    0.17
   4  -5   7    0.62    0.36
  -5   5  -7    6.15    0.51
  -5   5  -7    7.14    0.34
  -5   5  -7    6.56    0.38
  -5   5  -7    7.20    0.64
  -5   5  -7    6.90    0.34
   5  -5   7    6.89    0.61
   5  -5   7    7.48    0.51
   5  -5   7    7.60    0.77
   5  -5   7    6.50    0.36
  -6   5  -7    6.88    0.35
  -6   5  -7    6.82    0.44
  -6   5  -7    6.61    0.41
  -6   5  -7    6.03    0.36
  -6   5  -7    7.98    0.74
   6  -5   7    5.92    0.66
  -7   5  -7    0.11    0.25
  -7   5  -7    0.34    0.19
  -7   5  -7    0.74    0.48
   7  -5   7    0.50    0.30
   7  -5   7    0.44    0.39
  -8   5  -7    1.20    0.60
  -8   5  -7    1.48    0.29
  -8   5  -7    1.02    0.35
   8  -5   7    1.46    0.51
   8  -5   7    1.18    0.42
   7   4  -7    7.07    0.73
   7   4  -7    5.10    0.62
   7   4  -7    6.76    0.70
   7   4  -7    5.62    0.61
  -7  -4   7    6.10    0.69
  -7  -4   7    5.23    0.82
   6   4  -7    2.21    0.37
   6   4  -7    2.78    0.37
   6   4  -7    2.97    0.42
   6   4  -7    2.70    0.39
  -6  -4   7    1.32    0.45
  -6  -4   7    2.62    0.41
   5   4  -7    8.79    0.71
   5   4  -7    9.25    0.59
   5   4  -7    8.87    0.54
   5   4  -7    8.85    0.61
   5   4  -7    9.13    0.63
  -5  -4   7    8.06    0.59
  -5  -4   7    9.38    0.67
  -5  -4   7    8.59    0.75
  -5  -4   7    9.45    0.71
   4   4  -7   12.24    0.67
   4   4  -7   12.15    0.66
   4   4  -7   10.72    0.69
   4   4  -7   11.74    0.60
   4   4  -7   10.74    0.67
   4   4  -7   11.09    0.67
  -4  -4   7   11.29    0.66
  -4  -4   7   12.56    0.80
  -4  -4   7   12.67    0.63
  -4  -4   7   11.07    0.67
   3   4  -7    6.71    0.32
   3   4  -7    7.07    0.37
   3   4  -7    7.49    0.40
   3   4  -7    7.19    0.48
   3   4  -7    6.10    0.48
   3   4  -7    6.26    0.45
   3   4  -7    7.41    0.49
  -3  -4   7    6.73    0.60
  -3  -4   7    6.27    0.43
  -3  -4   7    6.88    0.49
  -3  -4   7    6.85    0.43
   2   4  -7    0.89    0.13
   2   4  -7    0.78    0.13
   2   4  -7    0.67    0.18
   2   4  -7    0.46    0.16
   2   4  -7    0.82    0.17
   2   4  -7    0.87    0.20
   2   4  -7    1.00    0.14
  -2  -4   7    1.02    0.24
  -2  -4   7    0.89    0.17
  -2  -4   7    0.81    0.16
  -2  -4   7    0.73    0.22
  -2  -4   7    1.06    0.29
   1   4  -7    1.10    0.12
   1   4  -7    1.11    0.19
   1   4  -7    1.04    0.19
   1   4  -7    1.15    0.30
   1   4  -7    1.10    0.18
   1   4  -7    1.14    0.16
   1   4  -7    1.23    0.22
   1   4  -7    0.97    0.13
  -1  -4   7    0.71    0.25
  -1  -4   7    0.96    0.13
  -1  -4   7    1.35    0.27
  -1  -4   7    1.02    0.14
  -1  -4   7    0.97    0.19
  -1  -4   7    1.00    0.23
  -1  -4   7    1.07    0.17
   0   4  -7    5.01    0.28
   0   4  -7    5.30    0.33
   0   4  -7    5.07    0.50
   0   4  -7    5.09    0.48
   0   4  -7    5.31    0.34
   0   4  -7    5.43    0.23
   0   4  -7    5.34    0.36
   0   4  -7    5.19    0.25
   0   4  -7    5.62    0.23
   0   4  -7    5.99    0.34
   0  -4   7    5.29    0.29
   0  -4   7    4.68    0.43
   0  -4   7    5.53    0.41
   0  -4   7    5.40    0.42
   0  -4   7    5.50    0.25
   0  -4   7    5.61    0.53
   0  -4   7    5.36    0.30
  -1   4  -7    1.76    0.19
  -1   4  -7    1.52    0.28
  -1   4  -7    1.58    0.35
  -1   4  -7    1.49    0.14
  -1   4  -7    1.93    0.20
  -1   4  -7    1.69    0.20
  -1   4  -7    1.63    0.13
   1  -4   7    1.45    0.27
   1  -4   7    1.48    0.15
   1  -4   7    1.67    0.15
   1  -4   7    1.55    0.32
  -2   4  -7   31.11    0.99
  -2   4  -7   31.28    1.02
  -2   4  -7   28.70    1.08
  -2   4  -7   31.72    1.07
  -2   4  -7   29.32    1.20
  -2   4  -7   30.99    1.05
   2  -4   7   29.16    1.32
   2  -4   7   30.63    1.03
   2  -4   7   30.42    1.14
   2  -4   7   29.65    1.00
   2  -4   7   25.97    1.21
  -3   4  -7   23.46    0.78
  -3   4  -7   24.91    0.83
  -3   4  -7   22.19    0.79
  -3   4  -7   23.17    0.83
  -3   4  -7   22.52    0.96
  -3   4  -7   22.91    0.87
   3  -4   7   20.63    0.76
   3  -4   7   22.30    1.11
   3  -4   7   22.74    0.79
   3  -4   7   21.55    0.80
   3  -4   7   22.42    0.90
   3  -4   7   23.08    0.85
   3  -4   7   23.77    1.03
  -4   4  -7    8.29    0.37
  -4   4  -7    8.21    0.43
  -4   4  -7    8.28    0.38
  -4   4  -7    8.05    0.33
  -4   4  -7    7.73    0.52
  -4   4  -7    9.42    0.62
  -4   4  -7    8.57    0.37
   4  -4   7    8.39    0.71
   4  -4   7    7.69    0.45
   4  -4   7    8.99    0.45
   4  -4   7    9.56    0.59
   4  -4   7    8.41    0.50
   4  -4   7    9.01    0.49
  -5   4  -7   10.25    0.73
  -5   4  -7    9.34    0.42
  -5   4  -7    9.62    0.48
  -5   4  -7   10.78    0.45
  -5   4  -7    9.27    0.54
  -5   4  -7    9.61    0.53
  -5   4  -7   10.02    0.47
   5  -4   7    9.40    0.57
   5  -4   7    9.66    0.54
   5  -4   7    9.80    0.56
   5  -4   7    9.93    0.69
   5  -4   7   10.51    0.83
   5  -4   7    9.88    0.59
  -6   4  -7    2.42    0.29
  -6   4  -7    1.71    0.32
  -6   4  -7    1.82    0.40
  -6   4  -7    2.33    0.35
  -6   4  -7    1.62    0.29
   6  -4   7    1.61    0.30
   6  -4   7    2.03    0.36
  -7   4  -7    1.17    0.45
  -7   4  -7    1.58    0.33
  -7   4  -7    1.69    0.30
   7  -4   7    1.92    0.36
   7  -4   7    0.95    0.38
  -8   4  -7    4.22    0.55
  -8   4  -7    5.02    0.73
  -8   4  -7    3.61    0.51
   8  -4   7    6.39    0.78
   8  -4   7    6.10    0.67
   8   3  -7    4.69    0.59
   8   3  -7    4.25    0.55
   8   3  -7    5.79    0.79
   8   3  -7    3.70    0.49
  -8  -3   7    4.59    0.61
   7   3  -7    0.60    0.33
   7   3  -7    1.19    0.37
   7   3  -7    0.92    0.35
   7   3  -7    0.94    0.34
  -7  -3   7    1.44    0.44
  -7  -3   7    0.82    0.38
   6   3  -7    0.06    0.24
   6   3  -7    0.40    0.25
   6   3  -7    0.37    0.24
   6   3  -7    0.07    0.24
  -6  -3   7    0.14    0.30
  -6  -3   7    0.07    0.34
  -6  -3   7    0.63    0.30
  -6  -3   7    0.27    0.21
   5   3  -7    7.20    0.46
   5   3  -7    6.94    0.42
   5   3  -7    7.41    0.52
   5   3  -7    7.49    0.65
   5   3  -7    6.49    0.64
   5   3  -7    7.73    0.52
   5   3  -7    6.40    0.50
  -5  -3   7    7.10    0.53
  -5  -3   7    7.28    0.43
  -5  -3   7    6.78    0.61
   4   3  -7    5.84    0.42
   4   3  -7    5.93    0.44
   4   3  -7    5.27    0.51
   4   3  -7    6.16    0.51
   4   3  -7    5.95    0.40
   4   3  -7    5.22    0.35
   4   3  -7    5.83    0.39
  -4  -3   7    5.63    0.37
  -4  -3   7    5.78    0.42
  -4  -3   7    5.33    0.44
  -4  -3   7    5.74    0.41
  -4  -3   7    4.44    0.53
   3   3  -7    3.16    0.35
   3   3  -7    3.11    0.25
   3   3  -7    2.42    0.34
   3   3  -7    2.68    0.29
   3   3  -7    2.87    0.25
   3   3  -7    2.75    0.31
   3   3  -7    2.56    0.24
  -3  -3   7    3.01    0.28
  -3  -3   7    2.79    0.43
  -3  -3   7    2.98    0.32
   2   3  -7    0.73    0.21
   2   3  -7    0.55    0.12
   2   3  -7    0.69    0.12
   2   3  -7    0.58    0.16
   2   3  -7    0.93    0.18
   2   3  -7    0.78    0.15
   2   3  -7    0.47    0.15
   2   3  -7    0.71    0.15
  -2  -3   7    0.68    0.15
  -2  -3   7    0.52    0.18
  -2  -3   7    0.71    0.24
  -2  -3   7    0.60    0.18
  -2  -3   7    0.91    0.27
   1   3  -7    1.39    0.18
   1   3  -7    1.35    0.28
   1   3  -7    1.38    0.18
   1   3  -7    1.27    0.13
   1   3  -7    1.30    0.16
   1   3  -7    0.86    0.19
   1   3  -7    1.20    0.18
   1   3  -7    1.44    0.20
   1   3  -7    1.30    0.17
   1   3  -7    1.27    0.14
   1   3  -7    1.31    0.25
  -1  -3   7    1.28    0.18
  -1  -3   7    1.17    0.14
  -1  -3   7    1.26    0.23
  -1  -3   7    1.23    0.21
  -1  -3   7    1.29    0.15
  -1  -3   7    1.52    0.31
  -1  -3   7    1.28    0.26
  -1  -3   7    1.27    0.17
   0   3  -7   17.16    0.67
   0   3  -7   17.52    0.62
   0   3  -7   17.50    0.65
   0   3  -7   17.36    0.67
   0   3  -7   17.54    0.62
   0   3  -7   17.00    0.68
   0   3  -7   17.36    0.80
   0   3  -7   16.52    0.63
   0   3  -7   18.09    0.74
   0   3  -7   18.18    0.82
   0   3  -7   16.19    0.73
   0  -3   7   16.19    0.79
   0  -3   7   17.22    0.73
   0  -3   7   17.97    0.63
   0  -3   7   16.88    0.64
   0  -3   7   16.87    0.64
   0  -3   7   17.64    0.62
   0  -3   7   16.60    0.86
  -1   3  -7   68.98    2.20
  -1   3  -7   67.77    2.26
  -1   3  -7   68.94    2.22
  -1   3  -7   70.73    2.24
  -1   3  -7   60.64    2.31
  -1   3  -7   68.93    2.23
  -1   3  -7   66.51    2.37
  -1   3  -7   68.57    2.25
  -1   3  -7   68.15    2.43
   1  -3   7   66.88    2.32
   1  -3   7   69.75    2.23
   1  -3   7   65.82    2.48
   1  -3   7   69.11    2.27
   1  -3   7   69.17    2.42
   1  -3   7   69.45    2.21
   1  -3   7   67.60    2.21
  -2   3  -7    3.79    0.25
  -2   3  -7    3.87    0.24
  -2   3  -7    3.86    0.20
  -2   3  -7    3.87    0.23
  -2   3  -7    3.75    0.37
  -2   3  -7    4.05    0.23
  -2   3  -7    3.84    0.21
  -2   3  -7    3.66    0.18
   2  -3   7    3.13    0.19
   2  -3   7    3.72    0.28
   2  -3   7    3.69    0.23
   2  -3   7    3.14    0.44
   2  -3   7    4.07    0.33
   2  -3   7    3.69    0.34
  -3   3  -7    6.94    0.33
  -3   3  -7    7.06    0.39
  -3   3  -7    6.63    0.45
  -3   3  -7    7.01    0.29
  -3   3  -7    7.37    0.36
   3  -3   7    6.81    0.41
   3  -3   7    7.04    0.38
   3  -3   7    6.33    0.41
   3  -3   7    5.62    0.44
   3  -3   7    7.04    0.42
   3  -3   7    6.64    0.37
   3  -3   7    7.05    0.57
  -4   3  -7    3.49    0.34
  -4   3  -7    2.80    0.26
  -4   3  -7    2.83    0.22
  -4   3  -7    2.71    0.35
  -4   3  -7    2.93    0.28
  -4   3  -7    2.82    0.24
   4  -3   7    3.48    0.46
   4  -3   7    3.10    0.29
   4  -3   7    2.47    0.35
   4  -3   7    3.43    0.33
   4  -3   7    3.07    0.34
   4  -3   7    3.64    0.39
  -5   3  -7    0.55    0.30
  -5   3  -7    1.00    0.21
  -5   3  -7    0.90    0.19
  -5   3  -7    0.55    0.21
  -5   3  -7    0.70    0.16
  -5   3  -7    0.46    0.16
  -5   3  -7    0.69    0.23
   5  -3   7    0.29    0.29
   5  -3   7    0.92    0.21
   5  -3   7    0.72    0.32
   5  -3   7    0.54    0.31
   5  -3   7    0.59    0.21
   5  -3   7    0.95    0.36
  -6   3  -7    0.28    0.36
  -6   3  -7    0.13    0.24
  -6   3  -7    0.54    0.20
  -6   3  -7    0.04    0.25
   6  -3   7   -0.21    0.21
   6  -3   7    0.68    0.26
   6  -3   7    0.17    0.33
  -7   3  -7   -0.12    0.27
  -7   3  -7   -0.35    0.41
  -7   3  -7    0.79    0.32
   7  -3   7    0.42    0.29
   7  -3   7    0.70    0.34
  -8   3  -7    3.66    0.49
  -8   3  -7    3.40    0.53
  -8   3  -7    6.05    0.80
   8  -3   7    4.16    0.59
   8  -3   7    5.04    0.64
   8   2  -7    0.53    0.38
   8   2  -7    1.07    0.41
   8   2  -7    0.98    0.40
   8   2  -7    1.49    0.36
  -8  -2   7    0.73    0.45
  -8  -2   7    0.49    0.39
   7   2  -7    0.74    0.29
   7   2  -7    0.21    0.29
   7   2  -7    0.15    0.30
   7   2  -7    0.38    0.26
  -7  -2   7   -0.27    0.27
  -7  -2   7    0.12    0.37
  -7  -2   7    0.23    0.36
  -7  -2   7   -0.08    0.30
   6   2  -7    0.56    0.24
   6   2  -7    1.00    0.25
   6   2  -7    0.97    0.26
   6   2  -7    0.94    0.30
   6   2  -7    0.64    0.26
  -6  -2   7    0.62    0.28
  -6  -2   7    1.18    0.35
  -6  -2   7    1.46    0.31
  -6  -2   7    0.98    0.26
   5   2  -7   35.73    1.33
   5   2  -7   32.17    1.43
   5   2  -7   34.96    1.42
   5   2  -7   34.47    1.45
   5   2  -7   36.93    1.49
   5   2  -7   37.71    1.39
   5   2  -7   36.94    1.37
   5   2  -7   36.01    1.37
  -5  -2   7   38.89    1.42
  -5  -2   7   37.63    1.33
  -5  -2   7   37.92    1.38
  -5  -2   7   31.19    1.47
   4   2  -7    4.85    0.34
   4   2  -7    4.74    0.37
   4   2  -7    5.39    0.48
   4   2  -7    5.46    0.37
   4   2  -7    5.01    0.35
   4   2  -7    4.79    0.38
   4   2  -7    4.60    0.45
   4   2  -7    3.74    0.41
  -4  -2   7    4.93    0.49
  -4  -2   7    4.90    0.41
  -4  -2   7    5.19    0.36
   3   2  -7    1.25    0.22
   3   2  -7    1.60    0.20
   3   2  -7    1.82    0.24
   3   2  -7    1.65    0.24
   3   2  -7    1.86    0.26
   3   2  -7    2.00    0.20
   3   2  -7    1.45    0.19
   3   2  -7    2.01    0.24
  -3  -2   7    1.59    0.21
  -3  -2   7    1.57    0.31
  -3  -2   7    1.44    0.29
  -3  -2   7    1.44    0.21
  -3  -2   7    1.44    0.19
   2   2  -7    5.38    0.35
   2   2  -7    5.61    0.33
   2   2  -7    4.97    0.33
   2   2  -7    5.16    0.33
   2   2  -7    4.65    0.27
   2   2  -7    5.12    0.38
   2   2  -7    4.75    0.33
   2   2  -7    4.96    0.31
   2   2  -7    4.77    0.41
   2   2  -7    4.94    0.27
  -2  -2   7    4.73    0.33
  -2  -2   7    5.86    0.30
  -2  -2   7    4.71    0.34
  -2  -2   7    5.31    0.47
  -2  -2   7    4.62    0.40
   1   2  -7    1.35    0.19
   1   2  -7    1.44    0.18
   1   2  -7    1.73    0.28
   1   2  -7    1.56    0.18
   1   2  -7    1.74    0.22
   1   2  -7    1.68    0.21
   1   2  -7    1.44    0.17
   1   2  -7    1.77    0.15
   1   2  -7    1.51    0.16
   1   2  -7    1.48    0.18
  -1  -2   7    1.77    0.16
  -1  -2   7    1.86    0.21
  -1  -2   7    1.48    0.22
  -1  -2   7    1.41    0.27
  -1  -2   7    1.55    0.16
  -1  -2   7    1.59    0.22
  -1  -2   7    1.37    0.17
  -1  -2   7    1.55    0.25
   0   2  -7    5.19    0.40
   0   2  -7    5.66    0.28
   0   2  -7    5.86    0.28
   0   2  -7    5.74    0.28
   0   2  -7    5.53    0.28
   0   2  -7    5.47    0.29
   0   2  -7    5.73    0.28
   0   2  -7    5.35    0.39
   0   2  -7    5.70    0.34
   0   2  -7    5.72    0.27
   0  -2   7    5.51    0.28
   0  -2   7    5.60    0.37
   0  -2   7    5.62    0.40
   0  -2   7    5.92    0.28
   0  -2   7    6.03    0.35
   0  -2   7    5.46    0.46
   0  -2   7    5.48    0.29
   0  -2   7    5.48    0.29
  -1   2  -7   31.49    1.10
  -1   2  -7   30.27    1.18
  -1   2  -7   31.44    1.05
  -1   2  -7   31.91    1.07
  -1   2  -7   30.83    1.10
  -1   2  -7   31.73    1.06
  -1   2  -7   31.66    1.25
  -1   2  -7   32.37    1.10
  -1   2  -7   30.07    1.21
   1  -2   7   30.37    1.28
   1  -2   7   30.55    1.08
   1  -2   7   31.56    1.11
   1  -2   7   30.71    1.08
   1  -2   7   31.12    1.14
   1  -2   7   32.07    1.21
   1  -2   7   30.46    1.08
   1  -2   7   30.09    1.06
  -2   2  -7    0.65    0.15
  -2   2  -7    0.79    0.12
  -2   2  -7    0.63    0.26
  -2   2  -7    0.79    0.11
  -2   2  -7    0.77    0.19
  -2   2  -7    0.66    0.11
  -2   2  -7    0.72    0.14
   2  -2   7    1.00    0.27
   2  -2   7    0.66    0.16
   2  -2   7    0.65    0.17
   2  -2   7    0.83    0.12
   2  -2   7    0.98    0.16
   2  -2   7    0.79    0.14
   2  -2   7    0.96    0.15
   2  -2   7    0.83    0.18
  -3   2  -7    1.70    0.18
  -3   2  -7    1.52    0.20
  -3   2  -7    1.75    0.22
  -3   2  -7    2.04    0.27
  -3   2  -7    2.49    0.30
  -3   2  -7    1.82    0.20
   3  -2   7    1.80    0.20
   3  -2   7    1.87    0.26
   3  -2   7    1.82    0.22
   3  -2   7    1.52    0.25
   3  -2   7    2.06    0.35
   3  -2   7    1.91    0.24
   3  -2   7    2.22    0.28
  -4   2  -7    6.33    0.47
  -4   2  -7    6.32    0.36
  -4   2  -7    6.15    0.35
  -4   2  -7    6.87    0.41
  -4   2  -7    5.99    0.42
  -4   2  -7    6.35    0.39
   4  -2   7    6.03    0.52
   4  -2   7    6.26    0.36
   4  -2   7    6.32    0.39
   4  -2   7    6.75    0.58
   4  -2   7    7.47    0.46
   4  -2   7    5.80    0.48
  -5   2  -7    2.08    0.28
  -5   2  -7    2.42    0.29
  -5   2  -7    2.29    0.36
  -5   2  -7    3.42    0.45
  -5   2  -7    2.32    0.28
   5  -2   7    2.31    0.41
   5  -2   7    2.33    0.35
   5  -2   7    2.01    0.41
   5  -2   7    2.77    0.34
   5  -2   7    2.93    0.38
   5  -2   7    2.15    0.30
  -6   2  -7    2.47    0.38
  -6   2  -7    1.81    0.28
  -6   2  -7    1.71    0.34
  -6   2  -7    1.96    0.46
   6  -2   7    1.72    0.33
   6  -2   7    2.03    0.29
   6  -2   7    1.40    0.40
   6  -2   7    1.85    0.40
  -7   2  -7    5.45    0.68
  -7   2  -7    5.52    0.68
  -7   2  -7    4.94    0.53
  -7   2  -7    4.93    0.60
   7  -2   7    4.28    0.58
  -8   2  -7    0.25    0.48
  -8   2  -7    0.45    0.65
  -8   2  -7    1.05    0.43
   8  -2   7    0.93    0.40
   8  -2   7    0.78    0.41
   8   1  -7    4.66    0.55
   8   1  -7    3.99    0.50
   8   1  -7    3.89    0.49
   8   1  -7    3.83    0.52
  -8  -1   7    4.78    0.55
  -8  -1   7    3.37    0.51
  -8  -1   7    3.73    0.50
   7   1  -7    4.80    0.55
   7   1  -7    4.53    0.49
   7   1  -7    3.91    0.50
   7   1  -7    4.53    0.45
  -7  -1   7    4.19    0.47
  -7  -1   7    4.37    0.53
  -7  -1   7    4.63    0.54
   6   1  -7    8.55    0.55
   6   1  -7    8.05    0.51
   6   1  -7    8.57    0.59
   6   1  -7    7.42    0.74
   6   1  -7    9.20    0.57
   6   1  -7    7.29    0.61
  -6  -1   7    8.53    0.56
  -6  -1   7    9.02    0.63
  -6  -1   7    8.38    0.56
   5   1  -7   33.73    1.24
   5   1  -7   33.10    1.26
   5   1  -7   31.49    1.33
   5   1  -7   32.29    1.21
   5   1  -7   31.11    1.24
   5   1  -7   29.43    1.22
   5   1  -7   31.58    1.22
   5   1  -7   28.94    1.29
  -5  -1   7   33.43    1.23
  -5  -1   7   33.02    1.27
   4   1  -7    0.84    0.17
   4   1  -7    1.06    0.21
   4   1  -7    0.76    0.22
   4   1  -7    0.80    0.16
   4   1  -7    1.06    0.20
   4   1  -7    0.78    0.18
   4   1  -7    0.87    0.17
   4   1  -7    0.58    0.24
  -4  -1   7    0.82    0.19
  -4  -1   7    0.75    0.20
  -4  -1   7    0.74    0.30
   3   1  -7    2.47    0.26
   3   1  -7    2.76    0.25
   3   1  -7    2.95    0.31
   3   1  -7    2.55    0.24
   3   1  -7    3.11    0.30
   3   1  -7    2.55    0.23
   3   1  -7    2.56    0.30
   3   1  -7    2.70    0.23
  -3  -1   7    3.37    0.36
  -3  -1   7    2.38    0.30
  -3  -1   7    2.60    0.24
  -3  -1   7    2.68    0.33
  -3  -1   7    3.21    0.27
  -3  -1   7    2.14    0.27
   2   1  -7    9.72    0.41
   2   1  -7    9.06    0.41
   2   1  -7    9.35    0.42
   2   1  -7    9.28    0.43
   2   1  -7    9.49    0.43
   2   1  -7    7.95    0.47
   2   1  -7    8.74    0.45
   2   1  -7    9.48    0.47
  -2  -1   7    8.63    0.44
  -2  -1   7    8.62    0.48
  -2  -1   7    8.70    0.49
  -2  -1   7    8.72    0.45
  -2  -1   7    9.04    0.41
  -2  -1   7    9.44    0.41
  -2  -1   7    9.51    0.50
  -2  -1   7    8.36    0.48
   1   1  -7    4.30    0.23
   1   1  -7    3.51    0.26
   1   1  -7    4.04    0.26
   1   1  -7    4.18    0.24
   1   1  -7    4.25    0.31
   1   1  -7    4.22    0.24
   1   1  -7    4.17    0.25
   1   1  -7    3.99    0.25
   1   1  -7    4.05    0.25
   1   1  -7    4.43    0.33
  -1  -1   7    3.86    0.31
  -1  -1   7    4.07    0.32
  -1  -1   7    4.35    0.32
  -1  -1   7    3.91    0.26
  -1  -1   7    4.12    0.26
  -1  -1   7    4.19    0.24
   0   1  -7    3.73    0.23
   0   1  -7    3.84    0.23
   0   1  -7    3.85    0.22
   0   1  -7    3.75    0.24
   0   1  -7    3.75    0.20
   0   1  -7    3.10    0.32
   0   1  -7    3.31    0.22
   0   1  -7    4.11    0.35
   0   1  -7    3.56    0.17
   0  -1   7    3.50    0.29
   0  -1   7    3.20    0.24
   0  -1   7    3.49    0.22
   0  -1   7    3.81    0.27
   0  -1   7    3.54    0.25
   0  -1   7    3.99    0.30
   0  -1   7    3.81    0.39
   0  -1   7    3.73    0.28
  -1   1  -7    1.92    0.17
  -1   1  -7    1.95    0.13
  -1   1  -7    1.95    0.20
  -1   1  -7    1.95    0.17
  -1   1  -7    2.02    0.22
  -1   1  -7    2.08    0.18
  -1   1  -7    1.83    0.29
  -1   1  -7    1.72    0.26
   1  -1   7    1.86    0.17
   1  -1   7    2.20    0.32
   1  -1   7    1.90    0.21
   1  -1   7    2.10    0.24
   1  -1   7    1.41    0.22
   1  -1   7    1.74    0.23
   1  -1   7    1.96    0.26
   1  -1   7    1.85    0.19
  -2   1  -7    1.76    0.23
  -2   1  -7    1.46    0.17
  -2   1  -7    1.71    0.18
  -2   1  -7    1.26    0.20
  -2   1  -7    1.60    0.17
   2  -1   7    1.70    0.24
   2  -1   7    1.68    0.23
   2  -1   7    1.59    0.23
   2  -1   7    1.90    0.23
   2  -1   7    1.61    0.29
   2  -1   7    1.45    0.19
   2  -1   7    1.58    0.16
   2  -1   7    1.74    0.21
  -3   1  -7    7.05    0.45
  -3   1  -7    7.44    0.37
  -3   1  -7    5.92    0.36
  -3   1  -7    6.46    0.35
  -3   1  -7    6.86    0.44
   3  -1   7    7.10    0.42
   3  -1   7    6.83    0.45
   3  -1   7    6.52    0.32
   3  -1   7    5.73    0.50
   3  -1   7    5.66    0.36
  -4   1  -7    8.71    0.54
  -4   1  -7    8.57    0.46
  -4   1  -7    8.72    0.46
  -4   1  -7    8.74    0.49
  -4   1  -7    8.68    0.46
  -4   1  -7    9.61    0.59
   4  -1   7    9.43    0.58
   4  -1   7    9.24    0.42
   4  -1   7    7.17    0.45
   4  -1   7    9.13    0.52
   4  -1   7    9.67    0.62
  -5   1  -7    1.10    0.18
  -5   1  -7    0.60    0.28
  -5   1  -7    0.76    0.23
  -5   1  -7    1.36    0.30
  -5   1  -7    0.69    0.23
  -5   1  -7    1.02    0.24
   5  -1   7    0.90    0.24
   5  -1   7    0.95    0.20
   5  -1   7    0.72    0.31
   5  -1   7   -0.25    0.32
   5  -1   7    0.04    0.30
  -6   1  -7    4.82    0.64
  -6   1  -7    4.00    0.47
  -6   1  -7    4.78    0.55
   6  -1   7    4.44    0.41
   6  -1   7    4.54    0.48
   6  -1   7    4.07    0.53
  -7   1  -7    7.35    0.76
  -7   1  -7    8.08    0.82
  -7   1  -7    6.86    0.78
   7  -1   7    7.95    0.70
   7  -1   7    7.84    0.68
   7  -1   7    8.23    0.98
   9   0  -7    0.71    0.31
   9   0  -7    1.03    0.43
   9   0  -7    0.62    0.42
   9   0  -7    0.70    0.41
  -9   0   7    0.51    0.48
   8   0  -7    2.46    0.42
   8   0  -7    1.64    0.30
   8   0  -7    2.30    0.41
   8   0  -7    1.74    0.38
  -8   0   7    2.61    0.50
  -8   0   7    2.12    0.41
   7   0  -7   10.91    0.67
   7   0  -7   10.64    0.66
   7   0  -7   11.40    0.72
  -7   0   7   11.69    0.68
  -7   0   7   11.61    0.72
  -7   0   7   10.68    0.76
   6   0  -7   14.01    0.72
   6   0  -7   15.85    0.75
   6   0  -7   15.12    0.68
   6   0  -7   14.53    0.70
   6   0  -7   15.49    0.76
   6   0  -7   14.03    0.90
  -6   0   7   13.43    0.75
  -6   0   7   15.80    0.79
  -6   0   7   16.29    0.75
   5   0  -7   22.26    0.92
   5   0  -7   21.40    0.99
   5   0  -7   20.64    1.02
   5   0  -7   21.95    0.87
   5   0  -7   21.84    0.88
   5   0  -7   22.56    0.97
   5   0  -7   22.44    0.92
   5   0  -7   22.22    0.94
  -5   0   7   23.37    0.95
  -5   0   7   22.21    0.96
  -5   0   7   22.63    0.92
   4   0  -7    7.43    0.41
   4   0  -7    7.42    0.39
   4   0  -7    6.71    0.39
   4   0  -7    7.49    0.42
   4   0  -7    7.28    0.38
   4   0  -7    6.80    0.47
   4   0  -7    6.90    0.49
   4   0  -7    7.46    0.48
  -4   0   7    7.55    0.47
  -4   0   7    7.32    0.41
   3   0  -7   10.35    0.43
   3   0  -7    9.66    0.40
   3   0  -7   10.28    0.46
   3   0  -7    9.69    0.52
   3   0  -7    9.67    0.50
   3   0  -7    9.94    0.46
   3   0  -7   10.37    0.47
   3   0  -7    8.71    0.50
   3   0  -7   10.36    0.45
  -3   0   7    9.76    0.52
  -3   0   7    9.22    0.50
  -3   0   7   10.02    0.45
  -3   0   7    9.05    0.50
  -3   0   7    9.01    0.51
  -3   0   7   10.02    0.54
  -3   0   7    9.88    0.49
   2   0  -7   22.03    0.83
   2   0  -7   22.47    0.83
   2   0  -7   21.83    0.89
   2   0  -7   22.48    0.82
   2   0  -7   21.81    0.86
   2   0  -7   22.44    0.84
   2   0  -7   22.25    0.82
  -2   0   7   21.65    0.91
  -2   0   7   21.25    0.85
  -2   0   7   21.12    0.87
  -2   0   7   22.61    0.87
  -2   0   7   22.39    0.88
  -2   0   7   22.45    0.81
  -2   0   7   22.03    0.83
  -2   0   7   21.09    0.84
   1   0  -7    5.96    0.33
   1   0  -7    6.45    0.32
   1   0  -7    5.92    0.31
   1   0  -7    6.13    0.30
   1   0  -7    6.20    0.33
   1   0  -7    5.89    0.40
   1   0  -7    6.24    0.31
  -1   0   7    6.20    0.36
  -1   0   7    5.85    0.32
  -1   0   7    5.78    0.35
  -1   0   7    6.26    0.35
  -1   0   7    6.07    0.33
  -1   0   7    6.31    0.34
  -1   0   7    6.17    0.31
   0   0  -7    6.17    0.32
   0   0  -7    6.50    0.44
   0   0  -7    6.67    0.36
   0   0  -7    6.17    0.32
   0   0  -7    6.34    0.34
   0   0  -7    6.27    0.28
   0   0  -7    6.04    0.31
   0   0   7    6.27    0.35
   0   0   7    6.35    0.33
   0   0   7    6.45    0.34
   0   0   7    6.45    0.32
   0   0   7    5.94    0.36
   0   0   7    5.93    0.31
   0   0   7    5.95    0.35
  -1   0  -7   28.51    1.00
  -1   0  -7   27.92    1.02
  -1   0  -7   26.79    1.15
  -1   0  -7   29.66    1.03
  -1   0  -7   28.51    1.07
  -1   0  -7   28.10    1.07
   1   0   7   28.30    1.08
   1   0   7   30.12    0.97
   1   0   7   28.28    1.04
   1   0   7   26.41    1.06
   1   0   7   27.12    1.01
   1   0   7   27.76    1.03
   1   0   7   29.05    1.05
  -2   0  -7    5.93    0.41
  -2   0  -7    5.82    0.40
  -2   0  -7    5.75    0.33
  -2   0  -7    5.71    0.32
  -2   0  -7    5.55    0.33
   2   0   7    5.75    0.44
   2   0   7    5.50    0.36
   2   0   7    5.49    0.34
   2   0   7    5.77    0.39
   2   0   7    5.62    0.47
  -3   0  -7   13.04    0.58
  -3   0  -7   12.07    0.56
  -3   0  -7   13.56    0.66
  -3   0  -7   12.48    0.66
  -3   0  -7   12.05    0.58
   3   0   7   11.63    0.57
   3   0   7   12.88    0.65
   3   0   7   13.20    0.71
   3   0   7   11.77    0.68
  -4   0  -7    1.10    0.21
  -4   0  -7    1.59    0.24
  -4   0  -7    1.26    0.23
  -4   0  -7    2.00    0.47
   4   0   7    1.32    0.34
   4   0   7    1.39    0.31
   4   0   7    1.24    0.31
   4   0   7    1.48    0.21
  -5   0  -7    5.12    0.48
  -5   0  -7    5.31    0.62
  -5   0  -7    4.49    0.53
  -5   0  -7    4.84    0.31
  -5   0  -7    4.70    0.44
   5   0   7    6.10    0.62
   5   0   7    4.93    0.36
   5   0   7    4.16    0.53
   5   0   7    5.14    0.53
  -6   0  -7    3.13    0.52
  -6   0  -7    2.52    0.45
   6   0   7    2.58    0.31
   6   0   7    2.37    0.48
  -7   0  -7    5.53    0.75
  -7   0  -7    7.00    0.78
  -7   0  -7    7.68    0.82
   7   0   7    6.78    0.76
   9  -1  -7    0.50    0.40
   9  -1  -7    0.43    0.40
   9  -1  -7    0.69    0.29
   9  -1  -7    0.62    0.43
  -9   1   7    0.61    0.41
  -9   1   7    1.26    0.48
  -9   1   7    1.39    0.51
   8  -1  -7    1.44    0.39
   8  -1  -7    1.64    0.36
   8  -1  -7    0.69    0.24
   8  -1  -7    1.25    0.32
  -8   1   7    0.71    0.35
  -8   1   7    1.34    0.39
  -8   1   7    0.60    0.33
   7  -1  -7    2.07    0.33
   7  -1  -7    2.11    0.32
   7  -1  -7    2.70    0.32
   7  -1  -7    2.57    0.38
  -7   1   7    2.49    0.41
  -7   1   7    2.48    0.35
  -7   1   7    2.26    0.37
   6  -1  -7   35.14    1.33
   6  -1  -7   39.45    1.47
   6  -1  -7   38.57    1.39
   6  -1  -7   38.70    1.48
   6  -1  -7   34.92    1.58
   6  -1  -7   40.21    1.49
  -6   1   7   39.80    1.46
  -6   1   7   40.45    1.54
  -6   1   7   41.11    1.52
   5  -1  -7    1.36    0.20
   5  -1  -7    1.48    0.25
   5  -1  -7    1.40    0.18
   5  -1  -7    1.32    0.32
   5  -1  -7    1.47    0.30
   5  -1  -7    0.95    0.19
   5  -1  -7    1.16    0.21
  -5   1   7    0.99    0.21
  -5   1   7    1.48    0.27
   4  -1  -7   16.22    0.65
   4  -1  -7   17.81    0.73
   4  -1  -7   16.76    0.71
   4  -1  -7   16.97    0.78
   4  -1  -7   17.66    0.80
   4  -1  -7   17.16    0.81
   4  -1  -7   17.81    0.73
   4  -1  -7   17.93    0.68
  -4   1   7   17.38    0.79
  -4   1   7   18.51    0.72
  -4   1   7   16.76    0.73
  -4   1   7   14.91    0.75
  -4   1   7   16.63    0.79
   3  -1  -7   21.33    0.80
   3  -1  -7   21.54    0.75
   3  -1  -7   20.91    0.82
   3  -1  -7   20.64    0.82
   3  -1  -7   22.20    0.91
   3  -1  -7   19.91    0.84
   3  -1  -7   20.68    0.87
   3  -1  -7   21.49    0.82
  -3   1   7   21.58    0.83
  -3   1   7   21.64    0.81
  -3   1   7   19.85    0.85
  -3   1   7   20.94    0.85
  -3   1   7   21.22    0.89
  -3   1   7   19.15    0.85
  -3   1   7   20.31    0.85
   2  -1  -7    5.40    0.25
   2  -1  -7    5.13    0.29
   2  -1  -7    5.25    0.32
   2  -1  -7    5.17    0.40
   2  -1  -7    5.36    0.29
   2  -1  -7    5.61    0.35
   2  -1  -7    5.29    0.33
   2  -1  -7    5.53    0.31
  -2   1   7    5.27    0.33
  -2   1   7    5.15    0.30
  -2   1   7    4.82    0.42
  -2   1   7    5.35    0.32
  -2   1   7    5.08    0.35
  -2   1   7    5.64    0.34
  -2   1   7    5.02    0.33
   1  -1  -7    0.37    0.09
   1  -1  -7    0.26    0.11
   1  -1  -7    0.20    0.08
   1  -1  -7    0.29    0.12
   1  -1  -7    0.18    0.11
   1  -1  -7    0.35    0.12
   1  -1  -7    0.28    0.17
  -1   1   7    0.42    0.13
  -1   1   7    0.40    0.12
  -1   1   7    0.27    0.13
  -1   1   7    0.34    0.11
  -1   1   7    0.18    0.10
  -1   1   7    0.31    0.13
  -1   1   7    0.11    0.18
  -1   1   7    0.26    0.13
   0  -1  -7    0.66    0.14
   0  -1  -7    1.50    0.18
   0  -1  -7    0.73    0.13
   0  -1  -7    1.08    0.18
   0  -1  -7    1.13    0.25
   0  -1  -7    1.04    0.16
   0   1   7    0.99    0.15
   0   1   7    1.06    0.17
   0   1   7    1.05    0.19
   0   1   7    1.21    0.17
   0   1   7    0.86    0.15
   0   1   7    0.70    0.12
   0   1   7    0.97    0.17
  -1  -1  -7    4.25    0.53
  -1  -1  -7    4.11    0.27
  -1  -1  -7    4.01    0.34
  -1  -1  -7    3.85    0.27
  -1  -1  -7    3.97    0.27
  -1  -1  -7    4.27    0.35
   1   1   7    4.14    0.30
   1   1   7    4.06    0.29
   1   1   7    4.25    0.32
   1   1   7    4.07    0.24
   1   1   7    3.99    0.38
   1   1   7    3.37    0.28
   1   1   7    3.45    0.37
  -2  -1  -7    0.72    0.17
  -2  -1  -7    0.87    0.21
  -2  -1  -7    0.60    0.14
  -2  -1  -7    0.91    0.24
  -2  -1  -7    0.84    0.18
   2   1   7    0.80    0.21
   2   1   7    0.79    0.11
   2   1   7    0.96    0.25
  -3  -1  -7    8.07    0.47
  -3  -1  -7    7.73    0.57
  -3  -1  -7    7.75    0.54
  -3  -1  -7    7.03    0.46
  -3  -1  -7    7.21    0.45
   3   1   7    8.61    0.56
   3   1   7    7.66    0.65
   3   1   7    7.93    0.54
  -4  -1  -7    7.10    0.63
  -4  -1  -7    7.18    0.51
  -4  -1  -7    6.92    0.58
  -4  -1  -7    7.80    0.51
   4   1   7    5.55    0.54
   4   1   7    7.43    0.37
   4   1   7    7.49    0.58
   4   1   7    7.84    0.74
  -5  -1  -7   13.53    0.83
  -5  -1  -7   14.11    0.89
  -5  -1  -7   12.43    0.74
  -5  -1  -7   13.02    0.57
   5   1   7   11.45    0.93
   5   1   7   13.09    0.61
   5   1   7   14.08    0.86
   5   1   7   11.70    0.69
  -6  -1  -7    0.42    0.43
  -6  -1  -7   -0.08    0.32
  -6  -1  -7    0.30    0.41
   6   1   7    0.23    0.43
   6   1   7    0.68    0.27
  -7  -1  -7    0.38    0.50
  -7  -1  -7    0.81    0.60
  -7  -1  -7    0.41    0.52
   7   1   7   -0.22    0.56
   9  -2  -7    2.31    0.50
   9  -2  -7    0.86    0.41
   9  -2  -7    1.75    0.44
   9  -2  -7    0.51    0.40
  -9   2   7    1.02    0.37
  -9   2   7    1.11    0.46
  -9   2   7    0.31    0.42
   8  -2  -7    3.92    0.45
   8  -2  -7    3.85    0.48
   8  -2  -7    3.37    0.38
   8  -2  -7    3.04    0.41
   8  -2  -7    3.42    0.45
  -8   2   7    3.12    0.49
  -8   2   7    3.76    0.59
  -8   2   7    3.60    0.44
   7  -2  -7    2.36    0.35
   7  -2  -7    2.48    0.38
   7  -2  -7    2.29    0.30
   7  -2  -7    2.35    0.35
  -7   2   7    1.97    0.37
  -7   2   7    2.84    0.35
  -7   2   7    2.61    0.41
   6  -2  -7   11.89    0.60
   6  -2  -7   11.72    0.54
   6  -2  -7   10.29    0.76
   6  -2  -7   10.80    0.62
   6  -2  -7   12.20    0.65
   6  -2  -7   11.82    0.64
  -6   2   7   12.46    0.67
  -6   2   7   10.89    0.70
  -6   2   7   11.75    0.61
   5  -2  -7    1.06    0.20
   5  -2  -7    1.03    0.19
   5  -2  -7    1.48    0.19
   5  -2  -7    1.59    0.32
   5  -2  -7    1.62    0.24
   5  -2  -7    1.26    0.24
  -5   2   7    1.77    0.27
  -5   2   7    1.51    0.23
  -5   2   7    1.44    0.28
   4  -2  -7   20.11    0.81
   4  -2  -7   18.92    0.85
   4  -2  -7   20.30    0.81
   4  -2  -7   19.08    0.88
   4  -2  -7   20.46    0.77
   4  -2  -7   20.22    0.77
   4  -2  -7   19.89    0.82
  -4   2   7   20.78    0.83
  -4   2   7   20.16    0.79
  -4   2   7   17.88    0.84
  -4   2   7   17.71    0.81
  -4   2   7   20.52    0.90
   3  -2  -7   51.31    1.73
   3  -2  -7   48.31    1.85
   3  -2  -7   52.86    1.69
   3  -2  -7   52.71    1.75
   3  -2  -7   51.99    1.76
   3  -2  -7   50.42    1.80
   3  -2  -7   49.44    1.76
  -3   2   7   52.97    1.77
  -3   2   7   52.09    1.74
  -3   2   7   47.21    1.75
  -3   2   7   50.79    1.69
  -3   2   7   44.12    1.76
  -3   2   7   51.74    1.85
  -3   2   7   48.53    1.77
   2  -2  -7    9.40    0.47
   2  -2  -7    9.72    0.48
   2  -2  -7    8.74    0.55
   2  -2  -7    9.20    0.43
   2  -2  -7    9.23    0.36
   2  -2  -7    8.96    0.45
   2  -2  -7    9.46    0.43
   2  -2  -7    9.09    0.46
  -2   2   7    9.45    0.46
  -2   2   7    9.20    0.57
  -2   2   7    8.68    0.42
  -2   2   7    8.37    0.47
  -2   2   7    9.89    0.48
  -2   2   7    9.74    0.45
  -2   2   7    9.45    0.46
  -2   2   7    9.48    0.47
   1  -2  -7    2.05    0.25
   1  -2  -7    2.08    0.21
   1  -2  -7    2.50    0.26
   1  -2  -7    2.24    0.25
   1  -2  -7    1.94    0.31
   1  -2  -7    2.24    0.23
  -1   2   7    2.95    0.29
  -1   2   7    2.78    0.24
  -1   2   7    2.86    0.34
  -1   2   7    2.51    0.27
  -1   2   7    2.05    0.20
  -1   2   7    1.83    0.24
  -1   2   7    1.64    0.23
  -1   2   7    2.12    0.24
   0  -2  -7   27.41    1.02
   0  -2  -7   28.59    1.05
   0  -2  -7   27.95    1.09
   0  -2  -7   27.60    1.04
   0  -2  -7   27.56    1.09
   0   2   7   28.14    1.00
   0   2   7   28.18    1.06
   0   2   7   29.08    1.11
   0   2   7   26.99    1.03
  -1  -2  -7    2.93    0.28
  -1  -2  -7    3.22    0.28
  -1  -2  -7    3.22    0.29
  -1  -2  -7    3.13    0.34
  -1  -2  -7    2.84    0.33
   1   2   7    3.77    0.41
   1   2   7    3.24    0.24
   1   2   7    3.25    0.34
  -2  -2  -7    0.25    0.15
  -2  -2  -7    0.18    0.22
  -2  -2  -7    0.05    0.19
  -2  -2  -7    0.44    0.17
  -2  -2  -7    0.36    0.17
   2   2   7    0.12    0.19
   2   2   7    0.26    0.24
   2   2   7    0.48    0.12
  -3  -2  -7    0.49    0.26
  -3  -2  -7    0.58    0.28
  -3  -2  -7    0.28    0.19
  -3  -2  -7    0.58    0.21
  -3  -2  -7    0.26    0.22
   3   2   7   -0.10    0.29
   3   2   7    0.31    0.27
   3   2   7    0.40    0.27
   3   2   7    0.45    0.22
   3   2   7    0.60    0.13
  -4  -2  -7    8.22    0.68
  -4  -2  -7    7.57    0.58
  -4  -2  -7    8.22    0.73
  -4  -2  -7    7.97    0.48
   4   2   7    8.08    0.38
   4   2   7    7.45    0.57
   4   2   7    8.37    0.66
   4   2   7    8.29    0.76
  -5  -2  -7    0.03    0.30
  -5  -2  -7    0.21    0.39
  -5  -2  -7   -0.17    0.36
   5   2   7   -0.46    0.38
  -6  -2  -7    9.31    1.00
  -6  -2  -7   10.58    0.89
  -6  -2  -7    7.61    0.79
   6   2   7   10.37    0.94
   9  -3  -7    1.34    0.42
   9  -3  -7    0.98    0.45
   9  -3  -7    1.26    0.44
   9  -3  -7    1.23    0.42
  -9   3   7    1.06    0.38
  -9   3   7    0.99    0.49
   8  -3  -7    3.99    0.38
   8  -3  -7    4.12    0.57
   8  -3  -7    3.67    0.46
   8  -3  -7    3.61    0.43
   8  -3  -7    3.90    0.57
  -8   3   7    3.23    0.41
  -8   3   7    3.45    0.54
   7  -3  -7   11.01    0.54
   7  -3  -7   10.43    0.64
   7  -3  -7   11.61    0.69
   7  -3  -7   10.69    0.67
   7  -3  -7   11.14    0.65
  -7   3   7   11.18    0.71
  -7   3   7   10.64    0.78
  -7   3   7   10.56    0.62
   6  -3  -7    1.30    0.28
   6  -3  -7    1.74    0.21
   6  -3  -7    2.09    0.32
   6  -3  -7    1.53    0.25
   6  -3  -7    2.36    0.35
  -6   3   7    2.45    0.30
  -6   3   7    2.16    0.37
  -6   3   7    1.36    0.26
   5  -3  -7   10.87    0.57
   5  -3  -7   10.45    0.49
   5  -3  -7    9.44    0.66
   5  -3  -7   10.80    0.57
   5  -3  -7   10.58    0.52
   5  -3  -7    9.85    0.57
  -5   3   7   10.82    0.54
  -5   3   7    9.56    0.65
  -5   3   7   10.78    0.57
  -5   3   7   10.36    0.67
   4  -3  -7    2.97    0.25
   4  -3  -7    2.79    0.30
   4  -3  -7    2.36    0.28
   4  -3  -7    2.50    0.30
   4  -3  -7    2.91    0.25
   4  -3  -7    2.22    0.30
  -4   3   7    2.46    0.27
  -4   3   7    3.18    0.31
  -4   3   7    3.39    0.42
  -4   3   7    2.76    0.32
   3  -3  -7    1.68    0.18
   3  -3  -7    1.80    0.24
   3  -3  -7    1.69    0.24
   3  -3  -7    1.59    0.26
   3  -3  -7    1.73    0.22
   3  -3  -7    1.92    0.22
  -3   3   7    2.21    0.28
  -3   3   7    2.18    0.24
  -3   3   7    2.02    0.16
  -3   3   7    1.52    0.26
  -3   3   7    2.17    0.26
   2  -3  -7    3.03    0.30
   2  -3  -7    3.38    0.33
   2  -3  -7    3.01    0.27
   2  -3  -7    3.12    0.31
   2  -3  -7    3.44    0.30
  -2   3   7    3.49    0.29
  -2   3   7    3.19    0.23
  -2   3   7    3.13    0.31
  -2   3   7    3.02    0.33
  -2   3   7    3.11    0.30
  -2   3   7    2.95    0.37
   1  -3  -7    6.30    0.40
   1  -3  -7    5.11    0.35
   1  -3  -7    5.57    0.37
   1  -3  -7    5.57    0.35
   1  -3  -7    5.15    0.40
  -1   3   7    4.43    0.33
  -1   3   7    6.02    0.49
  -1   3   7    5.70    0.41
  -1   3   7    5.65    0.36
  -1   3   7    5.59    0.37
   0  -3  -7    7.65    0.49
   0  -3  -7    7.18    0.44
   0  -3  -7    7.70    0.50
   0  -3  -7    7.47    0.41
   0   3   7    7.21    0.49
   0   3   7    7.78    0.46
   0   3   7    6.51    0.42
   0   3   7    7.55    0.39
  -1  -3  -7    0.30    0.18
  -1  -3  -7    0.39    0.24
  -1  -3  -7    0.25    0.16
  -1  -3  -7    0.17    0.18
  -1  -3  -7    0.52    0.24
   1   3   7    0.23    0.21
   1   3   7    0.27    0.23
   1   3   7    0.28    0.14
  -2  -3  -7    1.42    0.26
  -2  -3  -7    1.18    0.30
  -2  -3  -7    2.02    0.39
  -2  -3  -7    1.22    0.45
   2   3   7    1.20    0.18
   2   3   7    1.71    0.33
   2   3   7    1.40    0.17
   2   3   7    1.92    0.34
   2   3   7    1.43    0.22
  -3  -3  -7   20.00    1.02
  -3  -3  -7   18.62    0.88
  -3  -3  -7   19.08    0.92
   3   3   7   18.63    1.03
   3   3   7   19.41    0.78
   3   3   7   16.63    0.71
   3   3   7   18.16    0.95
  -4  -3  -7    8.39    0.73
  -4  -3  -7    6.34    0.63
  -4  -3  -7    8.83    0.55
  -4  -3  -7    9.37    0.81
   4   3   7    9.26    0.73
   4   3   7    8.26    0.61
   4   3   7    7.46    0.85
   4   3   7    7.81    0.53
  -5  -3  -7    1.81    0.42
  -5  -3  -7    1.24    0.52
  -5  -3  -7    1.17    0.48
   5   3   7    1.57    0.48
  -6  -3  -7    1.99    0.64
  -6  -3  -7    2.12    0.62
   6   3   7    0.71    0.54
   9  -4  -7    4.57    0.56
   9  -4  -7    5.10    0.67
   9  -4  -7    5.60    0.72
  -9   4   7    4.03    0.54
  -9   4   7    4.68    0.68
  -9   4   7    5.77    0.63
   8  -4  -7    4.14    0.50
   8  -4  -7    5.59    0.57
   8  -4  -7    4.65    0.41
   8  -4  -7    5.08    0.55
   8  -4  -7    4.89    0.59
  -8   4   7    3.90    0.50
  -8   4   7    4.42    0.62
  -8   4   7    6.51    0.78
   7  -4  -7    1.64    0.34
   7  -4  -7    1.75    0.33
   7  -4  -7    2.16    0.33
   7  -4  -7    1.52    0.24
  -7   4   7    1.47    0.27
  -7   4   7    1.64    0.34
  -7   4   7    2.40    0.43
   6  -4  -7    8.28    0.45
   6  -4  -7    7.93    0.55
   6  -4  -7    8.71    0.54
   6  -4  -7    8.14    0.56
   6  -4  -7    8.87    0.53
  -6   4   7    7.18    0.50
  -6   4   7    8.60    0.70
  -6   4   7    8.19    0.56
   5  -4  -7   10.67    0.51
   5  -4  -7   10.55    0.60
   5  -4  -7   10.96    0.58
   5  -4  -7   10.21    0.51
   5  -4  -7   10.68    0.57
   5  -4  -7   10.66    0.53
  -5   4   7   10.79    0.66
  -5   4   7    9.57    0.64
  -5   4   7   10.70    0.58
  -5   4   7   10.73    0.71
   4  -4  -7   17.32    0.71
   4  -4  -7   16.75    0.69
   4  -4  -7   16.72    0.76
   4  -4  -7   16.13    0.81
   4  -4  -7   17.67    0.76
  -4   4   7   16.83    0.73
  -4   4   7   15.86    0.78
  -4   4   7   15.47    0.85
  -4   4   7   16.52    0.76
   3  -4  -7    3.69    0.37
   3  -4  -7    3.03    0.38
   3  -4  -7    3.77    0.31
   3  -4  -7    3.72    0.36
   3  -4  -7    4.41    0.27
  -3   4   7    3.97    0.33
  -3   4   7    4.29    0.44
  -3   4   7    3.48    0.20
  -3   4   7    3.95    0.36
  -3   4   7    3.53    0.36
   2  -4  -7   13.35    0.67
   2  -4  -7   13.14    0.66
   2  -4  -7   12.48    0.53
   2  -4  -7   13.00    0.61
   2  -4  -7   13.38    0.65
  -2   4   7   12.55    0.65
  -2   4   7   12.44    0.62
  -2   4   7   13.37    0.52
  -2   4   7   12.21    0.61
  -2   4   7   13.11    0.75
   1  -4  -7   27.36    1.11
   1  -4  -7   27.76    1.07
   1  -4  -7   26.17    1.05
   1  -4  -7   27.17    1.11
  -1   4   7   26.76    1.19
  -1   4   7   26.00    1.04
  -1   4   7   28.00    1.12
  -1   4   7   23.03    0.99
  -1   4   7   27.13    1.06
   0  -4  -7    1.81    0.33
   0  -4  -7    1.78    0.24
   0  -4  -7    1.07    0.28
   0  -4  -7    1.74    0.25
   0   4   7    1.52    0.26
   0   4   7    1.40    0.22
   0   4   7    1.54    0.31
  -1  -4  -7    0.60    0.17
  -1  -4  -7    0.47    0.27
  -1  -4  -7    0.88    0.25
   1   4   7    0.74    0.20
   1   4   7    0.76    0.27
   1   4   7    1.21    0.35
   1   4   7    1.01    0.14
  -2  -4  -7   -0.15    0.31
  -2  -4  -7    0.17    0.26
  -2  -4  -7   -0.17    0.30
  -2  -4  -7    0.08    0.23
   2   4   7    0.08    0.19
   2   4   7    0.32    0.32
   2   4   7    0.56    0.32
   2   4   7    0.37    0.23
   2   4   7   -0.11    0.31
  -3  -4  -7    4.16    0.53
  -3  -4  -7    4.55    0.47
  -3  -4  -7    2.77    0.48
  -3  -4  -7    4.04    0.53
   3   4   7    3.95    0.56
   3   4   7    3.75    0.51
   3   4   7    3.46    0.45
  -4  -4  -7    0.44    0.29
  -4  -4  -7    0.96    0.36
  -4  -4  -7    0.36    0.40
  -4  -4  -7    0.94    0.44
   4   4   7    0.06    0.39
   4   4   7    0.62    0.49
  -5  -4  -7    0.47    0.54
  -5  -4  -7   -0.50    0.52
  -5  -4  -7    1.05    0.46
   5   4   7    0.34    0.48
   9  -5  -7    0.90    0.47
   9  -5  -7    1.91    0.51
  -9   5   7    1.13    0.59
   8  -5  -7    1.83    0.39
   8  -5  -7    2.49    0.44
  -8   5   7    1.62    0.36
  -8   5   7    2.22    0.51
  -8   5   7    1.81    0.37
   7  -5  -7    1.55    0.31
   7  -5  -7    1.87    0.38
   7  -5  -7    2.20    0.41
   7  -5  -7    1.91    0.27
  -7   5   7    2.16    0.33
  -7   5   7    2.25    0.47
  -7   5   7    1.62    0.33
   6  -5  -7    2.14    0.31
   6  -5  -7    2.68    0.28
   6  -5  -7    2.28    0.29
   6  -5  -7    3.11    0.40
   6  -5  -7    2.40    0.35
  -6   5   7    3.02    0.37
  -6   5   7    3.27    0.47
  -6   5   7    2.15    0.49
   5  -5  -7    4.93    0.48
   5  -5  -7    4.18    0.49
   5  -5  -7    4.99    0.39
   5  -5  -7    5.58    0.41
   5  -5  -7    4.74    0.46
  -5   5   7    4.68    0.52
  -5   5   7    4.77    0.60
  -5   5   7    5.46    0.40
  -5   5   7    4.74    0.45
   4  -5  -7    2.35    0.29
   4  -5  -7    2.44    0.29
   4  -5  -7    2.85    0.36
   4  -5  -7    2.92    0.35
  -4   5   7    2.37    0.30
  -4   5   7    2.04    0.39
  -4   5   7    2.28    0.30
   3  -5  -7    0.20    0.22
   3  -5  -7    0.15    0.22
   3  -5  -7    0.61    0.20
   3  -5  -7    0.25    0.15
  -3   5   7    0.45    0.26
  -3   5   7    0.42    0.24
  -3   5   7    0.27    0.19
  -3   5   7    0.36    0.10
  -3   5   7    0.28    0.20
   2  -5  -7    5.84    0.57
   2  -5  -7    6.59    0.47
   2  -5  -7    7.11    0.53
   2  -5  -7    7.19    0.52
  -2   5   7    6.64    0.46
  -2   5   7    6.40    0.51
  -2   5   7    6.23    0.46
  -2   5   7    5.61    0.66
   1  -5  -7    0.70    0.27
   1  -5  -7    1.16    0.30
   1  -5  -7    1.10    0.25
   1  -5  -7    1.07    0.31
  -1   5   7    1.14    0.18
  -1   5   7    1.06    0.27
  -1   5   7    0.99    0.25
  -1   5   7    0.64    0.33
  -1   5   7    0.48    0.19
   0  -5  -7    3.82    0.46
   0  -5  -7    2.76    0.38
   0  -5  -7    3.25    0.44
   0  -5  -7    3.92    0.48
   0   5   7    2.70    0.53
   0   5   7    3.33    0.42
   0   5   7    2.44    0.27
  -1  -5  -7    1.10    0.38
  -1  -5  -7    1.20    0.35
  -1  -5  -7    1.71    0.32
   1   5   7    1.47    0.39
   1   5   7    1.74    0.34
  -2  -5  -7    6.65    0.73
  -2  -5  -7    8.38    0.68
  -2  -5  -7    8.19    0.98
   2   5   7    7.74    0.70
   2   5   7    8.94    0.83
   2   5   7    8.39    0.60
  -3  -5  -7    0.04    0.45
  -3  -5  -7    0.35    0.43
  -3  -5  -7    0.64    0.37
   3   5   7    1.40    0.43
   3   5   7    0.48    0.32
   3   5   7    0.55    0.48
  -4  -5  -7    1.76    0.50
  -4  -5  -7    1.20    0.55
  -4  -5  -7    1.42    0.53
  -4  -5  -7    2.59    0.51
   4   5   7    2.01    0.53
   4   5   7    1.24    0.89
   8  -6  -7    2.56    0.47
   8  -6  -7    3.25    0.47
  -8   6   7    2.87    0.44
  -8   6   7    2.67    0.41
  -8   6   7    2.70    0.61
   7  -6  -7    1.67    0.38
   7  -6  -7    1.45    0.38
   7  -6  -7    1.51    0.32
   7  -6  -7    2.33    0.38
  -7   6   7    2.37    0.36
  -7   6   7    2.40    0.35
  -7   6   7    2.06    0.48
   6  -6  -7    0.50    0.29
   6  -6  -7    0.51    0.32
   6  -6  -7   -0.14    0.24
   6  -6  -7   -0.01    0.28
   6  -6  -7   -0.42    0.30
  -6   6   7    0.04    0.23
  -6   6   7   -0.47    0.36
  -6   6   7   -0.03    0.21
   5  -6  -7    2.49    0.33
   5  -6  -7    3.00    0.39
   5  -6  -7    1.68    0.31
   5  -6  -7    3.12    0.41
   5  -6  -7    1.97    0.40
  -5   6   7    2.61    0.43
  -5   6   7    2.31    0.35
  -5   6   7    2.65    0.32
   4  -6  -7    1.31    0.28
   4  -6  -7    0.67    0.29
   4  -6  -7    0.73    0.28
   4  -6  -7    0.54    0.20
   4  -6  -7    0.43    0.36
  -4   6   7    0.60    0.24
  -4   6   7    0.58    0.27
  -4   6   7    1.11    0.27
  -4   6   7    1.39    0.35
   3  -6  -7   16.05    0.83
   3  -6  -7   14.96    0.83
   3  -6  -7   14.60    0.69
   3  -6  -7   14.27    0.78
  -3   6   7   15.47    0.90
  -3   6   7   15.34    0.81
  -3   6   7   15.75    0.75
  -3   6   7   13.68    0.77
   2  -6  -7   13.20    0.80
   2  -6  -7   13.09    0.74
   2  -6  -7   13.21    0.78
  -2   6   7   11.64    0.70
  -2   6   7   14.24    0.79
  -2   6   7   13.26    0.71
  -2   6   7   14.71    0.87
   1  -6  -7    1.27    0.40
   1  -6  -7    1.93    0.38
   1  -6  -7    1.26    0.31
  -1   6   7    1.18    0.35
  -1   6   7    1.10    0.35
  -1   6   7    1.97    0.35
   0  -6  -7    2.86    0.41
   0  -6  -7    2.31    0.39
   0  -6  -7    1.99    0.44
   0  -6  -7    1.59    0.41
   0   6   7    1.59    0.42
   0   6   7    2.26    0.39
  -1  -6  -7    0.29    0.42
  -1  -6  -7    0.18    0.39
  -1  -6  -7    1.32    0.35
  -1  -6  -7    0.92    0.33
   1   6   7    0.54    0.40
   1   6   7    0.50    0.35
  -2  -6  -7   14.97    0.92
  -2  -6  -7   16.68    1.07
  -2  -6  -7   16.63    1.14
  -2  -6  -7   15.40    1.01
   2   6   7   14.33    1.17
   2   6   7   14.28    0.96
   2   6   7   15.86    0.88
  -3  -6  -7    2.08    0.58
  -3  -6  -7    1.16    0.45
  -3  -6  -7    0.05    0.45
  -3  -6  -7    1.11    0.60
   3   6   7    1.20    0.51
   3   6   7    0.54    0.44
   3   6   7    0.72    0.57
   8  -7  -7    7.17    0.80
   8  -7  -7    6.51    0.80
  -8   7   7    5.24    0.68
   7  -7  -7    4.16    0.50
   7  -7  -7    3.65    0.53
  -7   7   7    4.89    0.52
  -7   7   7    4.74    0.65
  -7   7   7    4.72    0.60
   6  -7  -7    0.38    0.30
   6  -7  -7   -0.20    0.34
   6  -7  -7    0.83    0.51
  -6   7   7    0.94    0.45
  -6   7   7    0.07    0.25
  -6   7   7    0.55    0.28
   5  -7  -7    2.38    0.42
   5  -7  -7    2.62    0.35
   5  -7  -7    2.31    0.42
   5  -7  -7    2.91    0.51
   5  -7  -7    2.52    0.38
  -5   7   7    2.17    0.35
  -5   7   7    1.16    0.44
  -5   7   7    2.34    0.40
   4  -7  -7    4.54    0.54
   4  -7  -7    4.51    0.45
   4  -7  -7    3.52    0.54
   4  -7  -7    4.00    0.49
   4  -7  -7    4.57    0.55
  -4   7   7    4.78    0.63
  -4   7   7    3.29    0.40
  -4   7   7    3.95    0.52
   3  -7  -7    6.09    0.61
   3  -7  -7    7.17    0.70
   3  -7  -7    6.26    0.65
  -3   7   7    7.48    0.73
  -3   7   7    6.07    0.61
  -3   7   7    5.96    0.55
   2  -7  -7   -0.34    0.30
   2  -7  -7   -0.13    0.32
   2  -7  -7    0.08    0.37
  -2   7   7    0.74    0.29
  -2   7   7    0.43    0.38
  -2   7   7    0.61    0.35
   1  -7  -7    1.05    0.36
   1  -7  -7    1.06    0.40
   1  -7  -7    1.05    0.37
   1  -7  -7    0.65    0.40
  -1   7   7    0.75    0.33
  -1   7   7    1.30    0.39
   0  -7  -7    2.01    0.44
   0  -7  -7    1.16    0.48
   0  -7  -7    1.65    0.49
   0  -7  -7    2.86    0.48
   0   7   7    1.09    0.38
   0   7   7    2.53    0.49
  -1  -7  -7    1.37    0.42
  -1  -7  -7    0.55    0.49
  -1  -7  -7    0.79    0.44
   1   7   7    2.29    0.51
   1   7   7    1.14    0.38
   1   7   7    0.86    0.43
  -2  -7  -7    1.62    0.53
  -2  -7  -7    1.99    0.63
  -2  -7  -7    2.54    0.53
  -2  -7  -7    1.67    0.67
   2   7   7    1.49    0.55
   2   7   7    2.23    0.55
   2   7   7    2.13    0.50
   7  -8  -7    0.69    0.50
   7  -8  -7    1.34    0.43
  -7   8   7    1.16    0.41
   6  -8  -7    0.12    0.34
   6  -8  -7    0.70    0.42
   6  -8  -7    0.87    0.45
  -6   8   7   -0.54    0.32
  -6   8   7   -0.61    0.45
  -6   8   7    0.22    0.32
   5  -8  -7    1.75    0.43
   5  -8  -7    2.07    0.38
   5  -8  -7    1.15    0.55
  -5   8   7    1.04    0.36
  -5   8   7    1.59    0.49
  -5   8   7    0.99    0.35
   4  -8  -7    4.44    0.55
   4  -8  -7    6.50    0.67
   4  -8  -7    5.45    0.76
   4  -8  -7    6.35    0.72
  -4   8   7    5.68    0.61
  -4   8   7    4.90    0.66
  -4   8   7    4.25    0.60
   3  -8  -7    0.79    0.41
   3  -8  -7    1.10    0.37
   3  -8  -7    1.33    0.47
  -3   8   7    1.35    0.37
  -3   8   7    0.56    0.34
  -3   8   7    1.08    0.45
   2  -8  -7    1.92    0.47
   2  -8  -7    1.16    0.42
   2  -8  -7    1.49    0.62
   2  -8  -7    1.79    0.45
  -2   8   7    1.10    0.40
  -2   8   7    2.23    0.47
  -2   8   7    1.42    0.45
   1  -8  -7    0.88    0.70
   1  -8  -7   -0.22    0.44
   1  -8  -7    0.46    0.43
   1  -8  -7   -0.20    0.40
  -1   8   7    0.44    0.44
  -1   8   7   -0.06    0.38
   0  -8  -7    1.12    0.53
   0  -8  -7    2.94    0.64
   0  -8  -7    2.07    0.53
   0   8   7    2.13    0.49
   0   8   7    1.69    0.49
  -1  -8  -7    8.37    1.05
  -1  -8  -7    8.75    0.94
  -1  -8  -7    7.26    0.99
   1   8   7    6.01    0.76
   1   8   7    6.00    0.75
   1   8   7    6.58    0.87
   5  -9  -7    1.01    0.50
   5  -9  -7   -0.02    0.54
   5  -9  -7    1.11    0.44
   5  -9  -7    1.10    0.67
   5  -9  -7    1.66    0.68
  -5   9   7    0.32    0.42
  -5   9   7    1.50    0.59
   4  -9  -7    2.52    0.52
   4  -9  -7    0.93    0.66
   4  -9  -7    3.20    0.60
   4  -9  -7    3.02    0.58
  -4   9   7    2.25    0.47
  -4   9   7    2.35    0.60
  -4   9   7    2.19    0.45
   3  -9  -7    1.43    0.48
   3  -9  -7    1.86    0.56
   3  -9  -7    2.19    0.55
  -3   9   7    2.01    0.48
  -3   9   7    1.68    0.55
  -3   9   7    1.19    0.48
   2  -9  -7    0.26    0.56
   2  -9  -7   -0.03    0.51
   2  -9  -7    0.39    0.50
  -2   9   7    0.54    0.47
  -2   9   7    0.46    0.48
  -2   9   7    1.30    0.53
   1  -9  -7   -0.61    0.64
   1  -9  -7    0.05    0.57
   1  -9  -7    0.61    0.52
  -1   9   7    0.58    0.52
   1  10  -8    0.70    0.48
   1  10  -8    1.46    0.45
   1  10  -8    1.06    0.20
  -1 -10   8    1.35    0.77
  -1 -10   8    0.19    0.70
   0  10  -8    1.17    0.39
   0  10  -8   -0.64    0.41
   0 -10   8    0.49    0.67
   0 -10   8    1.14    0.74
  -1  10  -8    1.39    0.44
  -1  10  -8    0.89    0.33
   1 -10   8    0.23    0.69
   1 -10   8   -0.02    0.60
  -2  10  -8    2.26    0.36
  -2  10  -8    2.86    0.49
   2 -10   8    3.00    0.69
  -3  10  -8    9.14    0.83
  -3  10  -8    8.95    0.60
   3 -10   8    8.30    1.08
  -4  10  -8    1.15    0.45
   4 -10   8   -0.93    0.57
   3   9  -8    4.14    0.73
   2   9  -8   -0.66    0.37
   2   9  -8    0.07    0.44
   2   9  -8    0.12    0.21
  -2  -9   8    0.64    0.67
  -2  -9   8   -0.07    0.64
   1   9  -8    1.05    0.40
   1   9  -8    1.41    0.18
   1   9  -8    0.74    0.35
  -1  -9   8    2.51    0.66
  -1  -9   8    1.42    0.64
   0   9  -8    0.70    0.32
   0   9  -8    1.12    0.39
   0  -9   8    1.20    0.58
   0  -9   8   -0.04    0.57
  -1   9  -8    5.78    0.61
  -1   9  -8    5.12    0.51
   1  -9   8    5.50    0.86
   1  -9   8    4.91    0.72
  -2   9  -8    0.93    0.27
  -2   9  -8    1.16    0.36
   2  -9   8    1.01    0.56
   2  -9   8    0.60    0.52
  -3   9  -8    3.95    0.44
  -3   9  -8    5.01    0.60
   3  -9   8    3.09    0.72
   3  -9   8    4.37    0.68
  -4   9  -8   13.76    0.73
  -4   9  -8   13.17    0.88
   4  -9   8   14.62    1.14
   4  -9   8   14.38    1.17
  -5   9  -8    5.25    0.62
   5  -9   8    7.84    1.05
   5  -9   8    6.07    0.78
   4   8  -8    8.77    0.57
   4   8  -8    7.87    0.67
   4   8  -8    8.09    0.84
   4   8  -8    7.71    0.88
  -4  -8   8    8.89    1.28
  -4  -8   8    8.46    0.97
   3   8  -8    0.11    0.38
   3   8  -8    0.22    0.25
   3   8  -8    0.38    0.21
   3   8  -8    0.04    0.36
  -3  -8   8   -0.02    0.57
  -3  -8   8   -0.31    0.53
   2   8  -8    1.08    0.21
   2   8  -8    0.87    0.36
   2   8  -8    0.47    0.33
   2   8  -8    0.78    0.16
  -2  -8   8    1.31    0.57
  -2  -8   8    0.77    0.54
   1   8  -8    0.68    0.14
   1   8  -8    0.68    0.20
   1   8  -8    0.34    0.27
   1   8  -8    0.72    0.32
  -1  -8   8    0.79    0.48
  -1  -8   8    0.71    0.49
   0   8  -8    0.53    0.25
   0   8  -8    0.90    0.33
   0  -8   8    0.69    0.44
   0  -8   8    0.50    0.47
  -1   8  -8    0.66    0.21
  -1   8  -8    0.65    0.23
  -1   8  -8    0.79    0.30
   1  -8   8    0.73    0.44
   1  -8   8    0.98    0.50
  -2   8  -8   12.65    0.72
  -2   8  -8   13.46    0.76
  -2   8  -8   14.19    0.70
   2  -8   8   13.97    1.09
   2  -8   8   12.83    0.99
  -3   8  -8    2.86    0.39
  -3   8  -8    1.98    0.34
  -3   8  -8    2.62    0.32
   3  -8   8    2.53    0.63
   3  -8   8    2.28    0.50
   3  -8   8    2.92    0.54
  -4   8  -8    4.21    0.49
  -4   8  -8    3.37    0.30
  -4   8  -8    3.54    0.45
   4  -8   8    2.83    0.68
   4  -8   8    2.95    0.45
   4  -8   8    3.22    0.59
  -5   8  -8    0.66    0.38
   5  -8   8    0.24    0.34
   5  -8   8   -0.21    0.46
  -6   8  -8    3.18    0.53
   6  -8   8    2.86    0.66
   6  -8   8    3.10    0.50
   5   7  -8    1.05    0.50
   5   7  -8    0.70    0.45
   5   7  -8    0.36    0.30
   5   7  -8    0.82    0.35
  -5  -7   8    0.41    0.61
   4   7  -8    2.16    0.29
   4   7  -8    1.29    0.42
   4   7  -8    1.09    0.32
   4   7  -8    1.53    0.43
  -4  -7   8    0.84    0.56
  -4  -7   8    2.14    0.61
   3   7  -8    0.58    0.20
   3   7  -8    0.62    0.32
   3   7  -8    0.28    0.30
   3   7  -8    0.56    0.20
  -3  -7   8    0.04    0.47
  -3  -7   8    0.42    0.47
   2   7  -8    1.67    0.21
   2   7  -8    1.18    0.26
   2   7  -8    0.92    0.30
   2   7  -8    1.31    0.30
   2   7  -8    1.49    0.21
  -2  -7   8    1.22    0.43
  -2  -7   8    1.25    0.49
   1   7  -8    2.41    0.35
   1   7  -8    2.54    0.30
   1   7  -8    2.68    0.33
   1   7  -8    2.81    0.22
  -1  -7   8    3.03    0.59
  -1  -7   8    2.79    0.51
   0   7  -8    0.96    0.17
   0   7  -8    0.45    0.24
   0   7  -8    1.01    0.24
   0  -7   8    0.94    0.38
   0  -7   8    1.20    0.45
   0  -7   8    0.71    0.17
  -1   7  -8    3.18    0.37
  -1   7  -8    3.34    0.34
  -1   7  -8    3.42    0.35
   1  -7   8    3.54    0.57
   1  -7   8    3.21    0.59
  -2   7  -8    1.68    0.29
  -2   7  -8    1.81    0.23
  -2   7  -8    1.98    0.29
   2  -7   8    1.83    0.42
   2  -7   8    2.27    0.43
   2  -7   8    0.95    0.48
  -3   7  -8   16.87    0.70
  -3   7  -8   16.50    0.78
  -3   7  -8   17.86    0.88
   3  -7   8   17.40    1.05
   3  -7   8   17.57    1.16
  -4   7  -8    0.70    0.31
  -4   7  -8    1.32    0.17
  -4   7  -8    1.31    0.25
   4  -7   8    0.62    0.38
   4  -7   8    1.14    0.33
   4  -7   8    1.06    0.56
  -5   7  -8    1.50    0.20
  -5   7  -8    1.82    0.42
   5  -7   8    1.57    0.49
   5  -7   8    1.22    0.35
   5  -7   8    1.05    0.58
  -6   7  -8    4.00    0.58
   6  -7   8    4.66    0.55
   6  -7   8    3.20    0.61
  -7   7  -8    7.43    0.97
   7  -7   8    6.75    1.01
   7  -7   8    4.94    0.62
   6   6  -8    0.76    0.47
   6   6  -8    0.95    0.47
   6   6  -8    0.80    0.38
   6   6  -8    0.45    0.42
  -6  -6   8    2.01    0.63
   5   6  -8    8.00    0.65
   5   6  -8    8.76    0.58
   5   6  -8    7.58    0.73
   5   6  -8    8.16    0.73
  -5  -6   8    8.72    1.03
   4   6  -8   -0.01    0.19
   4   6  -8    0.19    0.22
   4   6  -8    0.61    0.29
   4   6  -8    0.93    0.34
  -4  -6   8   -0.28    0.42
  -4  -6   8    0.01    0.42
   3   6  -8    0.26    0.25
   3   6  -8    0.47    0.17
   3   6  -8    0.39    0.26
   3   6  -8    0.71    0.18
  -3  -6   8    0.55    0.36
  -3  -6   8    0.62    0.25
  -3  -6   8    0.20    0.51
   2   6  -8    1.74    0.29
   2   6  -8    1.98    0.33
   2   6  -8    2.19    0.23
   2   6  -8    2.00    0.26
   2   6  -8    1.80    0.30
   2   6  -8    1.88    0.21
  -2  -6   8    2.03    0.25
  -2  -6   8    1.77    0.51
  -2  -6   8    1.98    0.40
   1   6  -8    2.18    0.29
   1   6  -8    2.12    0.21
   1   6  -8    2.18    0.28
   1   6  -8    1.79    0.22
   1   6  -8    2.12    0.31
   1   6  -8    1.98    0.15
  -1  -6   8    1.89    0.39
  -1  -6   8    1.58    0.45
  -1  -6   8    2.06    0.22
   0   6  -8    2.30    0.20
   0   6  -8    2.56    0.31
   0   6  -8    1.93    0.24
   0   6  -8    2.17    0.27
   0   6  -8    2.93    0.28
   0  -6   8    2.32    0.19
   0  -6   8    2.53    0.42
   0  -6   8    2.41    0.28
   0  -6   8    3.10    0.56
  -1   6  -8    0.88    0.23
  -1   6  -8    1.34    0.22
  -1   6  -8    1.29    0.20
   1  -6   8    1.00    0.33
   1  -6   8    1.00    0.39
   1  -6   8    1.02    0.30
  -2   6  -8    8.34    0.53
  -2   6  -8    8.56    0.44
  -2   6  -8    8.02    0.47
   2  -6   8    7.24    0.97
   2  -6   8    8.56    0.67
   2  -6   8    8.39    0.81
  -3   6  -8    5.07    0.31
  -3   6  -8    4.53    0.36
  -3   6  -8    4.83    0.48
   3  -6   8    5.06    0.49
   3  -6   8    5.56    0.60
  -4   6  -8    4.80    0.29
  -4   6  -8    5.11    0.34
  -4   6  -8    3.95    0.54
   4  -6   8    4.62    0.72
   4  -6   8    5.04    0.51
   4  -6   8    5.19    0.62
  -5   6  -8    2.44    0.26
  -5   6  -8    2.98    0.46
   5  -6   8    2.76    0.50
   5  -6   8    1.50    0.54
  -6   6  -8   10.31    0.46
  -6   6  -8   11.87    0.91
  -6   6  -8    9.46    0.42
   6  -6   8    8.45    0.87
   6  -6   8   10.13    0.72
  -7   6  -8    0.78    0.23
  -7   6  -8    0.90    0.56
   7  -6   8    1.70    0.43
   7  -6   8    0.94    0.50
   6   5  -8    0.48    0.36
   6   5  -8    0.27    0.39
   6   5  -8    0.63    0.36
   6   5  -8    0.44    0.33
  -6  -5   8    0.29    0.52
   5   5  -8    1.17    0.30
   5   5  -8    0.92    0.33
   5   5  -8    1.04    0.27
   5   5  -8    0.99    0.33
  -5  -5   8    0.42    0.46
  -5  -5   8    1.28    0.36
   4   5  -8    3.21    0.41
   4   5  -8    2.78    0.36
   4   5  -8    3.53    0.46
   4   5  -8    2.79    0.33
  -4  -5   8    3.79    0.56
  -4  -5   8    3.08    0.37
  -4  -5   8    3.10    0.54
   3   5  -8    2.73    0.28
   3   5  -8    2.85    0.37
   3   5  -8    2.08    0.31
   3   5  -8    2.16    0.25
   3   5  -8    2.44    0.34
   3   5  -8    2.33    0.31
  -3  -5   8    2.84    0.51
  -3  -5   8    2.46    0.36
  -3  -5   8    1.98    0.36
  -3  -5   8    1.97    0.28
   2   5  -8   11.42    0.63
   2   5  -8   11.26    0.46
   2   5  -8   12.10    0.63
   2   5  -8   11.22    0.55
   2   5  -8   11.23    0.53
   2   5  -8   12.00    0.48
   2   5  -8   11.05    0.62
  -2  -5   8   11.67    0.54
  -2  -5   8   10.94    0.71
  -2  -5   8   12.72    0.89
   1   5  -8    1.65    0.19
   1   5  -8    1.43    0.24
   1   5  -8    1.29    0.16
   1   5  -8    1.52    0.26
   1   5  -8    1.36    0.21
   1   5  -8    1.59    0.19
   1   5  -8    1.50    0.15
  -1  -5   8    1.50    0.42
  -1  -5   8    1.21    0.25
  -1  -5   8    1.37    0.16
  -1  -5   8    1.36    0.29
   0   5  -8    0.40    0.20
   0   5  -8    0.41    0.08
   0   5  -8    0.54    0.12
   0   5  -8    0.03    0.19
   0   5  -8    0.52    0.17
   0   5  -8    0.33    0.16
   0  -5   8    0.52    0.17
   0  -5   8    0.22    0.25
   0  -5   8    0.42    0.10
   0  -5   8    0.76    0.26
   0  -5   8    0.01    0.31
  -1   5  -8    4.90    0.37
  -1   5  -8    5.52    0.34
  -1   5  -8    5.33    0.35
   1  -5   8    4.64    0.27
   1  -5   8    4.51    0.51
   1  -5   8    5.59    0.63
   1  -5   8    5.43    0.26
  -2   5  -8    1.36    0.17
  -2   5  -8    0.88    0.21
  -2   5  -8    1.14    0.17
   2  -5   8    1.41    0.43
   2  -5   8    1.23    0.31
  -3   5  -8   10.25    0.46
  -3   5  -8   10.22    0.66
  -3   5  -8   11.45    0.45
  -3   5  -8    9.20    0.52
   3  -5   8   11.19    0.72
   3  -5   8   10.07    0.59
   3  -5   8    9.49    0.83
   3  -5   8   10.21    0.40
   3  -5   8   10.28    0.45
  -4   5  -8    2.11    0.37
  -4   5  -8    1.65    0.21
  -4   5  -8    1.57    0.35
  -4   5  -8    2.16    0.20
   4  -5   8    1.65    0.20
   4  -5   8    2.28    0.52
   4  -5   8    1.64    0.29
   4  -5   8    1.51    0.33
  -5   5  -8   10.24    0.48
  -5   5  -8   10.95    0.45
  -5   5  -8   10.34    0.79
  -5   5  -8   10.85    0.51
   5  -5   8   11.08    0.65
   5  -5   8   10.93    0.99
  -6   5  -8    1.34    0.47
  -6   5  -8    1.49    0.18
  -6   5  -8    1.92    0.27
   6  -5   8    1.92    0.50
   6  -5   8    1.72    0.41
   6  -5   8    0.69    0.58
  -7   5  -8    0.06    0.20
  -7   5  -8   -0.10    0.26
  -7   5  -8    0.83    0.51
   7  -5   8    0.67    0.37
   7  -5   8   -0.61    0.41
   7   4  -8    2.51    0.44
   7   4  -8    3.74    0.51
   7   4  -8    3.26    0.49
   7   4  -8    2.00    0.43
  -7  -4   8    3.24    0.56
  -7  -4   8    1.64    0.61
   6   4  -8    2.48    0.36
   6   4  -8    2.41    0.39
   6   4  -8    2.63    0.40
   6   4  -8    3.04    0.45
  -6  -4   8    2.32    0.44
  -6  -4   8    2.06    0.55
   5   4  -8    0.71    0.28
   5   4  -8    0.44    0.24
   5   4  -8    0.23    0.22
   5   4  -8    0.75    0.28
  -5  -4   8    0.14    0.39
  -5  -4   8    0.35    0.28
  -5  -4   8    0.28    0.27
   4   4  -8    0.20    0.17
   4   4  -8    0.37    0.16
   4   4  -8    0.30    0.23
   4   4  -8   -0.02    0.16
   4   4  -8    0.37    0.22
   4   4  -8    0.18    0.28
   4   4  -8    0.68    0.30
  -4  -4   8    0.02    0.35
  -4  -4   8    0.13    0.21
  -4  -4   8    0.17    0.24
  -4  -4   8    0.05    0.25
   3   4  -8    1.81    0.24
   3   4  -8    2.04    0.31
   3   4  -8    1.59    0.27
   3   4  -8    1.90    0.28
   3   4  -8    1.89    0.29
   3   4  -8    2.20    0.25
  -3  -4   8    2.33    0.28
  -3  -4   8    1.91    0.39
  -3  -4   8    2.36    0.32
   2   4  -8    2.72    0.31
   2   4  -8    2.48    0.31
   2   4  -8    2.59    0.33
   2   4  -8    2.77    0.33
   2   4  -8    2.87    0.32
   2   4  -8    2.66    0.21
   2   4  -8    2.70    0.23
   2   4  -8    1.95    0.25
  -2  -4   8    2.90    0.28
  -2  -4   8    2.45    0.27
  -2  -4   8    2.14    0.41
  -2  -4   8    2.81    0.39
   1   4  -8    1.46    0.21
   1   4  -8    2.01    0.23
   1   4  -8    1.84    0.38
   1   4  -8    1.71    0.17
   1   4  -8    1.73    0.20
   1   4  -8    1.80    0.16
   1   4  -8    1.89    0.24
   1   4  -8    1.74    0.23
   1   4  -8    1.67    0.24
  -1  -4   8    2.13    0.36
  -1  -4   8    1.78    0.23
  -1  -4   8    1.86    0.20
  -1  -4   8    2.02    0.33
  -1  -4   8    1.88    0.28
  -1  -4   8    1.58    0.34
  -1  -4   8    1.79    0.20
   0   4  -8   11.24    0.54
   0   4  -8   11.65    0.45
   0   4  -8   11.48    0.53
   0   4  -8   11.39    0.77
   0   4  -8   11.37    0.58
   0   4  -8   11.52    0.46
   0   4  -8   11.68    0.49
   0   4  -8   11.78    0.54
   0   4  -8   12.14    0.44
   0  -4   8   11.04    0.61
   0  -4   8   11.19    0.74
   0  -4   8   10.84    0.68
   0  -4   8   11.64    0.46
   0  -4   8   11.16    0.49
  -1   4  -8   32.56    1.08
  -1   4  -8   33.49    1.15
  -1   4  -8   31.22    1.14
  -1   4  -8   32.18    1.08
  -1   4  -8   31.92    1.13
   1  -4   8   28.86    1.06
   1  -4   8   31.88    1.08
   1  -4   8   31.87    1.07
   1  -4   8   30.90    1.08
   1  -4   8   33.18    1.44
   1  -4   8   29.35    1.32
  -2   4  -8   22.28    1.09
  -2   4  -8   25.88    0.90
  -2   4  -8   25.99    0.93
  -2   4  -8   26.18    0.90
  -2   4  -8   26.89    0.87
  -2   4  -8   24.09    0.94
   2  -4   8   26.78    1.25
   2  -4   8   24.41    0.87
   2  -4   8   25.17    0.91
   2  -4   8   23.78    1.12
  -3   4  -8    3.47    0.24
  -3   4  -8    3.54    0.19
  -3   4  -8    3.47    0.30
  -3   4  -8    3.54    0.28
  -3   4  -8    4.57    0.48
   3  -4   8    4.09    0.57
   3  -4   8    2.64    0.34
   3  -4   8    3.12    0.26
   3  -4   8    2.88    0.42
   3  -4   8    3.51    0.30
   3  -4   8    3.53    0.35
  -4   4  -8    5.94    0.33
  -4   4  -8    6.11    0.40
  -4   4  -8    5.44    0.51
  -4   4  -8    6.15    0.27
  -4   4  -8    5.67    0.30
  -4   4  -8    6.00    0.31
   4  -4   8    5.93    0.52
   4  -4   8    5.50    0.43
   4  -4   8    6.00    0.44
   4  -4   8    6.18    0.71
   4  -4   8    5.77    0.53
  -5   4  -8   13.97    0.60
  -5   4  -8   14.76    0.90
  -5   4  -8   13.88    0.59
  -5   4  -8   13.99    0.59
  -5   4  -8   13.57    0.67
   5  -4   8   13.28    0.68
   5  -4   8   11.81    0.79
   5  -4   8   14.65    1.02
  -6   4  -8    4.45    0.59
  -6   4  -8    4.48    0.39
  -6   4  -8    3.69    0.47
  -6   4  -8    3.96    0.40
   6  -4   8    3.67    0.63
   6  -4   8    3.98    0.49
   6  -4   8    4.16    0.60
  -7   4  -8    0.66    0.29
  -7   4  -8    0.59    0.31
  -7   4  -8   -0.24    0.49
   7  -4   8    0.48    0.34
   7  -4   8   -0.30    0.37
   7   3  -8    0.86    0.36
   7   3  -8    1.23    0.35
   7   3  -8    0.54    0.37
   7   3  -8    0.57    0.32
  -7  -3   8    1.21    0.42
  -7  -3   8    0.51    0.66
   6   3  -8    0.08    0.25
   6   3  -8    0.28    0.27
   6   3  -8   -0.08    0.26
   6   3  -8   -0.13    0.25
  -6  -3   8    0.11    0.37
  -6  -3   8    0.38    0.31
   5   3  -8    3.95    0.41
   5   3  -8    3.19    0.44
   5   3  -8    3.75    0.43
   5   3  -8    4.01    0.38
   5   3  -8    2.72    0.47
  -5  -3   8    4.36    0.58
  -5  -3   8    3.50    0.44
  -5  -3   8    4.19    0.40
  -5  -3   8    4.18    0.55
   4   3  -8    0.91    0.29
   4   3  -8    0.63    0.18
   4   3  -8    0.62    0.27
   4   3  -8    0.79    0.19
   4   3  -8    0.57    0.28
   4   3  -8    0.89    0.23
  -4  -3   8    0.81    0.33
  -4  -3   8    0.50    0.23
   3   3  -8   20.06    0.93
   3   3  -8   19.87    0.87
   3   3  -8   20.47    0.81
   3   3  -8   20.80    0.81
   3   3  -8   20.85    0.87
   3   3  -8   20.08    0.90
   3   3  -8   20.07    0.79
  -3  -3   8   20.86    0.81
  -3  -3   8   18.65    1.03
   2   3  -8    0.04    0.16
   2   3  -8    0.27    0.15
   2   3  -8    0.52    0.12
   2   3  -8    0.41    0.11
   2   3  -8    0.34    0.17
   2   3  -8    0.63    0.16
   2   3  -8    0.29    0.24
   2   3  -8    0.45    0.16
  -2  -3   8    0.50    0.14
  -2  -3   8    0.64    0.27
  -2  -3   8    0.24    0.14
  -2  -3   8    0.68    0.29
   1   3  -8    5.51    0.35
   1   3  -8    5.42    0.38
   1   3  -8    5.95    0.29
   1   3  -8    5.69    0.36
   1   3  -8    6.16    0.36
   1   3  -8    5.88    0.30
   1   3  -8    5.90    0.34
   1   3  -8    5.90    0.36
   1   3  -8    5.60    0.52
  -1  -3   8    5.95    0.30
  -1  -3   8    5.28    0.46
  -1  -3   8    5.27    0.36
  -1  -3   8    5.96    0.56
  -1  -3   8    5.90    0.47
  -1  -3   8    5.71    0.31
   0   3  -8    7.34    0.36
   0   3  -8    7.01    0.37
   0   3  -8    7.19    0.33
   0   3  -8    6.53    0.35
   0   3  -8    7.26    0.47
   0   3  -8    6.91    0.33
   0   3  -8    7.36    0.36
   0   3  -8    5.86    0.53
   0   3  -8    7.15    0.34
   0  -3   8    6.74    0.32
   0  -3   8    7.31    0.45
   0  -3   8    6.77    0.36
   0  -3   8    6.51    0.49
   0  -3   8    7.01    0.35
   0  -3   8    6.48    0.58
  -1   3  -8    1.89    0.31
  -1   3  -8    2.60    0.20
  -1   3  -8    2.52    0.21
  -1   3  -8    2.60    0.21
  -1   3  -8    2.54    0.18
  -1   3  -8    2.68    0.22
  -1   3  -8    2.61    0.34
  -1   3  -8    2.57    0.21
   1  -3   8    2.95    0.43
   1  -3   8    2.52    0.35
   1  -3   8    2.46    0.23
   1  -3   8    2.09    0.29
   1  -3   8    2.73    0.33
   1  -3   8    2.66    0.22
   1  -3   8    1.97    0.29
  -2   3  -8    5.64    0.31
  -2   3  -8    5.92    0.27
  -2   3  -8    6.19    0.29
  -2   3  -8    5.94    0.26
  -2   3  -8    6.39    0.33
  -2   3  -8    6.09    0.32
  -2   3  -8    5.48    0.48
  -2   3  -8    5.83    0.34
   2  -3   8    6.55    0.47
   2  -3   8    6.08    0.45
   2  -3   8    6.01    0.36
   2  -3   8    5.89    0.40
   2  -3   8    6.37    0.60
   2  -3   8    5.67    0.32
  -3   3  -8    1.81    0.24
  -3   3  -8    2.01    0.25
  -3   3  -8    1.91    0.17
  -3   3  -8    1.57    0.20
  -3   3  -8    1.97    0.31
  -3   3  -8    1.99    0.20
   3  -3   8    1.72    0.27
   3  -3   8    1.74    0.22
   3  -3   8    1.57    0.29
   3  -3   8    1.76    0.29
   3  -3   8    2.13    0.27
   3  -3   8    1.91    0.39
  -4   3  -8   12.74    0.53
  -4   3  -8   13.62    0.66
  -4   3  -8   12.69    0.68
  -4   3  -8   14.12    0.58
  -4   3  -8   13.63    0.61
  -4   3  -8   12.77    0.64
   4  -3   8   13.56    0.89
   4  -3   8   13.68    0.61
   4  -3   8   12.53    0.70
   4  -3   8   12.06    0.65
  -5   3  -8   15.06    0.69
  -5   3  -8   15.29    0.67
  -5   3  -8   16.36    0.83
  -5   3  -8   15.25    0.78
   5  -3   8   14.60    0.75
   5  -3   8   16.24    0.83
   5  -3   8   15.48    0.98
   5  -3   8   14.86    0.70
   5  -3   8   15.74    0.85
  -6   3  -8    4.85    0.49
  -6   3  -8    4.56    0.43
  -6   3  -8    4.32    0.54
  -6   3  -8    5.55    0.64
   6  -3   8    4.94    0.65
   6  -3   8    4.92    0.47
   6  -3   8    4.14    0.56
  -7   3  -8    6.42    0.67
  -7   3  -8    5.93    0.57
  -7   3  -8    7.28    0.92
   7  -3   8    4.85    0.57
   7  -3   8    5.23    0.66
   8   2  -8    0.39    0.37
   8   2  -8    0.22    0.32
   8   2  -8    0.26    0.40
   8   2  -8    0.16    0.38
  -8  -2   8    0.29    0.40
  -8  -2   8    0.14    0.51
   7   2  -8   -0.05    0.28
   7   2  -8    0.26    0.27
   7   2  -8    0.43    0.32
   7   2  -8    0.04    0.30
  -7  -2   8   -0.03    0.40
  -7  -2   8    0.12    0.35
  -7  -2   8    0.17    0.33
   6   2  -8    0.56    0.25
   6   2  -8    0.55    0.26
   6   2  -8    0.67    0.26
   6   2  -8    0.52    0.24
  -6  -2   8    0.58    0.36
  -6  -2   8    0.53    0.30
  -6  -2   8    0.24    0.27
   5   2  -8    2.74    0.32
   5   2  -8    2.68    0.41
   5   2  -8    3.26    0.34
   5   2  -8    2.93    0.37
   5   2  -8    2.91    0.38
   5   2  -8    2.89    0.36
   5   2  -8    2.99    0.43
  -5  -2   8    2.82    0.33
  -5  -2   8    2.69    0.47
  -5  -2   8    2.78    0.33
  -5  -2   8    3.74    0.42
   4   2  -8    5.94    0.49
   4   2  -8    5.11    0.37
   4   2  -8    5.67    0.40
   4   2  -8    5.65    0.50
   4   2  -8    5.09    0.37
   4   2  -8    5.21    0.42
   4   2  -8    5.37    0.50
   4   2  -8    6.12    0.43
  -4  -2   8    4.63    0.42
  -4  -2   8    5.89    0.45
  -4  -2   8    6.02    0.59
  -4  -2   8    5.60    0.40
   3   2  -8    1.32    0.19
   3   2  -8    0.91    0.22
   3   2  -8    1.56    0.20
   3   2  -8    1.54    0.25
   3   2  -8    1.47    0.25
   3   2  -8    1.21    0.21
   3   2  -8    1.16    0.19
   3   2  -8    1.26    0.21
  -3  -2   8    1.12    0.19
  -3  -2   8    1.03    0.20
  -3  -2   8    1.52    0.34
   2   2  -8    3.85    0.33
   2   2  -8    4.35    0.34
   2   2  -8    5.15    0.36
   2   2  -8    5.05    0.40
   2   2  -8    4.59    0.31
   2   2  -8    3.93    0.29
   2   2  -8    4.54    0.27
   2   2  -8    4.21    0.33
   2   2  -8    3.97    0.26
  -2  -2   8    4.44    0.41
  -2  -2   8    4.42    0.49
  -2  -2   8    4.74    0.28
  -2  -2   8    4.40    0.44
   1   2  -8    7.67    0.39
   1   2  -8    8.21    0.37
   1   2  -8    7.92    0.43
   1   2  -8    7.86    0.47
   1   2  -8    8.51    0.51
   1   2  -8    8.08    0.39
   1   2  -8    7.86    0.40
   1   2  -8    8.00    0.38
   1   2  -8    8.40    0.40
   1   2  -8    7.97    0.41
  -1  -2   8    7.83    0.38
  -1  -2   8    7.07    0.49
  -1  -2   8    6.66    0.55
  -1  -2   8    8.10    0.49
  -1  -2   8    7.82    0.42
  -1  -2   8    7.89    0.42
   0   2  -8   23.08    1.03
   0   2  -8   25.56    0.90
   0   2  -8   24.94    0.86
   0   2  -8   25.52    0.91
   0   2  -8   25.23    0.90
   0   2  -8   25.79    0.89
   0   2  -8   24.83    0.92
   0   2  -8   23.58    1.00
   0   2  -8   24.28    0.88
   0  -2   8   24.46    0.91
   0  -2   8   24.54    1.14
   0  -2   8   25.09    0.89
   0  -2   8   23.56    0.90
   0  -2   8   23.92    1.03
   0  -2   8   25.22    0.95
   0  -2   8   23.35    0.99
  -1   2  -8   11.06    0.71
  -1   2  -8   10.66    0.44
  -1   2  -8   10.31    0.48
  -1   2  -8   10.78    0.48
  -1   2  -8   10.29    0.43
  -1   2  -8   10.63    0.40
  -1   2  -8   10.34    0.40
  -1   2  -8   10.55    0.46
  -1   2  -8    9.86    0.62
   1  -2   8   10.53    0.47
   1  -2   8   10.30    0.47
   1  -2   8    9.73    0.55
   1  -2   8   10.06    0.50
   1  -2   8   10.08    0.46
   1  -2   8    9.57    0.56
   1  -2   8    9.67    0.66
  -2   2  -8    1.40    0.17
  -2   2  -8    1.30    0.26
  -2   2  -8    1.06    0.19
  -2   2  -8    1.41    0.21
  -2   2  -8    1.16    0.15
  -2   2  -8    1.38    0.17
   2  -2   8    1.10    0.22
   2  -2   8    1.07    0.21
   2  -2   8    1.11    0.22
   2  -2   8    1.64    0.24
   2  -2   8    1.55    0.35
   2  -2   8    1.53    0.25
  -3   2  -8    0.86    0.25
  -3   2  -8    1.06    0.22
  -3   2  -8    0.95    0.16
  -3   2  -8    0.98    0.22
  -3   2  -8    0.81    0.15
  -3   2  -8    1.04    0.15
   3  -2   8    0.69    0.22
   3  -2   8    1.36    0.25
   3  -2   8    0.66    0.38
   3  -2   8    1.14    0.18
   3  -2   8    1.69    0.36
   3  -2   8    0.86    0.27
  -4   2  -8    4.75    0.33
  -4   2  -8    5.46    0.48
  -4   2  -8    4.80    0.43
  -4   2  -8    4.79    0.35
  -4   2  -8    5.09    0.36
  -4   2  -8    5.52    0.43
   4  -2   8    5.21    0.34
   4  -2   8    5.12    0.60
   4  -2   8    5.05    0.54
   4  -2   8    6.10    0.51
  -5   2  -8    2.24    0.33
  -5   2  -8    2.85    0.35
  -5   2  -8    1.73    0.34
   5  -2   8    1.73    0.44
   5  -2   8    2.07    0.27
   5  -2   8    2.19    0.36
   5  -2   8    2.38    0.39
  -6   2  -8    2.23    0.32
  -6   2  -8    2.90    0.40
  -6   2  -8    1.86    0.40
   6  -2   8    2.39    0.33
   6  -2   8    2.63    0.50
   6  -2   8    2.27    0.39
  -7   2  -8    5.47    0.73
  -7   2  -8    4.89    0.55
  -7   2  -8    4.86    0.72
   7  -2   8    3.95    0.54
   8   1  -8    0.59    0.35
   8   1  -8    0.21    0.28
   8   1  -8    0.12    0.35
   8   1  -8   -0.15    0.37
  -8  -1   8    0.66    0.49
  -8  -1   8   -0.17    0.35
   7   1  -8   -0.07    0.22
   7   1  -8   -0.10    0.28
   7   1  -8    0.67    0.30
   7   1  -8   -0.27    0.25
  -7  -1   8   -0.32    0.28
  -7  -1   8    0.79    0.37
  -7  -1   8   -0.38    0.38
  -7  -1   8    0.22    0.31
   6   1  -8   12.78    0.72
   6   1  -8   12.54    0.71
   6   1  -8   12.44    0.69
   6   1  -8   13.07    0.66
  -6  -1   8   12.94    0.75
  -6  -1   8   13.81    0.72
  -6  -1   8   12.80    0.73
   5   1  -8   14.57    0.83
   5   1  -8   14.50    0.77
   5   1  -8   15.87    0.74
   5   1  -8   15.11    0.74
   5   1  -8   15.72    0.71
   5   1  -8   13.88    0.75
   5   1  -8   15.00    0.85
  -5  -1   8   16.06    0.76
  -5  -1   8   15.56    0.71
  -5  -1   8   14.84    0.74
   4   1  -8    2.10    0.26
   4   1  -8    2.05    0.26
   4   1  -8    2.03    0.32
   4   1  -8    1.79    0.28
   4   1  -8    1.79    0.24
   4   1  -8    2.16    0.29
   4   1  -8    2.10    0.31
   4   1  -8    2.11    0.29
  -4  -1   8    1.82    0.29
  -4  -1   8    1.97    0.25
   3   1  -8    4.24    0.31
   3   1  -8    3.69    0.37
   3   1  -8    3.83    0.28
   3   1  -8    3.62    0.28
   3   1  -8    3.84    0.30
   3   1  -8    3.61    0.30
   3   1  -8    3.97    0.29
   3   1  -8    4.60    0.39
   3   1  -8    3.46    0.36
  -3  -1   8    3.15    0.30
  -3  -1   8    3.87    0.63
  -3  -1   8    3.84    0.29
  -3  -1   8    4.09    0.40
   2   1  -8    3.78    0.29
   2   1  -8    4.38    0.27
   2   1  -8    4.30    0.29
   2   1  -8    4.10    0.35
   2   1  -8    4.36    0.28
   2   1  -8    4.01    0.27
   2   1  -8    4.22    0.33
   2   1  -8    4.31    0.36
   2   1  -8    4.03    0.32
  -2  -1   8    3.54    0.28
  -2  -1   8    4.35    0.37
  -2  -1   8    4.54    0.41
  -2  -1   8    4.38    0.27
   1   1  -8    8.75    0.42
   1   1  -8    9.43    0.42
   1   1  -8    8.44    0.51
   1   1  -8    9.13    0.43
   1   1  -8    9.68    0.52
   1   1  -8    8.39    0.43
   1   1  -8    8.91    0.37
   1   1  -8    9.04    0.41
   1   1  -8    9.12    0.41
  -1  -1   8    9.15    0.42
  -1  -1   8    8.56    0.51
  -1  -1   8    9.43    0.50
  -1  -1   8    8.12    0.44
   0   1  -8   17.92    0.80
   0   1  -8   17.72    0.70
   0   1  -8   17.66    0.65
   0   1  -8   18.13    0.71
   0   1  -8   18.21    0.70
   0   1  -8   18.34    0.68
   0   1  -8   17.14    0.81
   0  -1   8   17.27    0.71
   0  -1   8   17.55    0.80
   0  -1   8   15.81    0.76
   0  -1   8   17.01    0.89
   0  -1   8   16.42    0.69
   0  -1   8   18.19    0.70
  -1   1  -8    4.03    0.46
  -1   1  -8    4.34    0.27
  -1   1  -8    4.43    0.32
  -1   1  -8    4.28    0.31
  -1   1  -8    4.33    0.27
  -1   1  -8    4.46    0.26
   1  -1   8    4.38    0.32
   1  -1   8    3.56    0.45
   1  -1   8    4.64    0.29
   1  -1   8    3.55    0.39
   1  -1   8    4.88    0.37
   1  -1   8    4.47    0.36
   1  -1   8    4.44    0.35
  -2   1  -8    2.46    0.31
  -2   1  -8    2.34    0.22
  -2   1  -8    1.97    0.26
  -2   1  -8    1.91    0.21
  -2   1  -8    2.02    0.21
   2  -1   8    2.01    0.28
   2  -1   8    1.98    0.27
   2  -1   8    2.92    0.44
   2  -1   8    2.37    0.31
  -3   1  -8    3.57    0.29
  -3   1  -8    3.04    0.28
  -3   1  -8    2.88    0.27
  -3   1  -8    3.06    0.37
  -3   1  -8    3.54    0.39
   3  -1   8    2.94    0.38
   3  -1   8    3.68    0.36
   3  -1   8    3.18    0.41
   3  -1   8    3.74    0.51
  -4   1  -8    4.85    0.38
  -4   1  -8    4.59    0.47
  -4   1  -8    5.08    0.51
  -4   1  -8    4.80    0.39
  -4   1  -8    4.73    0.42
  -4   1  -8    4.70    0.39
   4  -1   8    4.86    0.47
   4  -1   8    4.77    0.31
   4  -1   8    4.93    0.52
   4  -1   8    5.27    0.60
  -5   1  -8    0.90    0.32
  -5   1  -8    0.74    0.30
  -5   1  -8    0.97    0.26
   5  -1   8    0.93    0.38
   5  -1   8    0.65    0.20
   5  -1   8    1.00    0.26
   5  -1   8    0.67    0.37
  -6   1  -8    1.83    0.41
  -6   1  -8    2.15    0.45
   6  -1   8    2.05    0.29
   6  -1   8    1.92    0.39
   6  -1   8    1.92    0.48
  -7   1  -8    0.39    0.37
  -7   1  -8    0.65    0.61
  -7   1  -8   -0.08    0.46
  -7   1  -8    0.94    0.46
   7  -1   8    0.44    0.38
   8   0  -8    0.32    0.26
   8   0  -8    0.28    0.34
   8   0  -8    0.34    0.34
   8   0  -8    0.24    0.33
  -8   0   8    0.75    0.35
  -8   0   8    0.09    0.39
   7   0  -8    1.19    0.30
   7   0  -8    1.93    0.36
   7   0  -8    1.67    0.33
   7   0  -8    1.36    0.25
  -7   0   8    1.91    0.40
  -7   0   8    1.85    0.39
  -7   0   8    1.31    0.32
   6   0  -8    4.52    0.47
   6   0  -8    4.67    0.44
   6   0  -8    4.58    0.39
   6   0  -8    3.47    0.49
   6   0  -8    4.77    0.45
  -6   0   8    4.89    0.53
  -6   0   8    4.99    0.51
  -6   0   8    4.96    0.46
   5   0  -8    4.28    0.39
   5   0  -8    4.34    0.55
   5   0  -8    4.21    0.34
   5   0  -8    4.98    0.40
   5   0  -8    4.20    0.35
   5   0  -8    4.39    0.54
   5   0  -8    4.67    0.39
  -5   0   8    3.88    0.46
  -5   0   8    4.59    0.40
   4   0  -8   12.97    0.56
   4   0  -8   12.27    0.69
   4   0  -8   13.04    0.61
   4   0  -8   13.84    0.60
   4   0  -8   13.49    0.63
   4   0  -8   12.91    0.71
   4   0  -8   12.06    0.69
   4   0  -8   13.18    0.61
  -4   0   8   13.65    0.70
  -4   0   8   13.63    0.64
  -4   0   8   13.68    0.61
   3   0  -8    3.82    0.29
   3   0  -8    3.38    0.28
   3   0  -8    3.65    0.27
   3   0  -8    3.56    0.26
   3   0  -8    4.03    0.37
   3   0  -8    4.02    0.29
   3   0  -8    3.55    0.36
   3   0  -8    3.58    0.28
   3   0  -8    3.85    0.41
  -3   0   8    3.02    0.33
  -3   0   8    3.65    0.43
  -3   0   8    3.95    0.29
  -3   0   8    3.63    0.41
   2   0  -8   11.46    0.61
   2   0  -8   11.20    0.56
   2   0  -8   12.40    0.53
   2   0  -8   11.33    0.55
   2   0  -8   11.67    0.53
   2   0  -8   11.75    0.54
   2   0  -8   12.58    0.57
  -2   0   8   12.73    0.66
  -2   0   8   12.27    0.58
  -2   0   8   11.85    0.55
  -2   0   8   12.19    0.60
  -2   0   8   12.06    0.52
   1   0  -8    8.25    0.41
   1   0  -8    8.12    0.40
   1   0  -8    8.47    0.41
   1   0  -8    9.09    0.48
   1   0  -8    8.19    0.52
   1   0  -8    8.07    0.43
   1   0  -8    7.41    0.41
   1   0  -8    8.29    0.38
  -1   0   8    8.24    0.44
  -1   0   8    8.81    0.45
  -1   0   8    8.07    0.41
  -1   0   8    7.84    0.45
   0   0  -8   20.59    1.00
   0   0  -8   23.23    0.86
   0   0  -8   23.46    0.88
   0   0  -8   23.08    0.88
   0   0  -8   23.52    0.82
   0   0  -8   23.59    0.91
   0   0  -8   22.38    0.91
   0   0   8   25.36    0.95
   0   0   8   23.66    0.93
   0   0   8   23.37    0.89
   0   0   8   23.10    0.87
  -1   0  -8    6.56    0.43
  -1   0  -8    6.57    0.37
  -1   0  -8    7.69    0.44
  -1   0  -8    7.21    0.36
  -1   0  -8    7.53    0.39
   1   0   8    6.88    0.42
   1   0   8    6.93    0.35
   1   0   8    7.16    0.47
   1   0   8    6.73    0.42
  -2   0  -8    0.22    0.18
  -2   0  -8    0.20    0.19
  -2   0  -8    0.22    0.12
  -2   0  -8   -0.05    0.11
  -2   0  -8   -0.10    0.13
   2   0   8    0.12    0.19
   2   0   8    0.05    0.25
   2   0   8   -0.13    0.21
   2   0   8    0.32    0.16
  -3   0  -8    0.49    0.25
  -3   0  -8    0.28    0.31
  -3   0  -8    0.19    0.16
  -3   0  -8    0.38    0.17
  -3   0  -8    0.33    0.16
   3   0   8    0.34    0.30
   3   0   8    0.15    0.24
   3   0   8    0.18    0.17
   3   0   8    0.45    0.30
  -4   0  -8    5.80    0.46
  -4   0  -8    5.92    0.58
  -4   0  -8    5.20    0.44
  -4   0  -8    5.62    0.48
  -4   0  -8    5.82    0.53
   4   0   8    6.34    0.71
   4   0   8    6.09    0.56
   4   0   8    5.24    0.61
   4   0   8    5.38    0.44
   4   0   8    5.54    0.32
  -5   0  -8    3.99    0.47
  -5   0  -8    3.38    0.49
  -5   0  -8    3.55    0.46
   5   0   8    4.12    0.46
   5   0   8    3.12    0.57
   5   0   8    3.13    0.49
   5   0   8    2.88    0.32
  -6   0  -8    0.98    0.35
  -6   0  -8    1.15    0.43
  -6   0  -8    0.14    0.43
   6   0   8    0.04    0.47
  -7   0  -8    2.47    0.50
  -7   0  -8    2.19    0.68
  -7   0  -8    0.69    0.53
  -7   0  -8    1.65    0.60
   7   0   8    2.88    0.53
  -9   1   8   -0.13    0.52
   8  -1  -8    0.13    0.34
   8  -1  -8   -0.40    0.29
   8  -1  -8    0.09    0.32
   8  -1  -8    0.11    0.24
  -8   1   8    0.45    0.40
  -8   1   8    0.12    0.37
  -8   1   8   -0.22    0.31
   7  -1  -8    9.95    0.68
   7  -1  -8    9.25    0.67
   7  -1  -8   10.24    0.65
   7  -1  -8    9.10    0.54
  -7   1   8    9.52    0.73
  -7   1   8   10.97    0.74
  -7   1   8   10.33    0.65
   6  -1  -8    8.84    0.79
   6  -1  -8    8.96    0.77
   6  -1  -8   10.15    0.59
   6  -1  -8    9.79    0.51
   6  -1  -8    8.94    0.57
  -6   1   8    9.16    0.67
  -6   1   8    8.91    0.64
  -6   1   8    9.14    0.64
   5  -1  -8    7.30    0.62
   5  -1  -8    7.29    0.48
   5  -1  -8    8.35    0.49
   5  -1  -8    8.02    0.55
   5  -1  -8    7.69    0.43
  -5   1   8    7.99    0.52
  -5   1   8    7.76    0.48
  -5   1   8    7.51    0.58
   4  -1  -8   12.35    0.70
   4  -1  -8   12.10    0.68
   4  -1  -8   13.29    0.62
   4  -1  -8   13.21    0.62
   4  -1  -8   13.54    0.59
   4  -1  -8   13.10    0.61
  -4   1   8   13.65    0.63
  -4   1   8   13.49    0.61
  -4   1   8   13.29    0.71
   3  -1  -8    0.81    0.12
   3  -1  -8    0.48    0.13
   3  -1  -8    0.70    0.17
   3  -1  -8    0.77    0.15
   3  -1  -8    0.72    0.22
   3  -1  -8    0.85    0.16
   3  -1  -8    1.05    0.22
  -3   1   8    0.87    0.26
  -3   1   8    0.90    0.18
  -3   1   8    0.85    0.25
  -3   1   8    0.87    0.18
  -3   1   8    0.85    0.19
   2  -1  -8   64.93    2.25
   2  -1  -8   64.23    2.26
   2  -1  -8   68.92    2.24
   2  -1  -8   66.51    2.21
   2  -1  -8   66.54    2.24
   2  -1  -8   64.17    2.12
   2  -1  -8   65.19    2.22
  -2   1   8   62.56    2.26
  -2   1   8   63.22    2.24
  -2   1   8   66.54    2.36
  -2   1   8   66.12    2.25
  -2   1   8   67.76    2.23
   1  -1  -8   27.28    1.00
   1  -1  -8   27.49    1.03
   1  -1  -8   26.96    1.02
   1  -1  -8   26.48    1.04
   1  -1  -8   27.08    0.97
   1  -1  -8   27.83    1.00
  -1   1   8   27.13    1.02
  -1   1   8   26.95    1.01
  -1   1   8   25.64    1.05
  -1   1   8   25.76    1.02
   0  -1  -8    0.71    0.18
   0  -1  -8    0.73    0.18
   0  -1  -8    0.54    0.14
   0  -1  -8    0.61    0.14
   0  -1  -8    0.80    0.16
   0   1   8    0.64    0.15
   0   1   8    0.41    0.20
   0   1   8    0.69    0.18
   0   1   8    0.78    0.17
  -1  -1  -8    4.37    0.32
  -1  -1  -8    4.38    0.40
  -1  -1  -8    4.13    0.31
  -1  -1  -8    4.24    0.30
  -1  -1  -8    3.94    0.38
   1   1   8    4.39    0.29
   1   1   8    3.96    0.46
   1   1   8    4.32    0.33
   1   1   8    4.33    0.38
  -2  -1  -8    1.56    0.30
  -2  -1  -8    1.47    0.25
  -2  -1  -8    1.20    0.23
  -2  -1  -8    1.56    0.28
  -2  -1  -8    1.22    0.19
   2   1   8    1.20    0.22
   2   1   8    1.60    0.18
   2   1   8    1.42    0.28
   2   1   8    1.94    0.37
  -3  -1  -8    1.04    0.23
  -3  -1  -8    1.15    0.23
  -3  -1  -8    1.33    0.24
  -3  -1  -8    0.89    0.30
  -3  -1  -8    1.89    0.34
   3   1   8    1.78    0.43
   3   1   8    1.28    0.35
   3   1   8    1.19    0.32
  -4  -1  -8   13.70    0.88
  -4  -1  -8   14.40    0.85
  -4  -1  -8   14.34    0.75
  -4  -1  -8   12.96    0.70
   4   1   8   13.56    0.55
   4   1   8   15.43    0.97
   4   1   8   14.52    0.88
   4   1   8   12.76    0.82
  -5  -1  -8    0.64    0.29
  -5  -1  -8    0.24    0.39
  -5  -1  -8    0.31    0.36
   5   1   8   -0.11    0.40
  -6  -1  -8   -0.27    0.45
  -6  -1  -8    0.47    0.38
  -6  -1  -8   -0.39    0.50
   6   1   8    0.64    0.51
   9  -2  -8    1.05    0.47
   9  -2  -8    0.63    0.47
   9  -2  -8    0.50    0.46
  -9   2   8    0.23    0.51
  -9   2   8    1.44    0.43
   8  -2  -8    1.06    0.37
   8  -2  -8    0.75    0.25
   8  -2  -8    0.28    0.34
   8  -2  -8    0.16    0.34
   8  -2  -8    0.74    0.32
  -8   2   8    1.00    0.43
  -8   2   8    1.35    0.32
   7  -2  -8    8.12    0.60
   7  -2  -8    9.31    0.63
   7  -2  -8    8.81    0.64
   7  -2  -8    8.61    0.52
  -7   2   8    8.23    0.67
  -7   2   8    7.94    0.58
  -7   2   8    8.49    0.74
   6  -2  -8    0.37    0.31
   6  -2  -8   -0.01    0.16
   6  -2  -8    0.10    0.21
   6  -2  -8   -0.22    0.22
   6  -2  -8    0.57    0.24
   6  -2  -8    0.53    0.24
  -6   2   8    0.29    0.29
  -6   2   8    0.47    0.22
  -6   2   8   -0.12    0.23
   5  -2  -8    0.21    0.20
   5  -2  -8    0.27    0.18
   5  -2  -8    0.26    0.30
   5  -2  -8    0.54    0.17
   5  -2  -8    0.12    0.18
   5  -2  -8    0.73    0.23
  -5   2   8    0.27    0.27
  -5   2   8    0.07    0.19
  -5   2   8    0.66    0.21
   4  -2  -8   11.87    0.70
   4  -2  -8   13.35    0.58
   4  -2  -8   12.62    0.62
   4  -2  -8   12.43    0.61
   4  -2  -8   11.87    0.61
   4  -2  -8   13.15    0.55
  -4   2   8   14.25    0.74
  -4   2   8   13.22    0.60
  -4   2   8   12.46    0.61
   3  -2  -8   12.68    0.60
   3  -2  -8   11.98    0.63
   3  -2  -8   12.64    0.58
   3  -2  -8   12.30    0.49
   3  -2  -8   11.94    0.55
   3  -2  -8   13.17    0.57
  -3   2   8   11.40    0.58
  -3   2   8   11.20    0.69
  -3   2   8   12.29    0.59
  -3   2   8   11.82    0.57
   2  -2  -8    3.05    0.30
   2  -2  -8    2.86    0.30
   2  -2  -8    2.81    0.25
   2  -2  -8    2.74    0.31
   2  -2  -8    3.30    0.30
   2  -2  -8    3.17    0.25
  -2   2   8    3.35    0.29
  -2   2   8    2.73    0.34
  -2   2   8    3.12    0.32
  -2   2   8    2.78    0.25
  -2   2   8    3.00    0.38
   1  -2  -8   10.32    0.54
   1  -2  -8    9.46    0.48
   1  -2  -8   10.20    0.49
   1  -2  -8    9.87    0.51
   1  -2  -8   10.14    0.54
  -1   2   8    9.60    0.50
  -1   2   8   10.03    0.51
  -1   2   8   10.44    0.56
  -1   2   8    9.75    0.48
   0  -2  -8   18.03    0.76
   0  -2  -8   17.35    0.80
   0  -2  -8   17.30    0.73
   0  -2  -8   18.77    0.82
   0  -2  -8   17.96    0.75
   0   2   8   17.34    0.71
   0   2   8   18.36    0.79
   0   2   8   17.93    0.82
   0   2   8   17.34    0.73
  -1  -2  -8    2.46    0.29
  -1  -2  -8    2.29    0.34
  -1  -2  -8    1.75    0.30
  -1  -2  -8    2.37    0.29
  -1  -2  -8    1.82    0.23
   1   2   8    1.84    0.32
   1   2   8    2.35    0.26
   1   2   8    2.35    0.29
  -2  -2  -8    1.18    0.34
  -2  -2  -8    1.24    0.31
  -2  -2  -8    1.14    0.22
  -2  -2  -8    1.53    0.33
  -2  -2  -8    1.80    0.26
   2   2   8    1.39    0.29
   2   2   8    1.32    0.18
   2   2   8    1.83    0.38
   2   2   8    1.41    0.20
  -3  -2  -8    9.22    0.72
  -3  -2  -8    9.19    0.68
  -3  -2  -8    9.96    0.68
  -3  -2  -8    9.19    0.61
   3   2   8    9.97    0.77
   3   2   8   10.38    0.73
   3   2   8    8.65    0.43
   3   2   8    9.03    0.70
  -4  -2  -8    4.29    0.47
  -4  -2  -8    3.80    0.53
  -4  -2  -8    3.71    0.52
   4   2   8    5.23    0.60
   4   2   8    5.10    0.77
  -5  -2  -8    1.89    0.50
  -5  -2  -8    0.82    0.47
  -5  -2  -8    1.80    0.41
   5   2   8    1.50    0.52
  -6  -2  -8    0.60    0.46
  -6  -2  -8    1.69    0.56
  -6  -2  -8    1.43    0.62
   6   2   8    0.44    0.57
   9  -3  -8    0.76    0.49
   8  -3  -8    4.77    0.53
   8  -3  -8    4.30    0.53
   8  -3  -8    4.01    0.46
   8  -3  -8    4.56    0.59
   8  -3  -8    3.42    0.43
  -8   3   8    4.56    0.60
  -8   3   8    4.55    0.48
  -8   3   8    3.52    0.48
   7  -3  -8    4.27    0.49
   7  -3  -8    3.10    0.39
   7  -3  -8    4.50    0.56
  -7   3   8    2.61    0.46
  -7   3   8    4.08    0.48
  -7   3   8    3.42    0.44
   6  -3  -8    0.63    0.22
   6  -3  -8    0.76    0.20
   6  -3  -8    0.60    0.25
   6  -3  -8    0.89    0.25
   6  -3  -8    1.02    0.29
  -6   3   8    0.48    0.34
  -6   3   8    0.42    0.25
  -6   3   8    0.70    0.26
   5  -3  -8   13.52    0.61
   5  -3  -8   12.68    0.67
   5  -3  -8   13.45    0.68
   5  -3  -8   12.10    0.79
   5  -3  -8   13.36    0.60
   5  -3  -8   13.14    0.66
  -5   3   8   13.21    0.80
  -5   3   8   12.55    0.67
   4  -3  -8    3.35    0.34
   4  -3  -8    4.09    0.32
   4  -3  -8    3.79    0.28
   4  -3  -8    3.54    0.36
   4  -3  -8    3.46    0.48
  -4   3   8    3.70    0.34
  -4   3   8    4.05    0.54
  -4   3   8    3.92    0.38
   3  -3  -8   27.31    1.13
   3  -3  -8   27.74    1.16
   3  -3  -8   29.06    1.12
   3  -3  -8   28.55    1.08
   3  -3  -8   28.04    1.00
  -3   3   8   27.78    1.02
  -3   3   8   30.87    1.14
  -3   3   8   28.98    1.24
  -3   3   8   29.17    1.10
   2  -3  -8    5.72    0.61
   2  -3  -8    5.42    0.42
   2  -3  -8    5.18    0.41
   2  -3  -8    6.01    0.38
  -2   3   8    5.34    0.52
  -2   3   8    5.30    0.41
  -2   3   8    4.03    0.43
  -2   3   8    5.05    0.31
  -2   3   8    4.92    0.38
   1  -3  -8    3.28    0.37
   1  -3  -8    4.40    0.41
   1  -3  -8    3.54    0.33
   1  -3  -8    3.92    0.36
   1  -3  -8    4.50    0.41
  -1   3   8    4.00    0.41
  -1   3   8    4.05    0.38
  -1   3   8    3.76    0.29
  -1   3   8    3.94    0.38
   0  -3  -8    1.25    0.25
   0  -3  -8    1.46    0.30
   0  -3  -8    0.91    0.20
   0  -3  -8    1.07    0.26
   0  -3  -8    1.14    0.25
   0   3   8    1.88    0.32
   0   3   8    1.28    0.22
   0   3   8    1.81    0.29
  -1  -3  -8    8.25    0.63
  -1  -3  -8    8.93    0.57
  -1  -3  -8   10.54    0.70
   1   3   8    9.27    0.49
   1   3   8   10.71    0.70
   1   3   8    9.32    0.60
  -2  -3  -8   -0.25    0.21
  -2  -3  -8   -0.10    0.18
  -2  -3  -8   -0.20    0.29
  -2  -3  -8    0.30    0.28
   2   3   8   -0.16    0.25
   2   3   8   -0.04    0.18
   2   3   8    0.20    0.30
   2   3   8    0.12    0.19
  -3  -3  -8    6.45    0.59
  -3  -3  -8    6.29    0.65
  -3  -3  -8    6.23    0.72
   3   3   8    5.38    0.82
   3   3   8    6.46    0.44
   3   3   8    7.12    0.76
  -4  -3  -8    0.68    0.40
  -4  -3  -8    1.22    0.44
  -4  -3  -8    1.88    0.33
  -4  -3  -8    2.09    0.42
   4   3   8    2.17    0.50
  -5  -3  -8    0.00    0.49
  -5  -3  -8    1.06    0.46
  -5  -3  -8    1.59    0.51
   5   3   8    1.31    0.54
   8  -4  -8    5.22    0.60
   8  -4  -8    4.41    0.47
   8  -4  -8    6.69    0.69
   8  -4  -8    5.06    0.62
   8  -4  -8    5.77    0.65
  -8   4   8    5.20    0.69
  -8   4   8    3.88    0.61
  -8   4   8    4.47    0.54
   7  -4  -8    1.88    0.41
   7  -4  -8    2.04    0.35
   7  -4  -8    1.62    0.36
   7  -4  -8    1.30    0.35
  -7   4   8    1.66    0.31
  -7   4   8    1.55    0.48
  -7   4   8    1.49    0.32
   6  -4  -8    5.68    0.51
   6  -4  -8    5.25    0.51
   6  -4  -8    5.09    0.40
   6  -4  -8    4.82    0.45
   6  -4  -8    5.26    0.47
  -6   4   8    5.55    0.51
  -6   4   8    4.88    0.44
  -6   4   8    5.39    0.66
   5  -4  -8    0.16    0.20
   5  -4  -8    0.33    0.19
   5  -4  -8    0.03    0.17
   5  -4  -8    0.44    0.25
   5  -4  -8    0.10    0.17
  -5   4   8    0.25    0.21
  -5   4   8    0.00    0.19
  -5   4   8    0.71    0.32
   4  -4  -8    2.13    0.27
   4  -4  -8    1.64    0.29
   4  -4  -8    2.60    0.58
   4  -4  -8    1.94    0.30
   4  -4  -8    2.06    0.27
  -4   4   8    1.50    0.32
  -4   4   8    2.19    0.30
  -4   4   8    1.99    0.38
   3  -4  -8    0.50    0.26
   3  -4  -8    0.28    0.16
   3  -4  -8    0.61    0.23
   3  -4  -8    0.46    0.13
   3  -4  -8    0.53    0.32
  -3   4   8    0.38    0.19
  -3   4   8    0.47    0.22
  -3   4   8   -0.14    0.25
  -3   4   8    0.30    0.12
   2  -4  -8    9.57    0.60
   2  -4  -8    9.81    0.58
  -2   4   8    9.36    0.69
  -2   4   8    9.19    0.60
  -2   4   8    9.35    0.44
  -2   4   8    9.33    0.55
   1  -4  -8    3.61    0.47
   1  -4  -8    4.28    0.43
   1  -4  -8    4.26    0.41
   1  -4  -8    4.06    0.45
  -1   4   8    4.74    0.49
  -1   4   8    4.02    0.43
   0  -4  -8    1.33    0.26
   0  -4  -8    0.73    0.29
   0  -4  -8    0.83    0.25
   0  -4  -8    0.95    0.31
   0   4   8    0.68    0.32
   0   4   8    1.33    0.30
   0   4   8    0.80    0.23
  -1  -4  -8    0.24    0.23
  -1  -4  -8    0.56    0.33
  -1  -4  -8    0.35    0.33
  -1  -4  -8    0.02    0.18
   1   4   8   -0.40    0.20
   1   4   8    0.16    0.35
  -2  -4  -8    4.98    0.66
  -2  -4  -8    4.76    0.59
  -2  -4  -8    6.41    0.58
   2   4   8    5.47    0.72
   2   4   8    4.73    0.62
   2   4   8    5.17    0.50
  -3  -4  -8    5.07    0.63
  -3  -4  -8    6.90    0.68
  -3  -4  -8    6.16    0.69
  -3  -4  -8    5.45    0.56
   3   4   8    6.21    0.72
   3   4   8    7.13    0.88
  -4  -4  -8    1.75    0.46
  -4  -4  -8    3.22    0.63
  -4  -4  -8    3.65    0.65
  -4  -4  -8    2.57    0.41
   4   4   8    3.41    0.54
   8  -5  -8    1.85    0.45
   8  -5  -8    1.31    0.40
  -8   5   8    1.42    0.37
  -8   5   8    1.99    0.37
  -8   5   8    1.24    0.52
   7  -5  -8    0.55    0.28
   7  -5  -8    0.34    0.25
   7  -5  -8    0.81    0.31
   7  -5  -8   -0.01    0.33
  -7   5   8    0.79    0.44
  -7   5   8    1.35    0.32
  -7   5   8    0.11    0.26
   6  -5  -8    2.43    0.39
   6  -5  -8    2.95    0.36
   6  -5  -8    4.17    0.44
   6  -5  -8    2.70    0.36
  -6   5   8    2.46    0.33
  -6   5   8    3.13    0.41
  -6   5   8    2.65    0.49
   5  -5  -8    1.03    0.23
   5  -5  -8    0.95    0.26
   5  -5  -8    0.44    0.27
   5  -5  -8    0.84    0.29
   5  -5  -8    0.90    0.29
  -5   5   8    1.24    0.26
  -5   5   8    1.24    0.30
  -5   5   8    1.35    0.39
   4  -5  -8    0.07    0.17
   4  -5  -8    0.09    0.21
   4  -5  -8   -0.09    0.26
   4  -5  -8    0.13    0.23
  -4   5   8    0.23    0.21
  -4   5   8    0.19    0.24
  -4   5   8   -0.02    0.28
   3  -5  -8    4.40    0.50
   3  -5  -8    4.63    0.49
   3  -5  -8    5.08    0.46
   3  -5  -8    4.45    0.34
  -3   5   8    5.35    0.61
  -3   5   8    4.72    0.48
  -3   5   8    4.32    0.27
  -3   5   8    4.45    0.44
   2  -5  -8    5.62    0.48
   2  -5  -8    6.51    0.58
   2  -5  -8    6.05    0.55
  -2   5   8    5.53    0.34
  -2   5   8    4.97    0.48
  -2   5   8    5.70    0.55
  -2   5   8    5.71    0.63
   1  -5  -8    7.18    0.60
   1  -5  -8    6.25    0.64
   1  -5  -8    6.12    0.53
  -1   5   8    6.48    0.54
  -1   5   8    5.27    0.59
   0  -5  -8    0.93    0.29
   0  -5  -8    1.12    0.39
   0  -5  -8    1.79    0.41
   0   5   8    1.03    0.33
   0   5   8    1.47    0.41
  -1  -5  -8    2.22    0.43
  -1  -5  -8    2.03    0.46
  -1  -5  -8    1.66    0.44
   1   5   8    1.65    0.39
   1   5   8    2.17    0.47
  -2  -5  -8    1.60    0.35
  -2  -5  -8    1.13    0.49
  -2  -5  -8    0.23    0.43
  -2  -5  -8    1.03    0.41
   2   5   8    0.46    0.37
   2   5   8    1.95    0.55
   2   5   8    0.45    0.33
  -3  -5  -8    4.41    0.71
  -3  -5  -8    3.76    0.49
  -3  -5  -8    2.90    0.63
  -3  -5  -8    3.32    0.54
   3   5   8    3.44    0.66
   3   5   8    2.93    0.55
  -4  -5  -8    0.01    0.61
  -4  -5  -8    1.19    0.55
  -4  -5  -8   -0.02    0.50
   4   5   8    0.33    0.53
   8  -6  -8   11.58    0.88
   8  -6  -8    8.61    0.87
  -8   6   8   11.60    1.25
   7  -6  -8    1.19    0.41
   7  -6  -8    1.67    0.36
   7  -6  -8    0.99    0.36
  -7   6   8   -0.04    0.49
  -7   6   8    1.66    0.40
  -7   6   8    0.57    0.33
   6  -6  -8    1.14    0.30
   6  -6  -8    0.88    0.36
   6  -6  -8    0.87    0.32
   6  -6  -8    1.60    0.37
  -6   6   8    1.32    0.46
  -6   6   8    0.96    0.30
  -6   6   8    1.14    0.29
   5  -6  -8    0.67    0.30
   5  -6  -8    0.58    0.25
   5  -6  -8    1.22    0.37
   5  -6  -8    0.85    0.39
   5  -6  -8    0.87    0.29
  -5   6   8    0.85    0.27
  -5   6   8    1.31    0.41
  -5   6   8    0.28    0.26
   4  -6  -8    0.84    0.29
   4  -6  -8    0.03    0.21
   4  -6  -8    0.82    0.34
   4  -6  -8    0.63    0.37
  -4   6   8    0.55    0.29
  -4   6   8    0.23    0.27
  -4   6   8    1.30    0.40
   3  -6  -8   13.98    0.79
   3  -6  -8   14.47    0.85
   3  -6  -8   13.82    0.66
   3  -6  -8   14.32    0.87
  -3   6   8   13.64    0.91
  -3   6   8   14.00    0.84
  -3   6   8   13.82    0.57
  -3   6   8   13.99    0.77
   2  -6  -8    3.53    0.43
   2  -6  -8    3.63    0.49
   2  -6  -8    5.44    0.67
  -2   6   8    4.29    0.50
  -2   6   8    4.63    0.54
  -2   6   8    5.16    0.58
   1  -6  -8   -0.21    0.30
   1  -6  -8    0.19    0.39
   1  -6  -8    0.60    0.38
  -1   6   8   -0.14    0.29
  -1   6   8    0.06    0.33
   0  -6  -8    0.90    0.39
   0  -6  -8    1.58    0.47
   0   6   8    0.80    0.36
   0   6   8    1.56    0.45
  -1  -6  -8    3.54    0.61
  -1  -6  -8    4.78    0.64
  -1  -6  -8    4.20    0.60
  -1  -6  -8    3.79    0.53
   1   6   8    4.60    0.56
  -2  -6  -8    4.79    0.69
  -2  -6  -8    4.67    0.61
  -2  -6  -8    3.79    0.68
  -2  -6  -8    4.33    0.55
   2   6   8    4.93    0.64
   2   6   8    3.87    0.71
   2   6   8    4.30    0.62
  -3  -6  -8    5.30    0.65
  -3  -6  -8    4.40    0.74
  -3  -6  -8    5.42    0.84
  -3  -6  -8    4.32    0.84
   3   6   8    5.32    0.73
   7  -7  -8    2.44    0.53
   7  -7  -8    2.54    0.47
  -7   7   8    3.82    0.70
  -7   7   8    2.21    0.43
  -7   7   8    2.45    0.43
   6  -7  -8    1.58    0.37
   6  -7  -8    1.45    0.44
   6  -7  -8    1.32    0.41
  -6   7   8    1.17    0.50
  -6   7   8    1.90    0.37
  -6   7   8    2.07    0.41
   5  -7  -8    3.37    0.53
   5  -7  -8    3.26    0.43
   5  -7  -8    2.41    0.37
   5  -7  -8    2.61    0.46
   5  -7  -8    1.68    0.51
  -5   7   8    2.66    0.42
  -5   7   8    3.57    0.59
  -5   7   8    2.59    0.40
   4  -7  -8    2.05    0.55
   4  -7  -8    1.82    0.44
   4  -7  -8    1.84    0.36
   4  -7  -8    1.86    0.34
   4  -7  -8    2.47    0.44
  -4   7   8    1.91    0.41
  -4   7   8    1.74    0.44
  -4   7   8    1.71    0.37
   3  -7  -8    1.29    0.43
   3  -7  -8    1.07    0.42
   3  -7  -8    0.66    0.35
  -3   7   8    1.26    0.37
  -3   7   8    1.44    0.47
  -3   7   8    2.07    0.38
   2  -7  -8    3.49    0.57
   2  -7  -8    2.72    0.47
   2  -7  -8    2.37    0.50
  -2   7   8    3.01    0.50
  -2   7   8    3.21    0.46
  -2   7   8    2.93    0.51
   1  -7  -8    1.16    0.60
   1  -7  -8    1.07    0.43
   1  -7  -8    1.34    0.45
   1  -7  -8    2.07    0.51
  -1   7   8    2.03    0.52
  -1   7   8    1.19    0.40
   0  -7  -8    0.10    0.51
   0  -7  -8   -0.05    0.56
   0  -7  -8    0.30    0.43
   0  -7  -8    1.13    0.42
   0   7   8    0.27    0.48
   0   7   8    1.12    0.46
  -1  -7  -8    4.35    0.64
  -1  -7  -8    2.83    0.53
  -1  -7  -8    1.37    0.62
  -1  -7  -8    2.22    0.63
   1   7   8    2.54    0.57
   1   7   8    2.67    0.59
   1   7   8    2.69    0.49
   6  -8  -8    0.98    0.51
   6  -8  -8    1.55    0.51
   6  -8  -8    1.32    0.41
   5  -8  -8    2.38    0.49
   5  -8  -8    1.91    0.51
  -5   8   8    1.90    0.56
  -5   8   8    1.25    0.43
  -5   8   8    2.80    0.48
   4  -8  -8    0.73    0.47
   4  -8  -8    2.68    0.49
   4  -8  -8    2.41    0.61
  -4   8   8    2.23    0.46
  -4   8   8    1.14    0.42
  -4   8   8    2.60    0.58
   3  -8  -8    2.34    0.50
   3  -8  -8    1.70    0.46
   3  -8  -8    1.22    0.49
  -3   8   8    2.67    0.49
  -3   8   8    1.18    0.55
  -3   8   8    2.11    0.45
   2  -8  -8   -0.26    0.48
   2  -8  -8   -0.11    0.44
   2  -8  -8    0.36    0.45
  -2   8   8    0.44    0.41
  -2   8   8    1.02    0.51
  -2   8   8    0.11    0.45
   1  -8  -8    4.46    0.64
   1  -8  -8    3.64    0.69
   1  -8  -8    3.24    0.56
  -1   8   8    2.71    0.62
  -1   8   8    2.11    0.52
   0  -8  -8    1.11    0.54
   0  -8  -8    0.96    0.72
   0  -8  -8    1.40    0.67
   0   8   8    2.22    0.62
   0   8   8    1.02    0.60
  -1  10  -9    0.42    0.45
  -1  10  -9    1.63    0.37
   1 -10   9    1.08    0.75
   1 -10   9    0.74    0.77
  -2  10  -9    2.11    0.48
  -2  10  -9    1.33    0.35
   2 -10   9    1.41    0.79
   2 -10   9    1.50    0.71
   2   9  -9    1.30    0.45
   2   9  -9    1.11    0.22
   2   9  -9    0.98    0.40
  -2  -9   9    0.03    0.68
  -2  -9   9    0.75    0.73
   1   9  -9    0.21    0.40
   1   9  -9    0.22    0.12
   1   9  -9    0.31    0.36
  -1  -9   9    0.26    0.61
  -1  -9   9    0.85    0.66
   0   9  -9   -0.11    0.36
   0   9  -9    1.09    0.33
   0  -9   9    1.12    0.65
   0  -9   9   -0.55    0.61
  -1   9  -9   -0.33    0.35
  -1   9  -9    0.25    0.27
   1  -9   9   -0.07    0.56
   1  -9   9   -0.25    0.61
  -2   9  -9    1.63    0.28
  -2   9  -9    1.95    0.41
   2  -9   9    1.44    0.59
   2  -9   9    1.08    0.68
  -3   9  -9    2.63    0.30
  -3   9  -9    2.74    0.41
  -3   9  -9    2.32    0.43
   3  -9   9    2.91    0.67
   3  -9   9    2.12    0.59
   3  -9   9    2.53    0.82
  -4   9  -9    1.42    0.43
   4  -9   9   -0.22    0.72
   4  -9   9    1.78    0.68
   3   8  -9    0.30    0.25
   3   8  -9    0.18    0.21
   3   8  -9    0.20    0.39
   3   8  -9    0.63    0.40
  -3  -8   9    0.21    0.62
  -3  -8   9   -0.43    0.64
   2   8  -9    1.24    0.38
   2   8  -9    0.94    0.35
   2   8  -9    0.76    0.19
  -2  -8   9    0.34    0.56
  -2  -8   9    1.26    0.64
   1   8  -9    0.24    0.29
   1   8  -9    0.43    0.18
   1   8  -9    0.37    0.12
   1   8  -9   -0.42    0.31
  -1  -8   9    0.65    0.52
  -1  -8   9    0.80    0.55
   0   8  -9    0.79    0.28
   0   8  -9    0.83    0.33
   0  -8   9    0.29    0.51
   0  -8   9    1.75    0.58
  -1   8  -9    0.38    0.30
  -1   8  -9   -0.23    0.22
   1  -8   9    0.36    0.47
   1  -8   9   -0.48    0.49
  -2   8  -9    1.70    0.33
  -2   8  -9    1.78    0.26
  -2   8  -9    1.16    0.32
   2  -8   9    1.04    0.52
   2  -8   9    1.26    0.47
   2  -8   9    1.62    0.63
  -3   8  -9    1.96    0.34
  -3   8  -9    1.99    0.39
   3  -8   9    2.25    0.67
   3  -8   9    1.31    0.53
  -4   8  -9    0.82    0.19
  -4   8  -9    1.38    0.42
   4  -8   9    2.26    0.68
   4  -8   9    0.73    0.48
  -5   8  -9    6.24    0.67
   5  -8   9    5.86    0.97
   5  -8   9    4.89    0.91
   5  -8   9    6.88    0.79
   4   7  -9    8.04    0.53
   4   7  -9    8.91    0.77
   4   7  -9    9.07    0.80
   4   7  -9    8.82    0.61
  -4  -7   9   11.20    1.13
   3   7  -9    2.26    0.26
   3   7  -9    2.13    0.41
   3   7  -9    3.48    0.35
   3   7  -9    2.24    0.41
  -3  -7   9    4.45    0.74
  -3  -7   9    2.17    0.59
   2   7  -9   -0.12    0.28
   2   7  -9   -0.06    0.27
   2   7  -9   -0.03    0.15
   2   7  -9    0.05    0.12
  -2  -7   9    0.28    0.50
  -2  -7   9    0.49    0.45
   1   7  -9    3.97    0.51
   1   7  -9    3.80    0.46
   1   7  -9    4.05    0.24
   1   7  -9    3.90    0.35
  -1  -7   9    3.58    0.65
  -1  -7   9    3.65    0.61
   0   7  -9    0.33    0.22
   0   7  -9    0.33    0.35
   0   7  -9    0.35    0.19
   0  -7   9    0.48    0.49
  -1   7  -9    0.93    0.27
  -1   7  -9    1.30    0.22
  -1   7  -9    0.68    0.24
   1  -7   9    1.29    0.52
   1  -7   9    0.51    0.39
   1  -7   9    0.45    0.36
  -2   7  -9    1.43    0.29
  -2   7  -9    0.65    0.24
   2  -7   9    1.30    0.55
   2  -7   9    0.35    0.35
  -3   7  -9    4.28    0.55
  -3   7  -9    3.61    0.41
  -3   7  -9    3.94    0.33
   3  -7   9    4.80    0.76
   3  -7   9    4.15    0.62
  -4   7  -9    0.59    0.16
  -4   7  -9    0.76    0.37
   4  -7   9    0.20    0.33
   4  -7   9    1.25    0.64
   4  -7   9    0.34    0.41
  -5   7  -9    0.71    0.43
   5  -7   9    0.27    0.62
   5  -7   9    1.30    0.51
   5  -7   9    0.48    0.38
  -6   7  -9    2.00    0.57
   6  -7   9    1.51    0.58
   6  -7   9    1.81    0.43
   5   6  -9    0.69    0.39
   5   6  -9    0.95    0.39
   5   6  -9    0.79    0.29
   5   6  -9    1.67    0.34
  -5  -6   9    1.54    0.61
   4   6  -9    0.95    0.25
   4   6  -9    0.74    0.33
   4   6  -9    1.07    0.25
   4   6  -9    0.83    0.35
  -4  -6   9    1.43    0.47
  -4  -6   9    0.89    0.55
   3   6  -9    1.28    0.32
   3   6  -9    1.08    0.21
   3   6  -9    1.61    0.33
   3   6  -9    1.54    0.23
  -3  -6   9    1.14    0.42
  -3  -6   9    0.79    0.49
   2   6  -9    2.22    0.22
   2   6  -9    2.34    0.33
   2   6  -9    2.36    0.36
   2   6  -9    1.88    0.24
   2   6  -9    2.17    0.31
  -2  -6   9    2.72    0.47
  -2  -6   9    1.65    0.49
   1   6  -9    3.32    0.23
   1   6  -9    3.09    0.40
   1   6  -9    3.06    0.33
   1   6  -9    3.68    0.30
   1   6  -9    3.53    0.42
  -1  -6   9    3.26    0.49
  -1  -6   9    4.07    0.64
   0   6  -9    0.32    0.18
   0   6  -9    0.27    0.21
   0   6  -9    0.25    0.23
   0   6  -9    0.00    0.17
   0   6  -9    0.21    0.08
   0  -6   9   -0.03    0.19
   0  -6   9    0.18    0.38
   0  -6   9    0.57    0.33
  -1   6  -9    2.83    0.37
  -1   6  -9    3.22    0.40
  -1   6  -9    3.80    0.41
  -1   6  -9    3.28    0.37
   1  -6   9    2.88    0.46
   1  -6   9    4.02    0.66
  -2   6  -9   15.33    0.65
  -2   6  -9   14.91    0.67
  -2   6  -9   14.31    0.77
   2  -6   9   14.41    0.95
   2  -6   9   15.11    1.09
  -3   6  -9    1.55    0.20
  -3   6  -9    1.45    0.20
  -3   6  -9    1.98    0.35
   3  -6   9    1.56    0.42
   3  -6   9    1.38    0.53
  -4   6  -9    0.09    0.14
  -4   6  -9    0.15    0.33
   4  -6   9    0.17    0.30
   4  -6   9   -0.15    0.32
   4  -6   9    0.27    0.55
  -5   6  -9   -0.20    0.17
  -5   6  -9    0.73    0.41
   5  -6   9    0.24    0.41
   5  -6   9    0.42    0.38
   5  -6   9    0.11    0.61
  -6   6  -9    4.96    0.68
   6  -6   9    5.91    0.82
   6  -6   9    3.28    0.80
   6  -6   9    4.92    0.57
   6   5  -9    1.66    0.37
   6   5  -9    0.92    0.37
   6   5  -9    1.60    0.41
   6   5  -9    0.80    0.40
  -6  -5   9    0.78    0.61
   5   5  -9   14.13    0.69
   5   5  -9   13.31    0.74
   5   5  -9   12.46    0.83
   5   5  -9   12.43    0.81
  -5  -5   9   13.11    1.07
   4   5  -9    2.64    0.39
   4   5  -9    1.86    0.33
   4   5  -9    2.16    0.29
   4   5  -9    2.53    0.28
  -4  -5   9    3.14    0.59
  -4  -5   9    2.15    0.41
   3   5  -9    3.76    0.33
   3   5  -9    3.56    0.41
   3   5  -9    3.68    0.31
   3   5  -9    3.16    0.43
  -3  -5   9    3.37    0.54
  -3  -5   9    3.45    0.38
  -3  -5   9    3.40    0.57
   2   5  -9    1.84    0.22
   2   5  -9    1.69    0.26
   2   5  -9    1.79    0.19
   2   5  -9    1.83    0.22
   2   5  -9    1.22    0.36
   2   5  -9    1.90    0.30
  -2  -5   9    1.46    0.34
  -2  -5   9    2.63    0.53
  -2  -5   9    1.91    0.24
   1   5  -9    1.23    0.14
   1   5  -9    1.09    0.21
   1   5  -9    0.85    0.21
   1   5  -9    0.93    0.22
   1   5  -9    1.17    0.24
   1   5  -9    1.02    0.13
   1   5  -9    1.05    0.18
  -1  -5   9    1.10    0.19
  -1  -5   9    0.87    0.30
   0   5  -9    1.56    0.24
   0   5  -9    1.92    0.25
   0   5  -9    1.56    0.26
   0   5  -9    2.39    0.25
   0   5  -9    1.78    0.28
   0   5  -9    1.88    0.17
   0  -5   9    2.38    0.57
   0  -5   9    2.12    0.23
   0  -5   9    1.60    0.21
   0  -5   9    2.18    0.42
   0  -5   9    2.34    0.25
  -1   5  -9   14.53    0.62
  -1   5  -9   14.55    0.62
  -1   5  -9   12.37    0.63
  -1   5  -9   13.05    0.76
   1  -5   9   14.19    0.54
   1  -5   9   13.71    0.56
   1  -5   9   14.08    1.09
   1  -5   9   13.74    0.85
  -2   5  -9    5.06    0.33
  -2   5  -9    5.38    0.33
  -2   5  -9    4.46    0.38
   2  -5   9    4.21    0.77
   2  -5   9    5.03    0.29
   2  -5   9    5.16    0.57
   2  -5   9    5.32    0.36
  -3   5  -9    1.01    0.24
  -3   5  -9    1.37    0.16
  -3   5  -9    0.90    0.15
   3  -5   9    1.16    0.16
   3  -5   9    0.89    0.31
  -4   5  -9    2.07    0.26
  -4   5  -9    2.07    0.24
  -4   5  -9    2.22    0.17
  -4   5  -9    2.14    0.41
   4  -5   9    2.10    0.59
   4  -5   9    1.79    0.42
   4  -5   9    1.73    0.34
  -5   5  -9    0.74    0.40
  -5   5  -9    1.41    0.21
  -5   5  -9    1.20    0.15
  -5   5  -9    1.49    0.22
   5  -5   9    1.77    0.34
   5  -5   9    1.02    0.40
   5  -5   9    1.69    0.61
  -6   5  -9    2.01    0.54
  -6   5  -9    1.31    0.26
  -6   5  -9    0.82    0.20
   6  -5   9    0.98    0.37
   6  -5   9    0.20    0.63
   6  -5   9    0.83    0.44
  -7   5  -9    3.31    0.90
  -7   5  -9    2.27    0.38
   7  -5   9    2.61    0.61
   7   4  -9    0.83    0.41
   7   4  -9    0.16    0.53
   7   4  -9   -0.08    0.37
  -7  -4   9   -0.70    0.60
   6   4  -9    0.87    0.35
   6   4  -9    1.57    0.33
   6   4  -9    1.24    0.34
   6   4  -9    2.03    0.40
  -6  -4   9    1.53    0.56
  -6  -4   9    1.47    0.42
   5   4  -9    0.61    0.29
   5   4  -9    0.76    0.30
   5   4  -9    0.42    0.24
   5   4  -9    0.55    0.24
  -5  -4   9    0.46    0.47
   4   4  -9    5.22    0.40
   4   4  -9    5.14    0.49
   4   4  -9    5.47    0.51
   4   4  -9    5.16    0.38
  -4  -4   9    4.54    0.66
  -4  -4   9    5.16    0.45
   3   4  -9    2.98    0.31
   3   4  -9    2.49    0.33
   3   4  -9    2.83    0.38
   3   4  -9    3.25    0.39
   3   4  -9    3.25    0.37
   3   4  -9    3.21    0.31
   3   4  -9    2.70    0.33
  -3  -4   9    3.48    0.33
  -3  -4   9    3.27    0.41
  -3  -4   9    3.61    0.57
   2   4  -9    9.61    0.53
   2   4  -9    9.28    0.59
   2   4  -9    9.25    0.42
   2   4  -9    9.06    0.54
   2   4  -9    9.92    0.44
   2   4  -9    9.45    0.52
   2   4  -9    9.85    0.55
   2   4  -9    8.93    0.48
  -2  -4   9    7.79    0.75
  -2  -4   9    9.19    0.48
  -2  -4   9    8.83    0.46
   1   4  -9    5.68    0.30
   1   4  -9    5.37    0.42
   1   4  -9    5.61    0.41
   1   4  -9    5.73    0.30
   1   4  -9    5.51    0.38
   1   4  -9    5.71    0.68
   1   4  -9    5.86    0.37
   1   4  -9    5.25    0.39
  -1  -4   9    5.25    0.32
  -1  -4   9    5.28    0.59
  -1  -4   9    5.38    0.56
  -1  -4   9    7.06    0.67
   0   4  -9    8.47    0.37
   0   4  -9    8.11    0.38
   0   4  -9    7.81    0.45
   0   4  -9    8.32    0.37
   0   4  -9    8.74    0.44
   0   4  -9    8.79    0.55
   0   4  -9    8.37    0.45
   0   4  -9    8.50    0.42
   0  -4   9    7.71    0.44
   0  -4   9    8.84    0.76
   0  -4   9    8.74    0.42
   0  -4   9    7.52    0.61
   0  -4   9    7.38    0.56
  -1   4  -9   34.99    1.19
  -1   4  -9   34.57    1.15
  -1   4  -9   34.96    1.15
  -1   4  -9   31.91    1.37
  -1   4  -9   35.30    1.21
  -1   4  -9   35.42    1.24
  -1   4  -9   34.39    1.19
  -1   4  -9   33.46    1.22
   1  -4   9   33.59    1.46
   1  -4   9   34.44    1.19
   1  -4   9   34.88    1.58
   1  -4   9   32.23    1.19
  -2   4  -9    4.58    0.30
  -2   4  -9    4.47    0.33
  -2   4  -9    4.44    0.31
  -2   4  -9    4.82    0.25
  -2   4  -9    4.64    0.26
   2  -4   9    4.97    0.35
   2  -4   9    4.21    0.31
   2  -4   9    4.55    0.66
   2  -4   9    4.31    0.52
  -3   4  -9    0.08    0.18
  -3   4  -9    0.24    0.10
  -3   4  -9    0.10    0.12
  -3   4  -9    0.17    0.13
   3  -4   9    0.62    0.29
   3  -4   9    0.44    0.23
   3  -4   9    0.11    0.20
   3  -4   9    0.78    0.43
  -4   4  -9   11.02    0.45
  -4   4  -9    9.83    0.55
  -4   4  -9   10.39    0.51
  -4   4  -9   10.01    0.46
  -4   4  -9    9.29    0.69
   4  -4   9   10.48    0.59
   4  -4   9   10.90    0.95
   4  -4   9   11.10    0.74
  -5   4  -9    3.69    0.53
  -5   4  -9    2.99    0.30
  -5   4  -9    3.87    0.44
  -5   4  -9    3.42    0.34
   5  -4   9    3.12    0.45
   5  -4   9    3.68    0.65
   5  -4   9    2.79    0.45
  -6   4  -9   -0.07    0.28
  -6   4  -9    0.81    0.26
  -6   4  -9    0.33    0.48
   6  -4   9    0.17    0.31
   6  -4   9    0.23    0.38
   6  -4   9    0.57    0.63
  -7   4  -9   10.08    0.78
  -7   4  -9   12.90    1.63
  -7   4  -9    9.84    0.67
   7  -4   9   13.06    1.02
   7   3  -9   -0.28    0.33
   7   3  -9    0.59    0.38
   7   3  -9    0.05    0.35
   7   3  -9    0.30    0.33
  -7  -3   9    1.51    0.59
   6   3  -9    4.70    0.55
   6   3  -9    4.92    0.50
   6   3  -9    4.30    0.52
   6   3  -9    3.93    0.54
  -6  -3   9    5.59    0.76
  -6  -3   9    5.29    0.61
   5   3  -9    1.32    0.28
   5   3  -9    1.13    0.25
   5   3  -9    0.90    0.24
   5   3  -9    0.63    0.26
  -5  -3   9    1.50    0.47
  -5  -3   9    1.39    0.30
   4   3  -9    4.03    0.41
   4   3  -9    3.47    0.42
   4   3  -9    4.27    0.36
   4   3  -9    3.47    0.43
   4   3  -9    4.28    0.41
   4   3  -9    4.36    0.37
   4   3  -9    5.43    0.70
  -4  -3   9    3.81    0.39
  -4  -3   9    4.46    0.64
   3   3  -9    1.35    0.24
   3   3  -9    1.16    0.21
   3   3  -9    1.49    0.30
   3   3  -9    1.28    0.27
   3   3  -9    1.66    0.26
   3   3  -9    1.61    0.21
   3   3  -9    1.67    0.21
  -3  -3   9    1.77    0.24
  -3  -3   9    1.49    0.31
  -3  -3   9    1.07    0.41
   2   3  -9    3.19    0.33
   2   3  -9    2.91    0.25
   2   3  -9    3.78    0.52
   2   3  -9    3.62    0.35
   2   3  -9    3.03    0.36
   2   3  -9    3.21    0.35
   2   3  -9    3.54    0.36
   2   3  -9    3.23    0.37
   2   3  -9    2.45    0.32
  -2  -3   9    2.85    0.28
  -2  -3   9    3.42    0.30
  -2  -3   9    3.40    0.50
   1   3  -9    0.37    0.16
   1   3  -9    0.30    0.21
   1   3  -9    0.32    0.16
   1   3  -9    0.49    0.17
   1   3  -9    0.31    0.12
   1   3  -9    0.15    0.32
   1   3  -9    0.22    0.11
   1   3  -9    0.39    0.15
   1   3  -9    0.24    0.13
  -1  -3   9    0.32    0.13
  -1  -3   9    0.18    0.28
  -1  -3   9    0.21    0.22
  -1  -3   9    0.69    0.29
  -1  -3   9    0.20    0.15
   0   3  -9   14.87    0.78
   0   3  -9   16.00    0.65
   0   3  -9   15.62    0.65
   0   3  -9   17.04    0.67
   0   3  -9   17.42    0.70
   0   3  -9   16.44    0.68
   0   3  -9   17.32    0.66
   0   3  -9   17.10    0.66
   0  -3   9   16.53    0.68
   0  -3   9   17.29    0.66
   0  -3   9   17.45    0.99
   0  -3   9   15.87    0.85
   0  -3   9   17.63    0.78
  -1   3  -9   71.28    2.31
  -1   3  -9   70.10    2.32
  -1   3  -9   68.03    2.27
  -1   3  -9   71.19    2.28
  -1   3  -9   67.46    2.35
  -1   3  -9   70.70    2.34
  -1   3  -9   70.37    2.28
   1  -3   9   69.62    2.53
   1  -3   9   67.99    2.33
   1  -3   9   69.72    2.64
   1  -3   9   61.27    2.41
   1  -3   9   71.54    2.32
  -2   3  -9    1.54    0.23
  -2   3  -9    1.58    0.20
  -2   3  -9    1.39    0.19
  -2   3  -9    1.41    0.18
  -2   3  -9    1.89    0.22
   2  -3   9    1.77    0.43
   2  -3   9    2.16    0.29
   2  -3   9    1.50    0.30
   2  -3   9    1.56    0.25
  -3   3  -9   12.31    0.61
  -3   3  -9   11.54    0.49
  -3   3  -9   10.60    0.71
  -3   3  -9   11.81    0.53
  -3   3  -9   11.63    0.56
  -3   3  -9   11.64    0.47
   3  -3   9   10.94    0.66
   3  -3   9   11.58    0.55
   3  -3   9   11.84    0.90
   3  -3   9   12.03    0.64
  -4   3  -9    4.47    0.33
  -4   3  -9    4.82    0.42
  -4   3  -9    4.69    0.36
  -4   3  -9    4.13    0.55
  -4   3  -9    4.83    0.46
   4  -3   9    3.75    0.62
   4  -3   9    4.57    0.51
   4  -3   9    4.28    0.39
   4  -3   9    5.32    0.63
  -5   3  -9    7.77    0.54
  -5   3  -9    6.40    0.61
  -5   3  -9    6.65    0.48
   5  -3   9    8.29    0.92
   5  -3   9    7.72    0.52
   5  -3   9    9.28    0.68
  -6   3  -9    4.87    0.51
  -6   3  -9    6.53    0.64
  -6   3  -9    5.07    0.69
  -6   3  -9    5.62    0.54
   6  -3   9    4.79    0.74
   6  -3   9    4.13    0.63
  -7   3  -9    0.70    0.67
  -7   3  -9    0.75    0.38
   7  -3   9    0.32    0.43
   7   2  -9    1.67    0.36
   7   2  -9    1.57    0.39
   7   2  -9    2.20    0.41
   7   2  -9    1.95    0.37
  -7  -2   9    2.53    0.43
  -7  -2   9    2.48    0.55
   6   2  -9    5.99    0.53
   6   2  -9    5.94    0.52
   6   2  -9    6.46    0.57
   6   2  -9    4.88    0.50
  -6  -2   9    4.85    0.57
  -6  -2   9    6.08    0.73
  -6  -2   9    5.98    0.57
   5   2  -9    3.46    0.38
   5   2  -9    3.22    0.51
   5   2  -9    4.19    0.42
   5   2  -9    3.04    0.41
   5   2  -9    3.09    0.63
   5   2  -9    4.03    0.43
  -5  -2   9    3.35    0.41
  -5  -2   9    3.32    0.43
  -5  -2   9    3.89    0.49
   4   2  -9    0.77    0.22
   4   2  -9    1.42    0.23
   4   2  -9    1.08    0.23
   4   2  -9    0.96    0.30
   4   2  -9    1.09    0.26
   4   2  -9    1.18    0.23
   4   2  -9    1.05    0.32
  -4  -2   9    1.87    0.27
  -4  -2   9    1.78    0.42
  -4  -2   9    1.33    0.28
  -4  -2   9    1.48    0.27
   3   2  -9    7.02    0.51
   3   2  -9    8.12    0.42
   3   2  -9    7.65    0.51
   3   2  -9    6.92    0.50
   3   2  -9    7.26    0.46
   3   2  -9    7.03    0.50
  -3  -2   9    7.55    0.41
  -3  -2   9    7.01    0.67
   2   2  -9    4.91    0.32
   2   2  -9    5.48    0.49
   2   2  -9    4.53    0.38
   2   2  -9    5.41    0.43
   2   2  -9    4.77    0.34
   2   2  -9    4.66    0.30
   2   2  -9    4.74    0.33
  -2  -2   9    5.43    0.54
  -2  -2   9    4.80    0.31
  -2  -2   9    3.88    0.55
  -2  -2   9    4.07    0.44
   1   2  -9    2.75    0.25
   1   2  -9    2.46    0.28
   1   2  -9    2.72    0.25
   1   2  -9    2.56    0.23
   1   2  -9    2.18    0.24
   1   2  -9    2.88    0.28
   1   2  -9    2.58    0.24
   1   2  -9    2.80    0.43
   1   2  -9    2.60    0.32
  -1  -2   9    2.18    0.38
  -1  -2   9    2.65    0.34
  -1  -2   9    2.71    0.36
  -1  -2   9    3.21    0.29
  -1  -2   9    2.34    0.26
   0   2  -9    7.72    0.33
   0   2  -9    6.95    0.64
   0   2  -9    7.33    0.39
   0   2  -9    6.67    0.60
   0   2  -9    7.86    0.40
   0   2  -9    7.48    0.40
   0   2  -9    8.28    0.41
   0   2  -9    7.98    0.36
   0   2  -9    7.54    0.40
   0  -2   9    7.42    0.43
   0  -2   9    7.93    0.68
   0  -2   9    7.68    0.48
   0  -2   9    7.82    0.53
  -1   2  -9   15.03    0.63
  -1   2  -9   15.49    0.55
  -1   2  -9   14.72    0.60
  -1   2  -9   14.52    0.64
  -1   2  -9   14.41    0.65
  -1   2  -9   14.68    0.58
   1  -2   9   13.58    0.71
   1  -2   9   13.76    0.66
   1  -2   9   14.86    0.69
   1  -2   9   15.83    0.78
   1  -2   9   14.75    0.88
  -2   2  -9   11.53    0.74
  -2   2  -9   12.82    0.57
  -2   2  -9   13.04    0.54
  -2   2  -9   12.28    0.51
  -2   2  -9   12.88    0.60
   2  -2   9   11.38    0.81
   2  -2   9   12.65    0.68
   2  -2   9   12.67    0.70
  -3   2  -9   10.19    0.56
  -3   2  -9    9.49    0.45
  -3   2  -9    9.88    0.50
  -3   2  -9    8.77    0.62
  -3   2  -9   10.39    0.59
  -3   2  -9    9.89    0.47
   3  -2   9    9.50    0.46
   3  -2   9   10.17    0.82
   3  -2   9    9.84    0.62
   3  -2   9    9.93    0.68
  -4   2  -9    5.01    0.47
  -4   2  -9    4.54    0.39
  -4   2  -9    5.23    0.51
   4  -2   9    5.42    0.56
   4  -2   9    5.09    0.37
   4  -2   9    4.36    0.47
   4  -2   9    4.64    0.72
  -5   2  -9    0.05    0.23
  -5   2  -9   -0.13    0.29
  -5   2  -9   -0.09    0.29
   5  -2   9    0.31    0.29
   5  -2   9    0.17    0.27
   5  -2   9   -0.58    0.44
  -6   2  -9    0.63    0.32
  -6   2  -9   -0.35    0.34
  -6   2  -9    0.77    0.42
   6  -2   9    0.65    0.34
   8   1  -9    1.26    0.33
   8   1  -9    0.76    0.40
   8   1  -9    0.61    0.36
   8   1  -9    0.54    0.42
  -8  -1   9    1.78    0.60
  -8  -1   9    0.34    0.43
   7   1  -9    0.97    0.33
   7   1  -9    0.39    0.33
   7   1  -9    0.82    0.33
   7   1  -9    0.66    0.25
  -7  -1   9   -0.18    0.42
  -7  -1   9   -0.01    0.32
  -7  -1   9    0.71    0.39
   6   1  -9   11.62    0.65
   6   1  -9   12.22    0.71
   6   1  -9   12.17    0.69
   6   1  -9   12.72    0.74
  -6  -1   9   13.11    0.72
  -6  -1   9   12.40    0.77
  -6  -1   9   12.57    0.92
   5   1  -9    5.97    0.46
   5   1  -9    5.33    0.48
   5   1  -9    4.79    0.63
   5   1  -9    5.48    0.43
   5   1  -9    5.98    0.48
   5   1  -9    5.49    0.44
  -5  -1   9    5.69    0.47
  -5  -1   9    5.41    0.50
  -5  -1   9    6.51    0.56
   4   1  -9    2.16    0.28
   4   1  -9    1.83    0.34
   4   1  -9    1.38    0.22
   4   1  -9    1.19    0.30
   4   1  -9    1.95    0.27
   4   1  -9    1.96    0.33
   4   1  -9    2.19    0.27
   4   1  -9    1.84    0.25
  -4  -1   9    2.26    0.27
  -4  -1   9    1.55    0.28
  -4  -1   9    1.76    0.32
   3   1  -9    1.83    0.29
   3   1  -9    1.66    0.28
   3   1  -9    1.84    0.28
   3   1  -9    1.89    0.29
   3   1  -9    1.41    0.21
   3   1  -9    2.15    0.25
   3   1  -9    1.42    0.20
   3   1  -9    2.34    0.28
   3   1  -9    1.68    0.26
  -3  -1   9    1.60    0.31
  -3  -1   9    1.54    0.21
  -3  -1   9    1.32    0.22
   2   1  -9    0.33    0.23
   2   1  -9    0.18    0.13
   2   1  -9    0.20    0.12
   2   1  -9    0.20    0.16
   2   1  -9    0.25    0.13
   2   1  -9    0.39    0.14
   2   1  -9   -0.02    0.18
   2   1  -9    0.05    0.16
   2   1  -9    0.05    0.20
  -2  -1   9    0.50    0.20
  -2  -1   9    0.28    0.14
  -2  -1   9    0.39    0.16
  -2  -1   9    0.63    0.27
   1   1  -9    2.32    0.24
   1   1  -9    1.89    0.26
   1   1  -9    2.20    0.22
   1   1  -9    2.61    0.18
   1   1  -9    2.77    0.28
   1   1  -9    2.54    0.24
   1   1  -9    2.45    0.28
   1   1  -9    2.34    0.34
  -1  -1   9    2.41    0.25
  -1  -1   9    3.55    0.40
  -1  -1   9    2.55    0.42
  -1  -1   9    2.10    0.32
  -1  -1   9    2.83    0.34
   0   1  -9   82.43    2.93
   0   1  -9   85.58    2.75
   0   1  -9   82.01    2.83
   0   1  -9   83.45    2.83
   0   1  -9   83.25    2.81
   0   1  -9   80.81    2.89
   0  -1   9   83.10    3.07
   0  -1   9   86.64    2.93
   0  -1   9   84.61    2.81
   0  -1   9   89.07    3.10
   0  -1   9   85.15    2.81
  -1   1  -9    7.93    0.46
  -1   1  -9    7.50    0.40
  -1   1  -9    7.13    0.39
  -1   1  -9    7.62    0.41
  -1   1  -9    8.22    0.47
   1  -1   9    7.94    0.53
   1  -1   9    6.53    0.48
   1  -1   9    8.23    0.66
   1  -1   9    7.58    0.46
   1  -1   9    7.90    0.41
  -2   1  -9    6.80    0.39
  -2   1  -9    7.15    0.49
  -2   1  -9    7.95    0.42
  -2   1  -9    6.52    0.50
   2  -1   9    7.24    0.49
   2  -1   9    6.84    0.49
   2  -1   9    7.05    0.57
   2  -1   9    7.33    0.68
  -3   1  -9    4.06    0.46
  -3   1  -9    3.45    0.44
  -3   1  -9    3.42    0.33
  -3   1  -9    3.54    0.32
  -3   1  -9    3.45    0.31
   3  -1   9    3.19    0.44
   3  -1   9    3.53    0.40
   3  -1   9    4.18    0.54
  -4   1  -9    3.80    0.50
  -4   1  -9    4.61    0.54
   4  -1   9    4.42    0.68
   4  -1   9    4.38    0.35
   4  -1   9    4.87    0.59
   4  -1   9    3.77    0.46
  -5   1  -9    4.69    0.58
  -5   1  -9    5.53    0.66
  -5   1  -9    4.47    0.50
   5  -1   9    5.60    0.57
   5  -1   9    5.52    0.79
   5  -1   9    5.71    0.75
  -6   1  -9    0.14    0.33
  -6   1  -9    0.72    0.44
  -6   1  -9    0.46    0.42
   6  -1   9    0.95    0.39
   8   0  -9    0.20    0.38
   8   0  -9   -0.01    0.34
   8   0  -9    0.44    0.38
   8   0  -9    0.36    0.28
  -8   0   9    1.08    0.39
  -8   0   9    0.43    0.45
   7   0  -9    6.03    0.59
   7   0  -9    5.09    0.54
   7   0  -9    4.43    0.45
   7   0  -9    4.99    0.57
  -7   0   9    3.61    0.50
  -7   0   9    5.38    0.58
   6   0  -9    8.72    0.60
   6   0  -9    9.05    0.53
   6   0  -9    8.21    0.58
   6   0  -9    9.85    0.61
  -6   0   9    8.93    0.70
  -6   0   9    8.41    0.64
   5   0  -9    6.26    0.49
   5   0  -9    6.17    0.61
   5   0  -9    6.72    0.48
   5   0  -9    7.23    0.44
   5   0  -9    6.17    0.47
  -5   0   9    6.58    0.51
  -5   0   9    6.88    0.47
  -5   0   9    7.09    0.60
   4   0  -9   -0.13    0.15
   4   0  -9   -0.20    0.25
   4   0  -9   -0.09    0.16
   4   0  -9    0.47    0.29
   4   0  -9   -0.01    0.16
  -4   0   9    0.08    0.17
  -4   0   9    0.13    0.17
  -4   0   9   -0.09    0.24
   3   0  -9    3.77    0.41
   3   0  -9    4.42    0.33
   3   0  -9    4.44    0.43
   3   0  -9    4.27    0.34
   3   0  -9    4.22    0.32
   3   0  -9    4.31    0.33
   3   0  -9    4.37    0.34
  -3   0   9    4.50    0.49
  -3   0   9    3.41    0.38
  -3   0   9    4.20    0.38
  -3   0   9    3.99    0.33
   2   0  -9    0.58    0.18
   2   0  -9    0.80    0.15
   2   0  -9    0.40    0.15
   2   0  -9    0.72    0.22
   2   0  -9    0.62    0.16
   2   0  -9    0.23    0.19
   2   0  -9    0.37    0.19
  -2   0   9    0.16    0.23
  -2   0   9    0.70    0.19
  -2   0   9    0.67    0.19
  -2   0   9    0.33    0.15
   1   0  -9    8.59    0.49
   1   0  -9    9.57    0.57
   1   0  -9    9.55    0.49
   1   0  -9    9.92    0.47
   1   0  -9    9.54    0.43
   1   0  -9    8.99    0.48
   1   0  -9    9.16    0.48
  -1   0   9    9.37    0.47
  -1   0   9    9.89    0.54
  -1   0   9    9.06    0.52
  -1   0   9    9.13    0.52
   0   0  -9   44.21    1.61
   0   0  -9   43.35    1.56
   0   0  -9   45.61    1.57
   0   0  -9   44.16    1.54
   0   0  -9   44.58    1.61
   0   0   9   40.86    1.60
   0   0   9   44.58    1.55
   0   0   9   43.84    1.64
   0   0   9   46.24    1.58
  -1   0  -9   10.21    0.59
  -1   0  -9   10.89    0.53
  -1   0  -9   10.72    0.49
  -1   0  -9   11.07    0.60
  -1   0  -9   10.25    0.51
   1   0   9   10.33    0.57
   1   0   9    9.94    0.65
   1   0   9    9.75    0.74
   1   0   9   11.57    0.58
   1   0   9    9.78    0.55
  -2   0  -9    0.47    0.17
  -2   0  -9    0.00    0.22
  -2   0  -9    0.23    0.15
  -2   0  -9    0.29    0.16
   2   0   9   -0.03    0.29
   2   0   9    0.14    0.31
   2   0   9    0.30    0.23
   2   0   9   -0.06    0.17
  -3   0  -9    5.74    0.43
  -3   0  -9    5.45    0.43
  -3   0  -9    5.61    0.49
  -3   0  -9    5.55    0.56
  -3   0  -9    5.27    0.53
   3   0   9    5.73    0.47
   3   0   9    5.32    0.65
   3   0   9    4.77    0.65
   3   0   9    6.55    0.60
  -4   0  -9    6.81    0.65
  -4   0  -9    6.05    0.67
  -4   0  -9    6.69    0.53
   4   0   9    7.75    0.70
   4   0   9    7.05    0.54
   4   0   9    6.32    0.77
  -5   0  -9    1.94    0.47
  -5   0  -9    1.66    0.43
  -5   0  -9    1.96    0.38
   5   0   9    2.19    0.51
   5   0   9    2.26    0.40
  -6   0  -9    2.65    0.58
  -6   0  -9    2.41    0.55
  -6   0  -9    1.70    0.45
   6   0   9    1.38    0.40
   8  -1  -9    1.41    0.31
   8  -1  -9    0.57    0.36
   8  -1  -9    1.68    0.42
   8  -1  -9    1.12    0.42
  -8   1   9    1.33    0.50
  -8   1   9    1.58    0.38
   7  -1  -9    2.42    0.30
   7  -1  -9    2.81    0.41
   7  -1  -9    2.55    0.39
   7  -1  -9    2.54    0.40
  -7   1   9    2.67    0.47
  -7   1   9    2.76    0.39
  -7   1   9    2.14    0.44
   6  -1  -9   10.56    0.62
   6  -1  -9    9.92    0.60
   6  -1  -9    8.66    0.60
   6  -1  -9   10.39    0.56
  -6   1   9    9.11    0.72
  -6   1   9    9.55    0.68
  -6   1   9    9.79    0.59
   5  -1  -9    2.06    0.28
   5  -1  -9    2.83    0.35
   5  -1  -9    1.70    0.40
   5  -1  -9    3.01    0.32
   5  -1  -9    2.09    0.29
  -5   1   9    2.19    0.39
  -5   1   9    1.96    0.28
  -5   1   9    2.40    0.31
   4  -1  -9    0.75    0.19
   4  -1  -9    0.15    0.31
   4  -1  -9    0.57    0.18
   4  -1  -9    0.30    0.25
   4  -1  -9    0.63    0.20
  -4   1   9    0.65    0.28
  -4   1   9    0.75    0.22
  -4   1   9    0.79    0.20
   3  -1  -9    3.96    0.34
   3  -1  -9    3.99    0.32
   3  -1  -9    3.75    0.25
   3  -1  -9    4.10    0.33
   3  -1  -9    4.49    0.32
   3  -1  -9    4.33    0.44
   3  -1  -9    3.97    0.42
  -3   1   9    3.78    0.44
  -3   1   9    3.41    0.36
  -3   1   9    3.80    0.33
  -3   1   9    3.51    0.34
   2  -1  -9   24.86    1.01
   2  -1  -9   26.31    1.03
   2  -1  -9   22.02    1.29
   2  -1  -9   25.78    1.01
   2  -1  -9   26.18    0.99
   2  -1  -9   26.87    0.98
  -2   1   9   25.24    1.03
  -2   1   9   26.31    1.00
  -2   1   9   27.19    1.05
  -2   1   9   25.34    1.05
  -2   1   9   26.15    1.18
   1  -1  -9    5.90    0.39
   1  -1  -9    6.36    0.38
   1  -1  -9    6.39    0.43
   1  -1  -9    5.74    0.42
  -1   1   9    6.11    0.45
  -1   1   9    6.92    0.42
  -1   1   9    6.38    0.42
  -1   1   9    6.12    0.51
   0  -1  -9   16.28    0.78
   0  -1  -9   16.59    0.70
   0  -1  -9   16.04    0.76
   0  -1  -9   17.24    0.72
   0  -1  -9   16.28    0.72
   0   1   9   16.14    0.80
   0   1   9   16.10    0.73
   0   1   9   16.32    0.74
   0   1   9   16.74    0.70
  -1  -1  -9    0.23    0.17
  -1  -1  -9    0.45    0.30
  -1  -1  -9    0.24    0.15
   1   1   9   -0.02    0.17
   1   1   9   -0.59    0.27
   1   1   9    0.07    0.16
   1   1   9    0.02    0.21
  -2  -1  -9    1.88    0.34
  -2  -1  -9    1.48    0.32
  -2  -1  -9    2.55    0.32
  -2  -1  -9    1.21    0.21
  -2  -1  -9    1.65    0.26
   2   1   9    1.97    0.34
   2   1   9    2.17    0.45
   2   1   9    2.01    0.28
   2   1   9    1.55    0.43
  -3  -1  -9   12.89    0.78
  -3  -1  -9   15.01    0.75
  -3  -1  -9   15.09    0.89
  -3  -1  -9   13.58    0.83
   3   1   9   12.67    0.91
   3   1   9   14.73    1.24
   3   1   9   14.61    0.86
   3   1   9   16.21    0.76
  -4  -1  -9    8.44    0.78
  -4  -1  -9    5.91    0.71
  -4  -1  -9    7.68    0.63
   4   1   9    8.74    0.79
   4   1   9    6.90    0.78
   4   1   9    8.02    0.59
  -5  -1  -9    0.26    0.44
  -5  -1  -9   -0.02    0.44
  -5  -1  -9    0.66    0.34
   5   1   9    0.03    0.56
  -6  -1  -9    8.50    0.90
  -6  -1  -9    8.49    1.13
   8  -2  -9    0.79    0.41
   8  -2  -9    0.18    0.37
   8  -2  -9    0.74    0.28
   8  -2  -9    0.27    0.33
   8  -2  -9    1.10    0.40
  -8   2   9    1.01    0.36
  -8   2   9    0.43    0.45
  -8   2   9    0.40    0.46
   7  -2  -9    6.47    0.61
   7  -2  -9    7.93    0.62
   7  -2  -9    6.56    0.60
   7  -2  -9    7.41    0.51
  -7   2   9    6.29    0.56
  -7   2   9    8.76    0.71
  -7   2   9    7.25    0.75
   6  -2  -9    6.41    0.47
   6  -2  -9    5.99    0.53
   6  -2  -9    7.01    0.51
   6  -2  -9    6.97    0.56
   6  -2  -9    6.85    0.54
  -6   2   9    7.85    0.71
  -6   2   9    7.08    0.58
  -6   2   9    7.62    0.52
   5  -2  -9    1.23    0.21
   5  -2  -9    1.11    0.27
   5  -2  -9    1.60    0.37
   5  -2  -9    1.21    0.26
   5  -2  -9    1.36    0.23
   5  -2  -9    0.97    0.33
  -5   2   9    0.97    0.25
  -5   2   9    1.35    0.35
  -5   2   9    1.63    0.38
   4  -2  -9    4.98    0.33
   4  -2  -9    4.90    0.43
   4  -2  -9    5.32    0.43
   4  -2  -9    5.20    0.53
   4  -2  -9    4.98    0.42
  -4   2   9    6.23    0.41
  -4   2   9    4.87    0.44
  -4   2   9    6.89    0.81
   3  -2  -9    1.51    0.22
   3  -2  -9    0.92    0.22
   3  -2  -9    1.26    0.26
   3  -2  -9    1.24    0.26
   3  -2  -9    1.34    0.14
  -3   2   9    1.35    0.21
  -3   2   9    1.33    0.24
  -3   2   9    1.72    0.37
  -3   2   9    1.14    0.24
   2  -2  -9   11.94    0.76
   2  -2  -9    9.91    0.59
   2  -2  -9    9.99    0.83
   2  -2  -9   11.28    0.60
   2  -2  -9   11.31    0.60
  -2   2   9   11.34    0.61
  -2   2   9   12.01    0.76
  -2   2   9   11.19    0.55
  -2   2   9   11.53    0.58
  -2   2   9   11.24    0.69
   1  -2  -9   51.41    2.42
   1  -2  -9   58.85    2.09
   1  -2  -9   61.62    2.13
   1  -2  -9   58.67    2.22
   1  -2  -9   55.88    2.05
  -1   2   9   63.00    2.15
  -1   2   9   60.86    2.09
  -1   2   9   59.83    2.06
  -1   2   9   62.58    2.08
   0  -2  -9    3.42    0.42
   0  -2  -9    4.20    0.35
   0  -2  -9    4.20    0.45
   0  -2  -9    3.84    0.37
   0  -2  -9    3.99    0.37
   0   2   9    4.04    0.35
   0   2   9    4.45    0.41
   0   2   9    4.97    0.39
   0   2   9    4.14    0.50
  -1  -2  -9    5.70    0.43
  -1  -2  -9    6.40    0.57
  -1  -2  -9    4.89    0.44
  -1  -2  -9    5.92    0.53
  -1  -2  -9    5.96    0.45
   1   2   9    5.18    0.52
   1   2   9    5.88    0.41
   1   2   9    4.97    0.40
   1   2   9    6.32    0.61
  -2  -2  -9    9.82    0.76
  -2  -2  -9   10.04    0.61
  -2  -2  -9    9.90    0.72
   2   2   9    9.92    0.49
   2   2   9    9.30    0.77
   2   2   9   10.01    0.69
  -3  -2  -9    7.68    0.73
  -3  -2  -9    8.46    0.62
  -3  -2  -9    8.67    0.76
   3   2   9    7.95    0.75
   3   2   9    7.40    0.77
  -4  -2  -9    3.34    0.47
  -4  -2  -9    2.12    0.52
  -4  -2  -9    2.31    0.52
   4   2   9    3.47    0.55
  -5  -2  -9    0.58    0.49
  -5  -2  -9    0.94    0.41
  -5  -2  -9    0.98    0.53
   5   2   9    1.59    0.57
   8  -3  -9    1.05    0.43
   8  -3  -9    0.56    0.40
   8  -3  -9   -0.03    0.34
   8  -3  -9    0.65    0.28
   8  -3  -9    0.90    0.41
  -8   3   9    0.52    0.47
  -8   3   9    0.37    0.33
  -8   3   9    0.53    0.41
   7  -3  -9   12.55    0.75
   7  -3  -9   12.72    0.79
   7  -3  -9   12.39    0.74
   7  -3  -9   12.01    0.65
   7  -3  -9   12.23    0.78
  -7   3   9   12.28    0.94
  -7   3   9   13.36    1.27
  -7   3   9   13.08    0.73
   6  -3  -9    3.27    0.37
   6  -3  -9    2.74    0.40
   6  -3  -9    2.99    0.42
   6  -3  -9    3.84    0.47
   6  -3  -9    3.49    0.41
  -6   3   9    2.83    0.49
  -6   3   9    3.89    0.50
  -6   3   9    3.55    0.42
   5  -3  -9   -0.08    0.18
   5  -3  -9   -0.05    0.18
   5  -3  -9    0.11    0.17
   5  -3  -9    0.00    0.24
  -5   3   9   -0.40    0.31
  -5   3   9   -0.22    0.22
  -5   3   9    0.24    0.21
   4  -3  -9    1.81    0.24
   4  -3  -9    1.35    0.23
   4  -3  -9    1.18    0.26
   4  -3  -9    0.67    0.33
   4  -3  -9    1.61    0.24
   4  -3  -9    2.02    0.30
  -4   3   9    1.52    0.39
  -4   3   9    2.03    0.41
  -4   3   9    1.79    0.30
   3  -3  -9   14.74    0.68
   3  -3  -9   13.16    0.74
   3  -3  -9   14.86    0.73
   3  -3  -9   13.66    0.56
   3  -3  -9   14.19    0.73
  -3   3   9   15.19    0.74
  -3   3   9   13.64    0.62
  -3   3   9   14.88    0.70
  -3   3   9   15.93    0.92
   2  -3  -9    4.05    0.44
   2  -3  -9    3.58    0.44
   2  -3  -9    4.62    0.38
  -2   3   9    4.71    0.57
  -2   3   9    4.33    0.33
  -2   3   9    3.78    0.45
  -2   3   9    4.27    0.41
   1  -3  -9   17.08    0.86
   1  -3  -9   18.30    0.86
   1  -3  -9   17.66    0.79
   1  -3  -9   16.97    0.79
  -1   3   9   15.63    0.78
  -1   3   9   17.81    0.83
  -1   3   9   17.50    0.74
  -1   3   9   17.62    0.88
   0  -3  -9    2.60    0.39
   0  -3  -9    2.99    0.39
   0  -3  -9    3.20    0.39
   0   3   9    3.09    0.43
   0   3   9    2.45    0.31
   0   3   9    2.86    0.38
   0   3   9    2.87    0.31
  -1  -3  -9   14.12    0.83
  -1  -3  -9   14.45    0.77
  -1  -3  -9   15.22    0.90
   1   3   9   14.08    0.90
   1   3   9   15.33    0.84
  -2  -3  -9    8.36    0.72
  -2  -3  -9    8.04    0.78
  -2  -3  -9    7.79    0.63
   2   3   9    8.63    0.80
   2   3   9    8.16    0.51
  -3  -3  -9    3.51    0.46
  -3  -3  -9    3.76    0.57
  -3  -3  -9    3.86    0.61
   3   3   9    5.47    0.71
   3   3   9    4.66    0.61
  -4  -3  -9    1.72    0.53
  -4  -3  -9    2.57    0.58
  -4  -3  -9    3.15    0.52
   4   3   9    1.81    0.54
   8  -4  -9    3.13    0.51
   8  -4  -9    3.20    0.52
   8  -4  -9    2.69    0.51
   8  -4  -9    3.31    0.51
  -8   4   9    3.00    0.44
  -8   4   9    3.12    0.54
  -8   4   9    4.08    0.65
   7  -4  -9    2.06    0.42
   7  -4  -9    3.04    0.42
   7  -4  -9    2.64    0.34
   7  -4  -9    2.34    0.38
   7  -4  -9    2.28    0.42
  -7   4   9    1.93    0.47
  -7   4   9    2.66    0.42
  -7   4   9    4.04    0.52
   6  -4  -9   -0.05    0.21
   6  -4  -9    0.05    0.23
   6  -4  -9   -0.05    0.24
   6  -4  -9   -0.15    0.26
   6  -4  -9   -0.24    0.29
  -6   4   9    0.41    0.42
  -6   4   9    0.23    0.26
  -6   4   9   -0.19    0.28
   5  -4  -9    0.40    0.20
   5  -4  -9    0.55    0.23
   5  -4  -9    0.06    0.27
  -5   4   9    0.41    0.22
  -5   4   9   -0.02    0.27
  -5   4   9    0.34    0.35
   4  -4  -9    1.14    0.29
   4  -4  -9    1.30    0.20
   4  -4  -9    0.82    0.24
   4  -4  -9    1.12    0.27
  -4   4   9    1.45    0.28
  -4   4   9    1.32    0.37
  -4   4   9    1.17    0.28
   3  -4  -9    3.72    0.47
   3  -4  -9    3.14    0.39
   3  -4  -9    4.96    0.42
   3  -4  -9    2.96    0.40
   3  -4  -9    4.10    0.29
  -3   4   9    4.18    0.36
  -3   4   9    4.09    0.51
  -3   4   9    4.07    0.43
  -3   4   9    4.16    0.46
   2  -4  -9   21.08    0.99
   2  -4  -9   21.57    1.02
   2  -4  -9   22.03    0.95
   2  -4  -9   21.94    1.02
  -2   4   9   21.16    0.98
  -2   4   9   22.94    1.14
  -2   4   9   20.97    1.02
  -2   4   9   22.23    0.86
   1  -4  -9   11.89    0.67
   1  -4  -9   10.85    0.71
   1  -4  -9   11.56    1.01
   1  -4  -9   10.92    0.66
  -1   4   9   11.48    0.55
  -1   4   9   10.71    0.75
  -1   4   9   10.87    0.70
   0  -4  -9    8.88    0.78
   0  -4  -9   10.07    0.63
   0  -4  -9    9.57    0.73
   0   4   9   10.02    0.80
   0   4   9   10.85    0.69
  -1  -4  -9    3.36    0.50
  -1  -4  -9    3.49    0.43
  -1  -4  -9    4.16    0.54
   1   4   9    3.40    0.47
   1   4   9    3.10    0.53
  -2  -4  -9    7.91    0.71
  -2  -4  -9    8.16    0.80
  -2  -4  -9    7.14    0.83
   2   4   9    7.16    0.91
   2   4   9    8.11    0.75
  -3  -4  -9    4.98    0.72
  -3  -4  -9    5.41    0.62
  -3  -4  -9    2.95    0.59
  -3  -4  -9    4.69    0.60
   3   4   9    6.39    0.77
  -4  -4  -9    3.75    1.04
  -4  -4  -9    1.94    0.61
  -4  -4  -9    1.77    0.54
   4   4   9    2.29    0.62
   7  -5  -9    2.05    0.43
   7  -5  -9    2.18    0.48
   7  -5  -9    2.32    0.37
   7  -5  -9    3.31    0.43
  -7   5   9    2.21    0.40
  -7   5   9    1.88    0.38
  -7   5   9    3.12    0.59
   6  -5  -9   -0.17    0.36
   6  -5  -9    0.74    0.28
   6  -5  -9    0.05    0.33
   6  -5  -9    0.35    0.27
  -6   5   9    0.51    0.28
  -6   5   9    0.04    0.41
  -6   5   9    0.14    0.31
   5  -5  -9    1.58    0.27
   5  -5  -9    1.60    0.29
   5  -5  -9    2.37    0.41
  -5   5   9    2.33    0.36
  -5   5   9    1.44    0.43
   4  -5  -9    0.97    0.22
   4  -5  -9    0.99    0.27
   4  -5  -9    1.04    0.33
   4  -5  -9    1.34    0.33
  -4   5   9    1.23    0.35
  -4   5   9    0.96    0.29
  -4   5   9    0.58    0.41
   3  -5  -9    2.36    0.39
   3  -5  -9    2.70    0.43
   3  -5  -9    3.58    0.47
  -3   5   9    3.40    0.52
  -3   5   9    2.44    0.31
  -3   5   9    1.92    0.34
  -3   5   9    2.87    0.41
   2  -5  -9    1.94    0.32
   2  -5  -9    1.69    0.36
  -2   5   9    1.71    0.28
  -2   5   9    2.36    0.41
  -2   5   9    1.93    0.36
  -2   5   9    2.33    0.51
   1  -5  -9    1.44    0.34
   1  -5  -9    1.46    0.41
   1  -5  -9    2.09    0.42
  -1   5   9    2.56    0.45
  -1   5   9    2.08    0.38
   0  -5  -9    3.77    0.48
   0  -5  -9    3.51    0.57
   0  -5  -9    3.30    0.51
   0   5   9    3.60    0.57
   0   5   9    2.65    0.45
  -1  -5  -9    4.12    0.63
  -1  -5  -9    6.82    0.69
  -1  -5  -9    4.17    0.63
   1   5   9    6.16    0.67
   1   5   9    6.44    0.75
  -2  -5  -9    1.14    0.55
  -2  -5  -9    1.15    0.46
  -2  -5  -9    0.15    0.37
  -2  -5  -9   -0.12    0.53
   2   5   9    0.95    0.46
  -3  -5  -9    4.84    0.67
  -3  -5  -9    6.73    0.86
  -3  -5  -9    4.81    0.77
  -3  -5  -9    5.71    0.76
   3   5   9    5.40    0.71
   7  -6  -9    4.92    0.53
   7  -6  -9    5.82    0.69
   7  -6  -9    5.29    0.63
  -7   6   9    5.04    0.63
  -7   6   9    4.65    0.60
  -7   6   9    5.12    0.76
   6  -6  -9    1.36    0.32
   6  -6  -9    0.94    0.36
   6  -6  -9    0.37    0.40
   6  -6  -9    0.75    0.42
  -6   6   9    0.77    0.34
  -6   6   9    0.73    0.32
  -6   6   9   -0.06    0.48
   5  -6  -9    5.21    0.70
   5  -6  -9    3.78    0.46
   5  -6  -9    5.57    0.64
   5  -6  -9    4.45    0.59
  -5   6   9    4.80    0.63
  -5   6   9    4.65    0.62
  -5   6   9    3.31    0.43
   4  -6  -9    2.23    0.38
   4  -6  -9    1.62    0.78
   4  -6  -9    1.75    0.40
  -4   6   9    1.25    0.44
  -4   6   9    1.13    0.34
  -4   6   9    1.91    0.39
   3  -6  -9   -0.05    0.49
   3  -6  -9    0.83    0.35
   3  -6  -9    0.23    0.37
  -3   6   9    0.38    0.32
  -3   6   9    0.54    0.34
  -3   6   9   -0.71    0.41
   2  -6  -9    3.09    0.51
   2  -6  -9    3.75    0.47
   2  -6  -9    2.49    0.48
  -2   6   9    3.90    0.48
  -2   6   9    1.97    0.57
  -2   6   9    3.68    0.35
  -2   6   9    3.92    0.63
   1  -6  -9    0.16    0.42
   1  -6  -9    0.13    0.46
   1  -6  -9    0.33    0.33
  -1   6   9   -0.03    0.35
   0  -6  -9    0.34    0.41
   0  -6  -9    0.72    0.45
   0  -6  -9   -0.68    0.48
   0   6   9    0.29    0.41
   0   6   9    0.41    0.51
  -1  -6  -9    0.97    0.49
  -1  -6  -9    0.69    0.54
  -1  -6  -9    1.94    0.44
  -1  -6  -9    1.49    0.58
   1   6   9    0.95    0.61
   1   6   9    0.70    0.48
  -2  -6  -9    1.19    0.50
  -2  -6  -9    2.74    0.69
  -2  -6  -9    2.10    0.66
   2   6   9    2.87    0.62
   6  -7  -9    3.17    0.56
   6  -7  -9    3.65    0.52
  -6   7   9    2.99    0.51
  -6   7   9    2.75    0.53
   5  -7  -9    2.24    0.51
   5  -7  -9    1.30    0.41
  -5   7   9    0.32    0.51
  -5   7   9    1.12    0.38
  -5   7   9    1.37    0.40
   4  -7  -9    2.31    0.57
   4  -7  -9    2.09    0.43
   4  -7  -9    1.45    0.50
  -4   7   9    2.69    0.60
  -4   7   9    2.60    0.47
  -4   7   9    2.68    0.49
   3  -7  -9    0.74    0.50
   3  -7  -9    1.00    0.46
   3  -7  -9    1.35    0.42
  -3   7   9    0.55    0.38
  -3   7   9    0.80    0.51
  -3   7   9   -0.40    0.42
   2  -7  -9    1.30    0.49
   2  -7  -9    1.81    0.59
   2  -7  -9    1.23    0.43
  -2   7   9    1.37    0.52
  -2   7   9    1.95    0.44
   1  -7  -9    1.56    0.60
   1  -7  -9    2.59    0.55
   1  -7  -9    2.38    0.57
  -1   7   9    3.63    0.54
  -1   7   9    2.19    0.59
   0  -7  -9    1.49    0.51
   0  -7  -9    1.24    0.63
   0  -7  -9    1.13    0.52
   0  -7  -9    1.47    0.64
   0   7   9    2.95    0.57
   0   7   9    1.81    0.66
   0   9 -10    0.50    0.40
   0   9 -10    0.42    0.33
   0  -9  10    0.81    0.67
   0  -9  10    0.03    0.69
  -1   9 -10   -0.15    0.39
  -1   9 -10    0.16    0.29
   1  -9  10    1.24    0.75
   1  -9  10    0.19    0.60
  -2   9 -10    3.95    0.49
  -2   9 -10    3.04    0.38
   2  -9  10    3.53    0.89
   2  -9  10    3.60    0.72
  -3   9 -10    0.56    0.25
   3  -9  10   -0.08    0.75
   3  -9  10   -0.41    0.58
   2   8 -10   12.57    0.90
   2   8 -10   11.63    0.83
   2   8 -10   11.57    0.53
  -2  -8  10   10.40    1.28
  -2  -8  10   14.28    1.27
   1   8 -10    0.95    0.36
   1   8 -10    0.95    0.32
  -1  -8  10    0.90    0.67
  -1  -8  10    0.31    0.59
   0   8 -10   -0.03    0.33
   0   8 -10   -0.57    0.25
   0  -8  10    0.30    0.65
   0  -8  10    0.21    0.53
  -1   8 -10    2.22    0.37
  -1   8 -10    1.65    0.30
   1  -8  10    2.49    0.72
   1  -8  10    1.87    0.58
  -2   8 -10    0.20    0.33
  -2   8 -10    0.62    0.36
  -2   8 -10    0.12    0.21
   2  -8  10    1.63    0.66
   2  -8  10    0.49    0.45
  -3   8 -10    0.41    0.36
  -3   8 -10    0.30    0.21
   3  -8  10    0.57    0.67
   3  -8  10    0.27    0.52
  -4   8 -10    4.25    0.60
   4  -8  10    3.88    0.88
   4  -8  10    3.58    0.78
   4   7 -10    0.87    0.36
   4   7 -10    1.34    0.29
   4   7 -10    0.20    0.43
  -4  -7  10    1.48    0.70
   3   7 -10    0.17    0.16
   3   7 -10    0.35    0.38
   3   7 -10    1.04    0.37
   3   7 -10    0.49    0.22
  -3  -7  10    0.80    0.62
  -3  -7  10    0.78    0.63
   2   7 -10    0.23    0.33
   2   7 -10    0.52    0.30
  -2  -7  10    0.58    0.58
   1   7 -10    0.05    0.11
   1   7 -10   -0.17    0.19
   1   7 -10   -0.25    0.25
   1   7 -10   -0.18    0.29
  -1  -7  10    0.15    0.45
  -1  -7  10   -0.08    0.52
   0   7 -10    0.17    0.28
   0   7 -10    0.68    0.23
   0  -7  10   -0.01    0.44
   0  -7  10    0.87    0.58
  -1   7 -10    3.94    0.48
  -1   7 -10    4.21    0.40
  -1   7 -10    3.53    0.45
   1  -7  10    4.79    0.77
   1  -7  10    2.71    0.52
  -2   7 -10    2.15    0.31
  -2   7 -10    1.66    0.24
  -2   7 -10    1.69    0.36
   2  -7  10    1.91    0.66
   2  -7  10    1.70    0.46
  -3   7 -10    0.57    0.37
  -3   7 -10    0.38    0.18
   3  -7  10   -0.40    0.59
   3  -7  10   -0.09    0.42
  -4   7 -10    2.06    0.47
   4  -7  10    2.68    0.58
   4  -7  10    2.40    0.76
  -5   7 -10    2.19    0.51
   5  -7  10    0.62    0.45
   5  -7  10    2.12    0.64
   5  -7  10    1.24    0.82
   5   6 -10    1.71    0.35
   5   6 -10    2.86    0.53
  -5  -6  10    1.12    0.69
   4   6 -10    1.40    0.40
   4   6 -10    1.44    0.28
   4   6 -10    1.08    0.25
   4   6 -10    1.43    0.36
  -4  -6  10    1.31    0.65
   3   6 -10    2.43    0.40
   3   6 -10    1.35    0.24
   3   6 -10    1.58    0.35
  -3  -6  10    2.41    0.63
  -3  -6  10    1.61    0.46
   2   6 -10    0.96    0.16
   2   6 -10    0.07    0.25
   2   6 -10    0.93    0.32
   2   6 -10    0.82    0.18
  -2  -6  10    0.73    0.42
  -2  -6  10    1.24    0.56
   1   6 -10    0.35    0.12
   1   6 -10   -0.08    0.22
   1   6 -10    0.81    0.27
   1   6 -10    0.05    0.20
  -1  -6  10    0.64    0.49
  -1  -6  10   -0.23    0.36
   0   6 -10    1.60    0.25
   0   6 -10    1.30    0.18
   0   6 -10    1.60    0.29
   0  -6  10    1.44    0.53
   0  -6  10    0.96    0.41
  -1   6 -10    7.78    0.49
  -1   6 -10    7.29    0.57
  -1   6 -10    7.94    0.47
   1  -6  10    7.73    0.96
   1  -6  10    7.25    0.77
  -2   6 -10    1.41    0.24
  -2   6 -10    1.87    0.37
  -2   6 -10    1.43    0.22
   2  -6  10    1.40    0.41
   2  -6  10    1.14    0.53
  -3   6 -10    5.32    0.43
  -3   6 -10    4.96    0.63
   3  -6  10    6.49    0.88
   3  -6  10    5.90    0.74
  -4   6 -10    2.14    0.29
  -4   6 -10    2.31    0.46
   4  -6  10    2.44    0.71
   4  -6  10    1.09    0.44
  -5   6 -10    0.47    0.44
   5  -6  10   -0.51    0.70
   5  -6  10   -0.10    0.46
   5  -6  10    0.57    0.39
  -6   6 -10   -0.59    0.55
   6  -6  10   -1.00    0.75
   5   5 -10    4.02    0.51
   5   5 -10    3.71    0.48
   5   5 -10    2.93    0.46
   5   5 -10    3.43    0.45
  -5  -5  10    3.47    0.69
   4   5 -10    0.13    0.22
   4   5 -10    0.50    0.30
   4   5 -10    0.46    0.31
   4   5 -10    0.53    0.23
  -4  -5  10    0.78    0.56
   3   5 -10    2.18    0.34
   3   5 -10    2.08    0.25
   3   5 -10    2.55    0.36
  -3  -5  10    1.13    0.52
   2   5 -10    2.28    0.30
   2   5 -10    2.84    0.26
   2   5 -10    2.48    0.26
   2   5 -10    3.15    0.42
   2   5 -10    2.37    0.34
  -2  -5  10    2.68    0.56
   1   5 -10    0.61    0.21
   1   5 -10    0.84    0.14
   1   5 -10    0.71    0.15
   1   5 -10    0.76    0.24
   1   5 -10    0.76    0.23
   1   5 -10    0.54    0.22
  -1  -5  10    0.66    0.45
   0   5 -10    4.61    0.44
   0   5 -10    6.17    0.42
   0   5 -10    6.06    0.31
   0   5 -10    6.10    0.43
   0   5 -10    5.44    0.54
   0   5 -10    5.68    0.37
   0  -5  10    5.53    0.42
   0  -5  10    5.93    0.66
   0  -5  10    5.91    0.80
  -1   5 -10    8.22    0.37
  -1   5 -10    7.33    0.35
  -1   5 -10    7.27    0.43
  -1   5 -10    6.86    0.43
  -1   5 -10    6.33    0.45
   1  -5  10    6.47    0.87
   1  -5  10    8.18    0.72
  -2   5 -10    3.82    0.30
  -2   5 -10    4.49    0.36
   2  -5  10    3.94    0.64
   2  -5  10    3.75    0.60
  -3   5 -10    2.06    0.27
   3  -5  10    2.51    0.49
   3  -5  10    2.90    0.65
  -4   5 -10    0.57    0.18
  -4   5 -10    0.76    0.19
  -4   5 -10    1.25    0.40
   4  -5  10    0.89    0.58
   4  -5  10    0.74    0.38
   4  -5  10    0.54    0.30
  -5   5 -10    2.22    0.27
  -5   5 -10    2.71    0.30
  -5   5 -10    2.53    0.54
   5  -5  10    2.13    0.76
   5  -5  10    2.02    0.52
  -6   5 -10    6.15    0.53
  -6   5 -10    5.35    0.72
   6  -5  10    3.69    0.87
   6  -5  10    5.50    0.88
   6   4 -10    3.71    0.46
   6   4 -10    5.36    0.64
   6   4 -10    4.89    0.62
   6   4 -10    3.88    0.46
  -6  -4  10    3.86    0.76
   5   4 -10   -0.11    0.29
   5   4 -10    0.24    0.26
   5   4 -10    0.47    0.25
   5   4 -10    0.20    0.28
  -5  -4  10    0.12    0.54
   4   4 -10    0.55    0.26
   4   4 -10    0.75    0.22
   4   4 -10    0.49    0.22
   4   4 -10    0.11    0.27
  -4  -4  10    0.62    0.28
  -4  -4  10    0.90    0.47
   3   4 -10    2.56    0.35
   3   4 -10    2.47    0.29
   3   4 -10    2.86    0.30
   3   4 -10    3.28    0.39
  -3  -4  10    2.51    0.56
  -3  -4  10    2.52    0.29
   2   4 -10    1.94    0.24
   2   4 -10    2.07    0.30
   2   4 -10    2.21    0.30
   2   4 -10    1.74    0.31
   2   4 -10    1.84    0.50
   2   4 -10    2.47    0.26
   2   4 -10    2.01    0.29
  -2  -4  10    2.16    0.26
  -2  -4  10    1.68    0.47
   1   4 -10    2.47    0.32
   1   4 -10    2.39    0.23
   1   4 -10    2.41    0.30
   1   4 -10    2.67    0.34
   1   4 -10    3.55    0.37
   1   4 -10    2.80    0.26
   1   4 -10    2.48    0.32
   1   4 -10    2.50    0.31
  -1  -4  10    2.56    0.29
  -1  -4  10    3.12    0.54
  -1  -4  10    2.30    0.43
   0   4 -10    7.70    0.45
   0   4 -10    7.74    0.41
   0   4 -10    8.06    0.46
   0   4 -10    8.26    0.41
   0   4 -10    8.14    0.45
   0   4 -10    7.97    0.44
   0   4 -10    8.20    0.40
   0  -4  10    8.69    0.44
   0  -4  10    7.92    0.47
   0  -4  10    8.91    0.84
   0  -4  10    8.39    0.63
   0  -4  10    9.08    0.69
  -1   4 -10    1.31    0.17
  -1   4 -10    1.14    0.20
  -1   4 -10    1.07    0.17
  -1   4 -10    1.07    0.17
  -1   4 -10    0.99    0.15
  -1   4 -10    0.99    0.18
  -1   4 -10    1.17    0.19
   1  -4  10    0.83    0.25
   1  -4  10    0.94    0.36
   1  -4  10    0.60    0.21
   1  -4  10    1.00    0.43
  -2   4 -10    0.56    0.21
  -2   4 -10    0.33    0.14
  -2   4 -10    0.67    0.18
  -2   4 -10    0.45    0.14
  -2   4 -10    0.60    0.12
   2  -4  10    0.51    0.43
   2  -4  10    1.00    0.35
  -3   4 -10    9.61    0.53
  -3   4 -10    9.05    0.42
  -3   4 -10    9.36    0.55
   3  -4  10    8.17    0.72
   3  -4  10    9.23    0.97
  -4   4 -10    3.40    0.41
  -4   4 -10    3.89    0.33
  -4   4 -10    3.21    0.43
   4  -4  10    3.72    0.58
   4  -4  10    3.66    0.70
   4  -4  10    3.58    0.48
  -5   4 -10    2.04    0.33
  -5   4 -10    2.16    0.26
  -5   4 -10    1.96    0.34
  -5   4 -10    2.58    0.53
   5  -4  10    1.68    0.48
   5  -4  10    1.86    0.66
  -6   4 -10    1.28    0.59
  -6   4 -10    1.31    0.31
  -6   4 -10    1.65    0.38
   6  -4  10    1.65    0.53
   6  -4  10    0.96    0.77
   7   3 -10    0.48    0.37
   6   3 -10    3.60    0.48
   6   3 -10    4.59    0.56
   6   3 -10    4.55    0.50
   6   3 -10    4.10    0.46
  -6  -3  10    3.96    0.66
  -6  -3  10    4.46    0.51
   5   3 -10    1.70    0.31
   5   3 -10    2.09    0.32
   5   3 -10    2.72    0.36
   5   3 -10    1.73    0.35
  -5  -3  10    2.30    0.36
  -5  -3  10    2.29    0.57
   4   3 -10    0.78    0.22
   4   3 -10    1.33    0.28
   4   3 -10    0.17    0.20
   4   3 -10    0.86    0.25
  -4  -3  10    0.64    0.26
  -4  -3  10    0.84    0.45
   3   3 -10    4.96    0.35
   3   3 -10    4.19    0.39
   3   3 -10    4.39    0.46
   3   3 -10    4.40    0.42
   3   3 -10    4.58    0.34
  -3  -3  10    4.55    0.70
  -3  -3  10    4.79    0.38
   2   3 -10    0.37    0.19
   2   3 -10    0.22    0.14
   2   3 -10    0.31    0.21
   2   3 -10    0.62    0.40
   2   3 -10   -0.21    0.15
   2   3 -10    0.16    0.12
   2   3 -10   -0.45    0.21
   2   3 -10    0.07    0.24
   2   3 -10   -0.15    0.20
  -2  -3  10   -0.02    0.15
  -2  -3  10    0.10    0.19
  -2  -3  10    0.60    0.38
   1   3 -10    8.27    0.47
   1   3 -10    7.98    0.40
   1   3 -10    7.39    0.45
   1   3 -10    7.94    0.45
   1   3 -10    7.70    0.41
   1   3 -10    7.82    0.44
   1   3 -10    7.26    0.43
   1   3 -10    8.29    0.65
  -1  -3  10    7.86    0.47
  -1  -3  10    8.05    0.66
  -1  -3  10    7.15    0.63
   0   3 -10    4.80    0.35
   0   3 -10    5.23    0.35
   0   3 -10    4.81    0.34
   0   3 -10    5.12    0.33
   0   3 -10    4.74    0.32
   0   3 -10    4.47    0.37
   0   3 -10    4.56    0.30
   0  -3  10    4.34    0.51
   0  -3  10    5.03    0.75
   0  -3  10    4.91    0.42
   0  -3  10    5.09    0.53
   0  -3  10    4.68    0.37
  -1   3 -10    0.40    0.15
  -1   3 -10    0.48    0.18
  -1   3 -10    0.21    0.11
  -1   3 -10    0.48    0.15
  -1   3 -10    0.56    0.18
   1  -3  10    0.35    0.24
   1  -3  10    0.23    0.24
   1  -3  10    0.73    0.39
   1  -3  10    0.54    0.26
   1  -3  10    0.43    0.21
  -2   3 -10    2.35    0.31
  -2   3 -10    2.88    0.35
  -2   3 -10    2.61    0.25
   2  -3  10    3.33    0.42
   2  -3  10    2.63    0.55
   2  -3  10    1.98    0.35
  -3   3 -10    2.80    0.27
  -3   3 -10    2.98    0.37
  -3   3 -10    2.81    0.39
   3  -3  10    2.29    0.58
   3  -3  10    3.81    0.50
  -4   3 -10    4.16    0.39
  -4   3 -10    3.70    0.44
  -4   3 -10    4.89    0.52
   4  -3  10    2.74    0.44
   4  -3  10    4.70    0.85
  -5   3 -10    2.42    0.38
  -5   3 -10    3.45    0.44
  -5   3 -10    3.37    0.44
   5  -3  10    2.88    0.50
  -6   3 -10    4.38    0.75
  -6   3 -10    5.20    0.63
  -6   3 -10    4.06    0.55
   6  -3  10    5.25    0.79
   7   2 -10    2.88    0.44
   7   2 -10    1.75    0.42
   7   2 -10    1.61    0.36
   7   2 -10    1.96    0.45
  -7  -2  10    1.81    0.59
  -7  -2  10    1.59    0.45
   6   2 -10    3.46    0.42
   6   2 -10    4.48    0.53
   6   2 -10    4.20    0.49
   6   2 -10    4.68    0.55
  -6  -2  10    3.66    0.72
  -6  -2  10    3.61    0.49
  -6  -2  10    3.83    0.67
   5   2 -10    3.25    0.44
   5   2 -10    3.56    0.43
   5   2 -10    3.85    0.43
   5   2 -10    4.45    0.43
  -5  -2  10    3.47    0.39
  -5  -2  10    3.16    0.57
  -5  -2  10    3.26    0.44
   4   2 -10    0.39    0.33
   4   2 -10    0.93    0.21
   4   2 -10    0.61    0.22
   4   2 -10    0.68    0.22
   4   2 -10    0.84    0.24
  -4  -2  10    0.91    0.23
  -4  -2  10    1.43    0.46
   3   2 -10    4.61    0.47
   3   2 -10    4.87    0.40
   3   2 -10    5.03    0.39
   3   2 -10    4.11    0.37
   3   2 -10    5.27    0.62
   3   2 -10    4.65    0.50
   3   2 -10    5.02    0.50
   3   2 -10    4.96    0.36
  -3  -2  10    4.61    0.37
  -3  -2  10    5.41    0.69
   2   2 -10    2.34    0.40
   2   2 -10    2.51    0.30
   2   2 -10    2.84    0.36
   2   2 -10    2.93    0.31
   2   2 -10    2.59    0.26
   2   2 -10    2.86    0.29
   2   2 -10    2.28    0.31
   2   2 -10    2.54    0.32
  -2  -2  10    2.74    0.41
  -2  -2  10    3.19    0.34
  -2  -2  10    2.55    0.29
   1   2 -10    1.45    0.21
   1   2 -10    0.64    0.33
   1   2 -10    2.12    0.25
   1   2 -10    1.35    0.24
   1   2 -10    1.43    0.18
   1   2 -10    1.45    0.20
   1   2 -10    1.89    0.23
   1   2 -10    1.07    0.20
  -1  -2  10    1.44    0.26
  -1  -2  10    1.27    0.34
  -1  -2  10    1.29    0.29
  -1  -2  10    1.14    0.38
  -1  -2  10    1.52    0.22
   0   2 -10   16.14    0.63
   0   2 -10   15.72    0.70
   0   2 -10   15.05    0.67
   0   2 -10   15.79    0.69
   0   2 -10   15.01    0.66
   0   2 -10   15.91    0.69
   0  -2  10   16.04    0.74
   0  -2  10   15.41    0.76
   0  -2  10   15.21    0.84
   0  -2  10   16.02    0.69
   0  -2  10   16.81    1.00
  -1   2 -10    9.99    0.48
  -1   2 -10    9.39    0.54
  -1   2 -10    8.99    0.55
  -1   2 -10    9.99    0.55
  -1   2 -10    9.91    0.40
   1  -2  10   11.32    0.84
   1  -2  10   10.38    0.63
   1  -2  10   10.14    0.52
   1  -2  10   10.51    0.57
   1  -2  10    9.17    0.63
  -2   2 -10    7.96    0.49
  -2   2 -10    7.81    0.50
  -2   2 -10    8.30    0.47
  -2   2 -10    7.97    0.42
  -2   2 -10    8.07    0.54
   2  -2  10    8.42    0.82
   2  -2  10    6.35    0.68
   2  -2  10    8.33    0.56
  -3   2 -10    0.88    0.27
  -3   2 -10    1.62    0.24
  -3   2 -10    1.48    0.28
   3  -2  10    1.72    0.35
   3  -2  10    1.75    0.52
   3  -2  10    1.41    0.34
  -4   2 -10    8.78    0.53
  -4   2 -10    9.15    0.68
  -4   2 -10    8.85    0.61
   4  -2  10    8.29    0.97
   4  -2  10    6.30    0.62
  -5   2 -10    0.55    0.28
  -5   2 -10   -0.48    0.32
  -5   2 -10    0.48    0.38
   5  -2  10    0.20    0.35
   5  -2  10    0.95    0.57
  -6   2 -10    2.35    0.54
  -6   2 -10    2.68    0.44
  -6   2 -10    3.43    0.52
   6  -2  10    2.14    0.48
   7   1 -10    2.41    0.34
   7   1 -10    1.88    0.38
   7   1 -10    2.31    0.41
   7   1 -10    1.69    0.41
  -7  -1  10    2.07    0.50
  -7  -1  10    0.92    0.57
  -7  -1  10    2.43    0.44
   6   1 -10    0.44    0.31
   6   1 -10    1.13    0.30
   6   1 -10    1.38    0.33
   6   1 -10    0.73    0.26
  -6  -1  10    0.81    0.32
  -6  -1  10    0.83    0.40
   5   1 -10   -0.08    0.22
   5   1 -10    0.20    0.19
   5   1 -10    0.22    0.24
   5   1 -10   -0.09    0.18
  -5  -1  10    0.38    0.33
  -5  -1  10    0.08    0.25
   4   1 -10    3.98    0.41
   4   1 -10    4.21    0.39
   4   1 -10    4.52    0.39
   4   1 -10    5.14    0.57
   4   1 -10    3.98    0.41
   4   1 -10    4.08    0.38
  -4  -1  10    4.67    0.41
  -4  -1  10    5.60    0.59
  -4  -1  10    4.08    0.49
   3   1 -10    1.58    0.23
   3   1 -10    1.34    0.20
   3   1 -10    1.30    0.30
   3   1 -10    1.09    0.23
   3   1 -10    1.59    0.31
   3   1 -10    1.22    0.21
   3   1 -10    1.24    0.24
   3   1 -10    1.51    0.28
  -3  -1  10    1.68    0.25
  -3  -1  10    1.29    0.26
   2   1 -10    2.54    0.26
   2   1 -10    3.20    0.38
   2   1 -10    2.36    0.28
   2   1 -10    2.36    0.36
   2   1 -10    2.45    0.29
   2   1 -10    2.80    0.36
   2   1 -10    2.37    0.28
   2   1 -10    2.03    0.33
  -2  -1  10    2.39    0.31
  -2  -1  10    2.48    0.37
  -2  -1  10    2.33    0.30
   1   1 -10    0.79    0.19
   1   1 -10    0.59    0.15
   1   1 -10    0.82    0.21
   1   1 -10    0.62    0.33
   1   1 -10    0.57    0.17
   1   1 -10    0.90    0.20
   1   1 -10    0.70    0.20
  -1  -1  10    0.81    0.20
  -1  -1  10    0.69    0.28
  -1  -1  10    0.99    0.27
  -1  -1  10    1.08    0.39
   0   1 -10   12.95    0.57
   0   1 -10   11.25    0.57
   0   1 -10   11.85    0.50
   0   1 -10   12.19    0.62
   0   1 -10   12.15    0.61
   0   1 -10   12.81    0.59
   0  -1  10   12.40    0.60
   0  -1  10   11.84    0.73
   0  -1  10   12.21    0.69
   0  -1  10   12.42    0.65
   0  -1  10   13.01    0.90
  -1   1 -10    2.81    0.29
  -1   1 -10    2.59    0.30
  -1   1 -10    2.27    0.31
  -1   1 -10    2.16    0.28
   1  -1  10    2.88    0.37
   1  -1  10    1.96    0.36
   1  -1  10    2.45    0.38
   1  -1  10    2.13    0.49
  -2   1 -10   10.48    0.53
  -2   1 -10    9.72    0.63
  -2   1 -10   10.28    0.60
  -2   1 -10    8.43    0.48
   2  -1  10    9.45    0.83
   2  -1  10    7.61    0.90
   2  -1  10   10.42    0.62
  -3   1 -10    3.82    0.49
  -3   1 -10    3.86    0.39
  -3   1 -10    3.18    0.41
   3  -1  10    3.71    0.46
   3  -1  10    3.57    0.45
   3  -1  10    3.70    0.60
  -4   1 -10    0.43    0.26
  -4   1 -10    1.92    0.38
  -4   1 -10    1.30    0.37
   4  -1  10    1.20    0.54
   4  -1  10    0.96    0.32
  -5   1 -10    1.77    0.43
  -5   1 -10    1.29    0.36
  -5   1 -10    1.36    0.44
   5  -1  10    1.17    0.36
   7   0 -10    1.47    0.29
   7   0 -10    0.72    0.36
   7   0 -10    1.03    0.37
   7   0 -10    1.34    0.37
  -7   0  10    1.45    0.46
  -7   0  10    1.47    0.36
   6   0 -10    3.22    0.41
   6   0 -10    2.80    0.38
   6   0 -10    2.86    0.34
   6   0 -10    2.77    0.38
  -6   0  10    3.17    0.39
  -6   0  10    3.32    0.48
   5   0 -10    2.16    0.28
   5   0 -10    2.17    0.32
   5   0 -10    1.98    0.30
   5   0 -10    2.32    0.33
  -5   0  10    2.14    0.35
  -5   0  10    1.59    0.65
  -5   0  10    2.48    0.33
   4   0 -10    1.76    0.27
   4   0 -10    1.60    0.25
   4   0 -10    1.67    0.27
   4   0 -10    1.87    0.40
   4   0 -10    1.89    0.26
  -4   0  10    1.76    0.27
  -4   0  10    2.08    0.40
  -4   0  10    1.40    0.25
   3   0 -10    1.09    0.20
   3   0 -10    1.17    0.30
   3   0 -10    0.64    0.18
   3   0 -10    0.95    0.25
   3   0 -10    0.52    0.26
   3   0 -10    0.91    0.21
   3   0 -10    1.05    0.20
  -3   0  10    1.45    0.23
  -3   0  10    0.80    0.30
  -3   0  10    0.99    0.25
   2   0 -10    0.16    0.22
   2   0 -10    0.71    0.20
   2   0 -10    0.71    0.17
   2   0 -10    0.42    0.25
   2   0 -10    0.70    0.16
   2   0 -10    0.63    0.19
   2   0 -10    0.87    0.28
  -2   0  10    0.51    0.20
  -2   0  10    0.54    0.22
  -2   0  10    0.82    0.25
   1   0 -10   10.31    0.57
   1   0 -10   10.59    0.53
   1   0 -10   11.10    0.48
   1   0 -10    9.95    0.55
   1   0 -10    9.21    0.68
   1   0 -10   10.26    0.56
   1   0 -10   10.26    0.56
  -1   0  10   10.70    0.56
  -1   0  10    9.97    0.62
  -1   0  10   10.04    0.60
  -1   0  10   10.88    0.62
   0   0 -10    2.14    0.25
   0   0 -10    1.64    0.24
   0   0 -10    2.45    0.32
   0   0 -10    2.53    0.31
   0   0 -10    2.04    0.30
   0   0  10    1.94    0.29
   0   0  10    2.29    0.32
   0   0  10    2.39    0.35
   0   0  10    2.22    0.31
  -1   0 -10    5.57    0.40
  -1   0 -10    5.00    0.49
  -1   0 -10    5.51    0.41
  -1   0 -10    6.06    0.53
  -1   0 -10    6.15    0.41
   1   0  10    5.64    0.50
   1   0  10    5.75    0.49
   1   0  10    5.37    0.50
   1   0  10    5.14    0.72
   1   0  10    6.05    0.63
  -2   0 -10    1.22    0.32
  -2   0 -10    0.67    0.30
  -2   0 -10    1.02    0.23
   2   0  10    1.37    0.46
   2   0  10    1.13    0.32
   2   0  10    1.25    0.28
  -3   0 -10    2.44    0.40
  -3   0 -10    2.07    0.42
  -3   0 -10    3.05    0.36
   3   0  10    2.57    0.55
   3   0  10    2.43    0.44
   3   0  10    2.65    0.41
  -4   0 -10    0.75    0.29
  -4   0 -10    0.37    0.36
  -4   0 -10    1.21    0.40
   4   0  10    0.74    0.56
   4   0  10    2.07    0.49
   4   0  10    0.57    0.32
  -5   0 -10    3.54    0.49
  -5   0 -10    3.83    0.57
  -5   0 -10    2.73    0.56
   5   0  10    2.49    0.45
   7  -1 -10    2.30    0.40
   7  -1 -10    1.62    0.41
   7  -1 -10    2.40    0.32
   7  -1 -10    2.61    0.43
  -7   1  10    1.46    0.46
  -7   1  10    2.07    0.37
   6  -1 -10    2.91    0.39
   6  -1 -10    2.58    0.31
   6  -1 -10    2.68    0.36
   6  -1 -10    2.11    0.34
  -6   1  10    2.92    0.39
  -6   1  10    2.24    0.47
  -6   1  10    2.49    0.69
   5  -1 -10    0.44    0.24
   5  -1 -10    0.34    0.23
   5  -1 -10    0.33    0.21
   5  -1 -10    0.46    0.25
   5  -1 -10    0.32    0.21
  -5   1  10    0.60    0.26
  -5   1  10    0.57    0.35
   4  -1 -10    1.33    0.27
   4  -1 -10    1.26    0.23
   4  -1 -10    1.50    0.26
   4  -1 -10    1.54    0.21
   4  -1 -10    1.26    0.27
  -4   1  10    0.94    0.24
  -4   1  10    0.99    0.37
  -4   1  10    1.35    0.25
   3  -1 -10    3.21    0.33
   3  -1 -10    4.20    0.40
   3  -1 -10    3.64    0.33
   3  -1 -10    3.29    0.41
   3  -1 -10    3.14    0.24
   3  -1 -10    3.35    0.41
   3  -1 -10    3.11    0.38
   3  -1 -10    3.82    0.39
  -3   1  10    3.62    0.38
  -3   1  10    3.68    0.39
  -3   1  10    3.51    0.40
  -3   1  10    3.22    0.47
   2  -1 -10    1.15    0.22
   2  -1 -10    0.77    0.26
   2  -1 -10    0.88    0.18
   2  -1 -10    0.51    0.24
   2  -1 -10    0.72    0.23
   2  -1 -10    0.47    0.20
  -2   1  10    0.95    0.23
  -2   1  10    0.67    0.21
  -2   1  10    0.85    0.27
   1  -1 -10   13.39    0.70
   1  -1 -10   15.94    0.75
   1  -1 -10   14.81    0.76
   1  -1 -10   15.59    0.70
  -1   1  10   15.59    0.74
  -1   1  10   14.53    0.75
  -1   1  10   16.20    0.75
   0  -1 -10    1.26    0.24
   0  -1 -10    1.54    0.31
   0  -1 -10    1.72    0.26
   0  -1 -10    1.66    0.31
   0   1  10    1.21    0.30
   0   1  10    1.21    0.37
   0   1  10    1.14    0.26
   0   1  10    1.34    0.28
  -1  -1 -10    0.43    0.28
  -1  -1 -10    1.34    0.33
  -1  -1 -10    0.10    0.21
  -1  -1 -10    1.16    0.23
   1   1  10    0.69    0.30
   1   1  10    0.98    0.40
   1   1  10    0.24    0.20
  -2  -1 -10    0.90    0.34
  -2  -1 -10    0.87    0.27
  -2  -1 -10    0.68    0.34
   2   1  10    0.37    0.25
   2   1  10   -0.02    0.44
   2   1  10    0.38    0.33
  -3  -1 -10    0.63    0.36
  -3  -1 -10    0.94    0.41
  -3  -1 -10    0.89    0.27
   3   1  10    1.36    0.30
   3   1  10    0.51    0.50
   3   1  10    0.97    0.42
  -4  -1 -10    3.11    0.51
  -4  -1 -10    3.86    0.59
  -4  -1 -10    3.13    0.44
   4   1  10    3.38    0.71
   4   1  10    2.91    0.48
   4   1  10    3.14    0.61
  -5  -1 -10    6.51    0.74
  -5  -1 -10    5.35    0.75
  -5  -1 -10    4.20    0.67
   5   1  10    5.56    0.67
   7  -2 -10    0.19    0.24
   7  -2 -10    0.46    0.37
   7  -2 -10    0.61    0.36
   7  -2 -10    0.62    0.34
   7  -2 -10    0.14    0.33
  -7   2  10    0.55    0.45
  -7   2  10    0.36    0.31
   6  -2 -10    1.62    0.33
   6  -2 -10    1.33    0.26
   6  -2 -10    0.88    0.32
   6  -2 -10    1.20    0.32
   6  -2 -10    1.51    0.33
  -6   2  10    2.04    0.34
  -6   2  10    1.31    0.39
  -6   2  10    1.20    0.35
   5  -2 -10    4.44    0.47
   5  -2 -10    4.98    0.44
   5  -2 -10    5.60    0.50
   5  -2 -10    5.24    0.48
   5  -2 -10    5.36    0.40
  -5   2  10    5.21    0.70
  -5   2  10    5.36    0.46
  -5   2  10    6.18    0.56
   4  -2 -10    0.46    0.16
   4  -2 -10    0.43    0.19
   4  -2 -10    0.62    0.20
   4  -2 -10    0.48    0.26
   4  -2 -10    0.14    0.22
  -4   2  10    0.63    0.26
  -4   2  10    0.69    0.39
  -4   2  10    0.41    0.22
   3  -2 -10    0.94    0.37
   3  -2 -10    0.52    0.18
   3  -2 -10    0.56    0.21
   3  -2 -10    1.40    0.28
   3  -2 -10    0.49    0.31
   3  -2 -10    0.27    0.19
  -3   2  10    0.59    0.20
  -3   2  10    0.78    0.25
  -3   2  10    0.80    0.25
  -3   2  10    0.64    0.37
   2  -2 -10    1.72    0.31
   2  -2 -10    1.91    0.26
   2  -2 -10    1.88    0.31
   2  -2 -10    2.00    0.29
  -2   2  10    1.93    0.28
  -2   2  10    1.52    0.29
  -2   2  10    2.05    0.33
   1  -2 -10   10.03    0.56
   1  -2 -10   10.70    0.65
   1  -2 -10   10.05    0.62
   1  -2 -10    8.83    0.63
  -1   2  10   10.63    0.61
  -1   2  10    9.47    0.62
  -1   2  10   10.26    0.57
  -1   2  10    9.70    0.65
   0  -2 -10    0.81    0.23
   0  -2 -10    0.57    0.29
   0  -2 -10    0.83    0.31
   0   2  10    0.56    0.21
   0   2  10   -0.08    0.26
   0   2  10    0.46    0.30
  -1  -2 -10    0.68    0.36
  -1  -2 -10    0.97    0.26
  -1  -2 -10    1.15    0.34
   1   2  10    1.02    0.34
   1   2  10    0.15    0.35
   1   2  10    0.68    0.24
  -2  -2 -10    3.43    0.52
  -2  -2 -10    3.85    0.50
  -2  -2 -10    4.64    0.56
   2   2  10    3.96    0.44
   2   2  10    3.65    0.49
   2   2  10    3.46    0.62
  -3  -2 -10    2.50    0.41
  -3  -2 -10    2.40    0.50
  -3  -2 -10    1.70    0.44
   3   2  10    2.31    0.59
   3   2  10    2.40    0.48
   3   2  10    2.61    0.39
  -4  -2 -10    0.49    0.49
  -4  -2 -10    1.03    0.53
  -4  -2 -10    1.29    0.43
   4   2  10    1.00    0.57
   4   2  10    1.26    0.35
   7  -3 -10    3.62    0.49
   7  -3 -10    6.55    0.62
   7  -3 -10    4.71    0.58
   7  -3 -10    5.26    0.51
   7  -3 -10    5.36    0.62
  -7   3  10    5.19    0.56
  -7   3  10    3.81    0.63
  -7   3  10    5.52    0.70
   6  -3 -10    2.04    0.30
   6  -3 -10    2.86    0.35
   6  -3 -10    1.70    0.32
   6  -3 -10    1.50    0.33
   6  -3 -10    2.04    0.38
  -6   3  10    2.29    0.33
  -6   3  10    1.75    0.47
  -6   3  10    2.39    0.40
   5  -3 -10    4.16    0.45
   5  -3 -10    3.80    0.42
   5  -3 -10    3.66    0.51
   5  -3 -10    4.57    0.51
   5  -3 -10    4.38    0.37
  -5   3  10    4.51    0.50
  -5   3  10    4.26    0.47
  -5   3  10    3.60    0.53
   4  -3 -10    0.38    0.16
   4  -3 -10    0.50    0.26
   4  -3 -10    0.42    0.24
   4  -3 -10   -0.02    0.20
  -4   3  10    0.33    0.25
  -4   3  10    0.36    0.26
  -4   3  10    0.19    0.36
   3  -3 -10    2.96    0.36
   3  -3 -10    3.34    0.40
   3  -3 -10    3.05    0.38
  -3   3  10    3.36    0.42
  -3   3  10    2.76    0.32
  -3   3  10    3.45    0.51
  -3   3  10    3.04    0.42
   2  -3 -10   16.34    0.87
   2  -3 -10   16.99    0.81
   2  -3 -10   17.97    0.89
  -2   3  10   17.29    0.89
  -2   3  10   16.23    0.75
  -2   3  10   16.49    0.90
   1  -3 -10    1.08    0.30
   1  -3 -10    1.22    0.34
   1  -3 -10    1.15    0.27
  -1   3  10    1.54    0.26
  -1   3  10    1.52    0.35
  -1   3  10    1.37    0.30
   0  -3 -10    4.38    0.52
   0  -3 -10    4.40    0.57
   0  -3 -10    5.03    0.50
   0   3  10    4.74    0.42
   0   3  10    5.50    0.69
  -1  -3 -10    1.38    0.39
  -1  -3 -10    1.46    0.42
  -1  -3 -10    1.82    0.36
   1   3  10    1.24    0.39
  -2  -3 -10    6.66    0.85
  -2  -3 -10    7.42    0.81
  -2  -3 -10    5.94    0.63
   2   3  10    7.32    0.75
   2   3  10    7.90    0.56
  -3  -3 -10    2.35    0.55
  -3  -3 -10    2.59    0.45
  -3  -3 -10    2.50    0.56
   3   3  10    4.42    0.65
  -4  -3 -10    0.81    0.48
   7  -4 -10    0.28    0.40
   7  -4 -10    0.11    0.29
   7  -4 -10   -0.56    0.37
   7  -4 -10    0.81    0.35
   7  -4 -10   -0.63    0.31
  -7   4  10   -0.13    0.38
  -7   4  10    0.22    0.33
  -7   4  10    0.06    0.49
   6  -4 -10    3.95    0.47
   6  -4 -10    2.61    0.45
   6  -4 -10    2.69    0.35
   6  -4 -10    3.53    0.43
  -6   4  10    2.89    0.44
  -6   4  10    3.96    0.47
  -6   4  10    2.57    0.59
   5  -4 -10    1.45    0.37
   5  -4 -10    1.74    0.31
   5  -4 -10    2.24    0.39
   5  -4 -10    1.55    0.29
  -5   4  10    1.35    0.35
  -5   4  10    1.59    0.40
  -5   4  10    2.08    0.48
   4  -4 -10    1.20    0.29
   4  -4 -10    0.86    0.32
   4  -4 -10    0.85    0.31
  -4   4  10    1.25    0.36
  -4   4  10    1.20    0.31
  -4   4  10    1.08    0.46
   3  -4 -10    0.86    0.32
   3  -4 -10    0.94    0.27
   3  -4 -10    0.83    0.33
  -3   4  10    1.27    0.36
  -3   4  10    1.15    0.32
  -3   4  10    1.73    0.46
   2  -4 -10    9.61    0.75
   2  -4 -10    9.64    0.75
   2  -4 -10   11.22    0.67
  -2   4  10   11.28    0.69
  -2   4  10    9.32    0.54
  -2   4  10   10.41    0.76
   1  -4 -10    0.55    0.36
   1  -4 -10    0.30    0.35
   1  -4 -10    0.45    0.28
  -1   4  10    0.27    0.21
  -1   4  10    0.33    0.37
  -1   4  10    0.88    0.34
   0  -4 -10    0.37    0.27
   0  -4 -10   -0.34    0.38
   0  -4 -10    0.43    0.39
   0   4  10    0.39    0.23
   0   4  10    0.39    0.37
   0   4  10    1.59    0.46
  -1  -4 -10    9.63    0.87
  -1  -4 -10    8.82    0.91
  -1  -4 -10    8.14    0.72
   1   4  10    9.38    0.81
  -2  -4 -10    0.71    0.54
  -2  -4 -10    1.18    0.55
  -2  -4 -10    1.45    0.43
   2   4  10    1.89    0.52
  -3  -4 -10    3.62    0.53
  -3  -4 -10    5.15    0.72
  -3  -4 -10    5.02    0.68
   3   4  10    5.03    0.74
   6  -5 -10    0.96    0.42
   6  -5 -10    1.06    0.41
   6  -5 -10    0.56    0.32
  -6   5  10    0.67    0.34
  -6   5  10    1.13    0.54
  -6   5  10    0.81    0.37
   5  -5 -10    5.62    0.56
   5  -5 -10    5.40    0.69
   5  -5 -10    5.49    0.66
  -5   5  10    5.35    0.70
  -5   5  10    4.90    0.67
  -5   5  10    5.09    0.56
   4  -5 -10    4.99    0.66
   4  -5 -10    6.08    0.58
   4  -5 -10    4.54    0.54
  -4   5  10    5.44    0.70
  -4   5  10    5.38    0.58
  -4   5  10    5.89    0.72
   3  -5 -10    3.27    0.51
   3  -5 -10    2.81    0.41
   3  -5 -10    2.96    0.49
  -3   5  10    3.29    0.51
  -3   5  10    4.15    0.62
  -3   5  10    3.60    0.46
   2  -5 -10   -0.08    0.39
   2  -5 -10    0.56    0.39
   2  -5 -10    0.10    0.29
  -2   5  10    1.07    0.43
  -2   5  10    0.80    0.31
  -2   5  10    1.28    0.40
   1  -5 -10    0.95    0.42
   1  -5 -10    0.97    0.44
   1  -5 -10    0.79    0.34
  -1   5  10    1.16    0.38
  -1   5  10    1.82    0.50
  -1   5  10    1.37    0.26
   0  -5 -10    0.28    0.48
   0  -5 -10    0.21    0.36
   0  -5 -10    0.21    0.44
   0   5  10    0.01    0.38
   0   5  10    0.52    0.55
  -1  -5 -10   10.05    0.89
  -1  -5 -10    9.44    1.01
  -1  -5 -10   10.59    1.04
   1   5  10   10.09    0.87
  -2  -5 -10    4.60    0.90
  -2  -5 -10    5.39    0.64
  -2  -5 -10    6.42    0.87
   2   5  10    4.61    0.70
   6  -6 -10    0.90    0.51
   6  -6 -10    0.38    0.41
   5  -6 -10    0.79    0.39
   5  -6 -10    1.68    0.50
   5  -6 -10    0.36    0.44
  -5   6  10    0.61    0.39
  -5   6  10   -0.15    0.56
  -5   6  10    0.10    0.35
   4  -6 -10    0.72    0.46
   4  -6 -10    0.19    0.33
   4  -6 -10   -0.11    0.43
  -4   6  10    0.91    0.57
  -4   6  10   -0.01    0.34
  -4   6  10    0.27    0.44
   3  -6 -10    1.41    0.39
   3  -6 -10    0.42    0.44
   3  -6 -10    0.98    0.47
  -3   6  10    0.78    0.56
  -3   6  10    1.17    0.48
  -3   6  10    0.03    0.38
   2  -6 -10    4.76    0.66
   2  -6 -10    3.17    0.53
   2  -6 -10    3.46    0.61
  -2   6  10    5.47    0.67
  -2   6  10    4.09    0.61
   1  -6 -10    2.07    0.57
   1  -6 -10    2.31    0.49
   1  -6 -10    2.24    0.56
  -1   6  10    2.04    0.50
  -1   6  10    2.03    0.62
   0  -6 -10    1.84    0.60
   0  -6 -10    2.60    0.55
   0  -6 -10    1.20    0.60
   0   6  10    2.47    0.52
   3  -7 -10    5.07    0.68
   3  -7 -10    4.70    0.61
   3  -7 -10    3.60    0.73
  -3   7  10    2.77    0.56
  -3   7  10    3.53    1.10
  -3   7  10    4.15    0.69
   1   8 -11    0.65    0.36
   1   8 -11    1.35    0.41
  -1  -8  11    0.69    0.74
  -1  -8  11    1.69    0.65
   0   8 -11    3.04    0.39
   0   8 -11    3.11    0.46
   0  -8  11    3.47    0.80
  -1   8 -11    0.68    0.37
  -1   8 -11    1.43    0.31
   1  -8  11    1.10    0.73
  -2   8 -11    3.50    0.46
   2  -8  11    3.24    0.72
   2  -8  11    5.40    0.99
  -3   8 -11    3.12    0.52
  -3   8 -11    2.98    0.34
   3  -8  11    3.42    0.87
   3  -8  11    2.92    0.75
   3   7 -11    5.24    0.57
   3   7 -11    7.40    0.75
   3   7 -11    6.26    0.81
   3   7 -11    5.52    0.45
  -3  -7  11    8.73    1.27
   2   7 -11   10.81    0.77
   2   7 -11   11.99    0.82
   2   7 -11   11.94    0.52
  -2  -7  11   11.17    1.28
  -2  -7  11   10.75    1.05
   1   7 -11    0.89    0.30
   1   7 -11    0.69    0.34
   1   7 -11    0.41    0.14
  -1  -7  11    1.60    0.66
   0   7 -11    3.56    0.43
   0   7 -11    3.76    0.46
   0  -7  11    4.89    0.86
  -1   7 -11    4.65    0.56
  -1   7 -11    4.27    0.43
  -1   7 -11    4.73    0.44
   1  -7  11    4.96    0.85
   1  -7  11    5.13    0.77
  -2   7 -11    1.51    0.26
  -2   7 -11    1.62    0.39
   2  -7  11    1.24    0.70
   2  -7  11    0.74    0.48
  -3   7 -11    1.36    0.25
  -3   7 -11    1.33    0.45
   3  -7  11    1.32    0.53
   3  -7  11    1.67    0.76
  -4   7 -11    3.41    0.57
  -4   7 -11    2.40    0.41
   4  -7  11    2.10    0.84
   4  -7  11    3.62    0.68
   4   6 -11    2.49    0.45
   4   6 -11    0.99    0.23
   4   6 -11    1.48    0.45
   4   6 -11    1.75    0.34
  -4  -6  11    1.70    0.75
   3   6 -11    3.94    0.48
   3   6 -11    4.64    0.56
   3   6 -11    3.69    0.36
   3   6 -11    3.86    0.38
  -3  -6  11    3.15    0.74
   2   6 -11    2.02    0.35
   2   6 -11    1.92    0.36
   2   6 -11    2.15    0.27
  -2  -6  11    1.51    0.65
   1   6 -11    1.40    0.30
   1   6 -11    1.45    0.18
   1   6 -11    1.36    0.31
  -1  -6  11    1.67    0.61
   0   6 -11    3.32    0.44
   0   6 -11    3.09    0.39
   0   6 -11    2.75    0.25
   0  -6  11    2.26    0.65
   0  -6  11    2.18    0.54
  -1   6 -11    3.52    0.37
  -1   6 -11    3.34    0.41
   1  -6  11    3.71    0.75
   1  -6  11    3.41    0.55
  -2   6 -11    3.24    0.44
  -2   6 -11    2.23    0.27
   2  -6  11    2.67    0.72
   2  -6  11    2.63    0.57
  -3   6 -11   -0.05    0.37
  -3   6 -11    0.13    0.20
   3  -6  11    0.41    0.44
   3  -6  11    0.88    0.74
  -4   6 -11    3.07    0.54
  -4   6 -11    4.15    0.41
   4  -6  11    2.38    0.60
   4  -6  11    3.35    0.87
   5   5 -11    0.26    0.58
   5   5 -11    1.22    0.42
   5   5 -11    0.45    0.31
  -5  -5  11    0.38    0.66
   4   5 -11    0.86    0.35
   4   5 -11    0.40    0.24
   4   5 -11    0.45    0.31
   4   5 -11    0.91    0.25
  -4  -5  11   -0.40    0.61
   3   5 -11    4.77    0.38
   3   5 -11    4.49    0.38
   3   5 -11    3.99    0.54
   3   5 -11    4.29    0.52
  -3  -5  11    5.03    0.80
   2   5 -11    2.15    0.25
   2   5 -11    3.27    0.38
   2   5 -11    3.24    0.29
   2   5 -11    2.48    0.35
  -2  -5  11    2.23    0.62
   1   5 -11    1.13    0.32
   1   5 -11    0.89    0.24
   1   5 -11    1.32    0.18
   1   5 -11    1.77    0.24
  -1  -5  11    0.72    0.52
   0   5 -11    2.19    0.27
   0   5 -11    2.50    0.30
   0   5 -11    2.37    0.29
   0   5 -11    2.25    0.27
   0  -5  11    1.58    0.57
   0  -5  11    2.65    0.50
  -1   5 -11    2.69    0.30
  -1   5 -11    2.34    0.33
  -1   5 -11    3.33    0.34
  -1   5 -11    3.18    0.31
   1  -5  11    3.95    0.70
   1  -5  11    2.26    0.51
  -2   5 -11   -0.26    0.16
  -2   5 -11    0.08    0.14
   2  -5  11    0.03    0.36
   2  -5  11    0.04    0.52
  -3   5 -11    1.67    0.25
   3  -5  11    1.72    0.49
   3  -5  11    2.09    0.69
  -4   5 -11    3.20    0.37
  -4   5 -11    3.47    0.40
  -4   5 -11    3.42    0.57
   4  -5  11    3.12    0.82
   4  -5  11    2.54    0.56
  -5   5 -11    3.02    0.68
  -5   5 -11    4.37    0.46
   5  -5  11    2.80    0.90
   5  -5  11    3.29    0.61
   5   4 -11    4.16    0.49
   5   4 -11    3.68    0.51
   5   4 -11    4.88    0.63
   5   4 -11    4.64    0.51
  -5  -4  11    2.40    0.72
   4   4 -11    1.37    0.34
   4   4 -11    0.49    0.29
   4   4 -11    1.16    0.25
   4   4 -11    1.56    0.26
  -4  -4  11    0.95    0.56
   3   4 -11    0.58    0.20
   3   4 -11    0.41    0.23
   3   4 -11    0.87    0.27
  -3  -4  11    0.08    0.48
   2   4 -11    0.43    0.18
   2   4 -11    0.33    0.21
   2   4 -11    0.84    0.18
   2   4 -11    0.79    0.26
  -2  -4  11    0.00    0.47
   1   4 -11    0.68    0.21
   1   4 -11    0.49    0.19
   1   4 -11    0.81    0.20
   1   4 -11    0.53    0.34
   1   4 -11    0.70    0.16
  -1  -4  11    0.55    0.37
  -1  -4  11    0.38    0.42
   0   4 -11    5.52    0.40
   0   4 -11    5.13    0.38
   0   4 -11    4.72    0.40
   0   4 -11    5.20    0.36
   0   4 -11    5.34    0.36
   0  -4  11    4.18    0.63
   0  -4  11    4.36    0.72
  -1   4 -11    2.86    0.35
  -1   4 -11    3.48    0.31
  -1   4 -11    3.25    0.30
  -1   4 -11    3.76    0.34
  -1   4 -11    3.33    0.32
   1  -4  11    3.65    0.65
   1  -4  11    3.99    0.61
  -2   4 -11    0.46    0.16
  -2   4 -11    0.40    0.18
  -2   4 -11    0.24    0.20
  -2   4 -11    0.57    0.18
   2  -4  11    0.28    0.33
   2  -4  11   -0.01    0.52
  -3   4 -11    0.37    0.25
  -3   4 -11    0.42    0.18
  -3   4 -11    0.69    0.21
   3  -4  11    0.13    0.33
   3  -4  11   -0.36    0.53
  -4   4 -11    3.03    0.35
  -4   4 -11    4.83    0.51
  -4   4 -11    3.88    0.43
   4  -4  11    3.41    0.80
   4  -4  11    4.59    0.72
  -5   4 -11    1.99    0.31
  -5   4 -11    0.91    0.36
  -5   4 -11    0.83    0.31
   5  -4  11    2.06    0.80
   5  -4  11    1.19    0.48
   6   3 -11    6.61    0.63
   6   3 -11    5.32    0.59
   6   3 -11    4.55    0.61
   6   3 -11    4.95    0.68
  -6  -3  11    5.78    0.80
   5   3 -11    2.58    0.37
   5   3 -11    2.98    0.37
   5   3 -11    2.50    0.41
   5   3 -11    2.88    0.38
  -5  -3  11    4.26    0.72
   4   3 -11    0.70    0.23
   4   3 -11    1.23    0.29
   4   3 -11    0.95    0.29
   4   3 -11    1.58    0.27
  -4  -3  11    0.85    0.52
   3   3 -11    2.61    0.32
   3   3 -11    2.78    0.34
   3   3 -11    2.75    0.34
   3   3 -11    2.49    0.33
  -3  -3  11    2.92    0.38
  -3  -3  11    2.66    0.59
   2   3 -11    1.45    0.23
   2   3 -11    1.33    0.21
   2   3 -11    1.62    0.26
   2   3 -11    1.93    0.27
  -2  -3  11    1.55    0.49
  -2  -3  11    1.64    0.25
   1   3 -11    0.50    0.18
   1   3 -11    0.39    0.18
   1   3 -11    0.03    0.35
   1   3 -11    0.53    0.17
  -1  -3  11    0.21    0.30
  -1  -3  11    0.45    0.44
  -1  -3  11    0.33    0.20
   0   3 -11    0.52    0.19
   0   3 -11    0.54    0.20
   0   3 -11    0.27    0.18
   0   3 -11    0.53    0.17
   0  -3  11    0.56    0.32
   0  -3  11    0.18    0.45
  -1   3 -11    1.58    0.26
  -1   3 -11    1.69    0.27
  -1   3 -11    1.76    0.21
  -1   3 -11    1.55    0.22
  -1   3 -11    1.78    0.24
   1  -3  11    2.21    0.52
   1  -3  11    1.42    0.37
  -2   3 -11    0.73    0.26
  -2   3 -11    1.31    0.22
  -2   3 -11    1.03    0.29
   2  -3  11    1.27    0.56
   2  -3  11    1.03    0.35
  -3   3 -11    6.91    0.52
  -3   3 -11    7.78    0.58
  -3   3 -11    7.21    0.48
   3  -3  11    6.00    0.66
   3  -3  11    6.87    0.99
  -4   3 -11    6.22    0.56
  -4   3 -11    5.63    0.49
  -4   3 -11    6.55    0.63
   4  -3  11    5.26    0.84
   4  -3  11    5.46    0.72
  -5   3 -11    1.27    0.34
  -5   3 -11    0.71    0.41
  -5   3 -11    1.17    0.38
   5  -3  11    0.63    0.45
   5  -3  11    1.46    0.75
   6   2 -11    7.01    0.68
   6   2 -11    5.05    0.58
   6   2 -11    7.62    0.60
   6   2 -11    6.50    0.58
  -6  -2  11    5.87    0.59
  -6  -2  11    4.82    0.76
   5   2 -11   -0.11    0.28
   5   2 -11    0.40    0.25
   5   2 -11    0.32    0.25
   5   2 -11    0.39    0.27
  -5  -2  11    0.27    0.30
  -5  -2  11   -0.14    0.46
   4   2 -11    0.48    0.23
   4   2 -11    1.46    0.29
   4   2 -11    0.37    0.24
   4   2 -11    0.98    0.24
  -4  -2  11    1.40    0.49
  -4  -2  11    0.88    0.28
   3   2 -11    1.85    0.27
   3   2 -11    1.82    0.28
   3   2 -11    1.89    0.27
   3   2 -11    2.71    0.32
  -3  -2  11    1.67    0.28
  -3  -2  11    2.30    0.53
   2   2 -11    0.95    0.21
   2   2 -11    1.33    0.23
   2   2 -11    0.84    0.22
   2   2 -11    0.80    0.19
  -2  -2  11    0.86    0.34
  -2  -2  11    0.98    0.23
  -2  -2  11    1.09    0.44
   1   2 -11    0.87    0.19
   1   2 -11    0.43    0.17
   1   2 -11    0.36    0.21
   1   2 -11    0.59    0.19
  -1  -2  11    0.80    0.46
  -1  -2  11    0.93    0.31
  -1  -2  11    0.20    0.37
  -1  -2  11    0.90    0.24
   0   2 -11   11.87    0.60
   0   2 -11   11.81    0.62
   0   2 -11   12.63    0.62
   0   2 -11   11.98    0.52
   0  -2  11   11.77    0.62
   0  -2  11   11.33    0.79
   0  -2  11   12.22    0.98
  -1   2 -11    9.95    0.60
  -1   2 -11   10.41    0.60
  -1   2 -11    9.95    0.54
   1  -2  11   10.06    0.72
   1  -2  11   10.55    0.94
   1  -2  11   10.24    0.63
  -2   2 -11    3.71    0.36
  -2   2 -11    3.42    0.41
  -2   2 -11    2.72    0.35
   2  -2  11    2.37    0.59
   2  -2  11    3.09    0.45
  -3   2 -11    2.21    0.37
  -3   2 -11    2.35    0.36
  -3   2 -11    2.92    0.38
   3  -2  11    1.98    0.41
   3  -2  11    1.40    0.59
  -4   2 -11    5.59    0.59
  -4   2 -11    3.89    0.48
  -4   2 -11    4.59    0.56
   4  -2  11    4.88    0.68
   4  -2  11    5.17    0.80
  -5   2 -11   -0.27    0.43
  -5   2 -11    0.64    0.36
  -5   2 -11   -0.08    0.40
   5  -2  11    0.06    0.41
   7   1 -11    7.87    0.96
   7   1 -11    5.68    0.61
   6   1 -11    1.15    0.31
   6   1 -11    2.22    0.37
   6   1 -11    1.42    0.37
   6   1 -11    1.68    0.39
  -6  -1  11    1.12    0.58
  -6  -1  11    1.71    0.49
  -6  -1  11    1.84    0.38
   5   1 -11    0.44    0.27
   5   1 -11    0.69    0.29
   5   1 -11    0.75    0.25
   5   1 -11    1.22    0.29
  -5  -1  11    0.73    0.30
  -5  -1  11   -0.07    0.40
  -5  -1  11    0.52    0.48
   4   1 -11    1.39    0.26
   4   1 -11    1.49    0.30
   4   1 -11    1.41    0.25
   4   1 -11    1.18    0.27
  -4  -1  11    1.49    0.30
  -4  -1  11    0.34    0.44
   3   1 -11    1.98    0.27
   3   1 -11    2.33    0.28
   3   1 -11    2.55    0.32
   3   1 -11    2.41    0.31
  -3  -1  11    2.40    0.31
  -3  -1  11    2.00    0.52
   2   1 -11    0.84    0.20
   2   1 -11    0.68    0.23
   2   1 -11    1.05    0.21
   2   1 -11    1.05    0.23
  -2  -1  11    0.59    0.27
  -2  -1  11    0.63    0.42
  -2  -1  11    0.53    0.22
   1   1 -11    4.60    0.32
   1   1 -11    3.81    0.42
   1   1 -11    3.96    0.38
   1   1 -11    4.72    0.38
  -1  -1  11    3.75    0.42
  -1  -1  11    3.84    0.60
  -1  -1  11    5.06    0.54
  -1  -1  11    3.56    0.45
   0   1 -11   11.41    0.50
   0   1 -11   11.70    0.65
   0   1 -11   11.20    0.59
   0   1 -11   12.52    0.65
   0  -1  11   11.74    0.94
   0  -1  11   11.90    0.65
   0  -1  11   12.82    0.74
  -1   1 -11    4.80    0.50
  -1   1 -11    4.92    0.50
  -1   1 -11    5.17    0.41
   1  -1  11    5.16    0.54
   1  -1  11    5.65    0.52
   1  -1  11    5.41    0.82
  -2   1 -11    3.54    0.42
  -2   1 -11    3.85    0.47
  -2   1 -11    3.84    0.41
   2  -1  11    4.23    0.46
   2  -1  11    2.79    0.60
   2  -1  11    2.76    0.43
  -3   1 -11    0.20    0.23
  -3   1 -11    0.67    0.34
  -3   1 -11    0.27    0.34
   3  -1  11    0.53    0.32
   3  -1  11    0.29    0.56
  -4   1 -11    1.97    0.46
  -4   1 -11    2.08    0.36
  -4   1 -11    2.24    0.43
   4  -1  11    2.35    0.46
   4  -1  11    1.66    0.70
  -5   1 -11   -0.40    0.37
  -5   1 -11   -1.19    0.44
   5  -1  11   -0.09    0.39
   7   0 -11    0.68    0.35
   7   0 -11    0.39    0.29
   7   0 -11    0.39    0.39
   7   0 -11    1.31    0.65
  -7   0  11    0.87    0.39
  -7   0  11    0.12    0.51
   6   0 -11    0.33    0.31
   6   0 -11    1.10    0.27
   6   0 -11    0.63    0.32
   6   0 -11    0.26    0.29
  -6   0  11    0.36    0.47
  -6   0  11    0.39    0.30
   5   0 -11   -0.39    0.24
   5   0 -11   -0.19    0.25
   5   0 -11    0.48    0.25
   5   0 -11    0.07    0.23
  -5   0  11    0.30    0.40
   4   0 -11    1.30    0.25
   4   0 -11    0.91    0.26
   4   0 -11    1.23    0.24
   4   0 -11    0.74    0.23
  -4   0  11    0.51    0.40
  -4   0  11    0.96    0.27
   3   0 -11    1.29    0.17
   3   0 -11    1.27    0.26
   3   0 -11    1.45    0.25
   3   0 -11    1.53    0.27
  -3   0  11    1.53    0.28
  -3   0  11    1.44    0.33
   2   0 -11    0.60    0.23
   2   0 -11    0.30    0.20
   2   0 -11    0.29    0.17
   2   0 -11    0.24    0.17
  -2   0  11    0.58    0.24
  -2   0  11    0.34    0.25
   1   0 -11    9.13    0.59
   1   0 -11    8.41    0.56
   1   0 -11    8.82    0.45
   1   0 -11    8.53    0.51
  -1   0  11    9.25    0.64
  -1   0  11    9.01    0.58
  -1   0  11    9.12    1.02
   0   0 -11    9.12    0.62
   0   0 -11    8.74    0.63
   0   0 -11   10.34    0.55
   0   0  11   10.37    0.62
   0   0  11    9.87    0.66
   0   0  11    9.35    0.90
  -1   0 -11    0.53    0.29
  -1   0 -11    1.15    0.31
  -1   0 -11    0.90    0.23
   1   0  11    0.39    0.32
   1   0  11    0.74    0.49
   1   0  11    0.66    0.29
  -2   0 -11    0.56    0.34
  -2   0 -11   -0.04    0.32
  -2   0 -11    0.71    0.23
   2   0  11    0.39    0.35
   2   0  11    0.51    0.30
   2   0  11   -0.01    0.51
  -3   0 -11    6.18    0.68
  -3   0 -11    5.92    0.55
  -3   0 -11    6.13    0.74
   3   0  11    5.76    0.81
   3   0  11    6.52    0.59
  -4   0 -11   12.81    0.80
  -4   0 -11   12.99    0.93
  -4   0 -11   11.27    0.98
   4   0  11   10.21    0.82
   7  -1 -11    1.06    0.32
   7  -1 -11    0.82    0.40
   7  -1 -11    1.02    0.41
   7  -1 -11    0.92    0.46
   7  -1 -11    0.88    0.37
  -7   1  11    1.01    0.40
  -7   1  11    1.45    0.53
   6  -1 -11    1.69    0.32
   6  -1 -11    1.00    0.38
   6  -1 -11    1.05    0.33
   6  -1 -11    1.36    0.34
   6  -1 -11    1.27    0.34
  -6   1  11    1.60    0.33
  -6   1  11    1.78    0.51
   5  -1 -11    0.01    0.26
   5  -1 -11    0.18    0.25
   5  -1 -11    0.11    0.23
   5  -1 -11    0.10    0.24
   5  -1 -11   -0.38    0.24
  -5   1  11    0.30    0.40
  -5   1  11   -0.18    0.25
   4  -1 -11    0.91    0.18
   4  -1 -11    0.33    0.21
   4  -1 -11    0.53    0.26
   4  -1 -11    0.46    0.26
   4  -1 -11    0.84    0.24
  -4   1  11    1.31    0.44
  -4   1  11    0.70    0.28
   3  -1 -11    0.55    0.21
   3  -1 -11    1.11    0.24
   3  -1 -11    0.57    0.23
   3  -1 -11    0.85    0.27
  -3   1  11    1.34    0.30
  -3   1  11    0.73    0.27
   2  -1 -11    2.68    0.35
   2  -1 -11    2.44    0.32
   2  -1 -11    2.27    0.29
   2  -1 -11    2.61    0.31
  -2   1  11    2.81    0.37
  -2   1  11    2.33    0.35
   1  -1 -11   21.73    1.00
   1  -1 -11   22.33    0.92
   1  -1 -11   22.36    1.00
  -1   1  11   18.90    0.95
  -1   1  11   22.09    0.99
   0  -1 -11    5.01    0.45
   0  -1 -11    5.52    0.55
   0  -1 -11    4.75    0.56
   0   1  11    4.08    0.52
   0   1  11    5.49    0.51
  -1  -1 -11    0.82    0.35
  -1  -1 -11    1.27    0.38
  -1  -1 -11    0.56    0.24
   1   1  11    0.92    0.51
   1   1  11    1.11    0.31
   1   1  11    0.89    0.38
  -2  -1 -11    0.88    0.40
  -2  -1 -11    1.20    0.44
  -2  -1 -11    0.58    0.27
   2   1  11    1.00    0.41
   2   1  11    0.36    0.54
   2   1  11    0.72    0.30
  -3  -1 -11    1.95    0.52
  -3  -1 -11    1.57    0.39
  -3  -1 -11    2.22    0.52
   3   1  11    2.97    0.62
   3   1  11    2.19    0.73
   3   1  11    2.25    0.41
  -4  -1 -11    0.51    0.53
  -4  -1 -11    1.02    0.54
  -4  -1 -11    0.47    0.42
   4   1  11    0.13    0.34
   7  -2 -11    6.16    0.56
   7  -2 -11    5.04    0.66
   7  -2 -11    3.04    0.72
   7  -2 -11    4.25    0.51
  -7   2  11    5.60    0.73
  -7   2  11    5.33    0.66
   6  -2 -11    1.28    0.39
   6  -2 -11    1.12    0.34
   6  -2 -11    1.68    0.30
   6  -2 -11    0.90    0.30
  -6   2  11    1.10    0.47
  -6   2  11    0.98    0.34
   5  -2 -11    2.89    0.39
   5  -2 -11    2.28    0.33
   5  -2 -11    2.12    0.30
   5  -2 -11    2.57    0.41
  -5   2  11    2.31    0.56
  -5   2  11    2.19    0.38
   4  -2 -11    0.35    0.22
   4  -2 -11    0.25    0.27
   4  -2 -11    0.01    0.27
  -4   2  11    0.40    0.28
  -4   2  11    0.18    0.45
   3  -2 -11    0.47    0.25
   3  -2 -11    0.20    0.22
   3  -2 -11    0.14    0.28
  -3   2  11    0.22    0.36
  -3   2  11    0.09    0.23
   2  -2 -11    1.13    0.32
   2  -2 -11    0.92    0.32
   2  -2 -11    1.24    0.26
  -2   2  11    1.46    0.28
  -2   2  11    1.54    0.63
  -2   2  11    1.85    0.36
   1  -2 -11    1.93    0.36
   1  -2 -11    2.06    0.31
   1  -2 -11    1.76    0.36
  -1   2  11    2.14    0.32
  -1   2  11    1.72    0.37
   0  -2 -11    1.38    0.37
   0  -2 -11    0.91    0.27
   0  -2 -11    1.67    0.39
   0   2  11    1.49    0.38
   0   2  11    1.58    0.31
  -1  -2 -11    0.68    0.39
  -1  -2 -11    0.88    0.31
  -1  -2 -11    0.47    0.38
   1   2  11    0.31    0.43
   1   2  11    0.30    0.26
  -2  -2 -11    2.59    0.53
  -2  -2 -11    3.48    0.55
   2   2  11    2.08    0.39
   2   2  11    3.64    0.73
   2   2  11    2.41    0.53
  -3  -2 -11    3.59    0.49
  -3  -2 -11    2.83    0.60
  -3  -2 -11    1.85    0.56
   3   2  11    2.56    0.77
   3   2  11    2.81    0.45
   3   2  11    3.54    0.66
   6  -3 -11    0.65    0.35
   6  -3 -11    0.11    0.28
   6  -3 -11   -0.16    0.35
   6  -3 -11   -0.34    0.31
  -6   3  11    0.00    0.32
  -6   3  11   -1.07    0.46
   5  -3 -11    0.39    0.35
   5  -3 -11    0.53    0.28
   5  -3 -11    0.80    0.32
   5  -3 -11    0.50    0.27
  -5   3  11   -0.16    0.48
  -5   3  11    0.39    0.30
   4  -3 -11    0.44    0.29
   4  -3 -11    0.67    0.32
   4  -3 -11    0.65    0.27
  -4   3  11    1.10    0.44
  -4   3  11    1.04    0.31
   3  -3 -11    6.10    0.62
   3  -3 -11    7.54    0.63
   3  -3 -11    7.11    0.56
  -3   3  11    7.77    0.90
  -3   3  11    7.48    0.80
  -3   3  11    8.32    0.61
   2  -3 -11   24.68    1.06
   2  -3 -11   23.83    1.16
   2  -3 -11   22.07    1.12
  -2   3  11   22.56    1.00
  -2   3  11   25.04    1.11
   1  -3 -11    0.34    0.36
   1  -3 -11    0.95    0.28
   1  -3 -11    0.36    0.36
  -1   3  11    0.88    0.27
  -1   3  11    0.35    0.34
   0  -3 -11    2.01    0.46
   0  -3 -11    1.94    0.48
   0  -3 -11    2.49    0.39
   0   3  11    2.49    0.45
   0   3  11    2.25    0.36
  -1  -3 -11    3.60    0.58
  -1  -3 -11    3.33    0.45
  -1  -3 -11    3.55    0.58
   1   3  11    3.98    0.56
   1   3  11    2.73    0.40
  -2  -3 -11    2.60    0.47
  -2  -3 -11    2.36    0.57
  -2  -3 -11    2.67    0.62
   2   3  11    2.18    0.57
   2   3  11    2.69    0.41
   6  -4 -11    1.17    0.35
   6  -4 -11    1.31    0.46
   6  -4 -11    0.05    0.42
  -6   4  11    1.12    0.57
  -6   4  11    1.81    0.40
   5  -4 -11    0.47    0.40
   5  -4 -11    1.17    0.37
   5  -4 -11    1.31    0.32
  -5   4  11    0.55    0.35
  -5   4  11    0.84    0.57
   4  -4 -11    1.84    0.44
   4  -4 -11    3.20    0.48
   4  -4 -11    2.65    0.39
  -4   4  11    2.27    0.42
  -4   4  11    3.75    0.63
   3  -4 -11   11.18    0.82
   3  -4 -11   10.31    0.80
   3  -4 -11   10.96    0.72
  -3   4  11    7.75    0.99
  -3   4  11   13.26    0.78
   2  -4 -11    3.67    0.52
   2  -4 -11    3.55    0.49
   2  -4 -11    3.69    0.44
  -2   4  11    3.36    0.46
   1  -4 -11    0.42    0.34
   1  -4 -11    0.06    0.41
   1  -4 -11    0.03    0.39
  -1   4  11   -0.44    0.36
  -1   4  11   -0.14    0.25
   0  -4 -11    0.57    0.49
   0  -4 -11    0.41    0.37
   0  -4 -11    0.70    0.47
   0   4  11    0.31    0.42
   0   4  11   -0.08    0.28
  -1  -4 -11    4.14    0.67
  -1  -4 -11    3.29    0.61
  -1  -4 -11    3.89    0.54
   1   4  11    3.60    0.51
   1   4  11    2.99    0.56
   5  -5 -11    0.87    0.47
   5  -5 -11    1.59    0.38
   5  -5 -11    1.06    0.47
  -5   5  11    1.51    0.43
  -5   5  11    1.48    0.63
   4  -5 -11    6.23    0.80
   4  -5 -11    6.76    0.69
   4  -5 -11    6.09    0.76
  -4   5  11    6.99    0.73
  -4   5  11    8.49    1.02
   3  -5 -11    7.31    0.89
   3  -5 -11    8.10    0.75
   3  -5 -11    8.34    0.89
  -3   5  11    7.53    0.85
  -3   5  11    9.45    0.74
   2  -5 -11    1.98    0.52
   2  -5 -11    1.40    0.40
   2  -5 -11    1.72    0.54
  -2   5  11    2.15    0.44
   1  -5 -11    0.83    0.55
   1  -5 -11    1.03    0.44
   1  -5 -11    1.02    0.55
  -1   5  11    0.96    0.43
   0  -5 -11    1.54    0.61
   0  -5 -11    2.49    0.56
   0  -5 -11    1.69    0.64
   0   5  11    1.38    0.53
   0   5  11    1.45    0.34
   1   7 -12    0.07    0.37
   1   7 -12    0.31    0.33
  -1  -7  12    1.13    0.78
   0   7 -12    1.88    0.34
   0   7 -12    1.58    0.37
   0  -7  12    1.39    0.74
  -1   7 -12    7.17    0.55
   1  -7  12    6.24    0.90
   1  -7  12    7.62    1.07
  -2   7 -12    0.23    0.26
  -2   7 -12    0.94    0.45
   2  -7  12    0.72    0.61
   2  -7  12    0.23    0.78
   3   6 -12    9.31    0.81
   3   6 -12    9.32    0.55
   3   6 -12    9.70    0.55
  -3  -6  12    9.58    1.34
   2   6 -12    0.06    0.29
   2   6 -12   -0.21    0.35
   2   6 -12    0.19    0.19
  -2  -6  12   -0.49    0.64
   1   6 -12    0.28    0.32
   1   6 -12    0.68    0.29
   1   6 -12    0.82    0.20
  -1  -6  12   -0.67    0.64
   0   6 -12    2.39    0.36
   0   6 -12    1.67    0.30
   0   6 -12    1.98    0.28
   0  -6  12    2.75    0.63
   0  -6  12    2.23    0.75
  -1   6 -12   11.19    0.62
   1  -6  12    8.69    1.25
   1  -6  12    8.96    1.03
  -2   6 -12    0.92    0.24
   2  -6  12    0.09    0.73
   2  -6  12    0.56    0.52
  -3   6 -12    4.11    0.62
  -3   6 -12    4.06    0.45
   3  -6  12    5.08    1.03
   3  -6  12    3.86    0.69
   4   5 -12    3.68    0.39
   4   5 -12    4.39    0.54
  -4  -5  12    2.60    0.86
   3   5 -12    2.36    0.30
   3   5 -12    1.84    0.27
   3   5 -12    2.04    0.41
   3   5 -12    2.41    0.37
  -3  -5  12    2.05    0.69
   2   5 -12    0.54    0.20
   2   5 -12    0.26    0.22
   2   5 -12    0.74    0.31
   2   5 -12    0.10    0.26
  -2  -5  12    0.87    0.64
   1   5 -12    0.58    0.21
   1   5 -12    0.87    0.28
   1   5 -12    0.36    0.19
   1   5 -12    0.25    0.23
  -1  -5  12    0.34    0.63
   0   5 -12   14.01    0.69
   0   5 -12   13.25    0.67
   0   5 -12   13.65    0.62
   0  -5  12   13.88    1.07
   0  -5  12   12.47    1.28
  -1   5 -12    1.02    0.23
  -1   5 -12    1.64    0.24
   1  -5  12    1.42    0.47
   1  -5  12    0.59    0.64
  -2   5 -12    3.70    0.41
  -2   5 -12    4.64    0.39
   2  -5  12    3.33    0.82
   2  -5  12    3.68    0.64
  -3   5 -12    1.89    0.29
   3  -5  12    2.01    0.52
   3  -5  12    1.68    0.76
  -4   5 -12    0.46    0.26
  -4   5 -12    0.48    0.30
   4  -5  12    0.52    0.81
   4  -5  12    0.42    0.49
   4   4 -12    4.43    0.47
   4   4 -12    4.81    0.46
   4   4 -12    4.15    0.48
   4   4 -12    4.25    0.54
  -4  -4  12    3.12    0.75
   3   4 -12    0.06    0.28
   3   4 -12   -0.16    0.20
   3   4 -12    0.30    0.23
   3   4 -12    0.61    0.27
  -3  -4  12   -0.21    0.55
   2   4 -12    0.17    0.22
   2   4 -12    0.23    0.18
   2   4 -12    0.11    0.26
   2   4 -12    0.23    0.23
  -2  -4  12    0.98    0.59
   1   4 -12    1.11    0.25
   1   4 -12    1.12    0.25
   1   4 -12    0.89    0.25
   1   4 -12    0.77    0.23
  -1  -4  12    1.13    0.42
  -1  -4  12    1.18    0.55
   0   4 -12    6.99    0.47
   0   4 -12    6.72    0.44
   0   4 -12    5.76    0.63
   0   4 -12    6.90    0.48
   0  -4  12    5.99    0.78
   0  -4  12    6.19    0.86
  -1   4 -12    2.56    0.32
  -1   4 -12    2.89    0.37
  -1   4 -12    2.32    0.27
   1  -4  12    2.80    0.72
   1  -4  12    2.11    0.49
  -2   4 -12    2.75    0.33
  -2   4 -12    2.59    0.30
  -2   4 -12    2.28    0.26
   2  -4  12    3.17    0.75
   2  -4  12    3.29    0.57
  -3   4 -12    5.21    0.55
  -3   4 -12    5.36    0.48
   3  -4  12    5.65    0.79
   3  -4  12    4.87    0.89
  -4   4 -12    2.83    0.39
  -4   4 -12    2.27    0.41
   4  -4  12    2.44    0.85
   5   3 -12    4.30    0.53
   5   3 -12    4.31    0.52
   5   3 -12    3.98    0.52
   5   3 -12    4.22    0.49
  -5  -3  12    3.53    0.78
   4   3 -12    0.03    0.25
   4   3 -12    0.52    0.24
   4   3 -12    0.26    0.28
   4   3 -12   -0.25    0.29
  -4  -3  12    0.49    0.56
   3   3 -12    0.80    0.26
   3   3 -12    0.82    0.26
   3   3 -12    1.72    0.31
   3   3 -12    0.89    0.24
  -3  -3  12    1.21    0.57
   2   3 -12    0.51    0.24
   2   3 -12    0.85    0.21
   2   3 -12    0.53    0.23
   2   3 -12    1.03    0.26
  -2  -3  12    0.89    0.54
   1   3 -12    4.89    0.45
   1   3 -12    5.20    0.43
   1   3 -12    5.76    0.46
   1   3 -12    4.80    0.42
  -1  -3  12    5.82    0.90
  -1  -3  12    4.94    0.64
   0   3 -12    1.06    0.25
   0   3 -12    0.88    0.26
   0   3 -12    1.02    0.28
   0   3 -12    0.98    0.20
   0  -3  12    0.09    0.51
   0  -3  12    1.14    0.41
  -1   3 -12    0.56    0.27
  -1   3 -12    0.61    0.21
  -1   3 -12    1.00    0.28
   1  -3  12    0.50    0.56
   1  -3  12    0.72    0.40
  -2   3 -12    0.13    0.27
  -2   3 -12    0.63    0.28
  -2   3 -12    0.64    0.24
   2  -3  12    0.82    0.63
   2  -3  12   -0.10    0.33
  -3   3 -12    2.04    0.32
  -3   3 -12    1.61    0.34
  -3   3 -12    2.41    0.42
   3  -3  12    1.76    0.77
   3  -3  12    2.01    0.45
  -4   3 -12    0.45    0.36
  -4   3 -12    0.79    0.41
  -4   3 -12    0.34    0.30
   4  -3  12    0.28    0.45
   4  -3  12    0.76    0.76
   5   2 -12    6.25    0.58
   5   2 -12    6.16    0.61
   5   2 -12    6.66    0.57
   5   2 -12    5.43    0.56
  -5  -2  12    5.22    0.79
   4   2 -12    6.44    0.55
   4   2 -12    6.53    0.51
   4   2 -12    5.83    0.50
   4   2 -12    6.30    0.54
   3   2 -12    0.34    0.24
   3   2 -12    0.63    0.25
   3   2 -12    0.52    0.22
   3   2 -12    0.27    0.24
  -3  -2  12    0.37    0.54
   2   2 -12    0.48    0.24
   2   2 -12    0.68    0.24
   2   2 -12    0.64    0.24
   2   2 -12    0.32    0.21
  -2  -2  12    0.73    0.38
  -2  -2  12   -0.73    0.47
   1   2 -12    0.05    0.20
   1   2 -12   -0.37    0.18
   1   2 -12    0.04    0.24
   1   2 -12   -0.05    0.21
  -1  -2  12    0.37    0.51
  -1  -2  12   -0.12    0.33
   0   2 -12    1.80    0.32
   0   2 -12    2.38    0.28
   0   2 -12    2.70    0.37
   0   2 -12    2.17    0.34
   0  -2  12    2.23    0.46
   0  -2  12    2.25    0.64
  -1   2 -12    3.77    0.51
  -1   2 -12    2.84    0.38
  -1   2 -12    1.96    0.35
   1  -2  12    2.18    0.44
   1  -2  12    2.27    0.65
  -2   2 -12    5.30    0.58
  -2   2 -12    3.89    0.44
  -2   2 -12    3.07    0.42
   2  -2  12    3.39    0.72
   2  -2  12    3.66    0.62
  -3   2 -12    0.80    0.39
  -3   2 -12    0.26    0.27
  -3   2 -12    0.37    0.36
   3  -2  12    0.77    0.42
   3  -2  12    0.30    0.65
  -4   2 -12    1.44    0.35
  -4   2 -12    0.05    0.39
  -4   2 -12    1.21    0.52
   4  -2  12    0.81    0.75
   4  -2  12    1.48    0.48
   6   1 -12    3.84    0.69
   6   1 -12    2.76    0.46
   6   1 -12    3.90    0.49
   6   1 -12    3.48    0.45
  -6  -1  12    3.86    0.77
   5   1 -12    3.34    0.42
   5   1 -12    3.37    0.40
   5   1 -12    3.99    0.54
   5   1 -12    3.66    0.43
  -5  -1  12    3.27    0.70
  -5  -1  12    3.04    0.45
   4   1 -12    3.49    0.41
   4   1 -12    4.03    0.49
   4   1 -12    4.59    0.48
   4   1 -12    4.27    0.46
  -4  -1  12    4.27    0.52
  -4  -1  12    3.31    0.65
   3   1 -12    3.20    0.42
   3   1 -12    3.21    0.40
   3   1 -12    2.72    0.36
   3   1 -12    4.61    0.44
  -3  -1  12    3.15    0.37
  -3  -1  12    1.87    0.58
   2   1 -12    1.72    0.28
   2   1 -12    2.06    0.29
   2   1 -12    1.89    0.27
   2   1 -12    1.76    0.32
  -2  -1  12    1.77    0.58
  -2  -1  12    1.80    0.33
  -2  -1  12    1.72    0.42
   1   1 -12    4.54    0.43
   1   1 -12    5.22    0.50
   1   1 -12    5.38    0.37
   1   1 -12    5.59    0.49
  -1  -1  12    5.50    0.54
  -1  -1  12    5.85    0.85
  -1  -1  12    5.05    0.61
   0   1 -12    0.36    0.29
   0   1 -12    0.78    0.23
   0   1 -12    0.89    0.28
   0  -1  12    0.46    0.34
   0  -1  12    0.77    0.53
  -1   1 -12    0.93    0.33
  -1   1 -12    1.08    0.26
  -1   1 -12    0.83    0.35
   1  -1  12    0.58    0.59
   1  -1  12    1.36    0.36
  -2   1 -12    3.02    0.48
  -2   1 -12    1.82    0.39
  -2   1 -12    3.39    0.39
   2  -1  12    2.76    0.47
   2  -1  12    2.64    0.70
  -3   1 -12    2.80    0.49
  -3   1 -12    2.31    0.37
  -3   1 -12    2.53    0.47
   3  -1  12    2.71    0.50
   3  -1  12    3.31    0.80
   6   0 -12    0.46    0.34
   6   0 -12   -0.05    0.30
   6   0 -12    0.50    0.37
   6   0 -12    0.45    0.43
  -6   0  12    0.26    0.56
  -6   0  12   -0.70    0.36
   5   0 -12    7.93    0.65
   5   0 -12    7.52    0.62
   5   0 -12    7.88    0.63
   5   0 -12    7.93    0.63
  -5   0  12    8.09    0.65
  -5   0  12    9.62    0.98
   4   0 -12    0.44    0.28
   4   0 -12    0.61    0.27
   4   0 -12    0.37    0.27
   4   0 -12    0.58    0.27
  -4   0  12    0.44    0.30
   3   0 -12    0.51    0.23
   3   0 -12    0.30    0.22
   3   0 -12    0.16    0.24
   3   0 -12    0.41    0.27
  -3   0  12   -0.07    0.27
  -3   0  12   -0.04    0.31
   2   0 -12   -0.25    0.19
   2   0 -12   -0.02    0.27
   2   0 -12    0.26    0.22
   2   0 -12    0.22    0.25
  -2   0  12    0.37    0.31
  -2   0  12    0.51    0.30
   1   0 -12    4.67    0.53
   1   0 -12    5.45    0.55
   1   0 -12    4.93    0.46
  -1   0  12    4.62    0.62
  -1   0  12    4.51    0.72
  -1   0  12    4.77    0.53
   0   0 -12    2.51    0.32
   0   0 -12    3.23    0.42
   0   0 -12    2.53    0.40
   0   0  12    2.26    0.39
   0   0  12    3.28    0.44
   0   0  12    4.09    0.74
  -1   0 -12    2.60    0.46
  -1   0 -12    2.34    0.34
  -1   0 -12    2.91    0.45
   1   0  12    3.20    0.68
   1   0  12    2.69    0.45
  -2   0 -12    0.71    0.30
  -2   0 -12    1.56    0.45
  -2   0 -12    1.12    0.41
   2   0  12    1.12    0.38
   2   0  12    0.60    0.66
  -3   0 -12   -0.11    0.46
  -3   0 -12    0.65    0.35
  -3   0 -12   -0.08    0.46
   3   0  12   -0.80    0.68
   3   0  12   -0.23    0.37
   6  -1 -12    4.85    0.62
   6  -1 -12    4.18    0.51
   6  -1 -12    4.21    0.56
  -6   1  12    5.13    0.66
  -6   1  12    4.26    0.68
   5  -1 -12    7.61    0.67
   5  -1 -12    8.31    0.61
   5  -1 -12    7.92    0.60
   5  -1 -12    8.23    0.66
  -5   1  12    7.49    0.64
  -5   1  12    7.95    0.94
   4  -1 -12    2.43    0.35
   4  -1 -12    2.52    0.38
   4  -1 -12    3.40    0.46
   4  -1 -12    2.62    0.40
  -4   1  12    2.41    0.41
   3  -1 -12   -0.14    0.21
   3  -1 -12    0.42    0.30
   3  -1 -12    0.61    0.25
   3  -1 -12    0.46    0.28
  -3   1  12    0.23    0.30
   2  -1 -12    3.45    0.44
   2  -1 -12    3.55    0.45
   2  -1 -12    3.62    0.43
  -2   1  12    3.47    0.52
  -2   1  12    4.16    0.48
   1  -1 -12    2.22    0.33
   1  -1 -12    1.90    0.38
   1  -1 -12    1.86    0.37
  -1   1  12    2.93    0.49
  -1   1  12    2.24    0.42
   0  -1 -12    0.51    0.26
   0  -1 -12    1.40    0.39
   0  -1 -12    1.12    0.38
   0   1  12    0.77    0.33
   0   1  12    0.46    0.38
  -1  -1 -12   -0.05    0.40
  -1  -1 -12    0.17    0.27
  -1  -1 -12    0.25    0.42
   1   1  12    0.92    0.46
   1   1  12   -1.21    0.59
   1   1  12    0.17    0.32
  -2  -1 -12    1.12    0.51
  -2  -1 -12    2.62    0.40
  -2  -1 -12    1.74    0.51
   2   1  12    2.50    0.75
   2   1  12    1.51    0.42
  -3  -1 -12    0.55    0.43
   3   1  12    2.62    0.82
   6  -2 -12    0.47    0.32
   6  -2 -12    0.29    0.37
  -6   2  12   -0.13    0.58
   5  -2 -12    0.63    0.36
   5  -2 -12    0.08    0.36
   5  -2 -12    0.45    0.30
   5  -2 -12    0.58    0.29
  -5   2  12   -0.25    0.51
  -5   2  12    0.43    0.37
   4  -2 -12    0.38    0.28
   4  -2 -12   -0.15    0.26
   4  -2 -12    0.67    0.36
   4  -2 -12    0.28    0.25
  -4   2  12   -0.30    0.33
  -4   2  12    1.13    0.52
   3  -2 -12    0.25    0.35
   3  -2 -12    0.06    0.27
   3  -2 -12    0.11    0.32
  -3   2  12    0.38    0.33
   2  -2 -12   11.60    0.81
   2  -2 -12   11.69    0.70
   2  -2 -12   12.77    0.83
  -2   2  12   10.51    0.71
  -2   2  12   10.32    0.75
   1  -2 -12    5.69    0.68
   1  -2 -12    4.58    0.55
   1  -2 -12    5.39    0.57
  -1   2  12    5.35    0.67
  -1   2  12    4.43    0.57
   0  -2 -12    0.42    0.40
   0  -2 -12    0.71    0.45
   0  -2 -12    0.54    0.29
   0   2  12    0.36    0.33
   0   2  12    0.40    0.42
  -1  -2 -12    4.62    0.62
  -1  -2 -12    2.90    0.55
  -1  -2 -12    3.47    0.48
   1   2  12    3.67    0.58
   1   2  12    3.44    0.76
   1   2  12    3.59    0.59
  -2  -2 -12    0.62    0.38
  -2  -2 -12    0.28    0.53
  -2  -2 -12   -0.22    0.52
   2   2  12    0.29    0.35
   2   2  12    0.79    0.75
   5  -3 -12    1.23    0.35
   5  -3 -12    0.43    0.42
   5  -3 -12    1.75    0.42
  -5   3  12    0.38    0.61
  -5   3  12    0.83    0.41
   4  -3 -12    0.36    0.38
   4  -3 -12    1.01    0.34
   4  -3 -12    0.92    0.37
  -4   3  12    0.66    0.39
  -4   3  12    2.07    0.62
   3  -3 -12    0.49    0.39
   3  -3 -12    0.90    0.40
   3  -3 -12   -0.23    0.31
  -3   3  12    0.45    0.36
   2  -3 -12    9.66    0.69
   2  -3 -12    9.82    0.81
   2  -3 -12    9.78    0.85
  -2   3  12   10.07    0.77
   1  -3 -12    2.66    0.42
   1  -3 -12    2.22    0.51
   1  -3 -12    2.00    0.50
  -1   3  12    1.11    0.45
  -1   3  12    2.38    0.38
   0  -3 -12    0.54    0.48
   0  -3 -12    1.46    0.42
   0  -3 -12    2.38    0.59
   0   3  12    1.95    0.40
  -1  -3 -12    0.43    0.52
  -1  -3 -12    0.01    0.68
  -1  -3 -12    0.28    0.42
   1   3  12    0.50    0.35
   1   3  12    1.53    0.59
   4  -4 -12    1.88    0.50
   4  -4 -12    1.40    0.39
  -4   4  12    1.64    0.45
  -4   4  12    2.17    0.68
   3  -4 -12    2.11    0.51
   3  -4 -12    2.56    0.56
   3  -4 -12    3.06    0.45
  -3   4  12    3.30    0.53
   2  -4 -12    0.70    0.48
   2  -4 -12    1.74    0.51
   2  -4 -12    0.25    0.38
  -2   4  12    1.03    0.47
   1  -4 -12    0.19    0.49
   1  -4 -12   -0.49    0.37
   1  -4 -12   -0.33    0.49
  -1   4  12    1.18    0.49
   2   5 -13    0.98    0.27
   2   5 -13    1.25    0.38
   2   5 -13    2.15    0.41
   2   5 -13    1.49    0.29
  -2  -5  13    1.42    0.75
   1   5 -13    1.07    0.28
   1   5 -13    1.68    0.33
   1   5 -13    1.22    0.32
  -1  -5  13    0.61    0.77
   0   5 -13    2.65    0.33
   0   5 -13    2.28    0.35
   0  -5  13    2.48    0.61
   0  -5  13    3.20    0.88
  -1   5 -13    0.56    0.27
  -1   5 -13    0.91    0.27
   1  -5  13   -0.07    0.52
   1  -5  13    1.18    0.79
  -2   5 -13    0.27    0.28
   2  -5  13    0.89    0.54
   2  -5  13    1.78    0.82
   3   4 -13    5.34    0.51
   3   4 -13    4.71    0.63
   3   4 -13    3.89    0.51
   3   4 -13    5.28    0.54
  -3  -4  13    4.04    0.86
   2   4 -13    0.15    0.32
   2   4 -13    0.50    0.23
   2   4 -13    0.80    0.29
   2   4 -13    1.08    0.31
  -2  -4  13    1.14    0.71
   1   4 -13    1.79    0.31
   1   4 -13    1.60    0.31
   1   4 -13    1.57    0.31
   1   4 -13    2.07    0.34
  -1  -4  13    2.65    0.62
  -1  -4  13    1.28    0.75
   0   4 -13    2.31    0.34
   0   4 -13    2.58    0.33
   0   4 -13    2.40    0.33
   0  -4  13    1.63    0.51
   0  -4  13    2.42    0.76
  -1   4 -13    2.56    0.35
  -1   4 -13    2.50    0.31
   1  -4  13    2.74    0.79
   1  -4  13    2.75    0.61
  -2   4 -13    0.56    0.29
  -2   4 -13   -0.43    0.31
   2  -4  13    0.22    0.49
   2  -4  13    0.82    0.76
   4   3 -13    6.86    0.67
   4   3 -13    6.87    0.60
  -4  -3  13    3.84    0.87
   3   3 -13    1.56    0.36
   3   3 -13    1.67    0.34
   3   3 -13    1.46    0.33
   3   3 -13    1.60    0.31
  -3  -3  13    1.95    0.69
   2   3 -13    0.57    0.28
   2   3 -13    0.78    0.29
   2   3 -13    0.31    0.28
   2   3 -13    0.49    0.25
  -2  -3  13    1.24    0.67
   1   3 -13    1.81    0.33
   1   3 -13    1.50    0.33
   1   3 -13    1.78    0.29
   1   3 -13    1.86    0.32
  -1  -3  13    2.23    0.54
  -1  -3  13    1.36    0.66
   0   3 -13    0.59    0.31
   0   3 -13   -0.03    0.23
   0   3 -13    0.21    0.27
   0  -3  13   -0.14    0.63
   0  -3  13    0.27    0.45
  -1   3 -13    0.79    0.26
  -1   3 -13    0.69    0.33
  -1   3 -13    1.04    0.32
   1  -3  13    0.40    0.46
   1  -3  13    0.43    0.69
  -2   3 -13    0.12    0.34
  -2   3 -13    0.26    0.27
  -2   3 -13    0.59    0.36
   2  -3  13    0.12    0.45
   2  -3  13    0.13    0.76
   4   2 -13    0.06    0.30
   4   2 -13    0.77    0.30
   4   2 -13    0.25    0.33
   4   2 -13    0.67    0.32
  -4  -2  13   -0.43    0.65
   3   2 -13    1.56    0.34
   3   2 -13    2.51    0.35
   3   2 -13    1.18    0.28
   3   2 -13    2.05    0.34
  -3  -2  13    2.11    0.69
   2   2 -13    3.23    0.45
   2   2 -13    2.31    0.32
   2   2 -13    2.69    0.39
   2   2 -13    2.55    0.36
  -2  -2  13    2.29    0.54
  -2  -2  13    2.56    0.72
   1   2 -13    7.75    0.61
   1   2 -13    7.41    0.61
   1   2 -13    7.42    0.62
   1   2 -13    8.18    0.56
  -1  -2  13    6.76    1.06
  -1  -2  13    7.31    0.82
   0   2 -13    0.48    0.32
   0   2 -13   -0.07    0.30
   0   2 -13    0.13    0.22
   0  -2  13   -0.10    0.43
   0  -2  13    0.21    0.61
  -1   2 -13    2.97    0.45
  -1   2 -13    1.99    0.35
  -1   2 -13    2.59    0.41
   1  -2  13    2.93    0.56
   1  -2  13    3.79    0.83
  -2   2 -13   -0.59    0.37
  -2   2 -13    0.24    0.40
  -2   2 -13    0.50    0.31
   2  -2  13    0.52    0.40
   2  -2  13    0.83    0.75
   4   1 -13    0.27    0.35
   4   1 -13    0.84    0.32
   4   1 -13    1.06    0.34
   4   1 -13    1.15    0.33
  -4  -1  13    1.44    0.70
   3   1 -13    3.54    0.49
   3   1 -13    3.95    0.51
   3   1 -13    3.96    0.44
   3   1 -13    3.93    0.47
  -3  -1  13    2.47    0.74
   2   1 -13    0.72    0.31
   2   1 -13    0.91    0.34
   2   1 -13    1.05    0.30
   2   1 -13    1.12    0.27
  -2  -1  13    1.19    0.64
  -2  -1  13    0.98    0.45
   1   1 -13    0.89    0.26
   1   1 -13    0.80    0.33
   1   1 -13    1.15    0.36
  -1  -1  13   -0.05    0.38
  -1  -1  13    1.70    0.64
   0   1 -13    1.51    0.37
   0   1 -13    1.64    0.38
   0   1 -13    0.78    0.29
   0  -1  13    1.01    0.47
   0  -1  13   -0.41    0.65
  -1   1 -13   -0.27    0.36
  -1   1 -13    0.89    0.40
  -1   1 -13   -0.30    0.27
   1  -1  13   -0.94    0.62
   1  -1  13   -0.29    0.34
  -2   1 -13    2.22    0.50
  -2   1 -13    2.09    0.39
  -2   1 -13    2.46    0.51
   2  -1  13    2.01    0.50
   2  -1  13    3.07    0.86
   4   0 -13    5.10    0.57
   4   0 -13    6.01    0.55
   4   0 -13    4.90    0.56
   4   0 -13    6.82    0.66
   3   0 -13    1.69    0.31
   3   0 -13    1.44    0.31
   3   0 -13    1.05    0.33
   3   0 -13    1.12    0.36
   2   0 -13    8.08    0.54
   2   0 -13    7.91    0.67
   2   0 -13    9.16    0.61
   2   0 -13    8.34    0.71
  -2   0  13    9.31    1.19
  -2   0  13    8.68    0.79
   1   0 -13    5.39    0.66
   1   0 -13    5.53    0.68
   1   0 -13    5.57    0.55
  -1   0  13    4.61    0.84
  -1   0  13    7.03    0.76
   0   0 -13    5.54    0.56
   0   0 -13    5.85    0.72
   0   0 -13    5.91    0.71
   0   0  13    4.45    0.87
   0   0  13    5.34    0.69
  -1   0 -13    0.81    0.46
  -1   0 -13    1.18    0.35
  -1   0 -13    2.11    0.49
   1   0  13    0.02    0.72
   1   0  13   -0.04    0.42
   4  -1 -13    2.17    0.35
   4  -1 -13    2.17    0.38
   4  -1 -13    1.61    0.45
   4  -1 -13    2.04    0.40
  -4   1  13    3.01    0.48
   3  -1 -13    2.26    0.41
   3  -1 -13    1.89    0.37
   3  -1 -13    2.08    0.43
  -3   1  13    3.43    0.50
   2  -1 -13    1.99    0.45
   2  -1 -13    3.03    0.45
   2  -1 -13    1.97    0.37
  -2   1  13    1.98    0.49
  -2   1  13    2.08    0.49
   1  -1 -13    4.75    0.59
   1  -1 -13    5.97    0.60
   1  -1 -13    5.96    0.74
  -1   1  13    6.01    0.72
   0  -1 -13    1.17    0.49
   0  -1 -13    1.86    0.50
   0  -1 -13    1.85    0.37
   0   1  13    1.25    0.74
   0   1  13    2.37    0.44
  -1  -1 -13    3.77    0.63
  -1  -1 -13    4.83    0.74
  -1  -1 -13    5.68    0.67
   1   1  13    4.35    0.89
   1   1  13    5.75    0.74
   4  -2 -13   -0.43    0.33
   4  -2 -13    0.97    0.42
   3  -2 -13    1.84    0.45
   3  -2 -13    2.49    0.46
   3  -2 -13    2.80    0.42
  -3   2  13    2.54    0.50
   2  -2 -13    5.17    0.62
   2  -2 -13    5.39    0.65
   2  -2 -13    5.92    0.79
  -2   2  13    5.92    0.66
   1  -2 -13    5.45    0.68
   1  -2 -13    5.53    0.66
   1  -2 -13    6.86    0.65
  -1   2  13    6.61    0.81
  -1   2  13    5.93    0.73
   0  -2 -13    2.47    0.58
   0   2  13    1.26    0.42
   0   0   0    0.00    0.00
;
_shelx_hkl_checksum              48048
_shelx_res_file
;
TITL 3b.res in P1
CELL 0.71073 7.7270 8.9264 10.4913 97.989 96.215 106.294
ZERR 1.0000 0.0015 0.0017 0.0020 0.007 0.007 0.007
LATT -1
SFAC C H N
UNIT 34 34 4
BOND $H
ACTA 50
FMAP 2 1 53
GRID
PLAN 5 0 0
HTAB 2.0
LIST 0 1
MERG 2
SIZE 0.42 0.31 0.11
TEMP -173
L.S. 100
WGHT    0.046500    0.130800
EXTI    0.023808
FVAR       0.32567
N1    3    0.284876    0.819899    0.961879    11.00000    0.01452    0.01727 =
         0.01938    0.00336    0.00040    0.00279
N2    3    0.471691    0.886042    0.980371    11.00000    0.01356    0.02114 =
         0.01569    0.00530   -0.00040    0.00301
N3    3    0.801772    1.235059    1.133715    11.00000    0.01551    0.02196 =
         0.01857    0.00205   -0.00094    0.00330
N4    3    0.986959    1.307746    1.141778    11.00000    0.01664    0.02071 =
         0.01996    0.00170    0.00072    0.00338
C1    1    0.195434    0.792832    0.845795    11.00000    0.01613    0.01350 =
         0.01824    0.00293    0.00350    0.00509
C2    1    0.275713    0.846690    0.730405    11.00000    0.01163    0.01782 =
         0.01877    0.00517    0.00085    0.00578
C3    1    0.386756    1.000668    0.735907    11.00000    0.01593    0.01941 =
         0.01774    0.00079   -0.00144    0.00329
AFIX  43
H3    2    0.411328    1.075607    0.814338    11.00000   -1.20000
AFIX   0
C4    1    0.461996    1.045734    0.627655    11.00000    0.01737    0.02085 =
         0.02424    0.00584    0.00030    0.00040
AFIX  43
H4    2    0.536514    1.151767    0.633168    11.00000   -1.20000
AFIX   0
C5    1    0.430953    0.939622    0.511636    11.00000    0.01539    0.02832 =
         0.01957    0.00720    0.00213    0.00837
C6    1    0.318305    0.785993    0.506537    11.00000    0.01978    0.02305 =
         0.01821   -0.00061    0.00068    0.00912
AFIX  43
H6    2    0.293756    0.711064    0.428102    11.00000   -1.20000
AFIX   0
C7    1    0.241550    0.740552    0.613575    11.00000    0.01695    0.01694 =
         0.02223    0.00203   -0.00013    0.00495
AFIX  43
H7    2    0.164350    0.635302    0.607238    11.00000   -1.20000
AFIX   0
C8    1    0.516321    0.988106    0.395139    11.00000    0.02708    0.03807 =
         0.02297    0.00751    0.00581    0.00613
AFIX 137
H8A   2    0.640414    0.979132    0.403341    11.00000   -1.50000
H8B   2    0.520870    1.098116    0.390959    11.00000   -1.50000
H8C   2    0.443113    0.918554    0.315468    11.00000   -1.50000
AFIX   0
C9    1   -0.000937    0.700495    0.828446    11.00000    0.01567    0.01493 =
         0.01696    0.00081    0.00284    0.00460
C10   1   -0.129672    0.721196    0.734216    11.00000    0.01849    0.01601 =
         0.01657    0.00329    0.00238    0.00500
AFIX  43
H10   2   -0.090693    0.789819    0.674496    11.00000   -1.20000
AFIX   0
C11   1   -0.313702    0.643028    0.726498    11.00000    0.01662    0.02126 =
         0.01641    0.00156   -0.00008    0.00653
AFIX  43
H11   2   -0.399508    0.662026    0.663659    11.00000   -1.20000
AFIX   0
C12   1   -0.375062    0.537224    0.809122    11.00000    0.01520    0.01657 =
         0.02254   -0.00084    0.00361    0.00369
C13   1   -0.246034    0.511837    0.900248    11.00000    0.01817    0.01896 =
         0.02351    0.00705    0.00541    0.00409
AFIX  43
H13   2   -0.284682    0.437592    0.955829    11.00000   -1.20000
AFIX   0
C14   1   -0.062092    0.593152    0.911173    11.00000    0.01843    0.01985 =
         0.01952    0.00570    0.00114    0.00742
AFIX  43
H14   2    0.023250    0.575867    0.975401    11.00000   -1.20000
AFIX   0
C15   1   -0.576178    0.455011    0.801363    11.00000    0.01455    0.02510 =
         0.03161    0.00522    0.00306    0.00097
AFIX 137
H15A  2   -0.593314    0.376360    0.859076    11.00000   -1.50000
H15B  2   -0.627855    0.401851    0.711549    11.00000   -1.50000
H15C  2   -0.638001    0.533418    0.828423    11.00000   -1.50000
AFIX   0
C16   1    0.537032    1.024886    1.051624    11.00000    0.01613    0.01982 =
         0.01313    0.00443    0.00147    0.00528
C17   1    0.422578    1.123613    1.101008    11.00000    0.01691    0.02568 =
         0.02017   -0.00016   -0.00018    0.00719
AFIX 137
H17A  2    0.383987    1.175746    1.031623    11.00000   -1.50000
H17B  2    0.494029    1.204154    1.175520    11.00000   -1.50000
H17C  2    0.314721    1.055630    1.128239    11.00000   -1.50000
AFIX   0
C18   1    0.738295    1.090468    1.075651    11.00000    0.01747    0.02015 =
         0.01115    0.00427    0.00043    0.00428
C19   1    0.854714    0.990605    1.031289    11.00000    0.01674    0.02365 =
         0.02381    0.00306    0.00337    0.00492
AFIX 137
H19A  2    0.953495    1.053644    0.992027    11.00000   -1.50000
H19B  2    0.779980    0.898715    0.966703    11.00000   -1.50000
H19C  2    0.906801    0.954151    1.106126    11.00000   -1.50000
AFIX   0
C20   1    1.091409    1.328253    1.250528    11.00000    0.01659    0.01500 =
         0.01882    0.00095    0.00160    0.00582
C21   1    1.031949    1.269704    1.370376    11.00000    0.01099    0.01760 =
         0.01857    0.00141   -0.00120    0.00060
C22   1    1.071667    1.137992    1.408521    11.00000    0.02002    0.01880 =
         0.02444    0.00323    0.00502    0.00694
AFIX  43
H22   2    1.122645    1.075046    1.352183    11.00000   -1.20000
AFIX   0
C23   1    1.036901    1.098569    1.528670    11.00000    0.02123    0.02028 =
         0.02645    0.00780    0.00365    0.00750
AFIX  43
H23   2    1.063244    1.007815    1.553122    11.00000   -1.20000
AFIX   0
C24   1    0.964381    1.189240    1.613745    11.00000    0.01398    0.01878 =
         0.02164    0.00336    0.00160   -0.00032
C25   1    0.939440    1.152087    1.747623    11.00000    0.02984    0.03163 =
         0.02428    0.00929    0.00836    0.00665
AFIX 137
H25A  2    0.932058    1.246338    1.804353    11.00000   -1.50000
H25B  2    1.043411    1.120585    1.784006    11.00000   -1.50000
H25C  2    0.826636    1.065183    1.741549    11.00000   -1.50000
AFIX   0
C26   1    0.918825    1.316461    1.573097    11.00000    0.02157    0.01863 =
         0.02590    0.00170    0.00827    0.00465
AFIX  43
H26   2    0.863997    1.377250    1.628159    11.00000   -1.20000
AFIX   0
C27   1    0.952522    1.356156    1.452471    11.00000    0.01701    0.01627 =
         0.02630    0.00474    0.00268    0.00502
AFIX  43
H27   2    0.920493    1.443801    1.426281    11.00000   -1.20000
AFIX   0
C28   1    1.285016    1.423205    1.260048    11.00000    0.01813    0.01443 =
         0.01741    0.00105    0.00319    0.00499
C29   1    1.412434    1.437969    1.369089    11.00000    0.01868    0.01923 =
         0.01751    0.00357    0.00348    0.00558
AFIX  43
H29   2    1.375325    1.385962    1.439076    11.00000   -1.20000
AFIX   0
C30   1    1.592537    1.527482    1.376819    11.00000    0.01871    0.02422 =
         0.01744   -0.00003   -0.00200    0.00677
AFIX  43
H30   2    1.676778    1.536619    1.452594    11.00000   -1.20000
AFIX   0
C31   1    1.652571    1.603947    1.276603    11.00000    0.01714    0.01813 =
         0.02656    0.00222    0.00218    0.00280
C32   1    1.523706    1.593425    1.168795    11.00000    0.02287    0.02167 =
         0.02441    0.00857    0.00447    0.00530
AFIX  43
H32   2    1.560439    1.648487    1.100305    11.00000   -1.20000
AFIX   0
C33   1    1.344508    1.504552    1.160370    11.00000    0.01849    0.02228 =
         0.01888    0.00391   -0.00085    0.00644
AFIX  43
H33   2    1.259713    1.498266    1.085678    11.00000   -1.20000
AFIX   0
C34   1    1.849668    1.697052    1.284156    11.00000    0.02137    0.03454 =
         0.03635    0.01212    0.00195   -0.00155
AFIX 137
H34A  2    1.914405    1.707294    1.372077    11.00000   -1.50000
H34B  2    1.857675    1.802746    1.264524    11.00000   -1.50000
H34C  2    1.905358    1.641785    1.220790    11.00000   -1.50000
AFIX   0
HKLF 4
REM  DD025_0m_a.res in P1
REM R1 =  0.0402 for    6027 Fo > 4sig(Fo)  and  0.0495 for all    6741 data
REM    350 parameters refined using      3 restraints
END
WGHT      0.0463      0.1327
REM No hydrogen bonds found for HTAB generation
REM Highest difference peak  0.265,  deepest hole -0.194,  1-sigma level  0.040
Q1    1   1.3287  1.4341  1.2068  11.00000  0.05    0.27
Q2    1  -0.0399  0.6687  0.8800  11.00000  0.05    0.26
Q3    1   1.0679  1.3049  1.3142  11.00000  0.05    0.24
Q4    1   0.6327  1.0601  1.0499  11.00000  0.05    0.23
Q5    1   0.2195  0.8471  0.7930  11.00000  0.05    0.23
;
_shelx_res_checksum              5626
loop_
_space_group_symop_operation_xyz
'x, y, z'
loop_
_atom_site_type_symbol
_atom_site_label
_atom_site_fract_x
_atom_site_fract_y
_atom_site_fract_z
_atom_site_U_iso_or_equiv
_atom_site_adp_type
_atom_site_calc_flag
_atom_site_occupancy
N N1 0.2849(2) 0.8199(2) 0.96188(18) 0.0176(4) Uani d 1
N N2 0.4717(2) 0.8860(2) 0.98037(17) 0.0173(4) Uani d 1
N N3 0.8018(2) 1.2351(2) 1.13372(18) 0.0196(4) Uani d 1
N N4 0.9870(3) 1.3077(2) 1.14178(18) 0.0199(4) Uani d 1
C C1 0.1954(3) 0.7928(3) 0.8458(2) 0.0157(4) Uani d 1
C C2 0.2757(3) 0.8467(3) 0.7304(2) 0.0157(4) Uani d 1
C C3 0.3868(3) 1.0007(3) 0.7359(2) 0.0187(4) Uani d 1
H H3 0.411328 1.075607 0.814338 0.022 Uiso calc 1
C C4 0.4620(3) 1.0457(3) 0.6277(2) 0.0220(5) Uani d 1
H H4 0.536514 1.151767 0.633168 0.026 Uiso calc 1
C C5 0.4310(3) 0.9396(3) 0.5116(2) 0.0205(5) Uani d 1
C C6 0.3183(3) 0.7860(3) 0.5065(2) 0.0204(5) Uani d 1
H H6 0.293756 0.711064 0.428102 0.024 Uiso calc 1
C C7 0.2415(3) 0.7406(3) 0.6136(2) 0.0191(5) Uani d 1
H H7 0.164350 0.635302 0.607238 0.023 Uiso calc 1
C C8 0.5163(4) 0.9881(3) 0.3951(2) 0.0298(6) Uani d 1
H H8A 0.640414 0.979132 0.403341 0.045 Uiso calc 1
H H8B 0.520870 1.098116 0.390959 0.045 Uiso calc 1
H H8C 0.443113 0.918554 0.315468 0.045 Uiso calc 1
C C9 -0.0009(3) 0.7005(3) 0.8284(2) 0.0160(4) Uani d 1
C C10 -0.1297(3) 0.7212(3) 0.7342(2) 0.0170(4) Uani d 1
H H10 -0.090693 0.789819 0.674496 0.020 Uiso calc 1
C C11 -0.3137(3) 0.6430(3) 0.7265(2) 0.0183(5) Uani d 1
H H11 -0.399508 0.662026 0.663659 0.022 Uiso calc 1
C C12 -0.3751(3) 0.5372(3) 0.8091(2) 0.0187(5) Uani d 1
C C13 -0.2460(3) 0.5118(3) 0.9002(2) 0.0200(5) Uani d 1
H H13 -0.284682 0.437592 0.955829 0.024 Uiso calc 1
C C14 -0.0621(3) 0.5932(3) 0.9112(2) 0.0188(5) Uani d 1
H H14 0.023250 0.575867 0.975401 0.023 Uiso calc 1
C C15 -0.5762(3) 0.4550(3) 0.8014(3) 0.0248(5) Uani d 1
H H15A -0.593314 0.376360 0.859076 0.037 Uiso calc 1
H H15B -0.627855 0.401851 0.711549 0.037 Uiso calc 1
H H15C -0.638001 0.533418 0.828423 0.037 Uiso calc 1
C C16 0.5370(3) 1.0249(3) 1.0516(2) 0.0163(4) Uani d 1
C C17 0.4226(3) 1.1236(3) 1.1010(2) 0.0214(5) Uani d 1
H H17A 0.383987 1.175746 1.031623 0.032 Uiso calc 1
H H17B 0.494029 1.204154 1.175520 0.032 Uiso calc 1
H H17C 0.314721 1.055630 1.128239 0.032 Uiso calc 1
C C18 0.7383(3) 1.0905(3) 1.0757(2) 0.0165(4) Uani d 1
C C19 0.8547(3) 0.9906(3) 1.0313(2) 0.0217(5) Uani d 1
H H19A 0.953495 1.053644 0.992027 0.033 Uiso calc 1
H H19B 0.779980 0.898715 0.966703 0.033 Uiso calc 1
H H19C 0.906801 0.954151 1.106126 0.033 Uiso calc 1
C C20 1.0914(3) 1.3283(3) 1.2505(2) 0.0169(5) Uani d 1
C C21 1.0319(3) 1.2697(3) 1.3704(2) 0.0169(4) Uani d 1
C C22 1.0717(3) 1.1380(3) 1.4085(2) 0.0208(5) Uani d 1
H H22 1.122645 1.075046 1.352183 0.025 Uiso calc 1
C C23 1.0369(3) 1.0986(3) 1.5287(2) 0.0220(5) Uani d 1
H H23 1.063244 1.007815 1.553122 0.026 Uiso calc 1
C C24 0.9644(3) 1.1892(3) 1.6137(2) 0.0193(5) Uani d 1
C C25 0.9394(4) 1.1521(3) 1.7476(2) 0.0284(5) Uani d 1
H H25A 0.932058 1.246338 1.804353 0.043 Uiso calc 1
H H25B 1.043411 1.120585 1.784006 0.043 Uiso calc 1
H H25C 0.826636 1.065183 1.741549 0.043 Uiso calc 1
C C26 0.9188(3) 1.3165(3) 1.5731(2) 0.0222(5) Uani d 1
H H26 0.863997 1.377250 1.628159 0.027 Uiso calc 1
C C27 0.9525(3) 1.3562(3) 1.4525(2) 0.0198(5) Uani d 1
H H27 0.920493 1.443801 1.426281 0.024 Uiso calc 1
C C28 1.2850(3) 1.4232(3) 1.2600(2) 0.0168(4) Uani d 1
C C29 1.4124(3) 1.4380(3) 1.3691(2) 0.0184(5) Uani d 1
H H29 1.375325 1.385962 1.439076 0.022 Uiso calc 1
C C30 1.5925(3) 1.5275(3) 1.3768(2) 0.0208(5) Uani d 1
H H30 1.676778 1.536619 1.452594 0.025 Uiso calc 1
C C31 1.6526(3) 1.6039(3) 1.2766(2) 0.0214(5) Uani d 1
C C32 1.5237(3) 1.5934(3) 1.1688(2) 0.0228(5) Uani d 1
H H32 1.560439 1.648487 1.100305 0.027 Uiso calc 1
C C33 1.3445(3) 1.5046(3) 1.1604(2) 0.0201(5) Uani d 1
H H33 1.259713 1.498266 1.085678 0.024 Uiso calc 1
C C34 1.8497(4) 1.6971(3) 1.2842(3) 0.0324(6) Uani d 1
H H34A 1.914405 1.707294 1.372077 0.049 Uiso calc 1
H H34B 1.857675 1.802746 1.264524 0.049 Uiso calc 1
H H34C 1.905358 1.641785 1.220790 0.049 Uiso calc 1
loop_
_atom_site_aniso_label
_atom_site_aniso_U_11
_atom_site_aniso_U_22
_atom_site_aniso_U_33
_atom_site_aniso_U_12
_atom_site_aniso_U_13
_atom_site_aniso_U_23
N1 0.0145(9) 0.0173(9) 0.0194(9) 0.0028(7) 0.0004(7) 0.0034(7)
N2 0.0136(9) 0.0211(10) 0.0157(9) 0.0030(7) -0.0004(7) 0.0053(8)
N3 0.0155(9) 0.0220(10) 0.0186(9) 0.0033(8) -0.0009(7) 0.0020(8)
N4 0.0166(10) 0.0207(10) 0.0200(10) 0.0034(8) 0.0007(7) 0.0017(8)
C1 0.0161(11) 0.0135(11) 0.0182(11) 0.0051(9) 0.0035(8) 0.0029(8)
C2 0.0116(10) 0.0178(11) 0.0188(11) 0.0058(8) 0.0009(8) 0.0052(9)
C3 0.0159(10) 0.0194(11) 0.0177(11) 0.0033(9) -0.0014(8) 0.0008(9)
C4 0.0174(11) 0.0209(12) 0.0242(12) 0.0004(9) 0.0003(9) 0.0058(10)
C5 0.0154(11) 0.0283(12) 0.0196(11) 0.0084(9) 0.0021(8) 0.0072(9)
C6 0.0198(11) 0.0230(12) 0.0182(11) 0.0091(9) 0.0007(9) -0.0006(9)
C7 0.0169(11) 0.0169(11) 0.0222(11) 0.0050(9) -0.0001(8) 0.0020(9)
C8 0.0271(13) 0.0381(15) 0.0230(12) 0.0061(11) 0.0058(10) 0.0075(11)
C9 0.0157(11) 0.0149(11) 0.0170(10) 0.0046(8) 0.0028(8) 0.0008(8)
C10 0.0185(11) 0.0160(11) 0.0166(10) 0.0050(9) 0.0024(8) 0.0033(8)
C11 0.0166(11) 0.0213(12) 0.0164(10) 0.0065(9) -0.0001(8) 0.0016(9)
C12 0.0152(11) 0.0166(11) 0.0225(12) 0.0037(9) 0.0036(9) -0.0008(9)
C13 0.0182(12) 0.0190(12) 0.0235(12) 0.0041(9) 0.0054(9) 0.0071(9)
C14 0.0184(11) 0.0198(12) 0.0195(11) 0.0074(9) 0.0011(9) 0.0057(9)
C15 0.0145(11) 0.0251(13) 0.0316(13) 0.0010(10) 0.0031(10) 0.0052(10)
C16 0.0161(10) 0.0198(11) 0.0131(10) 0.0053(9) 0.0015(8) 0.0044(8)
C17 0.0169(11) 0.0257(12) 0.0202(11) 0.0072(9) -0.0002(9) -0.0002(9)
C18 0.0175(11) 0.0201(12) 0.0112(9) 0.0043(9) 0.0004(8) 0.0043(8)
C19 0.0167(11) 0.0237(12) 0.0238(12) 0.0049(9) 0.0034(9) 0.0031(9)
C20 0.0166(11) 0.0150(11) 0.0188(11) 0.0058(9) 0.0016(8) 0.0009(8)
C21 0.0110(10) 0.0176(11) 0.0186(11) 0.0006(8) -0.0012(8) 0.0014(9)
C22 0.0200(11) 0.0188(11) 0.0244(12) 0.0069(9) 0.0050(9) 0.0032(9)
C23 0.0212(11) 0.0203(12) 0.0265(12) 0.0075(9) 0.0036(9) 0.0078(9)
C24 0.0140(11) 0.0188(12) 0.0216(11) -0.0003(9) 0.0016(8) 0.0034(9)
C25 0.0298(14) 0.0316(14) 0.0243(12) 0.0067(11) 0.0084(10) 0.0093(11)
C26 0.0216(12) 0.0186(12) 0.0259(12) 0.0046(10) 0.0083(9) 0.0017(9)
C27 0.0170(11) 0.0163(11) 0.0263(12) 0.0050(9) 0.0027(9) 0.0047(9)
C28 0.0181(11) 0.0144(11) 0.0174(11) 0.0050(9) 0.0032(8) 0.0011(8)
C29 0.0187(11) 0.0192(11) 0.0175(11) 0.0056(9) 0.0035(9) 0.0036(9)
C30 0.0187(11) 0.0242(12) 0.0174(11) 0.0068(9) -0.0020(9) 0.0000(9)
C31 0.0171(11) 0.0181(11) 0.0266(12) 0.0028(9) 0.0022(9) 0.0022(10)
C32 0.0229(12) 0.0217(12) 0.0244(12) 0.0053(10) 0.0045(9) 0.0086(10)
C33 0.0185(11) 0.0223(12) 0.0189(11) 0.0064(9) -0.0009(9) 0.0039(9)
C34 0.0214(13) 0.0345(15) 0.0364(15) -0.0016(11) 0.0020(10) 0.0121(12)
loop_
_atom_type_symbol
_atom_type_description
_atom_type_scat_dispersion_real
_atom_type_scat_dispersion_imag
_atom_type_scat_source
C C 0.0033 0.0016 'International Tables Vol C Tables 4.2.6.8 and 6.1.1.4'
H H 0.0000 0.0000 'International Tables Vol C Tables 4.2.6.8 and 6.1.1.4'
N N 0.0061 0.0033 'International Tables Vol C Tables 4.2.6.8 and 6.1.1.4'
loop_
_geom_angle_atom_site_label_1
_geom_angle_atom_site_label_2
_geom_angle_atom_site_label_3
_geom_angle
C1 N1 N2 118.70(18)
C16 N2 N1 116.71(18)
C18 N3 N4 117.38(19)
C20 N4 N3 119.01(19)
N1 C1 C9 116.24(19)
N1 C1 C2 124.7(2)
C9 C1 C2 119.10(19)
C3 C2 C7 118.1(2)
C3 C2 C1 122.0(2)
C7 C2 C1 119.8(2)
C4 C3 C2 120.5(2)
C4 C3 H3 119.7
C2 C3 H3 119.7
C5 C4 C3 121.6(2)
C5 C4 H4 119.2
C3 C4 H4 119.2
C4 C5 C6 117.6(2)
C4 C5 C8 121.4(2)
C6 C5 C8 121.0(2)
C7 C6 C5 121.2(2)
C7 C6 H6 119.4
C5 C6 H6 119.4
C6 C7 C2 121.0(2)
C6 C7 H7 119.5
C2 C7 H7 119.5
C5 C8 H8A 109.5
C5 C8 H8B 109.5
H8A C8 H8B 109.5
C5 C8 H8C 109.5
H8A C8 H8C 109.5
H8B C8 H8C 109.5
C10 C9 C14 118.1(2)
C10 C9 C1 121.9(2)
C14 C9 C1 119.97(19)
C11 C10 C9 120.9(2)
C11 C10 H10 119.6
C9 C10 H10 119.6
C10 C11 C12 121.1(2)
C10 C11 H11 119.4
C12 C11 H11 119.4
C11 C12 C13 118.1(2)
C11 C12 C15 120.6(2)
C13 C12 C15 121.2(2)
C14 C13 C12 121.1(2)
C14 C13 H13 119.5
C12 C13 H13 119.5
C13 C14 C9 120.6(2)
C13 C14 H14 119.7
C9 C14 H14 119.7
C12 C15 H15A 109.5
C12 C15 H15B 109.5
H15A C15 H15B 109.5
C12 C15 H15C 109.5
H15A C15 H15C 109.5
H15B C15 H15C 109.5
N2 C16 C18 115.88(18)
N2 C16 C17 124.0(2)
C18 C16 C17 119.94(19)
C16 C17 H17A 109.5
C16 C17 H17B 109.5
H17A C17 H17B 109.5
C16 C17 H17C 109.5
H17A C17 H17C 109.5
H17B C17 H17C 109.5
N3 C18 C16 115.57(18)
N3 C18 C19 124.0(2)
C16 C18 C19 120.47(19)
C18 C19 H19A 109.5
C18 C19 H19B 109.5
H19A C19 H19B 109.5
C18 C19 H19C 109.5
H19A C19 H19C 109.5
H19B C19 H19C 109.5
N4 C20 C28 117.5(2)
N4 C20 C21 125.2(2)
C28 C20 C21 117.25(19)
C27 C21 C22 118.7(2)
C27 C21 C20 119.7(2)
C22 C21 C20 121.3(2)
C23 C22 C21 120.2(2)
C23 C22 H22 119.9
C21 C22 H22 119.9
C24 C23 C22 121.3(2)
C24 C23 H23 119.4
C22 C23 H23 119.4
C26 C24 C23 118.2(2)
C26 C24 C25 121.0(2)
C23 C24 C25 120.8(2)
C24 C25 H25A 109.5
C24 C25 H25B 109.5
H25A C25 H25B 109.5
C24 C25 H25C 109.5
H25A C25 H25C 109.5
H25B C25 H25C 109.5
C24 C26 C27 120.7(2)
C24 C26 H26 119.6
C27 C26 H26 119.6
C21 C27 C26 120.9(2)
C21 C27 H27 119.6
C26 C27 H27 119.6
C29 C28 C33 117.8(2)
C29 C28 C20 121.5(2)
C33 C28 C20 120.77(19)
C30 C29 C28 120.8(2)
C30 C29 H29 119.6
C28 C29 H29 119.6
C31 C30 C29 121.4(2)
C31 C30 H30 119.3
C29 C30 H30 119.3
C30 C31 C32 117.8(2)
C30 C31 C34 121.1(2)
C32 C31 C34 121.1(2)
C33 C32 C31 121.0(2)
C33 C32 H32 119.5
C31 C32 H32 119.5
C32 C33 C28 121.1(2)
C32 C33 H33 119.5
C28 C33 H33 119.5
C31 C34 H34A 109.5
C31 C34 H34B 109.5
H34A C34 H34B 109.5
C31 C34 H34C 109.5
H34A C34 H34C 109.5
H34B C34 H34C 109.5
loop_
_geom_bond_atom_site_label_1
_geom_bond_atom_site_label_2
_geom_bond_distance
N1 C1 1.289(3)
N1 N2 1.378(3)
N2 C16 1.288(3)
N3 C18 1.280(3)
N3 N4 1.383(3)
N4 C20 1.283(3)
C1 C9 1.487(3)
C1 C2 1.496(3)
C2 C3 1.391(3)
C2 C7 1.392(3)
C3 C4 1.389(3)
C3 H3 0.9500
C4 C5 1.387(3)
C4 H4 0.9500
C5 C6 1.393(3)
C5 C8 1.509(3)
C6 C7 1.383(3)
C6 H6 0.9500
C7 H7 0.9500
C8 H8A 0.9800
C8 H8B 0.9800
C8 H8C 0.9800
C9 C10 1.394(3)
C9 C14 1.400(3)
C10 C11 1.385(3)
C10 H10 0.9500
C11 C12 1.390(3)
C11 H11 0.9500
C12 C13 1.393(3)
C12 C15 1.509(3)
C13 C14 1.387(3)
C13 H13 0.9500
C14 H14 0.9500
C15 H15A 0.9800
C15 H15B 0.9800
C15 H15C 0.9800
C16 C18 1.479(3)
C16 C17 1.496(3)
C17 H17A 0.9800
C17 H17B 0.9800
C17 H17C 0.9800
C18 C19 1.499(3)
C19 H19A 0.9800
C19 H19B 0.9800
C19 H19C 0.9800
C20 C28 1.483(3)
C20 C21 1.496(3)
C21 C27 1.382(3)
C21 C22 1.394(3)
C22 C23 1.389(3)
C22 H22 0.9500
C23 C24 1.388(3)
C23 H23 0.9500
C24 C26 1.386(3)
C24 C25 1.507(3)
C25 H25A 0.9800
C25 H25B 0.9800
C25 H25C 0.9800
C26 C27 1.393(3)
C26 H26 0.9500
C27 H27 0.9500
C28 C29 1.392(3)
C28 C33 1.400(3)
C29 C30 1.384(3)
C29 H29 0.9500
C30 C31 1.383(3)
C30 H30 0.9500
C31 C32 1.398(3)
C31 C34 1.504(3)
C32 C33 1.376(3)
C32 H32 0.9500
C33 H33 0.9500
C34 H34A 0.9800
C34 H34B 0.9800
C34 H34C 0.9800

_cod_database_fobs_code 2021349
