#------------------------------------------------------------------------------
#$Date: 2018-11-01 05:41:38 +0200 (Thu, 01 Nov 2018) $
#$Revision: 211740 $
#$URL: file:///home/coder/svn-repositories/cod/cif/2/02/13/2021325.cif $
#------------------------------------------------------------------------------
#
# This file is available in the Crystallography Open Database (COD),
# http://www.crystallography.net/. The original data for this entry
# were provided by IUCr Journals, http://journals.iucr.org/.
#
# The file may be used within the scientific community so long as
# proper attribution is given to the journal article from which the
# data were obtained.
#
data_2021325
loop_
_publ_author_name
'Purandara, H.'
'Foro, Sabine'
'Thimme Gowda, B.'
_publ_section_title
;
 Comparison of the crystal structures and Hirshfeld surface analysis of
 five <i>N</i>-(4-methylbenzenesulfonyl)glycine hydrazone derivatives
;
_journal_coeditor_code           CU3132
_journal_issue                   11
_journal_name_full               'Acta Crystallographica Section C'
_journal_page_first              1553
_journal_page_last               1560
_journal_paper_doi               10.1107/S2053229618014420
_journal_volume                  74
_journal_year                    2018
_chemical_formula_iupac          'C16 H16 Br N3 O3 S'
_chemical_formula_moiety         'C16 H16 Br N3 O3 S'
_chemical_formula_sum            'C16 H16 Br N3 O3 S'
_chemical_formula_weight         410.29
_chemical_name_systematic
(<i>E</i>)-<i>N</i>-{2-[2-(4-Bromobenzylidene)hydrazinyl]-2-oxoethyl}-4-methylbenzenesulfonamide
_space_group_crystal_system      triclinic
_space_group_IT_number           2
_space_group_name_Hall           '-P 1'
_space_group_name_H-M_alt        'P -1'
_symmetry_space_group_name_Hall  '-P 1'
_symmetry_space_group_name_H-M   'P -1'
_atom_sites_solution_hydrogens   mixed
_audit_creation_method           SHELXL-2014/6
_cell_angle_alpha                75.562(8)
_cell_angle_beta                 85.556(9)
_cell_angle_gamma                75.046(8)
_cell_formula_units_Z            2
_cell_length_a                   6.7308(7)
_cell_length_b                   10.3220(10)
_cell_length_c                   13.723(2)
_cell_measurement_reflns_used    3588
_cell_measurement_temperature    293(2)
_cell_measurement_theta_max      27.41
_cell_measurement_theta_min      3.06
_cell_volume                     891.94(19)
_computing_cell_refinement
;
CrysAlis RED (Oxford Diffraction, 2009)
;
_computing_data_collection
;
CrysAlis CCD (Oxford Diffraction, 2009)
;
_computing_data_reduction
;
CrysAlis RED (Oxford Diffraction, 2009)
;
_computing_molecular_graphics
;
PLATON (Spek, 2009)
;
_computing_publication_material
;
SHELXL2014 (Sheldrick, 2015)
;
_computing_structure_refinement
;
SHELXL2014 (Sheldrick, 2015)
;
_computing_structure_solution
;
SHELXS2013 (Sheldrick, 2008)
;
_diffrn_ambient_temperature      293(2)
_diffrn_measured_fraction_theta_full 0.998
_diffrn_measured_fraction_theta_max 0.997
_diffrn_measurement_device_type
;
Oxford Diffraction Xcalibur single crystal X-ray diffractometer
with Sapphire CCD detector
;
_diffrn_measurement_method
;
Rotation method data acquisition using omega scans
;
_diffrn_radiation_type           MoK\a
_diffrn_radiation_wavelength     0.71073
_diffrn_reflns_av_R_equivalents  0.0507
_diffrn_reflns_av_unetI/netI     0.0401
_diffrn_reflns_limit_h_max       8
_diffrn_reflns_limit_h_min       -8
_diffrn_reflns_limit_k_max       12
_diffrn_reflns_limit_k_min       -11
_diffrn_reflns_limit_l_max       17
_diffrn_reflns_limit_l_min       -17
_diffrn_reflns_number            5760
_diffrn_reflns_theta_full        25.242
_diffrn_reflns_theta_max         26.372
_diffrn_reflns_theta_min         3.066
_diffrn_source                   'Enhance (Mo) X-ray Source'
_exptl_absorpt_coefficient_mu    2.440
_exptl_absorpt_correction_T_max  0.668
_exptl_absorpt_correction_T_min  0.363
_exptl_absorpt_correction_type   multi-scan
_exptl_absorpt_process_details
;
(CrysAlis RED; Oxford Diffraction, 2009)
;
_exptl_crystal_colour            colourless
_exptl_crystal_density_diffrn    1.528
_exptl_crystal_description       rod
_exptl_crystal_F_000             416
_exptl_crystal_size_max          0.520
_exptl_crystal_size_mid          0.340
_exptl_crystal_size_min          0.180
_refine_diff_density_max         0.943
_refine_diff_density_min         -1.007
_refine_ls_extinction_method     none
_refine_ls_goodness_of_fit_ref   1.095
_refine_ls_hydrogen_treatment    mixed
_refine_ls_matrix_type           full
_refine_ls_number_parameters     224
_refine_ls_number_reflns         3645
_refine_ls_number_restraints     2
_refine_ls_restrained_S_all      1.095
_refine_ls_R_factor_all          0.0801
_refine_ls_R_factor_gt           0.0692
_refine_ls_shift/su_max          0.000
_refine_ls_shift/su_mean         0.000
_refine_ls_structure_factor_coef Fsqd
_refine_ls_weighting_details
'w=1/[\s^2^(Fo^2^)+(0.1153P)^2^+0.7752P] where P=(Fo^2^+2Fc^2^)/3'
_refine_ls_weighting_scheme      calc
_refine_ls_wR_factor_gt          0.1929
_refine_ls_wR_factor_ref         0.2076
_reflns_number_gt                2855
_reflns_number_total             3645
_reflns_threshold_expression     'I > 2\s(I)'
_cod_data_source_file            cu3132sup1.cif
_cod_data_source_block           II
_cod_database_code               2021325
_shelx_space_group_comment
;
The symmetry employed for this shelxl refinement is uniquely defined
by the following loop, which should always be used as a source of
symmetry information in preference to the above space-group names.
They are only intended as comments.
;
_shelx_estimated_absorpt_t_min   0.363
_shelx_estimated_absorpt_t_max   0.668
_shelx_hkl_file
;
   0   0  -2 382.046 13.6618   5
   0   0   2 464.984 16.9648   0
   0   0   3 6860.73 44.0591   0
   0   0  -3 6218.21 45.2278   5
   0   0  -4 59373.7 130.252   5
   0   0   4 64730.6 130.153   0
   0   0   5 4278.78 59.5004   0
   0   0  -5 3639.86 52.9505   5
   0   0   6 33701.4 133.071   0
   0   0  -6 29797.0 129.018   5
   0   0   7 1319.34 47.7648   0
   0   0  -7 1251.31 54.7486   5
   0   0  -8 5496.60 80.4222   5
   0   0   8 5773.93 93.0386   0
   0   0  -9 2722.85 95.3167   5
   0   0   9 3110.71 102.518   0
   0   0 -10 21458.6 181.538   5
   0   0  10 22073.3 173.555   0
   0   0  11 22972.2 199.947   0
   0   0 -11 20431.8 195.905   5
   0   0 -12 470.034 65.3937   5
   0   0  12 523.001 73.0418   0
   0   0  13 176.873 66.0169   0
   0   0 -13 182.053 59.4726   5
   0   0  14 2772.90 152.429   0
   0   0 -14 2319.27 133.036   5
   0   0  15 3887.71 177.795   0
   0   0 -15 3413.45 160.813   5
   0   0  16 84.5068 75.1436   0
   0   0 -16 24.6397 43.7204   5
   0   0 -17 37.4127 40.5339   5
   0  -1  16 141.897 88.6655   0
   0   1 -16 261.560 88.3761   5
   0  -1  15 2916.90 167.823   0
   0   1 -15 2318.87 149.978   5
   0   1 -14-13.5152 27.7999   5
   0  -1  14 20.1400 34.7461   0
   0  -1  13 419.527 85.9834   0
   0   1 -13 408.147 82.1723   5
   0   1 -12 869.568 92.3182   5
   0  -1  12 839.672 86.6543   0
   0  -1  11 1696.17 96.5706   0
   0   1 -11 1613.12 110.035   5
   0   1 -10 754.435 67.7833   5
   0  -1  10 876.692 70.9404   0
   0  -1   9 11727.1 142.702   0
   0   1  -9 10576.0 144.262   5
   0   1  -8 1813.51 58.8783   5
   0   1  -8 1698.59 44.2062   1
   0  -1   7 7445.16 93.3081   0
   0   1  -7 6690.78 90.4587   5
   0   1  -7 7459.31 66.1431   1
   0  -1   6 10922.6 89.6898   0
   0   1  -6 10366.9 97.2207   5
   0   1  -6 10836.8 62.4018   1
   0   1  -5 67660.5 114.779   1
   0  -1   5 68865.2 164.162   0
   0   1  -4 6646.89 41.6941   1
   0   1  -4 6476.91 58.7604   5
   0  -1   4 6814.88 62.0455   0
   0  -1   3 46369.3 104.867   0
   0   1  -3 42826.2 104.838   5
   0   1  -2 4396.08 41.0702   5
   0  -1   2 4844.06 36.7074   0
   0   1   2 17203.6 51.4747   0
   0   1   3 15105.0 58.9990   0
   0  -1  -3 13973.5 60.5310   5
   0  -1  -4 42588.3 111.607   5
   0   1   4 47250.7 111.084   0
   0  -1  -5 32057.1 113.009   5
   0   1   5 35652.2 116.870   0
   0   1   6 287.099 35.8260   0
   0  -1  -6 312.050 37.3543   5
   0  -1  -7 134.400 36.0965   5
   0   1   7 28.5394 15.0939   0
   0  -1  -8 6303.26 96.1325   5
   0   1   8 7163.45 106.291   0
   0  -1  -9 11434.8 129.055   5
   0   1   9 12129.6 136.204   0
   0  -1 -10 2510.95 87.1098   5
   0   1  10 3447.55 131.761   0
   0  -1 -11 6.07319 24.0512   5
   0   1  11 122.068 60.2805   0
   0  -1 -12 1054.57 84.8695   5
   0   1  12 1488.81 125.059   0
   0   1  13 2462.99 147.435   0
   0  -1 -13 1902.06 125.899   5
   0  -1 -14 241.610 68.6649   5
   0   1  14 421.960 79.0200   0
   0  -1 -15 4836.79 183.128   5
   0   1  15 4611.85 187.494   0
   0   1  16 210.064 101.015   0
   0  -1 -16 564.318 123.088   5
   0  -1 -17 1005.85 136.094   5
   0   2 -16 55.6162 45.0666   5
   0  -2  15 157.295 83.6653   0
   0   2 -15 209.370 82.1187   5
   0  -2  14 163.977 54.9561   0
   0   2 -14 242.603 83.1301   5
   0   2 -13 588.986 79.3214   5
   0  -2  13 744.294 104.382   0
   0  -2  12 959.573 119.314   0
   0   2 -12 654.826 71.5871   5
   0   2 -11 17181.2 208.985   5
   0  -2  11 18146.0 212.248   0
   0  -2  10 4350.56 126.959   0
   0   2 -10 3457.96 104.694   5
   0  -2   9 15248.1 165.270   0
   0   2  -9 13674.3 156.651   5
   0   2  -8 87.0505 48.5083   5
   0  -2   8 174.374 64.0695   0
   0   2  -7 23792.9 156.689   5
   0  -2   7 25454.9 153.006   0
   0   2  -6 33679.3 157.251   5
   0  -2   6 34828.8 155.640   0
   0   2  -5 236.870 22.9599   5
   0   2  -5 343.690 19.7757   1
   0   2  -4 6563.49 67.9019   0
   0   2  -4 7354.01 78.1298   5
   0   2  -4 7506.16 45.7010   1
   0   2  -3 6030.11 57.1143   0
   0   2  -3 6627.86 61.8131   5
   0   2  -2 46001.6 107.649   0
   0   2  -1 90332.0 481.929   0
   0   2   0 381925. 923.066   0
   0   2   1 127189. 530.796   0
   0   2   2 414465. 1016.34   0
   0   2   3 1386.41 36.0202   0
   0   2   4 274568. 1003.41   0
   0   2   5 208.276 27.6880   0
   0   2   6 1208.32 48.0545   0
   0  -2  -7 6793.35 90.7993   5
   0   2   7 7557.88 90.1190   0
   0   2   8 10534.6 112.356   0
   0  -2  -8 10006.6 114.455   5
   0   2   9 14219.5 146.675   0
   0  -2  -9 12305.6 119.583   5
   0  -2 -10 1880.93 84.8010   5
   0   2  10 2055.60 80.3369   0
   0  -2 -11 885.468 62.7465   5
   0   2  11 1265.55 92.4798   0
   0   2  12 12655.2 192.855   0
   0  -2 -12 11647.7 204.525   5
   0  -2 -13 4247.99 131.930   5
   0   2  13 4950.02 160.658   0
   0   2  14 2033.95 124.599   0
   0  -2 -14 1524.41 123.201   5
   0  -2 -15 1731.30 120.977   5
   0   2  15 2446.35 163.145   0
   0   2  16 1030.28 124.714   0
   0  -2 -16 460.181 72.2781   5
   0   2  17 441.202 123.710   0
   0   3 -15 68.7474 51.0280   5
   0   3 -15 154.395 83.1802   0
   0   3 -14-4.81931 29.1974   5
   0   3 -14 10.7948 35.1382   0
   0   3 -13 66.1538 55.9788   5
   0   3 -13 68.8080 43.4623   0
   0   3 -12 380.866 74.3600   5
   0   3 -12 337.407 80.6906   0
   0   3 -11 4618.95 140.847   5
   0   3 -11 4517.72 170.260   0
   0   3 -10 14.5836 27.4106   0
   0   3 -10 43.6560 29.8537   5
   0   3  -9 3952.96 126.949   5
   0   3  -9 3323.46 119.400   0
   0   3  -8 11452.2 162.643   0
   0   3  -8 13196.7 159.132   5
   0   3  -7 4441.20 101.791   5
   0   3  -7 3053.73 71.4759   0
   0   3  -6 2214.14 61.6240   5
   0   3  -6 1946.60 50.1180   0
   0   3  -5 6485.30 103.327   5
   0   3  -5 5701.99 94.7480   0
   0   3  -4 7366.62 85.6741   0
   0   3  -4 7683.25 46.9879   1
   0   3  -3 26267.4 123.847   0
   0   3  -3 29109.1 132.157   5
   0   3  -2 15527.6 89.2512   0
   0   3  -1 44808.6 120.820   0
   0   3   0 143.811 17.8900   0
   0   3   1 31942.5 101.869   0
   0   3   2 4083.24 50.5863   0
   0   3   3 91466.1 160.631   0
   0   3   4 69379.8 163.713   0
   0   3   5 16621.4 102.400   0
   0   3   6 862.739 52.3999   0
   0   3   7 23746.1 133.392   0
   0   3   8 531.156 34.2105   0
   0   3   9 16880.3 156.343   0
   0   3  10 66.1122 49.3396   0
   0   3  11 1577.64 81.7494   0
   0   3  12 198.499 39.6598   0
   0   3  13 5681.08 185.776   0
   0   3  14 816.921 110.882   0
   0   3  15 231.274 79.3124   0
   0   3  16 182.779 72.7438   0
   0   4 -14 48.7144 49.7348   0
   0   4 -14 26.3882 40.8466   5
   0   4 -13 365.721 90.1418   0
   0   4 -13 285.465 66.3697   5
   0   4 -12 1138.80 102.009   0
   0   4 -12 1357.77 113.835   5
   0   4 -11 2.99306 25.4740   0
   0   4 -11 71.1229 84.0394   5
   0   4 -10 50.2284 46.3491   5
   0   4 -10 6.42833 22.2010   0
   0   4  -9 18375.6 209.776   0
   0   4  -9 24088.9 228.053   5
   0   4  -8 292.988 57.8542   5
   0   4  -8 127.083 47.5543   0
   0   4  -7 13.5467 21.7585   0
   0   4  -7 48.3431 33.5312   5
   0   4  -6 13916.6 162.130   5
   0   4  -6 12259.3 129.043   0
   0   4  -5 16467.7 159.699   5
   0   4  -5 14104.8 119.225   0
   0   4  -4 374.436 63.9653   0
   0   4  -4 480.541 58.9271   5
   0   4  -3 38349.7 152.028   0
   0   4  -2 21297.9 117.051   0
   0   4  -1 188.254 35.1598   0
   0   4   0 11666.1 98.6545   0
   0   4   1 9638.04 82.7320   0
   0   4   2 194846. 740.184   3
   0   4   2 205773. 970.912   0
   0   4   3 28714.4 127.403   0
   0   4   3 26194.4 75.8462   3
   0   4   4 46498.4 154.946   0
   0   4   5 14876.2 107.595   0
   0   4   6 79047.2 220.059   0
   0   4   7 1133.06 79.1195   0
   0   4   8 22526.8 163.798   0
   0   4   9 516.712 45.1293   0
   0   4  10 308.639 37.2830   0
   0   4  11 3485.32 121.500   0
   0   4  12 13100.5 202.410   0
   0   4  13 37.4563 33.7110   0
   0   4  14 148.022 56.8387   0
   0   4  15 466.474 112.247   0
   0   4  16 374.205 99.1083   0
   0   5 -13 14.6977 42.4518   0
   0   5 -13-5.67854 25.0694   5
   0   5 -12 224.084 102.219   5
   0   5 -12 97.9279 72.5940   0
   0   5 -11 571.238 113.542   5
   0   5 -11 418.237 90.8889   0
   0   5 -10 1969.02 135.233   0
   0   5 -10 3109.85 155.423   5
   0   5  -9 566.789 78.2353   5
   0   5  -9 565.271 92.8154   0
   0   5  -8 10950.1 195.164   5
   0   5  -8 9673.98 181.743   0
   0   5  -7 1103.77 100.282   5
   0   5  -7 871.998 79.7655   0
   0   5  -6 1962.24 104.558   5
   0   5  -6 2010.87 99.0340   0
   0   5  -5 9783.58 132.405   0
   0   5  -5 11494.3 156.503   5
   0   5  -4 29539.2 170.794   0
   0   5  -4 33433.4 206.726   5
   0   5  -3 6745.10 121.361   0
   0   5  -2 1355.04 59.1678   0
   0   5  -1 907.963 59.1558   0
   0   5   0 2532.26 71.8958   0
   0   5   1 3366.19 83.7493   0
   0   5   2 618.697 52.2826   0
   0   5   3 100972. 580.087   3
   0   5   3 108520. 236.563   0
   0   5   4 3425.79 85.6079   0
   0   5   4 3076.07 46.2223   3
   0   5   5 1748.05 35.0769   3
   0   5   5 2793.63 72.9516   0
   0   5   6 5764.20 105.500   0
   0   5   7 7447.09 125.515   0
   0   5   8 76.4961 48.8745   0
   0   5   9 4009.26 122.096   0
   0   5  10 4368.41 134.579   0
   0   5  11 1759.15 101.435   0
   0   5  12 486.183 79.1392   0
   0   5  13 2186.74 128.197   0
   0   5  14 217.238 73.4293   0
   0   5  15 7.19055 28.4827   0
   0   5  16 19.6954 44.4115   0
   0   6 -12 24.6845 52.4128   0
   0   6 -12 25.1118 44.5590   5
   0   6 -11 260.000 91.0123   0
   0   6 -11 489.137 100.805   5
   0   6 -10 94.3151 52.8655   5
   0   6 -10 77.9165 85.0373   0
   0   6  -9 1972.01 140.973   5
   0   6  -9 1381.56 117.079   0
   0   6  -8 503.752 83.8801   5
   0   6  -8 552.054 85.7116   0
   0   6  -7 1329.93 108.114   5
   0   6  -7 1102.36 79.7067   0
   0   6  -6 973.665 80.3109   0
   0   6  -6 1079.53 100.044   5
   0   6  -5 1670.09 81.1324   0
   0   6  -5 3424.05 136.793   5
   0   6  -4 10549.9 167.673   5
   0   6  -4 8186.94 151.464   0
   0   6  -3 33.5141 22.5344   0
   0   6  -2 2187.01 88.8502   0
   0   6  -1 10302.1 123.066   0
   0   6   0 1830.76 83.6206   0
   0   6   1 5984.24 102.034   0
   0   6   2 1027.97 57.4455   0
   0   6   3 6849.35 108.152   0
   0   6   4 2173.87 77.8895   0
   0   6   5 215.282 57.1633   0
   0   6   6 22928.9 169.828   0
   0   6   7 1668.38 83.5252   0
   0   6   8 2149.90 106.803   0
   0   6   9 4367.46 115.555   0
   0   6  10 25.2996 27.6870   0
   0   6  11 3877.58 136.041   0
   0   6  12 1123.56 77.6216   0
   0   6  13 614.066 87.0780   0
   0   6  14 517.143 90.0552   0
   0   6  15 4.78784 29.3386   0
   0   6  16 119.907 57.1995   0
   0   7 -11 22.5581 41.5034   0
   0   7 -11 152.110 65.7099   5
   0   7 -10 301.718 99.0686   0
   0   7 -10 118.144 42.3125   5
   0   7  -9 302.950 98.3761   0
   0   7  -9 17.3134 41.7175   5
   0   7  -8 14.4060 46.8444   5
   0   7  -8 54.2879 52.2029   0
   0   7  -7 532.201 95.7779   5
   0   7  -7 265.495 60.9041   0
   0   7  -6 4483.72 153.771   0
   0   7  -6 5584.99 162.525   5
   0   7  -5 2591.00 122.380   5
   0   7  -5 1759.14 85.3436   0
   0   7  -4 6753.77 142.590   0
   0   7  -4 9478.82 199.836   5
   0   7  -3 2140.16 99.0185   0
   0   7  -2 5014.38 131.974   0
   0   7  -1 529.170 74.8093   0
   0   7   0 6028.52 128.787   0
   0   7   1 4270.92 111.057   0
   0   7   2 562.853 67.3906   0
   0   7   3 1852.92 99.7854   0
   0   7   4 3168.60 115.259   0
   0   7   5 3970.85 127.798   0
   0   7   6 113.313 56.0958   0
   0   7   7 5269.33 126.970   0
   0   7   8 98.7896 65.0950   0
   0   7   9 697.222 89.9022   0
   0   7  10 562.641 96.4449   0
   0   7  11 3968.77 134.158   0
   0   7  12 213.402 53.7077   0
   0   7  13 4.78925 28.5333   0
   0   7  14 196.614 79.8502   0
   0   7  15 553.430 108.531   0
   0   8 -10 62.4914 58.0288   0
   0   8 -10 129.243 73.7228   5
   0   8  -9 17.6009 45.7921   5
   0   8  -9-9.82972 24.0801   0
   0   8  -8-5.23087 21.9954   0
   0   8  -8-4.00960 37.3115   5
   0   8  -7 401.377 68.5517   0
   0   8  -7 664.575 102.835   5
   0   8  -6 1297.04 125.091   5
   0   8  -6 1085.96 104.893   0
   0   8  -5 209.870 82.7317   5
   0   8  -5 70.3374 53.0170   0
   0   8  -4 2017.33 124.001   5
   0   8  -4 1334.20 99.7802   0
   0   8  -3 5468.20 141.099   0
   0   8  -2 1943.17 93.8409   0
   0   8  -1 761.130 81.3974   0
   0   8   0 3036.55 128.878   0
   0   8   1 2.67141 23.5634   0
   0   8   2 13.1003 21.7722   0
   0   8   3 10068.7 156.388   0
   0   8   4 3348.24 118.100   0
   0   8   5 99.7599 67.6609   0
   0   8   6 1558.72 109.669   0
   0   8   7 527.823 83.4035   0
   0   8   8 72.3880 58.6203   0
   0   8   9 515.249 96.9562   0
   0   8  10 200.520 89.8952   0
   0   8  11 48.0255 64.4385   0
   0   8  12 1389.60 128.389   0
   0   8  13 2413.62 164.810   0
   0   8  14-0.83059 24.0804   0
   0   8  15 68.5719 60.9478   0
   0   9  -9 51.4485 59.5549   0
   0   9  -8 25.7658 60.6964   5
   0   9  -8 105.113 75.1878   0
   0   9  -7 173.286 83.1610   5
   0   9  -7 127.810 64.7369   0
   0   9  -6 1787.49 141.672   5
   0   9  -6 1635.41 146.077   0
   0   9  -5 577.901 102.582   5
   0   9  -5 283.225 74.0240   0
   0   9  -4 35.5321 37.3397   5
   0   9  -4 65.0484 56.7361   0
   0   9  -3 2608.29 110.231   0
   0   9  -2 11181.5 211.744   0
   0   9  -1 6459.65 164.873   0
   0   9   0 13734.1 217.680   0
   0   9   1 85.8971 30.8766   0
   0   9   2 3543.81 152.609   0
   0   9   3 12.3281 28.4877   0
   0   9   4 670.885 91.1888   0
   0   9   5 76.2836 58.3659   0
   0   9   6 9.47928 25.9831   0
   0   9   7 532.163 95.5167   0
   0   9   8 640.876 102.502   0
   0   9   9 337.345 83.9563   0
   0   9  10 91.6958 80.5771   0
   0   9  11 1008.74 124.258   0
   0   9  12 661.704 119.695   0
   0   9  13 33.2606 54.6942   0
   0   9  14 9.22625 32.3881   0
   0  10  -7 38.0426 56.3368   0
   0  10  -6 428.925 94.4380   0
   0  10  -6 285.529 88.3541   5
   0  10  -5 881.718 166.346   5
   0  10  -5 273.044 91.4426   0
   0  10  -4 22.1181 51.3954   0
   0  10  -4 30.7356 55.1984   5
   0  10  -3 297.716 102.336   0
   0  10  -2 340.525 59.2210   0
   0  10  -1 17.9176 38.6969   0
   0  10   0 1563.76 122.875   0
   0  10   1 27.2243 46.2319   0
   0  10   2 1667.23 139.903   0
   0  10   3 21.4552 48.4141   0
   0  10   4 903.066 124.325   0
   0  10   5 157.941 73.2551   0
   0  10   6 19.6503 42.8064   0
   0  10   7 188.562 77.6778   0
   0  10   8 70.1389 50.9676   0
   0  10   9 27.3914 51.1348   0
   0  10  10 303.340 95.1042   0
   0  10  11 182.184 93.2087   0
   0  10  12 900.208 108.546   0
   0  10  13 1258.69 161.171   0
   0  11  -5 118.210 68.5112   0
   0  11  -4 202.618 71.1406   0
   0  11  -4 76.2155 71.8010   5
   0  11  -3 236.840 77.3480   0
   0  11  -2 321.404 102.878   0
   0  11  -1 29.2803 35.5211   0
   0  11   0 13.3402 44.1645   0
   0  11   1 240.982 106.586   0
   0  11   2 3530.77 148.287   0
   0  11   3 1875.11 141.374   0
   0  11   4 475.093 82.5327   0
   0  11   5 11.5106 40.6851   0
   0  11   6 456.293 96.5334   0
   0  11   7 132.186 80.2833   0
   0  11   8 22.9233 53.2866   0
   0  11   9 255.524 82.8759   0
   0  11  10 176.187 78.7232   0
   0  11  11 44.0938 61.9054   0
   0  12  -1 36.7807 63.6242   0
   0  12   0 181.477 92.6374   0
   0  12   1 76.7638 58.6555   0
   0  12   2 75.1512 71.1921   0
   0  12   3 65.2550 48.5900   0
   0  12   4 18.5573 43.6437   0
   0  12   5 360.015 115.646   0
   0  12   6 184.449 72.8821   0
   0  12   7 723.618 137.204   0
   0  12   8 399.305 120.584   0
  -1  12   7 16.5343 43.6170   0
  -1  12   6 24.1944 50.1031   0
  -1  12   5 1290.48 156.643   0
  -1  12   4 2151.06 145.315   0
  -1  12   3 620.771 114.746   0
  -1  12   2 153.532 73.8559   0
  -1  12   1 5.72244 38.9431   0
  -1  12   0 83.6273 69.1813   0
  -1  12  -1 51.4069 59.5180   0
  -1  11  10 260.505 90.1746   0
  -1  11   9-7.01959 30.2798   0
  -1  11   8 1030.07 159.941   0
  -1  11   7 1549.39 124.059   0
  -1  11   6 497.550 86.4461   0
  -1  11   5 10.9769 28.0321   0
  -1  11   4 549.628 92.1459   0
  -1  11   3 242.392 78.8617   0
  -1  11   2 108.797 67.3842   0
  -1  11   1 31.2927 44.2428   0
  -1  11   0 331.971 94.6706   0
  -1  11  -1 284.922 70.4227   0
  -1  11  -2 159.063 69.9561   0
  -1  11  -3 19.3841 41.8188   0
  -1  11  -3 11.8032 64.9764   5
  -1  11  -4 43.0471 38.8174   0
  -1  10  12 527.427 105.946   0
  -1  10  11 99.1852 68.2400   0
  -1  10  10 76.0720 69.4728   0
  -1  10   9 259.110 79.1249   0
  -1  10   8 349.747 97.7960   0
  -1  10   7 25.3026 41.9771   0
  -1  10   6 74.9739 62.0789   0
  -1  10   5 3503.82 171.050   0
  -1  10   4 3420.72 146.381   0
  -1  10   3 22.9656 28.2523   0
  -1  10   2 31.0462 45.8416   0
  -1  10   1 440.617 90.2973   0
  -1  10   0 735.141 80.6629   0
  -1  10  -1 810.374 115.119   0
  -1  10  -2 285.998 80.1022   0
  -1  10  -3 68.3326 58.8991   5
  -1  10  -3 8.67267 25.9912   0
  -1  10  -4 477.557 136.965   5
  -1  10  -4 343.637 86.0426   0
  -1  10  -5 250.155 99.1802   5
  -1  10  -5 509.928 111.158   0
  -1  10  -6 23.6047 43.0288   0
  -1  10  -7 114.299 44.9626   0
  -1   9  13 793.072 139.738   0
  -1   9  12-2.43153 29.1953   0
  -1   9  11 39.9177 49.0641   0
  -1   9  10 119.459 76.5799   0
  -1   9   9 179.423 85.2789   0
  -1   9   8 5.92642 31.6856   0
  -1   9   7 347.978 78.9740   0
  -1   9   6 50.5139 37.5711   0
  -1   9   5 1495.90 100.011   0
  -1   9   4 2032.54 132.636   0
  -1   9   3 6546.06 164.656   0
  -1   9   2 158.745 65.2377   0
  -1   9   1 299.120 84.5568   0
  -1   9   0 526.005 75.8934   0
  -1   9  -1 19.2979 37.1308   0
  -1   9  -2 14.7508 39.9389   0
  -1   9  -3 68.8505 62.5868   5
  -1   9  -3 47.1200 44.0347   0
  -1   9  -4 1384.67 130.402   5
  -1   9  -4 1241.98 120.901   0
  -1   9  -5 238.553 81.0011   0
  -1   9  -5 574.514 140.199   5
  -1   9  -6 538.254 99.0505   0
  -1   9  -6 415.262 109.728   5
  -1   9  -7 108.295 56.4145   0
  -1   9  -7 248.942 136.586   5
  -1   9  -8 424.312 87.9240   0
  -1   9  -9 65.1529 62.0389   0
  -1   8  14 832.350 120.500   0
  -1   8  13 583.531 111.476   0
  -1   8  12 342.375 97.8505   0
  -1   8  11 44.1474 46.0798   0
  -1   8  10 519.300 102.612   0
  -1   8   9 53.5175 45.1991   0
  -1   8   8 456.104 59.9392   0
  -1   8   7 233.621 66.7961   0
  -1   8   6 147.945 40.6260   0
  -1   8   5 2123.02 114.108   0
  -1   8   4 3317.85 137.261   0
  -1   8   3 13361.3 173.582   0
  -1   8   2 20402.7 200.523   0
  -1   8   1 12422.3 203.987   0
  -1   8   0 6096.98 149.889   0
  -1   8  -1 740.066 78.6980   0
  -1   8  -2 29.1414 46.7992   0
  -1   8  -3 2232.29 98.7773   0
  -1   8  -4 2445.41 118.523   0
  -1   8  -4 2848.45 158.823   5
  -1   8  -5 2044.13 127.767   0
  -1   8  -5 2345.32 121.622   5
  -1   8  -6 310.375 80.1291   5
  -1   8  -6 244.617 78.5164   0
  -1   8  -7 874.535 130.826   5
  -1   8  -7 617.262 110.059   0
  -1   8  -8 100.107 53.5019   0
  -1   8  -8 140.988 55.0515   5
  -1   8  -9 1.79383 27.5343   0
  -1   8  -9 29.1666 60.7891   5
  -1   8 -10 10.5509 26.6850   0
  -1   7  15 36.5406 55.5732   0
  -1   7  14 229.489 76.5730   0
  -1   7  13 1888.58 151.915   0
  -1   7  12 2.42455 26.3669   0
  -1   7  11 13.5145 36.1228   0
  -1   7  10 81.0245 57.2620   0
  -1   7   9 3145.48 131.207   0
  -1   7   8 88.9142 50.5165   0
  -1   7   7 7.63409 25.7834   0
  -1   7   6 4489.46 119.571   0
  -1   7   5 270.734 46.3753   0
  -1   7   4 729.110 74.7747   0
  -1   7   3 38156.8 229.930   0
  -1   7   2 4481.04 126.639   0
  -1   7   1 7323.37 133.193   0
  -1   7   0 7062.27 126.282   0
  -1   7  -1 8713.69 141.792   0
  -1   7  -2 137.393 50.7149   0
  -1   7  -3 189.092 51.1788   0
  -1   7  -4 4844.09 137.962   0
  -1   7  -4 6229.26 172.791   5
  -1   7  -5 2254.23 126.518   0
  -1   7  -5 2399.47 119.925   5
  -1   7  -6 62.8397 40.6593   0
  -1   7  -6 157.950 74.2225   5
  -1   7  -7 123.683 72.2140   5
  -1   7  -7 51.4046 40.4350   0
  -1   7  -8 2176.23 136.708   0
  -1   7  -8 2500.46 163.972   5
  -1   7  -9 111.490 60.9944   0
  -1   7  -9 23.1066 48.9179   5
  -1   7 -10 61.1870 51.5794   5
  -1   7 -10 331.017 94.1370   0
  -1   7 -11 142.149 58.1454   0
  -1   6  16 24.1171 42.5671   0
  -1   6  15 28.2176 42.6094   0
  -1   6  14 1040.10 95.6989   0
  -1   6  13 1701.18 130.938   0
  -1   6  12 546.937 85.4893   0
  -1   6  11 197.520 58.8439   0
  -1   6  10 4217.67 133.225   0
  -1   6   9 149.069 66.5721   0
  -1   6   8 2424.43 107.537   0
  -1   6   7 56.7239 38.2970   0
  -1   6   6-1.99656 14.5024   0
  -1   6   5 1837.34 88.4079   0
  -1   6   4 23965.4 167.185   0
  -1   6   3 343.821 53.9710   0
  -1   6   3 348.023 37.2125   2
  -1   6   2 5508.99 97.0820   0
  -1   6   1 9413.19 130.756   0
  -1   6   0 2095.12 83.1529   0
  -1   6  -1 13227.4 156.309   0
  -1   6  -2 3694.31 107.654   0
  -1   6  -3 7550.04 135.980   0
  -1   6  -4 4043.46 142.678   5
  -1   6  -4 3104.87 106.656   0
  -1   6  -5 1045.43 82.9836   0
  -1   6  -5 1331.66 103.376   5
  -1   6  -6 2049.27 133.952   5
  -1   6  -6 1477.65 85.5538   0
  -1   6  -7 741.629 76.3189   0
  -1   6  -7 585.085 75.7999   5
  -1   6  -8 323.214 99.0946   5
  -1   6  -8 423.236 83.7123   0
  -1   6  -9 274.329 77.9163   0
  -1   6  -9 852.925 122.365   5
  -1   6 -10 177.563 63.5468   5
  -1   6 -10 67.3569 42.9823   0
  -1   6 -11 654.562 84.7524   0
  -1   6 -11 728.573 119.043   5
  -1   6 -12 298.051 113.278   0
  -1   6 -12 106.910 64.7542   5
  -1   5  16 17.4458 38.4032   0
  -1   5  15 291.999 57.2304   0
  -1   5  14 2475.13 130.036   0
  -1   5  13 687.856 105.833   0
  -1   5  12 326.178 102.095   0
  -1   5  11 4603.11 136.293   0
  -1   5  10 29.1995 24.8303   0
  -1   5   9 16051.4 169.231   0
  -1   5   8 36.3784 40.9352   0
  -1   5   7 198.367 57.2906   0
  -1   5   6 66.1026 31.5918   0
  -1   5   5 17026.1 144.526   0
  -1   5   4 4916.90 93.4707   0
  -1   5   3 28499.5 146.935   0
  -1   5   2 4271.57 55.8799   2
  -1   5   2 4165.89 73.0573   0
  -1   5   1 62416.7 196.667   0
  -1   5   1 61304.6 135.621   2
  -1   5   0 2146.69 73.5343   0
  -1   5  -1 37661.3 177.446   0
  -1   5  -2 630.000 64.1618   0
  -1   5  -3 2534.61 92.1757   5
  -1   5  -3 1944.34 71.3202   0
  -1   5  -4 318.909 34.7231   0
  -1   5  -4 435.676 65.4249   5
  -1   5  -5 3386.47 124.215   5
  -1   5  -5 3401.52 101.494   0
  -1   5  -6 5486.73 119.141   0
  -1   5  -6 6135.10 160.991   5
  -1   5  -7 20.2506 39.9634   5
  -1   5  -7 24.0698 29.8277   0
  -1   5  -8 2453.40 135.292   5
  -1   5  -8 2536.42 122.132   0
  -1   5  -9 916.870 99.3683   0
  -1   5  -9 1559.70 115.260   5
  -1   5 -10 2774.75 125.454   0
  -1   5 -10 4430.33 165.439   5
  -1   5 -11 247.012 65.7246   0
  -1   5 -11 251.158 111.289   5
  -1   5 -12 820.979 133.319   5
  -1   5 -12 595.658 89.5799   0
  -1   5 -13 34.5116 55.0177   0
  -1   5 -13 22.4607 44.4945   5
  -1   4  16 242.329 105.355   0
  -1   4  15 287.515 100.646   0
  -1   4  14 321.810 52.4179   0
  -1   4  13-4.65089 35.1502   0
  -1   4  12 10.5460 28.6980   0
  -1   4  11 466.489 87.7227   0
  -1   4  10 9585.37 150.489   0
  -1   4   9 809.105 69.5696   0
  -1   4   8 525.733 63.1487   0
  -1   4   8 297.608 25.1643   6
  -1   4   7 1039.67 83.7797   0
  -1   4   6 44429.5 183.104   0
  -1   4   5 554.524 49.1021   0
  -1   4   4 29847.5 134.778   0
  -1   4   3 2152.17 56.5419   0
  -1   4   2 1974.18 52.8967   0
  -1   4   2 2333.31 42.7707   2
  -1   4   1 6977.15 78.6937   0
  -1   4   1 7000.29 59.5199   2
  -1   4   0 17723.5 69.3538   2
  -1   4   0 18274.6 105.374   0
  -1   4  -1 66522.2 169.788   0
  -1   4  -1 69676.4 123.447   2
  -1   4  -2 31432.5 150.099   0
  -1   4  -3 783.641 60.5757   5
  -1   4  -3 661.100 48.8148   1
  -1   4  -4 1063.99 56.3408   0
  -1   4  -4 1195.96 49.7259   1
  -1   4  -4 1359.90 81.4992   5
  -1   4  -5 17214.4 140.521   0
  -1   4  -5 16715.5 107.579   1
  -1   4  -5 18845.4 172.100   5
  -1   4  -5 14669.7 114.223   6
  -1   4  -6 22.0678 21.0853   5
  -1   4  -6 64.7306 33.3018   0
  -1   4  -7 11360.7 177.199   5
  -1   4  -7 9897.09 138.257   0
  -1   4  -8 8854.33 179.908   5
  -1   4  -8 5946.64 133.367   0
  -1   4  -9 16.2916 32.1317   0
  -1   4  -9 302.068 77.5694   5
  -1   4 -10 104.636 75.9548   5
  -1   4 -10 89.7170 58.3945   0
  -1   4 -11 2768.06 157.462   5
  -1   4 -11 1888.45 111.303   0
  -1   4 -12 84.0344 43.5279   5
  -1   4 -12 85.3090 42.5562   0
  -1   4 -13 8.25757 30.7495   5
  -1   4 -13 5.62043 29.4902   0
  -1   4 -14 238.660 92.3475   5
  -1   4 -14 135.623 74.2826   0
  -1   3  16 54.1544 47.9484   0
  -1   3  15 3586.54 166.439   0
  -1   3  14 51.8781 70.7702   0
  -1   3  13 400.169 88.1045   0
  -1   3  12 3975.87 147.515   0
  -1   3  11 14590.8 189.785   0
  -1   3  10 2341.13 94.6193   0
  -1   3   9 19171.1 167.355   0
  -1   3   8 29.3035 17.8361   6
  -1   3   8 96.0005 32.5590   0
  -1   3   7 41105.7 132.729   6
  -1   3   7 53134.2 198.383   0
  -1   3   6 593.571 56.4478   0
  -1   3   6 540.121 24.8347   4
  -1   3   5 112595. 217.478   0
  -1   3   4 17697.2 99.0908   0
  -1   3   3 3853.37 58.1530   0
  -1   3   2 24988.7 96.1769   0
  -1   3   1 233053. 889.885   0
  -1   3   1 239496. 860.035   2
  -1   3   0 38030.5 91.3516   2
  -1   3   0 35646.6 105.502   0
  -1   3  -1 6918.59 71.5184   1
  -1   3  -1 6879.81 48.1355   2
  -1   3  -1 6534.99 60.0088   0
  -1   3  -2 3216.65 58.8761   0
  -1   3  -2 3447.73 62.3271   1
  -1   3  -3 76039.9 170.895   0
  -1   3  -3 77753.6 195.799   5
  -1   3  -3 77370.6 167.653   1
  -1   3  -4 6058.85 67.6494   1
  -1   3  -4 5874.50 76.6843   0
  -1   3  -4 6079.57 97.6564   5
  -1   3  -5 7933.74 93.9996   0
  -1   3  -5 8509.96 82.8624   1
  -1   3  -5 8168.31 114.000   5
  -1   3  -6 13472.6 126.469   0
  -1   3  -6 14597.1 150.788   5
  -1   3  -6 13910.2 102.387   1
  -1   3  -7 7058.99 114.132   0
  -1   3  -7 8805.12 153.955   5
  -1   3  -8 635.747 70.2956   5
  -1   3  -8 199.778 32.5044   0
  -1   3  -9 15298.8 175.617   0
  -1   3  -9 18392.4 209.914   5
  -1   3 -10 1839.78 88.7398   0
  -1   3 -10 2701.55 139.198   5
  -1   3 -11 375.914 41.5157   0
  -1   3 -11 381.966 71.4297   5
  -1   3 -12 10.8329 26.5419   0
  -1   3 -12 22.4358 34.1475   5
  -1   3 -13 1208.38 117.674   0
  -1   3 -13 1706.91 147.932   5
  -1   3 -14 214.746 55.9697   0
  -1   3 -14 133.304 43.4188   5
  -1   3 -15 133.481 64.3567   5
  -1   3 -15 194.196 64.0691   0
  -1   2  16 1634.58 151.622   0
  -1   2  15 73.0736 66.3764   0
  -1   2  14 759.393 89.8413   0
  -1   2  13 681.053 79.5464   0
  -1   2  12 279.051 75.8200   0
  -1   2  11 467.766 64.7532   0
  -1   2  10 23022.8 218.880   0
  -1   2   9 92.0454 32.7264   0
  -1   2   8 795.946 64.7593   0
  -1   2   7 25199.4 147.335   0
  -1   2   7 21294.6 87.0302   6
  -1   2   6 30910.9 100.853   6
  -1   2   6 37290.5 144.982   0
  -1   2   5 901.743 35.4893   0
  -1   2   5 749.351 32.0169   6
  -1   2   4 111.719 28.1809   6
  -1   2   4 128.248 18.0103   4
  -1   2   4 93.6598 26.3126   0
  -1   2   3 4118.92 50.7979   0
  -1   2   3 2765.36 44.4598   6
  -1   2   2 36299.2 90.6466   0
  -1   2   1 1295.22 21.6990   0
  -1   2   1 1421.73 31.5970   2
  -1   2   0 215958. 694.862   0
  -1   2   0 217809. 880.459   1
  -1   2  -1 12695.5 57.2517   0
  -1   2  -1 13613.2 59.5685   2
  -1   2  -1 13422.5 74.3215   1
  -1   2  -2 31279.8 113.668   5
  -1   2  -2 30450.4 88.1057   0
  -1   2  -2 30872.4 96.4342   1
  -1   2  -3 12895.6 74.0252   0
  -1   2  -3 13170.9 76.6669   1
  -1   2  -3 13298.4 90.2310   5
  -1   2  -4 4287.52 54.0516   0
  -1   2  -4 4454.29 69.9460   5
  -1   2  -4 4828.85 56.7989   1
  -1   2  -4 3950.72 50.7766   6
  -1   2  -5 34836.3 117.460   1
  -1   2  -5 32199.7 145.297   5
  -1   2  -5 29353.2 96.7114   6
  -1   2  -5 32010.8 131.651   0
  -1   2  -6 2233.52 57.7660   1
  -1   2  -6 2061.10 41.6761   6
  -1   2  -6 2386.57 75.1789   5
  -1   2  -7 201.014 25.5757   1
  -1   2  -7 215.445 56.1975   5
   1  -2   7 339.512 47.7367   0
  -1   2  -8 47322.2 230.595   5
   1  -2   8 51383.6 211.627   0
   1  -2   9 1450.97 91.5155   0
  -1   2  -9 969.210 86.1968   5
  -1   2 -10 608.183 51.1187   5
   1  -2  10 749.163 73.1798   0
   1  -2  11 252.577 59.4731   0
  -1   2 -11 224.825 52.5585   5
   1  -2  12 896.872 115.991   0
  -1   2 -12 598.346 93.1817   5
  -1   2 -13 86.8126 40.2252   5
   1  -2  13 280.055 79.1083   0
  -1   2 -14 639.827 119.949   5
  -1   2 -15 68.5750 62.3727   5
  -1   2 -16 61.4972 62.9658   0
  -1   1  16 67.4915 46.8359   0
   1  -1 -15 514.684 94.0894   5
  -1   1  15 747.212 113.481   0
  -1   1  14 1841.29 117.449   0
   1  -1 -14 1687.63 121.918   5
   1  -1 -13 951.604 87.9607   5
  -1   1  13 896.199 102.780   0
  -1   1  12 7893.27 179.942   0
   1  -1 -12 6685.84 141.151   5
  -1   1  11 261.827 67.1859   0
   1  -1 -11 308.495 52.8765   5
   1  -1 -10 3270.58 101.576   5
  -1   1  10 4005.70 114.030   0
  -1   1   9 52.5011 29.2060   0
   1  -1  -9 35.3007 20.2980   5
  -1   1   8 4174.84 96.4930   0
   1  -1  -8 3751.02 86.2328   5
   1  -1  -7 111249. 228.485   5
  -1   1   7 114271. 247.738   0
  -1   1   6 780.920 23.7024   6
   1  -1  -6 992.119 45.8069   5
  -1   1   6 801.252 43.1743   0
  -1   1   5 11942.2 78.2200   0
  -1   1   5 10935.9 56.6999   6
   1  -1  -5 12183.9 74.7370   5
  -1   1   4 714.120 23.5519   6
  -1   1   4 782.131 39.1696   0
  -1   1   3 134934. 601.244   6
  -1   1   3 171047. 692.702   0
  -1   1   2 22744.0 62.5787   0
  -1   1   2 16587.6 62.4668   6
  -1   1   1 61506.2 110.642   1
  -1   1   1 59876.5 103.458   2
  -1   1   0 91129.4 449.040   2
  -1   1   0 88086.2 484.336   1
  -1   1  -1 127994. 593.744   1
  -1   1  -1 123194. 554.459   5
  -1   1  -2 12382.6 48.6255   0
  -1   1  -2 12487.5 66.8406   5
  -1   1  -2 13127.8 65.0786   1
  -1   1  -3 124678. 643.053   1
  -1   1  -3 98318.6 509.150   6
   1  -1   3 128372. 593.539   0
  -1   1  -3 113311. 683.447   5
  -1   1  -4 41838.9 134.045   5
  -1   1  -4 44900.8 117.751   1
  -1   1  -4 37741.5 86.7405   6
   1  -1   4 46446.3 116.773   0
  -1   1  -5 4084.14 60.5469   1
  -1   1  -5 3510.94 36.6014   6
   1  -1   5 4250.67 61.3060   0
  -1   1  -5 3953.56 69.9795   5
  -1   1  -6 84.0905 29.0244   5
   1  -1   6 113.260 31.7349   0
  -1   1  -6 51.8309 17.3753   1
  -1   1  -7 25569.2 119.112   1
   1  -1   7 25160.9 139.229   0
  -1   1  -8 34034.5 147.877   1
   1  -1   8 32627.6 170.859   0
  -1   1  -9 1004.95 50.5919   1
  -1   1  -9 1176.09 56.0834   5
  -1   1 -10-12.4134 17.0605   5
   1  -1  10 13.4182 22.7393   0
   1  -1  11 8843.53 155.474   0
  -1   1 -11 7616.08 164.860   5
  -1   1 -12 1258.95 101.307   5
   1  -1  12 1485.88 110.447   0
   1  -1  13 2354.84 119.387   0
  -1   1 -13 2413.40 151.870   5
   1  -1  14 342.891 82.7364   0
  -1   1 -14 242.692 72.4702   5
   1  -1  15 6.04045 32.3737   0
  -1   1 -15 4.02268 36.6457   5
  -1   1 -16 120.875 79.5413   5
   1  -1  16 51.2305 51.6993   0
  -1   0  16 692.485 137.755   0
  -1   0  15 611.477 97.3787   0
   1   0 -15 410.364 93.6923   5
  -1   0  14 82.9627 58.9924   0
   1   0 -14 42.9797 35.9993   5
  -1   0  13 1755.41 133.288   0
   1   0 -13 1437.54 99.1327   5
   1   0 -12 2399.26 110.397   5
  -1   0  12 2411.62 147.153   0
  -1   0  11 2267.22 111.868   0
   1   0 -11 1799.61 80.5089   5
   1   0 -10 1826.10 85.6351   5
  -1   0  10 2042.36 88.9446   0
   1   0  -9 5995.04 109.498   5
  -1   0   9 6562.89 125.234   0
   1   0  -8 14792.6 122.545   5
  -1   0   8 16869.3 151.782   0
  -1   0   7 14263.8 113.089   0
   1   0  -7 13070.9 103.082   5
   1   0  -6 13291.1 88.2538   5
  -1   0   6 15182.4 118.216   0
  -1   0   5 3859.78 61.4608   0
   1   0  -5 3346.61 49.1320   5
  -1   0   4 38593.5 106.454   0
   1   0  -4 33673.9 90.3087   5
   1   0  -3 103414. 473.968   5
  -1   0   3 110817. 557.380   0
  -1   0   2 76087.2 384.317   0
  -1   0   1 1279.02 25.3582   4
  -1   0   1 1166.44 27.8408   2
  -1   0   0 3950.83 32.3342   2
  -1   0  -1 9549.00 47.3234   1
  -1   0  -1 10630.6 46.6071   2
  -1   0  -2 208003. 719.601   5
  -1   0  -2 274748. 845.837   1
   1   0   3 9916.10 48.8112   0
  -1   0  -3 8548.72 55.6610   5
  -1   0  -3 11238.6 61.9276   1
  -1   0  -4 23952.9 90.3245   1
   1   0   4 21251.7 76.9628   0
  -1   0  -4 18724.7 89.1755   5
  -1   0  -5 1999.67 47.9269   1
  -1   0  -5 1403.97 47.1437   5
   1   0   5 1696.02 44.0210   0
   1   0   6 14406.1 96.3251   0
  -1   0  -6 13435.6 107.534   5
  -1   0  -6 15246.0 94.5574   1
  -1   0  -7 26511.6 149.132   5
   1   0   7 27500.8 126.981   0
  -1   0  -8 39432.6 157.887   1
   1   0   8 38089.5 171.337   0
  -1   0  -8 36436.2 189.915   5
  -1   0  -9 117.674 35.2683   1
   1   0   9 73.0298 34.5793   0
  -1   0  -9 98.4041 41.4815   5
  -1   0 -10 6732.87 131.121   5
  -1   0 -10 7105.55 105.906   1
   1   0  10 7276.92 130.505   0
   1   0  11 37.8749 35.1474   0
  -1   0 -11 25.0170 27.5714   5
  -1   0 -12 14660.7 198.142   5
   1   0  12 17342.1 209.352   0
   1   0  13 520.465 92.0794   0
  -1   0 -13 305.426 69.9794   5
  -1   0 -14 53.0732 47.6400   5
   1   0  14 48.3665 42.2360   0
  -1   0 -15 162.554 94.5886   5
   1   0  15 17.1992 36.7236   0
   1   0  16 192.734 77.1444   0
  -1   0 -16 199.763 81.5784   5
  -1  -1  16 433.460 118.784   0
   1   1 -15 166.513 69.1583   5
  -1  -1  15 109.538 71.7092   0
   1   1 -14 3957.87 173.477   5
  -1  -1  14 4098.53 172.672   0
   1   1 -13 1154.27 100.357   5
  -1  -1  13 1346.01 133.421   0
   1   1 -12 16.8589 28.8040   5
  -1  -1  12 11.0339 38.9609   0
  -1  -1  11 17.6632 27.3212   0
   1   1 -11 1.52308 15.7871   5
   1   1 -10 6286.94 116.919   5
  -1  -1  10 6573.56 131.428   0
   1   1  -9 1077.62 72.0996   5
  -1  -1   9 1197.27 87.6325   0
   1   1  -8 777.089 59.1761   5
  -1  -1   8 915.704 66.8401   0
  -1  -1   7 15941.3 132.462   0
   1   1  -7 14801.8 112.781   5
  -1  -1   6 8927.34 99.0677   0
   1   1  -6 7794.24 76.3237   5
   1   1  -5 33730.9 117.164   5
  -1  -1   5 36336.7 126.566   0
  -1  -1   4 9539.10 73.9745   0
   1   1  -4 8780.52 62.7993   5
   1   1  -3 937733. 1583.86   5
  -1  -1   3 999999. 1793.19   0
  -1  -1   2 145367. 594.208   0
   1   1  -1 5005.05 38.8495   3
   1   1  -1 4667.54 31.5112   0
  -1  -1   1 4891.50 33.7242   2
  -1  -1  -2 23383.1 65.0309   5
  -1  -1  -2 26823.9 77.4172   1
   1   1   3 61685.1 375.214   0
  -1  -1  -3 50606.2 108.016   5
   1   1   4 20557.3 76.4446   0
  -1  -1  -4 17319.3 86.1402   5
  -1  -1  -5 50166.4 139.070   5
   1   1   5 61252.4 139.878   0
   1   1   6 30566.8 119.054   0
  -1  -1  -6 26954.9 128.203   5
   1   1   7 17901.1 115.703   0
  -1  -1  -7 16663.5 125.682   5
   1   1   8 8208.58 107.202   0
  -1  -1  -8 7475.02 107.886   5
   1   1   9 1268.29 79.3109   0
  -1  -1  -9 1153.48 71.0347   5
  -1  -1  -9 1482.59 69.9256   1
   1   1  10 7300.78 128.335   0
  -1  -1 -10 6630.24 145.752   5
  -1  -1 -10 7890.19 109.434   1
  -1  -1 -11 9118.90 163.384   5
   1   1  11 9113.90 148.407   0
  -1  -1 -12 5434.80 136.893   5
   1   1  12 6232.88 165.972   0
  -1  -1 -13 299.804 79.7835   5
   1   1  13 388.085 78.2504   0
  -1  -1 -14 242.143 69.0479   5
   1   1  14 482.136 97.0881   0
  -1  -1 -15 2585.46 131.963   5
   1   1  15 3259.39 155.271   0
  -1  -1 -16 155.292 87.7708   5
   1   1  16 66.5171 54.7536   0
   1   1  17 1262.43 141.778   0
   1   2 -15 516.972 100.397   5
  -1  -2  15 1146.02 153.245   0
   1   2 -14 658.034 89.6947   5
  -1  -2  14 719.373 114.680   0
  -1  -2  13 102.261 44.9594   0
   1   2 -13 63.2691 45.2516   5
  -1  -2  12 899.880 118.573   0
   1   2 -12 722.430 87.8540   5
  -1  -2  11 2178.06 124.314   0
   1   2 -11 1724.55 87.0821   5
   1   2 -10 997.277 87.3830   5
  -1  -2  10 1239.01 108.032   0
  -1  -2   9 14521.1 162.938   0
   1   2  -9 12909.4 145.478   5
   1   2  -8 14249.1 145.734   5
  -1  -2   8 15674.5 153.374   0
  -1  -2   7 5723.04 104.955   0
   1   2  -7 5210.98 89.2764   5
   1   2  -6 16221.6 112.373   5
  -1  -2   6 16233.4 119.215   0
  -1  -2   5 15079.4 108.399   0
   1   2  -5 14720.6 100.051   5
   1   2  -4 96899.6 187.034   5
   1   2  -3 101147. 637.395   0
   1   2  -3 111766. 644.753   5
  -1  -2   2 994.180 25.8614   2
   1   2  -2 911.329 31.1271   0
   1   2  -1 238076. 798.329   0
   1   2  -1 241367. 890.690   3
   1   2   0 9747.25 53.4165   3
   1   2   0 9879.92 50.6973   0
   1   2   1 117196. 501.677   0
  -1  -2  -1 114694. 504.033   4
   1   2   2 126173. 544.723   0
   1   2   3 9591.58 56.3756   0
   1   2   4 876.300 30.7414   0
  -1  -2  -5 29814.5 122.813   5
   1   2   5 34719.5 111.534   0
   1   2   6 36224.5 133.051   0
  -1  -2  -6 32205.8 138.917   5
  -1  -2  -7 23571.9 131.090   5
   1   2   7 29176.6 142.510   0
  -1  -2  -8 298.812 51.7623   5
   1   2   8 303.597 45.1964   0
  -1  -2  -9 6112.78 111.602   5
   1   2   9 6724.25 105.641   0
  -1  -2 -10 17929.4 175.788   5
   1   2  10 18837.3 171.289   0
   1   2  11 1444.69 104.008   0
  -1  -2 -11 1535.00 100.935   5
   1   2  12 16888.8 202.362   0
  -1  -2 -12 13928.6 198.455   5
   1   2  13 2445.80 127.281   0
  -1  -2 -13 2050.17 112.962   5
  -1  -2 -14 4679.45 153.193   5
   1   2  14 4730.28 157.206   0
   1   2  15 180.085 70.5834   0
  -1  -2 -15 264.313 82.6392   5
   1   2  16 1706.49 131.233   0
  -1  -2 -16 1747.44 139.945   5
   1   2  17 24.1910 46.9990   0
  -1  -2 -17 9.88367 39.6884   5
   1   3 -15 25.0610 44.8169   0
   1   3 -15 125.313 82.9022   5
   1   3 -14 1190.49 114.593   5
   1   3 -14 1246.72 132.308   0
   1   3 -13 51.9038 48.6552   5
   1   3 -13 84.7572 53.3485   0
   1   3 -12 2789.17 166.724   0
   1   3 -12 2938.53 143.453   5
   1   3 -11 4.18812 26.8651   5
   1   3 -11 4.56702 31.7481   0
   1   3 -10 3483.59 120.150   0
   1   3 -10 4164.44 119.520   5
   1   3  -9 66.3340 23.8714   0
   1   3  -9 115.609 44.3950   5
   1   3  -8 324.351 69.5756   5
   1   3  -8 92.1590 24.7783   0
   1   3  -7 1770.07 74.7581   5
   1   3  -7 1094.41 54.6824   0
   1   3  -6 14219.2 121.023   5
   1   3  -6 12774.5 118.939   0
   1   3  -5 3855.57 70.5906   5
   1   3  -5 3366.20 66.1108   0
   1   3  -4 1725.25 58.4481   5
   1   3  -4 1498.14 52.8044   0
   1   3  -3 53661.7 151.771   5
   1   3  -3 48295.6 142.794   0
   1   3  -2 41088.0 136.146   0
   1   3  -1 175456. 815.981   0
   1   3   0 1490.85 30.3385   0
   1   3   0 1602.19 48.9200   3
   1   3   1 134059. 664.478   0
   1   3   1 132875. 678.839   3
   1   3   2 34425.1 97.4506   0
  -1  -3  -2 31649.4 75.6051   4
   1   3   3 1484.52 43.7108   0
   1   3   4 43443.1 125.666   0
   1   3   5 15837.7 89.3047   0
   1   3   6 10679.5 108.845   0
   1   3   7 2491.23 68.8064   0
   1   3   8 767.079 43.2554   0
   1   3   9 8656.39 123.252   0
   1   3  10 10393.1 139.856   0
   1   3  11 5797.36 125.685   0
  -1  -3 -11 5102.64 133.599   5
   1   3  12 539.295 49.3287   0
  -1  -3 -12 468.108 39.1205   5
  -1  -3 -13 3978.34 134.204   5
   1   3  13 5066.85 160.738   0
   1   3  14 2886.30 156.975   0
   1   3  15 334.294 91.0852   0
   1   3  16 81.3272 90.4456   0
   1   3  17 22.3690 50.1137   0
   1   4 -15 180.613 69.6160   5
   1   4 -14 330.534 81.2566   5
   1   4 -14 297.628 70.0628   0
   1   4 -13 373.142 80.3095   5
   1   4 -13 206.992 58.4720   0
   1   4 -12 7.51228 33.6842   5
   1   4 -12 2.93827 22.3033   0
   1   4 -11 2556.43 135.881   5
   1   4 -11 1812.14 118.771   0
   1   4 -10 167.088 41.8118   0
   1   4 -10 286.678 46.9170   5
   1   4  -9 922.334 100.139   5
   1   4  -9 359.870 42.9916   0
   1   4  -8 3.50591 20.8581   0
   1   4  -8 216.158 55.7579   5
   1   4  -7 13482.8 157.602   5
   1   4  -7 11428.3 147.893   0
   1   4  -6 1047.78 62.9192   5
   1   4  -6 972.106 70.0296   0
   1   4  -5 17144.8 142.716   5
   1   4  -5 15088.4 137.978   0
   1   4  -4 34397.6 166.751   0
   1   4  -4 39211.4 175.671   5
   1   4  -3 4194.16 79.2862   0
  -1  -4   3 2631.42 28.5898   2
   1   4  -2 13404.1 104.165   0
   1   4  -1 35151.2 142.729   0
   1   4   0 12688.0 89.4305   0
   1   4   0 12715.5 80.9848   3
   1   4   1 25903.1 113.036   0
   1   4   1 25506.9 104.520   3
  -1  -4  -2 30189.1 88.5079   4
   1   4   2 30582.8 118.824   0
   1   4   2 29106.2 103.555   3
   1   4   3 31629.1 125.473   0
  -1  -4  -3 30762.7 80.0035   4
   1   4   4 42568.0 146.522   0
   1   4   5 944.522 53.4993   0
   1   4   6 48212.8 170.002   0
   1   4   7 1210.91 59.4959   0
   1   4   8 9903.73 130.315   0
   1   4   9 11146.8 148.254   0
   1   4  10 10993.5 149.359   0
   1   4  11 87.8142 43.3886   0
   1   4  12 60.9494 53.2432   0
   1   4  13 1495.98 123.010   0
   1   4  14 11543.0 219.453   0
   1   4  15 2450.18 132.651   0
   1   4  16 2993.74 174.273   0
   1   4  17 75.8801 43.8259   0
   1   5 -14 100.835 57.3342   5
   1   5 -13-6.57920 32.2973   5
   1   5 -13 25.0552 41.5551   0
   1   5 -12 3095.93 146.232   5
   1   5 -12 2485.65 149.019   0
   1   5 -11 47.4135 48.8989   5
   1   5 -11 13.5423 39.3466   0
   1   5 -10 43.2277 38.6350   5
   1   5 -10 12.6248 29.5203   0
   1   5  -9 1302.36 94.4528   5
   1   5  -9 1019.82 100.272   0
   1   5  -8 2988.61 124.426   0
   1   5  -8 2949.58 122.787   5
   1   5  -7 1041.91 82.2120   5
   1   5  -7 1071.26 90.5802   0
   1   5  -6 12107.3 173.274   0
   1   5  -6 13933.0 174.244   5
   1   5  -5 47.8720 36.8292   0
   1   5  -5 84.5554 46.6576   5
   1   5  -4 2868.50 89.7605   5
   1   5  -4 2502.26 82.6116   0
   1   5  -3 152.817 39.7636   0
   1   5  -2 81.4548 18.8657   0
   1   5  -1 50475.5 185.972   0
   1   5   0 951.805 55.2283   0
   1   5   1 17760.9 107.138   0
   1   5   1 18557.6 106.647   3
   1   5   2 33196.4 148.153   0
   1   5   2 31527.9 126.210   3
  -1  -5  -3 43235.3 108.208   4
   1   5   3 41874.4 134.681   3
   1   5   3 43796.8 162.278   0
   1   5   4 6012.90 98.1966   0
   1   5   5 21826.6 138.984   0
   1   5   6 14907.1 129.607   0
   1   5   7 1384.73 80.8567   0
   1   5   8 8702.60 130.693   0
   1   5   9 4644.98 119.430   0
   1   5  10 3.73103 22.2016   0
   1   5  11 4160.23 144.898   0
   1   5  12 7616.09 159.215   0
   1   5  13 762.986 88.7607   0
   1   5  14 1588.51 148.083   0
   1   5  15 49.7646 39.6338   0
   1   5  16 171.440 70.9122   0
   1   5  17 232.892 107.839   0
   1   6 -13 701.862 130.476   5
   1   6 -12 142.363 76.5399   5
   1   6 -12 81.8766 61.5340   0
   1   6 -11 686.047 109.807   0
   1   6 -11 1072.80 128.581   5
   1   6 -10 87.7909 59.1701   0
   1   6 -10 242.178 84.2051   5
   1   6  -9 359.383 73.2514   0
   1   6  -9 521.522 70.1527   5
   1   6  -8 452.213 72.0168   5
   1   6  -8 530.541 81.7460   0
   1   6  -7 13237.6 210.619   5
   1   6  -7 11885.3 184.898   0
   1   6  -6 160.390 64.4190   0
   1   6  -6 57.5555 36.3184   5
   1   6  -5 490.120 82.2429   5
   1   6  -5 446.583 88.3827   0
   1   6  -4 636.959 68.6005   0
   1   6  -4 1151.38 91.9469   5
   1   6  -3 13369.4 175.251   0
   1   6  -2 3244.15 95.3769   0
   1   6  -1 291.574 58.5568   0
   1   6   0 7948.84 121.617   0
   1   6   1 8034.00 114.938   0
   1   6   2 2150.98 68.7855   0
   1   6   2 2310.15 64.0181   3
   1   6   3 22701.2 150.904   0
   1   6   3 21709.2 119.655   3
   1   6   4 143.248 52.5266   0
   1   6   4 77.6979 26.7353   3
   1   6   5 1570.57 53.6925   3
   1   6   5 1686.15 69.4910   0
   1   6   6 6683.17 126.689   0
   1   6   7 24286.5 183.756   0
   1   6   8 5952.02 111.945   0
   1   6   9 2774.86 110.867   0
   1   6  10 878.398 82.5175   0
   1   6  11 7253.25 167.671   0
   1   6  12 186.757 46.5003   0
   1   6  13 926.782 93.8740   0
   1   6  14 1222.96 109.176   0
   1   6  15 38.0321 46.5493   0
   1   6  16 18.9727 43.3449   0
   1   7 -12 81.6730 58.9020   5
   1   7 -11 297.686 87.7035   5
   1   7 -11 74.7969 54.8435   0
   1   7 -10 21.7523 42.7941   0
   1   7 -10 163.065 86.8225   5
   1   7  -9 31.3119 38.9920   5
   1   7  -9 76.4283 50.4688   0
   1   7  -8 131.074 46.0424   5
   1   7  -8 399.438 95.9762   0
   1   7  -7 836.265 125.103   5
   1   7  -7 709.742 81.7845   0
   1   7  -6 249.010 66.0148   0
   1   7  -6 507.746 90.5710   5
   1   7  -5 34.1666 41.8950   5
   1   7  -5 15.7826 29.1431   0
   1   7  -4 4186.98 163.603   0
   1   7  -3 1637.95 102.793   0
   1   7  -2 1555.09 107.004   0
   1   7  -1 348.525 52.8430   0
   1   7   0 78.8975 31.7971   0
   1   7   1 3313.01 108.086   0
   1   7   2 3792.44 102.741   0
   1   7   3 6244.72 141.502   0
   1   7   3 6078.19 92.1239   3
   1   7   4 1806.72 62.8784   3
   1   7   4 1805.04 78.7713   0
   1   7   5 2045.22 105.903   0
   1   7   5 1443.42 55.1164   3
   1   7   6 10483.0 157.405   0
   1   7   7 1552.67 104.354   0
   1   7   8 5648.28 135.205   0
   1   7   9 637.815 93.4606   0
   1   7  10 694.700 96.4583   0
   1   7  11 19.9186 43.0526   0
   1   7  12 1722.90 113.457   0
   1   7  13 131.262 41.9045   0
   1   7  14 19.7717 48.0463   0
   1   7  15 181.549 93.5177   0
   1   7  16 381.889 89.6759   0
   1   8 -11 307.088 91.3748   5
   1   8 -10 73.7165 57.7600   5
   1   8 -10 16.6105 33.2475   0
   1   8  -9 66.4885 44.3738   0
   1   8  -9 323.088 106.531   5
   1   8  -8 249.501 73.3623   0
   1   8  -8 322.791 79.0226   5
   1   8  -7 1921.44 140.310   5
   1   8  -7 1227.19 103.574   0
   1   8  -6-10.6214 21.3936   0
   1   8  -6 58.4986 76.8882   5
   1   8  -5 1922.89 125.207   0
   1   8  -5 2709.27 141.450   5
   1   8  -4 241.993 51.3736   0
   1   8  -3 5612.51 161.760   0
   1   8  -2 44.6260 58.8576   0
   1   8  -1 1803.13 113.211   0
   1   8   0 13.9214 36.0895   0
   1   8   1 1450.44 105.095   0
   1   8   2 44.6583 43.1500   0
   1   8   3 1247.70 93.4290   0
   1   8   4 193.779 55.9951   0
   1   8   5 1772.23 100.687   0
   1   8   6 6.15984 26.9901   0
   1   8   7 2533.09 163.182   0
   1   8   8 2726.89 134.007   0
   1   8   9 1135.80 107.964   0
   1   8  10 261.549 73.6304   0
   1   8  11 2497.74 132.096   0
   1   8  12 21.5532 37.4447   0
   1   8  13 51.2113 51.5806   0
   1   8  14 714.610 110.855   0
   1   8  15 21.8994 39.1905   0
   1   9  -9 22.7191 42.8212   0
   1   9  -9 56.6310 60.8572   5
   1   9  -8 24.0857 34.1948   0
   1   9  -8 0.10660 35.4182   5
   1   9  -7 83.2686 53.5375   0
   1   9  -7 296.578 115.916   5
   1   9  -6 213.462 61.2863   0
   1   9  -6 412.660 114.290   5
   1   9  -5 82.4789 57.0301   0
   1   9  -5 260.002 85.3929   5
   1   9  -4 717.038 100.902   0
   1   9  -3 37.7607 55.3695   0
   1   9  -2 419.399 80.6574   0
   1   9  -1 15.4942 29.6835   0
   1   9   0 3704.54 171.682   0
   1   9   1 1622.07 124.068   0
   1   9   2 2375.89 122.442   0
   1   9   3 244.666 58.1370   0
   1   9   4 43.7774 33.5322   0
   1   9   5 13.3302 24.8628   0
   1   9   6 2194.55 123.777   0
   1   9   7 73.1287 66.6133   0
   1   9   8 82.2897 72.3876   0
   1   9   9 2263.88 132.852   0
   1   9  10 7510.83 195.894   0
   1   9  11 570.864 90.3278   0
   1   9  12 436.370 104.904   0
   1   9  13 339.974 110.927   0
   1   9  14 1646.16 163.504   0
   1  10  -7 286.884 113.586   5
   1  10  -7 20.9413 53.7387   0
   1  10  -6 108.816 77.3041   0
   1  10  -6 82.7757 60.8440   5
   1  10  -5 2220.91 149.596   5
   1  10  -5 1677.65 123.963   0
   1  10  -4 4043.21 154.645   5
   1  10  -4 4303.67 193.603   0
   1  10  -3 6084.73 164.117   0
   1  10  -2 1367.48 114.830   0
   1  10  -1 2017.66 131.831   0
   1  10   0 454.886 90.4411   0
   1  10   1 6.90038 47.2048   0
   1  10   2 1016.99 117.884   0
   1  10   3 1664.12 127.696   0
   1  10   4 3.44382 25.6718   0
   1  10   5 1411.61 110.667   0
   1  10   6 205.151 76.2646   0
   1  10   7 254.798 89.7129   0
   1  10   8 377.994 98.9506   0
   1  10   9 1401.41 127.066   0
   1  10  10 33.2929 54.5550   0
   1  10  11 109.223 80.3244   0
   1  10  12 441.237 103.209   0
   1  10  13 984.696 148.858   0
   1  11  -5 74.0827 77.2813   0
   1  11  -5 61.4687 46.9326   5
   1  11  -4 189.193 71.2087   0
   1  11  -4 249.459 110.051   5
   1  11  -3 53.1404 44.7973   0
   1  11  -2 60.2219 59.2646   0
   1  11  -1 956.600 100.361   0
   1  11   0 21.4318 38.2643   0
   1  11   1 785.147 109.317   0
   1  11   2 442.600 113.504   0
   1  11   3 250.924 88.8351   0
   1  11   4 30.3038 40.6761   0
   1  11   5 295.355 81.1364   0
   1  11   6 475.020 116.774   0
   1  11   7 86.5831 75.0585   0
   1  11   8 258.723 97.7006   0
   1  11   9 1039.57 132.121   0
   1  11  10 2830.75 197.835   0
   1  11  11 469.538 85.2268   0
   1  11  12 120.987 65.3852   0
   1  12  -2 11.8302 37.1731   0
   1  12  -1 1572.45 134.125   0
   1  12   0 1913.95 157.514   0
   1  12   1 226.788 86.6536   0
   1  12   2 18.2793 71.0940   0
   1  12   3 29.1528 34.2115   0
   1  12   4 31.4796 57.7019   0
   1  12   5 211.372 102.418   0
   1  12   6 137.202 72.7629   0
   1  12   7 11.2977 48.3815   0
   1  12   8 283.762 105.346   0
   1  12   9 530.283 119.098   0
  -2  11   9 50.5467 50.1575   6
  -2  11   9 73.0547 70.8284   0
  -2  11   8 287.863 75.8421   6
  -2  11   8 123.882 63.8342   0
  -2  11   7 842.233 95.6850   0
  -2  11   7 1334.36 133.577   6
  -2  11   6 1557.09 143.732   6
  -2  11   5 1087.49 128.534   6
  -2  11   4 356.970 94.6702   6
  -2  11   3 40.2274 53.3328   6
  -2  11   2 293.582 78.5802   6
  -2  11   1 502.898 105.764   6
  -2  11   0 268.563 100.864   6
  -2  11  -1 194.939 82.1234   6
  -2  11  -2 132.322 66.1367   6
  -2  11  -3-2.16902 35.7744   6
  -2  10  11 462.898 94.2617   0
  -2  10  10 2499.70 144.610   6
  -2  10  10 3046.98 161.212   0
  -2  10   9 756.892 106.702   0
  -2  10   9 546.962 97.9134   6
  -2  10   8 120.972 73.1135   6
  -2  10   8 28.8319 33.1299   0
  -2  10   7 25.6109 43.2675   0
  -2  10   7 99.6860 65.2487   6
  -2  10   6 323.270 75.0648   0
  -2  10   6 522.694 120.615   6
  -2  10   5 747.199 97.8426   6
  -2  10   5 1158.24 120.962   0
  -2  10   4 676.997 80.9069   0
  -2  10   4 952.678 110.637   6
  -2  10   3 858.490 90.4661   0
  -2  10   3 781.318 93.9605   6
  -2  10   2 1743.48 126.611   6
  -2  10   1 517.075 73.6732   6
  -2  10   0 295.106 89.1271   6
  -2  10  -1 117.240 70.4300   6
  -2  10  -2 139.776 85.0250   5
  -2  10  -2 84.9077 55.7150   6
  -2  10  -3 664.090 132.714   5
  -2  10  -3 241.169 59.5580   6
  -2  10  -4 63.8981 55.6103   5
  -2   9  13 182.489 71.2220   0
  -2   9  12 193.693 78.4673   0
  -2   9  11 548.877 99.8104   0
  -2   9  10 34.3670 36.5322   0
  -2   9  10 32.7127 55.7837   6
  -2   9   9 56.1022 50.5726   0
  -2   9   9 60.2748 59.7075   6
  -2   9   8 919.740 100.598   0
  -2   9   8 551.276 78.1096   6
  -2   9   7 846.488 120.457   0
  -2   9   7 837.491 104.049   6
  -2   9   6 43.1606 48.5724   0
  -2   9   6 169.314 81.9860   6
  -2   9   5 164.277 57.0993   0
  -2   9   5 250.318 96.1206   6
  -2   9   4 9.56368 27.9843   0
  -2   9   3 860.123 94.5022   0
  -2   9   2 4675.91 153.836   0
  -2   9   1 1090.26 93.4895   0
  -2   9   1 892.793 114.945   6
  -2   9   0 3.58916 25.0108   0
  -2   9   0 36.1749 47.5801   6
  -2   9  -1 322.058 79.7702   6
  -2   9  -2 600.228 91.6972   6
  -2   9  -3 13.0445 30.6160   6
  -2   9  -3 85.3236 54.5961   5
  -2   9  -4 33.6942 51.9560   5
  -2   9  -4 23.9623 29.0795   6
  -2   9  -5 115.109 82.5807   5
  -2   9  -6 220.291 117.128   5
  -2   8  14 188.465 81.3045   0
  -2   8  13 155.159 66.4063   0
  -2   8  12 22.3279 39.2241   0
  -2   8  11 112.372 77.4971   0
  -2   8  10 2054.24 144.609   0
  -2   8   9 388.050 85.5041   0
  -2   8   9 160.252 62.8867   6
  -2   8   8 268.562 72.9767   0
  -2   8   8 190.073 58.3664   6
  -2   8   7 0.97910 21.9751   0
  -2   8   7 144.439 66.9024   6
  -2   8   6 8255.13 184.651   0
  -2   8   6 6908.45 183.766   6
  -2   8   5 671.473 79.8369   6
  -2   8   5 861.266 92.5508   0
  -2   8   4 126.980 43.6549   0
  -2   8   3 87.0633 34.2531   0
  -2   8   2 3038.65 125.305   0
  -2   8   1 7.37097 38.1449   0
  -2   8   0 12.7996 32.7984   0
  -2   8   0 15.7677 32.1266   6
  -2   8  -1 2327.55 126.886   6
  -2   8  -1 2857.95 120.260   0
  -2   8  -2 1091.71 108.470   6
  -2   8  -2 1201.22 78.7518   0
  -2   8  -3 496.788 69.3276   6
  -2   8  -3 384.322 63.8861   0
  -2   8  -4 874.339 116.111   5
  -2   8  -4 407.475 71.1690   6
  -2   8  -5 1065.57 142.766   5
  -2   8  -6 714.572 129.587   5
  -2   8  -7 368.605 93.1074   5
  -2   8  -8 31.1842 54.2230   5
  -2   7  15 112.705 59.5843   0
  -2   7  14 30.1775 54.2643   0
  -2   7  13 419.627 101.764   0
  -2   7  12 100.739 50.4325   0
  -2   7  11 2010.45 122.022   0
  -2   7  10 499.511 91.3300   0
  -2   7   9 518.738 85.3785   0
  -2   7   9 288.814 47.9733   6
  -2   7   8 1510.32 101.776   6
  -2   7   8 1832.39 107.083   0
  -2   7   7 1547.83 93.2143   2
  -2   7   7 1417.81 98.3392   6
  -2   7   6 9336.78 164.793   6
  -2   7   6 12172.0 162.863   0
  -2   7   5 5455.45 136.994   6
  -2   7   5 7697.41 159.514   0
  -2   7   4 3710.06 115.147   6
  -2   7   4 5091.28 125.110   0
  -2   7   3 4876.30 116.179   0
  -2   7   2 7137.69 131.081   0
  -2   7   1 873.093 80.9251   6
  -2   7   1 1446.65 84.8473   0
  -2   7   0 6930.80 146.429   0
  -2   7   0 4536.33 128.067   6
  -2   7  -1 4043.46 109.768   0
  -2   7  -1 3273.42 123.302   6
  -2   7  -2 5388.10 123.176   0
  -2   7  -2 4597.19 131.673   6
  -2   7  -3 923.895 78.0243   6
  -2   7  -3 1281.66 88.8691   0
  -2   7  -3 1394.64 115.501   5
  -2   7  -4 482.542 73.5240   0
  -2   7  -4 310.097 56.4970   6
  -2   7  -5 113.441 40.5428   0
  -2   7  -5 250.000 91.5503   5
  -2   7  -6 202.070 47.3763   0
  -2   7  -6 460.340 117.487   5
  -2   7  -7 114.481 74.5107   5
  -2   7  -8 10.9146 43.6122   5
  -2   7  -9 431.652 83.6868   5
  -2   7 -10 186.424 65.1299   5
  -2   6  15 7.52522 39.3389   0
  -2   6  14 8.76949 37.2260   0
  -2   6  13 431.276 92.5338   0
  -2   6  12 1229.82 99.5384   0
  -2   6  11 903.488 98.2473   0
  -2   6  10 226.468 49.0848   0
  -2   6   9 370.844 58.7177   0
  -2   6   9 228.213 40.7332   6
  -2   6   8 2529.48 120.149   6
  -2   6   8 3886.41 124.584   0
  -2   6   7 138.112 59.9861   0
  -2   6   7 23.6659 32.3690   6
  -2   6   6 20566.1 172.818   0
  -2   6   6 21054.4 177.139   2
  -2   6   5 2038.94 88.7211   2
  -2   6   5 1871.12 111.029   0
  -2   6   4 6074.66 95.1832   2
  -2   6   4 6262.60 115.554   0
  -2   6   3 3457.26 106.863   6
  -2   6   3 5342.43 107.167   0
  -2   6   2 18334.6 169.532   6
  -2   6   2 30229.0 168.096   0
  -2   6   1 974.226 82.7264   6
  -2   6   1 1791.80 83.2026   0
  -2   6   0 243.994 50.0659   6
  -2   6   0 480.203 55.6636   0
  -2   6  -1 4839.71 120.049   6
  -2   6  -1 6502.86 118.147   0
  -2   6  -2 16102.4 152.192   0
  -2   6  -2 12261.5 167.073   6
  -2   6  -3 92.6833 43.3213   0
  -2   6  -3 191.586 61.4464   5
  -2   6  -3 4.14440 28.7460   6
  -2   6  -4 1975.64 72.0830   0
  -2   6  -4 2514.30 111.682   5
  -2   6  -4 1559.02 83.2533   6
  -2   6  -5 647.481 74.1123   0
  -2   6  -5 669.226 94.4169   5
  -2   6  -5 440.741 64.2491   6
  -2   6  -6 198.405 41.3652   0
  -2   6  -6 237.619 50.6308   5
  -2   6  -7 121.865 47.4784   0
  -2   6  -7 86.4295 67.9681   5
  -2   6  -8 997.856 90.2779   0
  -2   6  -8 1305.34 130.917   5
  -2   6  -9 3155.33 153.183   5
  -2   6 -10 2827.82 168.291   5
  -2   6 -11 12.6778 53.2746   5
  -2   5  15 78.7464 60.7918   0
  -2   5  14 16.1482 33.8887   0
  -2   5  13 590.906 99.4436   0
  -2   5  12 27.8198 48.4517   0
  -2   5  11 5025.52 140.158   0
  -2   5  10 336.838 40.0968   0
  -2   5   9 37.3674 38.2376   6
  -2   5   9 7.56940 24.5128   0
  -2   5   8 1523.02 100.108   0
  -2   5   8 1333.75 80.3909   6
  -2   5   7 28068.0 198.913   6
  -2   5   7 34500.6 203.107   0
  -2   5   6 839.048 76.7414   0
  -2   5   6 397.361 44.7098   6
  -2   5   5 822.669 48.8243   0
  -2   5   5 917.536 67.6824   2
  -2   5   5 660.554 66.0986   6
  -2   5   4 400.625 50.3783   2
  -2   5   4 277.107 51.3341   6
  -2   5   4 241.078 39.8881   0
  -2   5   3 3891.61 89.5434   2
  -2   5   3 3656.76 76.4565   0
  -2   5   2 9805.28 112.128   2
  -2   5   2 9382.56 97.9541   0
  -2   5   1 314.977 55.4651   6
  -2   5   1 459.268 48.1606   2
  -2   5   1 368.402 37.0526   0
  -2   5   0 7345.30 118.189   6
  -2   5   0 10533.3 115.361   0
  -2   5  -1 10908.4 127.204   0
  -2   5  -1 7832.79 112.421   6
  -2   5  -2 1769.59 76.1729   6
  -2   5  -2 2561.66 80.3108   0
  -2   5  -3 9615.06 109.874   0
  -2   5  -3 7291.36 115.960   6
  -2   5  -3 11609.4 161.568   5
  -2   5  -4 3519.42 131.447   5
  -2   5  -4 2743.20 79.3360   0
  -2   5  -4 3273.26 95.9223   1
  -2   5  -4 2334.38 83.7380   6
  -2   5  -5 68.6540 20.4794   0
  -2   5  -5 240.334 53.3253   1
  -2   5  -5 161.374 57.1582   6
  -2   5  -5 160.095 53.7774   5
  -2   5  -6 80.2918 46.1688   0
  -2   5  -6 11.7210 28.9427   5
  -2   5  -7 3461.97 121.004   0
  -2   5  -7 3122.70 129.271   5
  -2   5  -8 2663.24 130.166   5
  -2   5  -8 1798.14 92.1639   0
  -2   5  -9 1298.53 89.7495   0
  -2   5  -9 1567.38 102.009   5
  -2   5 -10 377.995 66.3915   0
  -2   5 -10 693.247 112.171   5
  -2   5 -11 131.062 71.1371   5
  -2   5 -12 49.5792 61.1907   5
  -2   4  16 63.8904 67.1917   0
  -2   4  15 127.903 77.7115   0
  -2   4  14 598.145 99.7710   0
  -2   4  13 18.5110 28.1048   0
  -2   4  12 943.875 92.2049   0
  -2   4  11 2786.87 116.545   0
  -2   4  10 180.224 48.7147   0
  -2   4   9 358.731 63.6431   0
  -2   4   8 13068.4 131.338   6
  -2   4   8 14037.8 151.364   0
  -2   4   7 197.197 45.6738   0
  -2   4   7 213.552 41.9186   6
  -2   4   6 2320.23 83.6013   0
  -2   4   6 1720.25 71.0538   6
  -2   4   5 442.745 50.3327   0
  -2   4   5 220.184 45.1736   6
  -2   4   4 26419.6 133.528   0
  -2   4   4 28977.7 156.718   2
  -2   4   3 68.4878 32.8299   6
  -2   4   3 116.785 46.6564   2
  -2   4   3 73.2280 29.0700   0
  -2   4   2 45431.7 158.548   2
  -2   4   2 43714.8 141.905   0
  -2   4   1 14271.3 103.307   2
  -2   4   1 13575.7 95.0953   0
  -2   4   0 5620.66 72.0016   2
  -2   4   0 5605.00 74.8427   0
  -2   4  -1 44.7009 19.1941   2
  -2   4  -1 57.7610 17.4646   0
  -2   4  -1 57.2279 23.0090   6
  -2   4  -2 15010.2 140.292   5
  -2   4  -2 14579.7 135.058   1
  -2   4  -2 14030.0 101.613   0
  -2   4  -3 8541.58 114.706   1
  -2   4  -3 8082.85 96.1353   0
  -2   4  -3 8933.07 130.466   5
  -2   4  -4 2290.60 76.6991   1
  -2   4  -4 2105.56 72.1899   0
  -2   4  -4 2191.45 78.1011   5
  -2   4  -4 1949.31 73.1734   6
  -2   4  -5 381.720 53.6656   0
  -2   4  -5 253.793 44.4958   6
  -2   4  -5 295.423 44.3557   1
  -2   4  -5 222.472 58.5517   5
  -2   4  -6 4461.16 108.438   0
  -2   4  -6 4275.56 104.281   1
  -2   4  -6 4173.17 133.026   5
  -2   4  -7 2413.37 98.3552   0
  -2   4  -7 2925.18 126.233   5
  -2   4  -8 3447.87 108.632   0
  -2   4  -8 4261.77 129.190   5
  -2   4  -9 491.341 78.3600   0
  -2   4  -9 812.311 103.529   5
  -2   4 -10 2298.09 117.024   5
  -2   4 -10 2311.70 118.982   0
  -2   4 -11 656.907 100.857   5
  -2   4 -11 408.167 69.9872   0
  -2   4 -12 17.7425 42.3470   5
  -2   4 -12 66.8714 59.6407   0
  -2   4 -13 1358.16 151.303   5
  -2   3  16 53.5438 67.7575   0
  -2   3  15 354.207 112.999   0
  -2   3  14 57.1088 44.3568   0
  -2   3  13 2401.70 117.428   0
  -2   3  12 83.6934 30.0438   0
  -2   3  11 61.7430 27.4932   0
  -2   3  10 1305.55 95.4035   0
  -2   3   9 16470.7 167.159   0
  -2   3   8 266.272 57.6673   0
  -2   3   8 187.210 37.5570   6
  -2   3   7 34126.7 153.244   6
  -2   3   7 40707.1 190.832   0
  -2   3   6 1841.80 61.0482   6
  -2   3   6 1991.01 69.0476   0
  -2   3   5 5350.21 82.7813   6
  -2   3   5 7071.15 93.2214   0
  -2   3   4 11123.4 86.6745   0
  -2   3   4 11801.5 100.667   2
  -2   3   3 32911.0 145.508   2
  -2   3   3 31266.4 121.604   0
  -2   3   2 18439.3 122.415   2
  -2   3   2 17722.8 87.4525   0
  -2   3   1 29757.9 124.512   2
  -2   3   1 29463.5 100.365   0
  -2   3   0 7727.54 80.2091   2
  -2   3   0 8534.42 109.832   1
  -2   3   0 7797.66 66.8129   0
  -2   3  -1 9844.89 80.5588   2
  -2   3  -1 9792.28 106.859   1
  -2   3  -1 9331.91 67.6333   0
  -2   3  -2 43995.9 173.469   1
  -2   3  -2 42761.3 162.664   5
  -2   3  -3 90.4144 19.1653   0
  -2   3  -3 78.9596 23.2241   5
  -2   3  -3 81.1260 28.8152   1
  -2   3  -4 22536.4 159.339   5
  -2   3  -4 22756.7 135.633   1
  -2   3  -4 22501.3 118.628   0
  -2   3  -5 25515.8 130.717   0
  -2   3  -5 28261.8 170.172   1
  -2   3  -5 22841.7 134.606   6
  -2   3  -5 26870.2 181.794   5
  -2   3  -6 4146.25 84.8924   1
  -2   3  -6 4475.55 111.929   5
  -2   3  -6 3645.30 74.1559   6
  -2   3  -6 4126.29 87.0399   0
  -2   3  -7 10558.2 120.653   1
  -2   3  -7 10182.5 122.636   0
  -2   3  -8 2312.70 97.6179   5
  -2   3  -8 1705.38 68.6171   0
  -2   3  -9 2542.53 100.940   0
  -2   3  -9 2639.62 117.838   5
  -2   3 -10 49.1265 33.8526   0
  -2   3 -10 61.3943 43.6852   5
  -2   3 -11 4250.79 126.176   0
  -2   3 -11 4568.42 158.086   5
  -2   3 -12-6.02927 39.2155   5
  -2   3 -12-1.96117 21.6789   0
  -2   3 -13 313.378 101.060   5
  -2   3 -13 162.648 62.0013   0
  -2   3 -14-0.65396 35.7492   5
  -2   3 -14 19.7796 33.0814   0
  -2   2  16 27.3623 46.0878   0
  -2   2  15 581.981 114.265   0
  -2   2  14 2295.37 163.278   0
  -2   2  13 933.350 121.672   0
  -2   2  12 3082.69 131.022   0
  -2   2  11 937.349 105.312   0
  -2   2  10 6460.37 140.299   0
  -2   2   9 94.2758 34.9221   0
  -2   2   8 23502.1 162.832   0
  -2   2   7 34737.2 130.697   4
  -2   2   7 33356.9 178.993   0
  -2   2   6 103.164 33.5278   0
  -2   2   6 80.6047 23.4279   6
  -2   2   6 79.0303 24.3530   4
  -2   2   5 1116.32 50.0604   6
  -2   2   5 1157.03 41.1100   0
  -2   2   4 59576.5 155.344   0
  -2   2   4 47241.9 149.654   6
  -2   2   3 17303.6 111.646   2
  -2   2   3 14797.9 77.6055   0
  -2   2   2 84.7386 19.0436   0
  -2   2   2 51.5750 28.9627   2
  -2   2   2 45.0057 23.9948   6
  -2   2   1 11158.4 87.4732   2
  -2   2   1 11601.5 98.6106   1
  -2   2   1 10704.5 59.4135   0
  -2   2   0 85619.5 439.019   0
  -2   2   0 87709.3 171.493   2
  -2   2   0 89412.0 198.867   1
  -2   2  -1 219.476 22.9930   2
  -2   2  -1 364.195 23.8662   0
  -2   2  -1 196.080 32.4882   6
  -2   2  -1 360.598 28.1906   5
  -2   2  -1 302.901 40.6546   1
  -2   2  -2 17475.5 70.2231   0
  -2   2  -2 18175.4 113.084   1
  -2   2  -2 17377.8 97.4961   5
  -2   2  -3 455.946 37.2578   1
  -2   2  -3 405.912 32.4648   6
  -2   2  -3 541.538 42.3745   5
  -2   2  -4 42910.3 172.833   5
  -2   2  -4 43163.4 126.130   0
  -2   2  -5 1977.24 63.8858   6
  -2   2  -5 2396.13 69.2758   5
  -2   2  -5 2316.37 70.8328   1
  -2   2  -5 1928.26 54.7502   0
  -2   2  -6 19664.1 113.844   6
  -2   2  -6 22320.5 161.996   5
  -2   2  -6 23586.6 146.004   1
  -2   2  -6 19366.2 115.844   0
  -2   2  -7 1190.71 70.6680   1
  -2   2  -7 1166.05 74.8829   5
  -2   2  -7 894.983 44.1984   0
  -2   2  -8 142.901 37.8554   1
  -2   2  -8 150.632 61.8309   5
  -2   2  -8 61.8235 19.3154   0
  -2   2  -9 1.01600 17.4475   5
  -2   2  -9 18.3034 17.6810   0
  -2   2 -10 11905.5 153.844   0
  -2   2 -10 12057.2 191.147   5
  -2   2 -11 221.494 69.6928   5
  -2   2 -11 133.573 31.5981   0
  -2   2 -12 1262.56 101.130   0
  -2   2 -12 1437.43 101.881   5
  -2   2 -13 60.4951 53.5852   5
  -2   2 -13 76.2338 41.8600   0
  -2   2 -14 1340.77 121.481   5
  -2   2 -14 1204.97 101.534   0
  -2   2 -15 273.719 87.3213   5
  -2   2 -15 57.0707 57.4444   0
  -2   2 -16 21.2412 32.4736   0
  -2   1  16 2113.21 144.845   0
  -2   1  15 50.4406 59.9409   0
  -2   1  14 54.6136 77.8466   0
  -2   1  13 1874.16 132.645   0
  -2   1  12 1490.91 106.448   0
   2  -1 -11 1.56501 16.1472   5
  -2   1  11 55.3924 37.0152   0
  -2   1  10 20179.4 190.433   0
  -2   1   9 7147.74 125.957   0
  -2   1   8 500.813 39.1911   0
  -2   1   7 8.71925 14.5028   0
  -2   1   6 16879.3 89.8695   6
  -2   1   6 18157.9 126.541   0
  -2   1   5 73387.4 183.545   0
  -2   1   5 69659.8 159.892   6
  -2   1   4 4030.05 56.3252   6
  -2   1   4 4425.44 56.5463   0
  -2   1   3 39700.1 141.676   2
  -2   1   3 30360.2 89.7654   0
   2  -1  -3 40102.9 88.3016   3
  -2   1   3 26724.8 106.123   6
  -2   1   2 29353.4 110.968   6
  -2   1   2 44161.1 141.612   2
  -2   1   2 46945.6 136.947   1
  -2   1   2 34652.3 80.2268   0
  -2   1   1 46761.3 134.741   2
  -2   1   1 47736.3 131.744   1
  -2   1   0 49816.6 134.783   2
  -2   1   0 50804.8 142.249   1
  -2   1  -1 10384.8 72.9129   2
  -2   1  -1 9834.04 80.1617   1
  -2   1  -1 9184.48 58.7888   5
  -2   1  -2 14360.0 51.0952   0
  -2   1  -2 14347.2 94.3730   1
  -2   1  -2 10858.5 77.2536   6
  -2   1  -2 12772.1 76.0479   5
  -2   1  -3 13317.7 95.9565   1
  -2   1  -3 10419.1 73.8258   6
  -2   1  -3 11296.2 74.2527   5
  -2   1  -3 12442.8 57.6117   0
  -2   1  -4 4953.78 60.4676   6
  -2   1  -4 5233.09 71.8306   5
  -2   1  -5 151337. 279.073   5
  -2   1  -5 151223. 833.851   6
   2  -1   6 5381.64 68.1881   0
  -2   1  -6 5063.21 91.1234   1
  -2   1  -7 387.941 48.3486   1
  -2   1  -7 269.877 43.6994   5
  -2   1  -8 6976.92 125.198   5
  -2   1  -8 8041.94 103.359   1
   2  -1   8 8933.68 121.812   0
   2  -1   9 8984.05 129.605   0
  -2   1  -9 8775.11 124.401   1
   2  -1  10 867.773 70.3676   0
  -2   1 -10 571.732 66.0684   5
  -2   1 -11 6122.61 150.163   5
   2  -1  11 7158.65 125.738   0
   2  -1  12 60.8751 39.2352   0
  -2   1 -12 30.9209 34.7065   5
   2  -1  13 516.998 73.8884   0
  -2   1 -13 550.505 100.931   5
  -2   1 -14 436.307 95.7450   5
   2  -1  14 307.915 69.3758   0
   2  -1  15 2063.06 142.007   0
  -2   1 -15 1579.30 132.212   5
   2  -1  16 16.3143 48.4020   0
  -2   0  16 70.0580 54.3141   0
  -2   0  15 742.277 111.689   0
  -2   0  14 118.658 64.5441   0
  -2   0  13 641.806 98.2320   0
  -2   0  12 51.9731 50.2983   0
  -2   0  11 3339.26 134.796   0
  -2   0  10 16584.0 180.445   0
   2   0 -10 14447.2 149.012   5
   2   0  -9 98.9953 28.4700   5
  -2   0   9 123.542 46.7412   0
  -2   0   8 574.117 52.2315   0
   2   0  -8 511.342 31.9850   5
   2   0  -7 5771.40 74.6411   5
  -2   0   7 6121.63 85.2056   0
   2   0  -6 15504.0 85.9713   5
  -2   0   6 16287.1 107.030   0
   2   0  -5 4351.20 49.1215   5
  -2   0   5 4371.13 60.2768   0
   2   0  -4 29654.5 79.4710   5
  -2   0   4 29074.1 104.803   0
  -2   0   3 7935.20 80.1130   2
   2   0  -3 8532.13 62.9873   3
  -2   0   3 7997.55 71.0878   4
  -2   0   2 62889.0 146.879   2
  -2   0   2 68082.2 138.030   1
  -2   0   2 63484.8 141.255   4
   2   0  -2 67565.4 123.090   3
  -2   0   1 59120.7 131.932   1
  -2   0   1 57112.1 138.491   2
  -2   0   0 112338. 672.661   2
  -2   0   0 114193. 665.292   1
  -2   0  -1 11324.0 75.5547   1
  -2   0  -1 11493.9 71.9596   2
  -2   0  -2 3611.32 52.7358   1
  -2   0  -2 2820.09 38.9449   5
   2   0   3 22439.4 60.2626   0
  -2   0  -3 23748.7 104.564   1
   2   0   4 34320.5 90.8047   0
  -2   0  -4 37748.8 139.217   1
   2   0   5 35171.3 107.141   0
  -2   0  -5 31228.9 127.136   5
   2   0   6 416.092 35.7309   0
  -2   0  -6 268.854 30.8336   5
   2   0   7 5095.61 69.6945   0
  -2   0  -7 4527.92 92.9559   5
  -2   0  -7 5733.77 94.8483   1
   2   0   8 10648.5 109.650   0
  -2   0  -8 11325.5 131.274   1
   2   0   9 5565.97 97.0773   0
  -2   0  -9 5980.26 114.192   1
   2   0  10 12069.2 143.191   0
  -2   0 -10 11856.2 131.961   1
  -2   0 -10 11252.2 156.907   5
  -2   0 -11 11.9762 20.2548   1
  -2   0 -11 42.2207 54.3555   5
   2   0  11 50.6917 31.8458   0
  -2   0 -12 292.459 54.3192   5
   2   0  12 506.927 71.1766   0
   2   0  13 2586.79 120.018   0
  -2   0 -13 2102.67 132.095   5
   2   0  14 2538.69 124.856   0
  -2   0 -14 2805.54 175.100   5
   2   0  15 99.5905 43.5497   0
  -2   0 -15 143.452 65.9994   5
   2   0  16 48.0515 53.9167   0
  -2   0 -16 46.4039 44.2852   5
  -2  -1  15 40.8327 64.5141   0
  -2  -1  14 169.278 72.3886   0
  -2  -1  13 35.3045 43.1231   0
  -2  -1  12 2027.45 141.377   0
  -2  -1  11 1249.64 103.356   0
   2   1 -10 2692.26 89.6222   5
  -2  -1  10 3234.47 127.754   0
   2   1  -9 5.67677 18.4065   5
  -2  -1   9 5.42022 19.1382   0
  -2  -1   8 5660.12 116.248   0
   2   1  -8 5438.69 88.2546   5
  -2  -1   7 11089.7 119.229   0
   2   1  -7 10901.1 95.7273   5
  -2  -1   6 55342.3 191.046   0
   2   1  -6 47904.4 137.484   5
   2   1  -5 22471.1 93.2897   5
  -2  -1   5 27186.3 128.617   0
  -2  -1   4 37266.3 129.423   0
  -2  -1   4 41433.2 142.302   2
  -2  -1   3 51160.3 104.370   1
  -2  -1   3 45311.5 117.716   0
   2   1  -3 52322.2 143.776   3
  -2  -1   3 48208.7 141.283   2
  -2  -1   2 3312.61 52.6985   2
  -2  -1   2 3568.95 41.0430   1
  -2  -1   2 3556.26 40.4183   0
  -2  -1   2 3331.08 50.1865   4
   2   1  -2 3619.47 51.4958   3
  -2  -1   1 104291. 641.770   2
  -2  -1   1 107757. 572.972   1
   2   1  -1 109515. 629.265   3
   2   1  -1 100212. 435.075   0
  -2  -1   1 104575. 178.111   4
  -2  -1   0 2014.46 43.4253   2
  -2  -1   0 2039.61 42.7113   1
  -2  -1  -1 17125.5 85.6113   2
  -2  -1  -1 16396.4 81.0265   1
  -2  -1  -2 38497.0 119.438   1
  -2  -1  -2 29469.8 80.7605   5
   2   1   3 27780.8 66.4559   0
  -2  -1  -3 30497.4 111.277   1
  -2  -1  -4 72209.1 165.006   5
   2   1   4 80182.0 473.180   0
  -2  -1  -4 91116.8 188.463   1
   2   1   5 60996.7 131.006   0
  -2  -1  -5 54824.9 162.365   5
   2   1   6 10506.4 78.0556   0
  -2  -1  -6 9711.27 98.4773   5
   2   1   7 54777.4 158.358   0
  -2  -1  -7 49323.4 193.381   5
  -2  -1  -7 59179.3 199.515   1
   2   1   8 7689.65 93.5572   0
  -2  -1  -8 8216.25 110.098   1
   2   1   9 30550.2 171.707   0
  -2  -1  -9 32770.4 205.631   1
  -2  -1 -10 1436.84 78.0500   1
  -2  -1 -10 1189.40 88.4536   5
   2   1  10 1398.42 71.7755   0
  -2  -1 -11 3.70775 18.6960   1
  -2  -1 -11 31.0294 34.4241   5
   2   1  11 17.8604 31.1871   0
  -2  -1 -12 1035.86 96.9169   5
  -2  -1 -12 1042.81 69.5553   1
   2   1  12 1190.95 92.6141   0
   2   1  13 4635.84 139.538   0
  -2  -1 -13 4459.92 146.965   5
   2   1  14 403.847 66.6220   0
  -2  -1 -14 324.326 78.2284   5
   2   1  15 1386.89 148.135   0
  -2  -1 -15 881.355 125.294   5
  -2  -1 -16 7.22451 43.2879   5
   2   1  16 41.8599 38.7744   0
   2   1  17 1419.52 132.005   0
  -2  -2  15 22.5140 36.0765   0
  -2  -2  14 126.160 57.5425   0
  -2  -2  13 2094.97 164.073   0
  -2  -2  12 111.191 64.3720   0
  -2  -2  11 852.892 102.001   0
  -2  -2  10 1752.31 105.949   0
   2   2 -10 1559.90 76.7252   5
   2   2  -9 2502.85 87.0972   5
  -2  -2   9 2790.09 112.656   0
   2   2  -8 4895.30 90.3784   5
  -2  -2   8 6476.21 123.932   0
  -2  -2   7 711.536 67.3227   0
   2   2  -7 177.359 25.5884   5
   2   2  -6 106393. 220.299   5
  -2  -2   6 123323. 270.951   0
  -2  -2   5 47589.6 167.454   0
   2   2  -5 42679.4 133.594   5
   2   2  -4 2280.11 44.3127   5
   2   2  -4 2228.41 57.8079   0
  -2  -2   3 19070.8 97.0463   2
   2   2  -3 18033.5 72.4556   5
   2   2  -3 17215.2 93.0795   0
  -2  -2   2 36352.8 81.7018   1
  -2  -2   2 33991.4 112.143   2
   2   2  -2 37605.1 134.185   3
   2   2  -2 32187.8 99.5621   0
   2   2  -1 321.806 24.4022   0
  -2  -2   1 271.169 25.4040   2
  -2  -2   1 274.555 23.0617   1
  -2  -2   1 260.782 33.5278   4
   2   2  -1 280.239 33.0698   3
  -2  -2   0 40628.3 112.407   2
   2   2   0 39667.6 85.1453   0
  -2  -2   0 40660.6 105.574   1
  -2  -2   0 39508.2 121.404   4
  -2  -2  -1 109069. 173.499   2
   2   2   1 111063. 485.454   0
   2   2   2 49696.5 92.1541   0
  -2  -2  -2 45511.7 126.883   1
   2   2   3 76350.7 123.065   0
  -2  -2  -3 70247.9 163.824   1
   2   2   4 21983.2 80.6677   0
  -2  -2  -4 21028.3 115.248   1
   2   2   5 469.720 29.6551   0
  -2  -2  -5 362.540 37.6233   5
  -2  -2  -5 438.513 41.0999   1
  -2  -2  -6 3970.57 80.4524   1
  -2  -2  -6 3573.85 71.7865   5
   2   2   6 4265.20 68.9575   0
  -2  -2  -7 35858.0 166.581   1
   2   2   7 35077.8 139.537   0
   2   2   8 4701.26 80.5870   0
  -2  -2  -8 4893.57 90.0482   1
   2   2   9 13481.3 122.982   0
  -2  -2  -9 12338.8 144.552   5
  -2  -2 -10 564.621 73.2441   5
   2   2  10 617.310 61.0102   0
  -2  -2 -10 864.973 76.8007   1
   2   2  11 6439.54 129.230   0
  -2  -2 -11 5990.46 136.959   5
  -2  -2 -11 7004.54 139.224   1
  -2  -2 -12 10031.2 198.559   5
  -2  -2 -12 10574.9 154.032   1
  -2  -2 -13 93.0391 47.8683   1
  -2  -2 -13 79.1464 61.4272   5
   2   2  13 70.2747 57.3688   0
  -2  -2 -14 4935.84 167.729   5
   2   2  14 5033.11 165.033   0
  -2  -2 -15 565.090 109.967   5
   2   2  15 746.729 113.819   0
   2   2  16 134.696 54.7695   0
  -2  -2 -16 202.677 63.3418   5
   2   2  17 197.051 101.408   0
   2   3 -14 1379.71 150.922   0
   2   3 -13 52.1220 44.9041   0
   2   3 -12 1169.08 109.408   0
   2   3 -11 305.174 57.0649   0
   2   3 -10 779.111 54.1830   5
   2   3 -10 670.418 60.2621   0
   2   3  -9 866.173 68.9381   5
   2   3  -9 772.628 73.6019   0
   2   3  -8 9506.66 127.349   5
   2   3  -8 8812.05 151.828   0
   2   3  -7 4795.22 92.3952   5
   2   3  -7 3900.92 106.667   0
   2   3  -6 14814.1 113.777   5
   2   3  -6 14033.1 136.203   0
  -2  -3   5 12276.2 97.6314   2
   2   3  -5 11362.0 113.235   5
   2   3  -5 10679.9 114.943   0
  -2  -3   4 165963. 236.671   2
   2   3  -4 167134. 244.464   5
   2   3  -4 165384. 994.984   0
  -2  -3   3 1403.28 46.7259   2
   2   3  -3 1465.20 45.8946   5
   2   3  -3 1294.64 56.4672   0
   2   3  -2 7375.07 65.8336   0
  -2  -3   2 7727.55 64.1198   2
   2   3  -2 8354.78 88.8988   3
  -2  -3   1 4804.87 54.0432   2
   2   3  -1 4495.81 50.9732   0
  -2  -3   1 4892.75 44.6085   1
   2   3  -1 4900.08 65.5373   3
  -2  -3   0 12053.8 70.3972   2
  -2  -3   0 11772.6 87.1340   4
   2   3   0 12609.5 78.9112   0
  -2  -3   0 11776.7 67.0135   1
   2   3   0 11866.8 88.2090   3
   2   3   1 3074.19 36.6200   0
  -2  -3  -1 3143.97 51.3365   4
  -2  -3  -1 3072.86 53.5904   1
   2   3   2 87548.1 147.016   0
   2   3   3 11718.6 72.4134   0
   2   3   4 9634.31 79.1013   0
   2   3   5 1011.52 54.5512   0
   2   3   6 71560.1 185.955   0
   2   3   7 41536.5 160.647   0
  -2  -3  -8 1775.50 75.7823   5
   2   3   8 1827.18 50.5201   0
  -2  -3  -9 7855.19 130.070   5
   2   3   9 10126.0 120.982   0
  -2  -3 -10 19198.6 177.852   5
   2   3  10 21737.8 173.578   0
   2   3  11 8433.24 137.734   0
  -2  -3 -11 7870.12 140.792   5
   2   3  12 156.087 55.8358   0
  -2  -3 -12 123.081 42.7943   5
  -2  -3 -12 289.161 60.9438   1
  -2  -3 -13 4846.30 144.715   5
   2   3  13 5812.26 163.329   0
  -2  -3 -13 6602.05 159.995   1
  -2  -3 -14 31.7885 39.5010   5
   2   3  14 88.6573 54.1752   0
  -2  -3 -14 121.135 77.7505   1
  -2  -3 -15 252.153 74.8308   5
   2   3  15 432.002 76.1172   0
  -2  -3 -16 757.318 122.268   5
   2   3  16 1127.04 126.545   0
   2   3  17 2397.75 163.435   0
   2   4 -14 79.9690 62.3358   0
   2   4 -13 1176.61 127.561   0
   2   4 -12-2.91786 28.9116   0
   2   4 -11 12.2600 27.0092   5
   2   4 -11 26.2188 28.7132   0
   2   4 -10 13.7036 29.2052   5
   2   4 -10-15.1338 20.6023   0
   2   4  -9 4009.21 111.895   5
   2   4  -9 3466.09 128.874   0
   2   4  -8 456.995 64.5532   5
   2   4  -8 106.925 44.3686   0
   2   4  -7 4999.84 118.888   5
   2   4  -7 3719.09 116.496   0
   2   4  -6 2724.35 85.1410   5
   2   4  -6 2370.91 93.3875   0
  -2  -4   5 14557.1 96.3649   2
   2   4  -5 14319.3 145.900   0
   2   4  -4 28202.7 162.058   0
  -2  -4   4 28963.5 119.787   2
   2   4  -3 436.839 33.5043   0
  -2  -4   3 458.396 32.0926   2
   2   4  -2 39054.6 156.070   0
  -2  -4   2 39159.3 111.529   2
  -2  -4   2 39764.6 84.6945   1
  -2  -4   1 13758.5 69.8805   2
   2   4  -1 15023.2 118.362   3
   2   4  -1 14090.7 99.1107   0
   2   4   0 9499.59 84.2174   0
   2   4   0 9692.34 100.357   3
   2   4   1 62882.4 179.437   3
   2   4   1 63306.0 156.868   0
  -2  -4  -1 62102.2 161.028   4
  -2  -4  -2 2719.58 48.4665   4
   2   4   2 2787.68 58.2480   0
   2   4   3 8150.56 79.0444   0
   2   4   4 5806.28 70.4967   0
   2   4   5 18323.9 114.159   0
   2   4   6 5803.42 89.2534   0
   2   4   7 26830.5 156.624   0
   2   4   8 4372.77 104.601   0
   2   4   9 11.3515 17.2653   0
   2   4  10 8712.97 137.804   0
   2   4  11 19064.4 186.167   0
   2   4  12 109.741 68.0440   0
   2   4  13 124.944 36.5660   0
   2   4  14 27.1100 40.9600   0
  -2  -4 -14 41.4457 39.4587   1
   2   4  15 501.891 98.2375   0
  -2  -4 -15 578.007 95.5532   1
   2   4  16 1706.69 140.329   0
   2   4  17 130.537 60.7227   0
   2   5 -13 56.2435 38.5666   0
   2   5 -12-17.4977 24.8878   0
   2   5 -11-4.43864 23.4502   0
   2   5 -11 15.4493 35.8910   5
   2   5 -10 1696.94 109.440   5
   2   5 -10 1182.57 116.950   0
   2   5  -9 139.194 43.1781   5
   2   5  -9 26.9189 42.6844   0
   2   5  -8 4201.94 123.649   5
   2   5  -8 2715.02 127.033   0
   2   5  -7 1219.59 83.3778   0
   2   5  -7 1198.17 95.9113   5
   2   5  -6 1221.06 74.6361   5
   2   5  -6 1087.44 80.5054   0
   2   5  -5 5117.92 124.807   0
   2   5  -5 5360.16 104.128   5
   2   5  -4 26118.8 173.741   5
   2   5  -4 21728.2 169.908   0
   2   5  -3 4023.74 100.622   0
  -2  -5   2 93.9524 21.3270   2
   2   5  -2 16.3881 15.9908   0
   2   5  -1 13595.4 115.883   0
   2   5  -1 15116.8 144.846   3
   2   5   0 12926.6 120.426   0
   2   5   0 13184.0 118.457   3
   2   5   1 4605.94 84.8572   0
  -2  -5  -1 4825.17 80.2280   4
   2   5   1 4970.77 95.6198   3
   2   5   2 2517.34 75.1319   3
   2   5   2 2564.10 66.7131   0
  -2  -5  -2 2579.41 64.2373   4
   2   5   3 20002.5 126.663   0
  -2  -5  -3 19926.4 104.884   4
   2   5   4 17153.3 120.886   0
   2   5   5 3965.94 91.5655   0
   2   5   6 25228.5 156.125   0
   2   5   7 6795.92 112.130   0
   2   5   8 3094.05 92.4885   0
   2   5   9 523.359 63.8488   0
   2   5  10 11992.8 156.478   0
   2   5  11 14461.5 195.085   0
   2   5  12 12387.2 211.412   0
   2   5  13 7685.85 185.789   0
   2   5  14 1836.99 99.5547   0
   2   5  15 348.078 65.3554   0
   2   5  16 142.784 66.2665   0
  -2  -5 -16 88.8212 70.1141   1
   2   5  17 1050.64 130.374   0
   2   6 -12 47.5210 62.8066   0
   2   6 -11 876.173 136.361   0
   2   6 -10 259.402 80.9971   0
   2   6 -10 642.815 93.3298   5
   2   6  -9 1606.81 110.627   0
   2   6  -9 2368.82 124.796   5
   2   6  -8 592.458 81.7915   0
   2   6  -8 608.113 94.9757   5
   2   6  -7 32.8681 30.4325   5
   2   6  -7 147.955 69.7878   0
   2   6  -6 596.612 74.5306   0
   2   6  -6 581.172 86.5453   5
   2   6  -5 3029.66 115.185   0
   2   6  -5 3611.50 122.809   5
   2   6  -4 3430.13 111.360   0
   2   6  -3 105.790 45.1468   0
   2   6  -2 817.881 76.9057   0
   2   6  -1 17057.7 152.889   0
   2   6   0 18502.3 153.398   0
   2   6   0 19554.3 155.873   3
   2   6   1 1823.63 77.5959   3
   2   6   1 1706.08 65.8597   0
   2   6   2 542.843 42.7868   0
  -2  -6  -2 732.351 54.6391   4
   2   6   2 609.147 65.2946   3
  -2  -6  -3 16691.8 104.770   4
   2   6   3 16283.2 136.906   3
   2   6   4 2657.12 95.4479   0
   2   6   5 31604.1 175.416   0
   2   6   6 694.942 70.1172   0
   2   6   7 177.135 67.2560   0
   2   6   8 7420.66 164.502   0
   2   6   9 24840.3 200.455   0
   2   6  10 149.862 72.0375   0
   2   6  11 6672.61 153.876   0
   2   6  12 71.1362 39.1693   0
   2   6  13 3298.83 141.595   0
   2   6  14 53.7818 38.9583   0
   2   6  15 1143.06 122.013   0
   2   6  16 10.3739 37.0896   0
   2   7 -11 229.107 97.3594   0
   2   7 -10 1855.24 146.826   0
   2   7 -10 1660.39 105.172   5
   2   7  -9 331.196 82.0789   0
   2   7  -9 231.694 78.2120   5
   2   7  -8 414.591 105.388   0
   2   7  -8 206.166 53.0517   5
   2   7  -7 732.192 100.369   0
   2   7  -7 526.135 86.7514   5
   2   7  -6 1676.87 103.306   0
   2   7  -6 1669.67 101.376   5
   2   7  -5 25.9797 24.4006   0
   2   7  -5 228.569 82.8846   5
   2   7  -4 919.437 73.4711   0
   2   7  -3 96.3433 69.2386   0
   2   7  -2 2613.56 108.332   0
   2   7  -1 302.018 64.4083   0
   2   7   0 9682.52 153.234   0
   2   7   1 3326.83 101.438   0
   2   7   1 3627.40 99.1018   3
   2   7   2 50.2997 19.8297   0
  -2  -7  -2 117.187 40.0497   4
   2   7   2 134.269 47.6543   3
   2   7   3 2508.91 112.102   0
  -2  -7  -3 2028.94 68.3405   4
   2   7   3 2305.92 91.9622   3
   2   7   4 28824.9 180.708   0
   2   7   4 28071.9 171.033   3
   2   7   5 33.9625 36.7367   3
   2   7   5 14.7815 30.2289   0
   2   7   6 2684.24 113.158   0
   2   7   7 540.026 84.4557   0
   2   7   8 16604.2 195.932   0
   2   7   9 2269.05 126.641   0
   2   7  10 8065.09 193.580   0
   2   7  11 31.7132 30.1057   0
   2   7  12 720.513 93.8964   0
   2   7  13 16.9141 36.6035   0
   2   7  14 884.620 97.0605   0
   2   7  15 2090.43 148.934   0
   2   7  16 807.326 153.012   0
   2   8 -10 45.6167 41.5109   5
   2   8 -10 101.292 59.3591   0
   2   8  -9 195.611 73.4338   0
   2   8  -9 64.0957 60.4417   5
   2   8  -8 51.6498 44.5062   0
   2   8  -8 89.6043 39.8583   5
   2   8  -7 152.418 76.1064   0
   2   8  -7 396.638 98.9003   5
   2   8  -6 403.160 94.2160   5
   2   8  -6 218.137 57.6510   0
   2   8  -5 576.605 79.4373   0
   2   8  -5 1099.55 114.196   5
   2   8  -4 739.265 84.5529   0
   2   8  -3 326.432 70.6871   0
   2   8  -2 1876.37 112.415   0
   2   8  -1 2912.26 95.2678   0
   2   8   0 162.619 57.7915   0
   2   8   1 789.359 88.8942   0
   2   8   2 112.114 34.9327   0
   2   8   2 155.456 48.9735   3
   2   8   3 3326.26 125.283   0
   2   8   3 3163.43 99.5204   3
   2   8   4 3730.80 103.755   0
   2   8   4 3532.99 101.359   3
   2   8   5 8845.29 166.727   0
   2   8   5 8788.99 124.485   3
   2   8   6 396.670 62.1528   3
   2   8   6 545.097 76.6846   0
   2   8   7 3420.28 159.694   0
   2   8   8 468.856 90.0420   0
   2   8   9 3623.73 138.825   0
   2   8  10 88.3257 46.4225   0
   2   8  11 107.229 72.8034   0
   2   8  12 87.2683 42.3735   0
   2   8  13 3454.85 144.506   0
   2   8  14 19.5073 37.5930   0
   2   8  15 36.2547 59.2606   0
   2   9  -9 20.4503 43.5041   5
   2   9  -8 51.9735 63.7058   0
   2   9  -8 39.3455 36.8779   5
   2   9  -7 22.3592 39.6996   0
   2   9  -7 59.0739 67.2377   5
   2   9  -6 588.944 114.740   0
   2   9  -6 658.376 101.783   5
   2   9  -5 287.745 75.2733   0
   2   9  -5 459.967 75.4127   5
   2   9  -4 4.76695 37.2356   0
   2   9  -3 89.3138 54.3236   0
   2   9  -2 744.509 108.626   0
   2   9  -1 468.094 80.9927   0
   2   9   0 976.364 90.8319   0
   2   9   1 238.672 68.8687   0
   2   9   2 166.532 63.2635   0
   2   9   3 15.9820 31.3042   0
   2   9   3 42.9303 34.0173   3
   2   9   4 4942.79 154.389   0
   2   9   5 12.7536 40.3782   0
   2   9   6 467.549 89.1517   0
   2   9   7 47.3242 47.1935   0
   2   9   8 5601.16 199.356   0
   2   9   9 262.526 57.8881   0
   2   9  10 151.429 76.2907   0
   2   9  11 362.025 83.7246   0
   2   9  12 659.760 104.062   0
   2   9  13 21.8582 44.2218   0
   2   9  14 25.7181 39.9248   0
   2  10  -8 18.5272 62.8857   5
   2  10  -7 4.11406 44.4590   0
   2  10  -7 84.1329 63.1639   5
   2  10  -6 9.71656 33.6309   0
   2  10  -6 38.4325 51.3465   5
   2  10  -5 228.968 91.9690   0
   2  10  -5 420.405 100.618   5
   2  10  -4 445.008 102.982   0
   2  10  -3 223.079 96.3869   0
   2  10  -2 2525.83 156.953   0
   2  10  -1 2265.04 136.314   0
   2  10   0 1375.76 113.813   0
   2  10   1 45.3837 29.9455   0
   2  10   2 142.724 94.7676   0
   2  10   3 1111.84 138.756   0
   2  10   4 1673.27 105.237   0
   2  10   5 825.865 103.153   0
   2  10   6 287.390 83.0115   0
   2  10   7 9936.47 244.957   0
   2  10   8 3479.74 158.139   0
   2  10   9 344.202 105.166   0
   2  10  10 104.249 54.5780   0
   2  10  11 1264.71 138.786   0
   2  10  12 666.704 126.010   0
   2  10  13 701.155 127.935   0
   2  11  -5 1033.20 127.166   5
   2  11  -4 143.414 84.1720   0
   2  11  -4 93.2404 74.3173   5
   2  11  -3 245.242 85.5419   0
   2  11  -2 200.098 81.3891   0
   2  11  -1 1688.82 157.204   0
   2  11   0 1481.26 117.362   0
   2  11   1 187.402 86.6580   0
   2  11   2 310.698 95.7352   0
   2  11   3 260.335 85.3440   0
   2  11   4 968.032 119.431   0
   2  11   5 280.782 94.8998   0
   2  11   6 219.373 86.7653   0
   2  11   7 54.0243 78.8692   0
   2  11   8 309.831 96.4594   0
   2  11   9-0.09346 59.3108   0
   2  11  10 1266.32 142.826   0
   2  11  11 1014.68 116.372   0
   2  11  12 1754.51 166.956   0
   2  12  -2 559.572 129.570   0
   2  12  -1 1007.13 146.077   0
   2  12   0 104.245 53.9783   0
   2  12   1 18.5514 44.7513   0
   2  12   2 55.3974 54.9021   0
   2  12   3 335.460 88.0479   0
   2  12   4 332.526 82.2221   0
   2  12   5 13.3288 39.2200   0
   2  12   6 53.0875 44.1535   0
   2  12   7 2549.30 177.430   0
   2  12   8 1865.14 126.139   0
   2  12   9 199.416 98.3637   0
   2  12  10 546.312 137.487   0
  -3  10   9 1479.69 128.403   6
  -3  10   8 947.085 122.791   6
  -3  10   7 93.4677 66.7020   6
  -3  10   6 102.031 69.5568   6
  -3  10   5 147.975 73.7162   6
  -3  10   4 581.977 105.288   6
  -3  10   3 594.330 129.474   6
  -3  10   2 40.7036 55.6597   6
  -3  10   1 412.788 95.0176   6
  -3  10   0 250.853 76.7811   6
  -3  10  -1 407.063 103.126   6
  -3  10  -1 195.252 75.5851   5
  -3  10  -2 51.9043 53.2607   6
  -3  10  -2 48.9427 45.5093   5
  -3  10  -3 81.4923 50.5334   6
  -3   9  10-4.23870 34.3774   6
  -3   9   9 392.263 91.0039   6
  -3   9   8 1282.66 121.891   6
  -3   9   7 636.608 94.1048   6
  -3   9   6 106.383 58.0930   6
  -3   9   5 995.979 132.728   6
  -3   9   4 649.047 110.195   6
  -3   9   3 876.934 111.222   6
  -3   9   2 361.239 88.2596   6
  -3   9   1 13.0300 39.3507   6
  -3   9   0 965.181 146.497   6
  -3   9  -1 634.786 114.712   6
  -3   9  -1 585.606 101.761   5
  -3   9  -2 208.404 62.8014   6
  -3   9  -2 460.216 96.4542   5
  -3   9  -3 263.898 102.835   6
  -3   9  -3 575.646 101.379   5
  -3   9  -4 266.152 106.423   5
  -3   9  -5 215.815 79.0038   5
  -3   8  13 3.30633 29.7042   2
  -3   8  12 2.96182 34.7558   2
  -3   8  11 22.2062 41.6999   2
  -3   8  10 52.8473 38.3752   6
  -3   8   9 69.1019 56.1734   6
  -3   8   8 975.616 112.030   6
  -3   8   7 136.494 76.2985   6
  -3   8   6 191.718 74.3485   6
  -3   8   5 199.656 75.2083   6
  -3   8   4 1449.71 130.263   6
  -3   8   3 116.095 45.7592   6
  -3   8   2 69.1528 47.0936   6
  -3   8   1 319.014 82.0759   6
  -3   8   0 260.827 74.0042   6
  -3   8  -1 134.575 87.0968   6
  -3   8  -2 1451.17 135.170   5
  -3   8  -2 1027.95 107.310   6
  -3   8  -3 78.7694 48.8620   6
  -3   8  -3 144.757 74.3295   5
  -3   8  -4 65.2119 54.9750   6
  -3   8  -4 106.243 81.9045   5
  -3   8  -5 22.2393 39.5241   5
  -3   8  -6 10.4585 36.8784   5
  -3   8  -7 80.2301 76.8692   5
  -3   7  14 25.5412 29.1724   0
  -3   7  13 368.244 87.8479   0
  -3   7  12 392.138 65.4995   2
  -3   7  12 824.033 85.5909   0
  -3   7  11 152.924 45.6526   2
  -3   7  11 198.479 59.3193   0
  -3   7  10-3.47485 30.0218   2
  -3   7  10 6.30831 25.6283   0
  -3   7   9 3245.13 136.315   6
  -3   7   9 4388.77 151.842   2
  -3   7   8 4422.55 148.164   2
  -3   7   8 2916.51 136.359   6
  -3   7   7 159.163 52.8580   2
  -3   7   7 166.302 75.3811   6
  -3   7   6 144.840 70.0751   6
  -3   7   5 316.358 62.7123   6
  -3   7   4 17.9168 32.4078   6
  -3   7   3 188.267 55.2246   6
  -3   7   2 554.769 75.1280   6
  -3   7   1 1450.89 110.039   6
  -3   7   0 1516.10 103.571   6
  -3   7  -1 3044.31 117.755   6
  -3   7  -2 418.879 87.1951   6
  -3   7  -2 459.163 92.0647   5
  -3   7  -3 800.955 90.1160   6
  -3   7  -3 1505.14 121.531   5
  -3   7  -4 57.8151 39.7468   5
  -3   7  -4 50.2682 50.5254   6
  -3   7  -5 81.3878 77.1515   5
  -3   7  -6 225.043 86.7168   5
  -3   7  -7 91.9182 67.2736   5
  -3   7  -8 1050.47 132.298   5
  -3   7  -9 306.745 92.6228   5
  -3   6  14 378.916 71.3598   0
  -3   6  13 145.924 68.5063   0
  -3   6  12 109.295 47.3419   0
  -3   6  11 126.767 52.7123   0
  -3   6  10 752.830 95.4006   2
  -3   6  10 632.626 91.9667   0
  -3   6   9 3229.67 130.741   0
  -3   6   9 3518.47 123.439   6
  -3   6   8 630.405 85.8064   0
  -3   6   8 758.021 74.9254   2
  -3   6   8 482.791 82.8329   6
  -3   6   7 683.634 82.1254   2
  -3   6   7 690.490 79.1948   0
  -3   6   6 4980.88 163.773   6
  -3   6   6 6456.17 136.545   2
  -3   6   5 887.366 78.4850   2
  -3   6   5 659.478 81.8245   6
  -3   6   4 1346.98 76.5041   2
  -3   6   4 1124.48 99.2297   6
  -3   6   3 971.380 88.7884   6
  -3   6   2 2029.02 96.6737   6
  -3   6   1 2004.33 100.212   6
  -3   6   0 5983.73 138.069   6
  -3   6  -1 206.930 67.1122   6
  -3   6  -2 1104.38 112.657   6
  -3   6  -2 1487.96 91.1935   5
  -3   6  -3 92.9779 43.8634   6
  -3   6  -3 343.911 97.8354   5
  -3   6  -4 2012.05 107.875   6
  -3   6  -4 2528.06 146.626   5
  -3   6  -5 34.3011 30.8113   6
  -3   6  -5 17.7366 48.0597   5
  -3   6  -6 3675.67 168.086   5
  -3   6  -7 460.154 86.6750   5
  -3   6  -8 283.477 79.1991   5
  -3   6  -9 409.226 92.1591   5
  -3   6 -10 41.7493 63.7095   5
  -3   5  15 139.078 61.4024   0
  -3   5  14 37.9203 34.2343   0
  -3   5  13 93.0179 40.3253   0
  -3   5  12 8.15437 39.5480   0
  -3   5  11 466.757 96.1511   0
  -3   5  10 74.1890 59.9395   0
  -3   5   9 10729.8 198.585   2
  -3   5   9 9881.37 164.666   0
  -3   5   8 7214.07 152.021   6
  -3   5   8 7272.78 156.211   0
  -3   5   7 921.089 77.2787   6
  -3   5   7 1112.31 92.4422   2
  -3   5   7 1001.77 74.8053   0
  -3   5   6 7444.55 161.309   2
  -3   5   6 6139.62 109.138   0
  -3   5   6 4419.82 118.008   6
  -3   5   5 17091.1 132.945   0
  -3   5   5 19012.3 179.573   2
  -3   5   4 565.138 48.9193   0
  -3   5   4 428.501 54.9927   2
  -3   5   4 292.721 59.7460   6
  -3   5   3 833.147 68.2972   2
  -3   5   3 573.986 70.8444   6
  -3   5   2 291.468 35.8373   2
  -3   5   2 201.104 44.7777   6
  -3   5   1 20595.7 145.878   2
  -3   5   1 14078.4 176.469   6
  -3   5   0 504.363 75.2591   6
  -3   5  -1 6583.59 125.943   6
  -3   5  -2 20.6476 21.4386   6
  -3   5  -2 9.98532 35.3493   5
  -3   5  -3 2350.75 113.777   1
  -3   5  -3 1850.04 92.8781   6
  -3   5  -3 2278.17 115.861   5
  -3   5  -4 226.503 60.0407   6
  -3   5  -4 208.051 59.5389   1
  -3   5  -4 216.286 74.9349   5
  -3   5  -5 3597.52 109.235   6
  -3   5  -5 4186.88 114.107   1
  -3   5  -5 4045.21 137.704   5
  -3   5  -6 1805.18 100.032   1
  -3   5  -6 1733.96 133.922   5
  -3   5  -7 1485.85 94.7536   5
  -3   5  -8 120.966 60.8864   5
  -3   5  -9 306.572 85.0761   5
  -3   5 -10 345.500 108.736   5
  -3   5 -11 76.0663 58.3730   5
  -3   4  15 76.8797 55.9130   0
  -3   4  14 591.102 115.269   0
  -3   4  13 404.330 69.6236   0
  -3   4  12 43.1828 41.5391   0
  -3   4  11 11.9221 27.4643   0
  -3   4  10 11362.2 183.453   0
  -3   4   9 347.523 63.4900   0
  -3   4   8 512.150 69.3276   2
  -3   4   8 514.563 65.0831   6
  -3   4   8 729.819 69.4007   0
  -3   4   7 8695.78 157.998   2
  -3   4   7 6033.75 116.807   6
  -3   4   7 7131.70 117.872   0
  -3   4   6 3972.17 104.929   2
  -3   4   6 3561.72 97.1471   0
  -3   4   5 2526.26 96.0335   2
  -3   4   5 1824.64 92.6649   6
  -3   4   5 2152.19 74.0175   0
  -3   4   4 192.450 48.0916   6
  -3   4   4 360.527 70.8584   2
  -3   4   4 235.189 32.4417   0
  -3   4   3 37.2567 14.3646   0
  -3   4   3 55.3170 19.6050   2
  -3   4   3 53.7834 32.5568   6
  -3   4   2 3810.77 98.1676   6
  -3   4   2 5566.97 105.617   2
  -3   4   1 180.190 57.8171   6
  -3   4   1 161.865 27.8073   2
  -3   4   0 21338.5 164.817   2
  -3   4   0 13295.5 144.486   6
  -3   4  -1-7.47364 11.3375   2
  -3   4  -1 83.2676 54.6977   1
  -3   4  -1 73.1895 44.5128   6
  -3   4  -1 84.9449 37.8253   5
  -3   4  -2 16.3800 30.4651   1
  -3   4  -2 62.9216 37.4156   6
  -3   4  -2 18.4530 31.4740   5
  -3   4  -3 2513.37 102.085   1
  -3   4  -3 2157.63 89.5426   5
  -3   4  -3 1876.34 77.7644   6
  -3   4  -4 19457.9 209.258   1
  -3   4  -4 14118.3 159.196   6
  -3   4  -4 16911.6 178.764   5
  -3   4  -5 2000.62 96.1117   5
  -3   4  -5 2102.12 77.6539   6
  -3   4  -6 2394.04 107.758   1
  -3   4  -6 2050.45 88.5225   5
  -3   4  -7 7387.18 141.748   1
  -3   4  -7 9704.70 179.611   5
  -3   4  -8 2618.92 135.138   5
  -3   4  -9 1526.90 130.474   5
  -3   4 -10 2019.89 129.659   5
  -3   4 -11 129.423 74.6529   5
  -3   4 -12 2.28846 43.1171   5
  -3   3  15 204.306 72.5765   0
  -3   3  14 675.480 89.0471   0
  -3   3  13 74.6487 58.8212   0
  -3   3  12 362.930 92.9098   0
  -3   3  11 3450.35 157.087   0
  -3   3  10 11.2059 21.8212   0
  -3   3   9 765.284 56.3347   0
  -3   3   8 3835.68 94.6899   6
  -3   3   8 4203.79 108.832   0
  -3   3   7 4553.69 99.0781   6
  -3   3   7 4952.50 92.4672   0
  -3   3   6 1054.66 64.8622   6
  -3   3   6 1468.60 84.2285   2
  -3   3   6 1348.66 63.0878   0
  -3   3   5 36573.5 211.475   2
  -3   3   5 24906.8 161.121   6
  -3   3   5 30297.0 153.894   0
  -3   3   4 10611.8 147.452   2
  -3   3   4 6996.45 108.475   6
  -3   3   4 8547.01 85.4146   0
  -3   3   3 4061.96 100.431   2
  -3   3   3 4011.48 64.6798   0
  -3   3   2 8143.14 71.4422   0
  -3   3   2 9066.39 117.153   2
  -3   3   1 17959.7 142.088   2
  -3   3   1 18860.7 164.850   1
  -3   3   0 3788.56 93.4528   2
  -3   3   0 3762.37 101.252   1
  -3   3  -1 1517.20 66.3283   2
  -3   3  -1 1518.82 75.1306   1
  -3   3  -1 1497.92 61.5408   5
  -3   3  -2 1793.41 69.9029   2
  -3   3  -2 1612.37 84.7953   1
  -3   3  -2 1497.99 72.5268   5
  -3   3  -3 14162.9 138.068   5
  -3   3  -3 15107.0 153.036   1
  -3   3  -4 3485.60 109.182   1
  -3   3  -4 2901.20 93.7463   6
  -3   3  -4 2972.48 86.0654   5
  -3   3  -5 10144.4 148.568   1
  -3   3  -5 9523.24 149.448   5
  -3   3  -6 189.238 55.1692   1
  -3   3  -6 262.497 55.1845   6
  -3   3  -7 8066.47 147.885   1
  -3   3  -7 8637.93 153.604   5
  -3   3  -8 2646.17 99.2605   1
  -3   3  -8 3404.84 131.075   5
  -3   3  -9 45.8229 41.4059   5
  -3   3 -10 2086.62 142.740   5
  -3   3 -11 817.395 81.6046   5
  -3   3 -12 14.7737 34.0699   5
  -3   3 -13 974.167 133.163   5
  -3   2  15 164.734 73.1665   0
  -3   2  14 5.75639 36.1084   0
  -3   2  13 195.439 73.2924   0
  -3   2  12 1997.89 116.728   0
  -3   2  11 31.2695 33.2856   0
  -3   2  10 6502.29 149.468   0
  -3   2   9 5438.43 127.156   0
  -3   2   8 2637.07 85.6156   0
  -3   2   7 6711.67 95.8985   6
  -3   2   7 6761.08 115.836   0
  -3   2   6 6653.24 112.355   6
  -3   2   6 6814.53 99.7818   0
  -3   2   5 1862.71 78.0382   6
  -3   2   5 2104.23 56.2992   0
  -3   2   4 18147.1 155.366   2
  -3   2   4 15321.7 96.1185   0
  -3   2   4 12728.5 119.922   6
  -3   2   3 12642.5 73.9767   0
  -3   2   3 11103.1 117.468   6
  -3   2   2 162.557 25.6504   2
  -3   2   2 307.785 41.4328   1
  -3   2   2 176.752 18.1560   0
  -3   2   2 186.938 44.4834   6
  -3   2   1 30181.6 164.198   2
  -3   2   1 31190.3 172.174   1
  -3   2   0 52.0096 31.0106   2
  -3   2   0 109.531 28.2327   5
  -3   2   0 103.441 50.2371   1
  -3   2   0 84.7369 37.9009   6
  -3   2   0 89.0447 17.6011   0
  -3   2  -1 2099.07 73.2012   2
  -3   2  -1 1320.06 64.2680   6
  -3   2  -1 1575.73 28.7364   0
  -3   2  -1 1710.96 73.3041   1
  -3   2  -1 1523.49 46.5181   5
  -3   2  -2 52256.5 185.974   2
  -3   2  -2 49322.0 207.080   1
  -3   2  -2 36316.4 173.031   6
  -3   2  -2 42823.8 152.158   5
  -3   2  -3 5886.60 91.9469   6
  -3   2  -3 6439.19 89.9166   5
  -3   2  -4 20760.0 163.402   1
  -3   2  -4 20553.5 139.856   5
  -3   2  -5 72.6234 28.8996   6
  -3   2  -5 17.2493 20.6204   1
  -3   2  -5 51.6758 26.4455   5
  -3   2  -6 14782.6 123.743   6
  -3   2  -6 15412.5 153.151   5
  -3   2  -7 5043.42 116.700   1
  -3   2  -7 4380.72 121.149   5
  -3   2  -8 18083.9 175.483   1
  -3   2  -8 15509.1 191.905   5
  -3   2  -9 1888.70 92.7681   1
  -3   2  -9 1272.00 74.8411   5
  -3   2 -10 1552.48 105.507   5
  -3   2 -11 144.694 67.4334   5
  -3   2 -12 3734.15 169.921   5
  -3   2 -13-4.08241 26.5716   5
  -3   2 -14 1156.29 130.884   5
  -3   1  15 913.202 120.261   0
  -3   1  14 1434.50 117.299   0
  -3   1  13 901.127 87.6353   0
  -3   1  12 98.5795 82.1699   0
  -3   1  11 2857.40 125.101   0
  -3   1  10 9036.15 153.312   0
  -3   1   9 36.3559 20.8269   0
  -3   1   8 5167.82 104.444   0
  -3   1   8 5951.44 115.531   4
  -3   1   7 14317.8 161.294   2
  -3   1   7 13664.3 123.517   4
  -3   1   6 1534.39 97.1869   2
  -3   1   6 1525.57 71.4782   4
  -3   1   6 1137.35 46.6931   0
  -3   1   5 410.760 61.2962   2
  -3   1   5 304.538 39.1782   0
  -3   1   5 445.560 53.1375   4
  -3   1   4 20234.3 100.519   0
  -3   1   4 28080.4 172.949   2
  -3   1   4 19647.4 123.635   6
   3  -1  -4 28530.6 111.888   3
  -3   1   3 31290.8 144.341   6
  -3   1   3 30553.4 97.3889   0
  -3   1   3 45031.4 188.808   2
   3  -1  -3 46737.0 128.141   3
  -3   1   2 87.1779 13.7390   0
  -3   1   2 66.2278 20.2060   2
  -3   1   2 178.238 44.9798   1
  -3   1   2 92.4809 31.3546   6
  -3   1   1 5741.37 80.1593   2
  -3   1   1 6450.63 95.5642   1
  -3   1   1 4046.67 77.6396   6
  -3   1   1 4669.42 38.4556   5
  -3   1   0 22489.6 141.844   2
  -3   1   0 22337.6 138.839   1
  -3   1   0 15565.5 111.477   6
  -3   1   0 17721.5 70.6595   5
  -3   1  -1 33655.9 154.609   6
  -3   1  -1 46012.9 156.171   2
  -3   1  -1 46651.4 178.928   1
  -3   1  -1 37629.2 113.736   5
  -3   1  -2 15970.1 121.812   2
  -3   1  -2 11086.0 105.059   6
  -3   1  -2 14513.0 126.587   1
  -3   1  -2 12417.6 79.3542   5
  -3   1  -3 27889.4 141.733   6
  -3   1  -3 30184.4 130.190   5
  -3   1  -4 15.8774 29.0915   1
  -3   1  -4 12.7382 13.9233   5
  -3   1  -4 25.6118 12.3491   0
  -3   1  -5 2149.07 87.7851   1
  -3   1  -5 1812.10 77.2132   5
  -3   1  -5 1800.63 41.8476   0
  -3   1  -6 5846.45 107.302   1
  -3   1  -6 4564.30 92.3248   5
  -3   1  -7 41205.6 222.209   1
  -3   1  -7 32020.6 200.436   5
  -3   1  -8 39.9992 25.2050   1
  -3   1  -8 11.4014 20.9826   5
  -3   1  -9 4966.99 126.921   1
  -3   1  -9 4277.38 133.272   5
  -3   1 -10 6465.07 149.263   1
  -3   1 -10 5475.46 161.963   5
  -3   1 -11 5180.86 181.150   5
  -3   1 -12 901.857 108.358   5
  -3   1 -13 291.949 97.5278   5
  -3   1 -14 16.9015 41.6784   5
  -3   1 -15 86.0024 47.1805   5
  -3   0  15 438.498 91.5014   0
  -3   0  14 229.175 84.1174   0
  -3   0  13 3646.01 148.815   0
  -3   0  12 364.632 76.4528   0
  -3   0  11 186.810 56.4489   0
  -3   0  10 12.3958 22.5851   0
  -3   0   9 7374.13 134.328   0
  -3   0   8 6574.54 112.991   0
  -3   0   8 7530.22 142.605   4
  -3   0   7 114.647 36.6800   0
  -3   0   7 192.592 33.6795   2
  -3   0   7 224.110 41.7741   4
  -3   0   6 1998.95 85.6932   2
  -3   0   6 2195.06 79.6815   4
  -3   0   5 51716.6 216.477   2
  -3   0   5 52262.5 202.886   4
  -3   0   4 10876.4 79.0269   0
  -3   0   4 13160.1 118.264   2
  -3   0   4 13140.0 116.786   4
   3   0  -4 14765.2 97.9815   3
  -3   0   3 18129.5 130.695   2
  -3   0   3 20304.0 114.322   1
  -3   0   3 18390.7 123.501   4
   3   0  -3 19925.0 103.294   3
   3   0  -2 55.5738 17.2212   3
  -3   0   2 34.8950 19.1834   2
  -3   0   2 69.9712 14.8485   0
  -3   0   1 1411.12 61.2728   2
  -3   0   1 1663.90 62.4428   1
  -3   0   0 7404.77 91.3958   1
  -3   0   0 7196.54 87.2922   2
  -3   0  -1 44117.0 147.746   2
  -3   0  -1 45018.5 165.441   1
  -3   0  -2 132700. 259.527   2
  -3   0  -2 122979. 255.146   1
  -3   0  -3 358.070 51.4568   1
  -3   0  -3 292.789 27.2197   5
   3   0   4 100.624 15.1094   0
  -3   0  -4 115.427 48.0221   1
  -3   0  -4 10.5442 19.6081   5
   3   0   5 40437.2 108.547   0
  -3   0  -5 41228.6 183.011   1
  -3   0  -6 19932.9 147.061   1
   3   0   6 19343.9 98.0466   0
  -3   0  -7 1870.28 73.0012   1
   3   0   7 1884.51 56.5695   0
  -3   0  -8 11003.5 157.163   5
  -3   0  -8 12041.6 157.712   1
  -3   0  -9 7291.99 142.672   5
  -3   0  -9 7551.55 131.069   1
  -3   0 -10 2875.16 111.655   1
  -3   0 -10 3003.28 130.850   5
  -3   0 -11 3400.69 117.041   1
  -3   0 -11 3126.38 138.279   5
  -3   0 -12 8609.07 205.966   5
  -3   0 -13 354.059 54.9565   5
  -3   0 -14 150.477 79.2771   5
  -3   0 -15 676.311 98.9845   5
  -3  -1  15 16.1338 44.9457   0
  -3  -1  14 1661.03 139.976   0
  -3  -1  13 971.211 109.637   0
  -3  -1  12 245.564 74.1479   0
  -3  -1  11 272.399 80.6047   0
  -3  -1  10 2700.23 123.690   0
  -3  -1   9 1779.10 99.6076   0
  -3  -1   8 26.0712 21.3715   0
  -3  -1   7 2267.17 88.4702   2
  -3  -1   7 2065.96 86.1349   0
  -3  -1   6 8940.18 114.539   0
  -3  -1   6 9728.83 141.413   2
  -3  -1   6 9560.76 126.101   4
  -3  -1   5 21492.1 153.480   2
  -3  -1   5 21134.9 149.625   4
  -3  -1   4 32335.4 166.505   2
  -3  -1   4 30564.0 127.183   0
  -3  -1   4 31098.2 143.967   4
  -3  -1   3 19741.5 117.774   2
  -3  -1   3 22854.3 107.080   1
  -3  -1   3 19964.6 93.7809   0
  -3  -1   3 20788.3 130.299   4
   3   1  -3 22698.0 115.946   3
  -3  -1   2 1246.65 48.2398   2
  -3  -1   2 1362.10 47.9010   1
  -3  -1   2 1509.41 67.4765   4
   3   1  -2 1238.55 30.4803   0
   3   1  -2 1331.20 53.9628   3
   3   1  -1 10229.4 45.2653   0
  -3  -1   1 10292.8 96.4129   2
  -3  -1   0 69092.5 189.205   2
  -3  -1   0 69701.6 175.889   1
  -3  -1  -1 7591.47 93.6044   2
  -3  -1  -1 7482.30 84.9005   1
  -3  -1  -2 18218.4 75.8771   5
  -3  -1  -2 25171.9 132.277   1
  -3  -1  -3 4895.94 60.5808   5
  -3  -1  -3 6460.89 95.3193   1
   3   1   4 51601.6 99.3114   0
  -3  -1  -4 48978.1 149.672   5
  -3  -1  -5 13122.3 100.540   5
   3   1   5 14675.2 70.9652   0
   3   1   6 13037.3 84.6718   0
  -3  -1  -6 11136.1 107.980   5
  -3  -1  -6 14716.7 141.723   1
   3   1   7 10903.3 93.3998   0
  -3  -1  -7 11954.5 136.584   1
  -3  -1  -8 1662.41 89.4379   5
  -3  -1  -8 1793.87 77.8568   1
   3   1   8 1779.38 64.8680   0
  -3  -1  -9 1137.18 82.3969   5
  -3  -1  -9 1289.17 94.1943   1
   3   1   9 1319.93 63.4844   0
  -3  -1 -10 16415.1 173.270   1
   3   1  10 16350.9 137.926   0
  -3  -1 -11 7011.44 160.412   5
  -3  -1 -11 7684.37 168.237   1
  -3  -1 -12 204.270 62.8665   5
  -3  -1 -12 144.779 51.0664   1
  -3  -1 -13 105.308 70.3625   5
  -3  -1 -14 664.305 106.116   5
  -3  -1 -15 1225.08 131.231   5
  -3  -2  14 30.0095 44.2796   0
  -3  -2  13 737.301 119.547   0
  -3  -2  12 70.7958 70.1704   0
  -3  -2  11 2276.68 131.217   0
  -3  -2  10 1490.76 103.389   0
  -3  -2   9 9193.80 155.575   0
  -3  -2   8 322.772 40.0503   2
  -3  -2   8 432.386 56.5239   0
  -3  -2   7 6674.51 113.701   0
  -3  -2   7 6371.90 122.177   2
  -3  -2   6 5516.23 111.652   2
  -3  -2   6 6485.21 110.893   0
  -3  -2   5 6293.45 100.652   2
  -3  -2   4 13591.8 123.831   2
  -3  -2   4 15214.0 86.7516   1
  -3  -2   4 14066.6 135.954   4
   3   2  -4 11954.7 101.080   0
   3   2  -3 5309.86 66.7138   0
  -3  -2   3 5961.51 88.0287   2
  -3  -2   3 6036.98 90.5723   4
   3   2  -3 6981.07 95.0210   3
  -3  -2   3 6547.30 64.3241   1
  -3  -2   2 1193.73 43.3102   2
  -3  -2   2 1358.95 44.6250   1
  -3  -2   2 1248.69 58.0366   4
   3   2  -2 1410.28 57.1846   3
   3   2  -2 1314.27 43.5207   0
   3   2  -1 66431.8 122.868   0
  -3  -2   1 67762.8 187.043   2
  -3  -2   1 68473.3 156.677   1
  -3  -2   1 68552.1 197.680   4
  -3  -2   0 11874.2 91.8547   2
   3   2   0 11853.1 54.2740   0
  -3  -2   0 12287.3 92.2068   1
  -3  -2  -1 108827. 223.277   2
   3   2   1 105916. 465.351   0
  -3  -2  -1 105115. 210.435   1
  -3  -2  -2 29037.8 139.431   1
   3   2   2 27528.8 72.2256   0
   3   2   3 65548.9 109.527   0
  -3  -2  -3 66605.1 206.523   1
  -3  -2  -4 59264.3 195.100   1
   3   2   4 54693.4 111.830   0
  -3  -2  -4 48741.8 148.323   5
  -3  -2  -5 9506.49 89.5305   5
   3   2   5 10254.8 70.7641   0
  -3  -2  -6 20905.8 136.193   5
  -3  -2  -6 25752.6 163.016   1
   3   2   6 23008.4 98.7032   0
   3   2   7 8285.82 91.6251   0
  -3  -2  -7 8231.63 133.961   1
   3   2   8 52.6974 18.1712   0
  -3  -2  -8 75.8492 28.5822   5
  -3  -2  -8 52.0800 25.6228   1
   3   2   9 18415.8 138.183   0
  -3  -2  -9 18931.8 182.404   1
  -3  -2 -10 11681.2 174.853   1
   3   2  10 11322.5 137.234   0
  -3  -2 -11 270.917 50.1419   5
   3   2  11 422.927 59.2522   0
  -3  -2 -11 402.379 70.2363   1
  -3  -2 -12 1543.37 118.768   5
  -3  -2 -12 1814.25 115.016   1
   3   2  12 1592.91 70.2240   0
  -3  -2 -13 1717.66 120.710   5
  -3  -2 -13 1876.25 120.349   1
   3   2  13 2116.38 109.427   0
  -3  -2 -14 6160.95 190.326   5
  -3  -2 -15 181.306 71.4565   5
  -3  -2 -16 2819.10 176.852   5
   3   3 -14 256.568 77.8475   0
   3   3 -13 40.7876 55.0233   0
   3   3 -12 686.623 96.6211   0
   3   3 -11 298.174 67.5045   0
  -3  -3  10 53.1893 31.8826   2
   3   3 -10 37.8642 25.0196   0
  -3  -3   9 7323.16 136.366   2
   3   3  -9 5539.03 131.090   0
  -3  -3   8 8346.21 136.181   2
   3   3  -8 7001.03 150.790   0
  -3  -3   7 554.487 72.2830   2
   3   3  -7 429.676 44.1941   0
  -3  -3   6 9688.32 113.003   2
   3   3  -6 8197.11 118.355   0
  -3  -3   5 1973.52 76.2479   2
   3   3  -5 1749.05 64.8649   0
  -3  -3   4 71.4474 28.0245   2
   3   3  -4 62.4496 17.5847   5
   3   3  -4 71.9871 19.7890   0
   3   3  -3 2042.18 64.2904   0
  -3  -3   3 1957.14 57.0891   2
  -3  -3   3 2383.85 45.2041   1
   3   3  -3 2189.79 43.7513   5
  -3  -3   3 2118.51 81.8164   4
   3   3  -3 2337.59 82.5597   3
   3   3  -2 51857.6 141.351   0
  -3  -3   2 52734.0 167.487   2
  -3  -3   2 56465.0 136.932   1
  -3  -3   2 53262.7 197.667   4
   3   3  -2 60143.9 206.538   3
  -3  -3   1 6214.47 79.2123   2
   3   3  -1 6366.03 65.9121   0
  -3  -3   1 6085.97 93.8414   4
  -3  -3   1 6534.93 62.8726   1
   3   3  -1 6482.03 95.4588   3
  -3  -3   0 46810.2 139.747   1
  -3  -3   0 47664.8 158.662   2
   3   3   0 48020.6 121.805   0
  -3  -3   0 46304.3 176.450   4
  -3  -3  -1 345.690 33.7092   2
  -3  -3  -1 351.554 38.5320   1
   3   3   1 357.320 21.1192   0
   3   3   2 5867.76 57.9857   0
  -3  -3  -2 4905.66 81.8975   1
  -3  -3  -3 4531.12 81.1733   1
   3   3   3 5063.06 54.9944   0
   3   3   4 118338. 666.469   0
  -3  -3  -4 119050. 262.432   1
   3   3   5 2016.73 46.3179   0
  -3  -3  -5 1864.17 66.4287   1
   3   3   6 4919.03 70.1020   0
  -3  -3  -6 4671.68 99.9951   1
  -3  -3  -7 8190.00 114.068   5
   3   3   7 8042.07 88.7680   0
  -3  -3  -7 7933.35 116.189   1
  -3  -3  -8 15928.7 155.376   5
   3   3   8 17125.2 121.978   0
  -3  -3  -8 15838.5 166.276   1
  -3  -3  -9 9346.29 145.492   1
   3   3   9 9299.79 119.561   0
   3   3  10 217.410 43.7372   0
  -3  -3 -10 173.746 37.4401   5
  -3  -3 -10 334.275 67.4457   1
   3   3  11 7173.61 131.179   0
  -3  -3 -11 6442.19 147.591   5
   3   3  12 7639.32 135.890   0
  -3  -3 -12 7058.41 167.778   5
   3   3  13 395.414 62.5518   0
  -3  -3 -13 429.880 73.9199   5
  -3  -3 -13 617.691 96.4338   1
  -3  -3 -14 1639.66 133.953   5
   3   3  14 1826.67 107.427   0
  -3  -3 -14 1798.09 111.775   1
  -3  -3 -15 2283.31 147.165   5
  -3  -3 -16 391.377 88.4145   5
   3   4 -13 86.5698 69.0854   0
   3   4 -12 19.1391 41.3580   0
   3   4 -11 2236.01 132.293   0
   3   4 -10-1.64183 28.3852   0
   3   4  -9 1460.60 97.3258   0
   3   4  -8 4295.69 135.855   0
   3   4  -7 25428.8 199.420   0
  -3  -4   6 928.518 58.3716   2
   3   4  -6 784.084 58.8970   0
  -3  -4   5 4617.93 82.2436   2
   3   4  -5 4452.78 102.803   0
   3   4  -4 3.30999 17.1232   0
  -3  -4   4 1.40361 9.31608   2
   3   4  -4 15.5520 18.8189   5
   3   4  -3 6359.49 97.1291   0
  -3  -4   3 5920.31 87.2001   2
   3   4  -3 6890.65 118.368   3
   3   4  -2 403.345 37.5804   0
  -3  -4   2 256.941 34.4855   2
  -3  -4   2 331.916 30.9547   1
  -3  -4   2 243.819 35.8707   4
   3   4  -2 269.831 43.6735   3
  -3  -4   1 46751.4 156.654   2
   3   4  -1 45881.9 160.211   0
  -3  -4   1 46123.5 132.073   1
  -3  -4   1 45997.0 192.678   4
  -3  -4   0 85.9619 25.0330   2
   3   4   0 123.494 32.2005   0
  -3  -4   0 118.034 30.9383   1
  -3  -4   0 91.3023 36.9885   4
   3   4   0 78.1096 30.8055   3
   3   4   1 3595.74 54.5547   0
   3   4   1 3968.06 85.1893   3
  -3  -4  -1 4055.20 69.1399   1
  -3  -4  -1 4541.14 81.3134   4
   3   4   2 7818.96 74.5993   0
  -3  -4  -2 7263.52 98.7152   1
   3   4   3 131870. 211.473   0
  -3  -4  -3 121225. 258.069   1
  -3  -4  -4 9911.24 108.262   1
   3   4   4 10488.8 89.3807   0
   3   4   5 1591.16 63.1689   0
  -3  -4  -5 1756.23 72.8435   1
   3   4   6 4958.79 74.4851   0
  -3  -4  -6 4783.30 104.881   1
   3   4   7 45533.9 170.522   0
  -3  -4  -7 41657.6 214.420   1
   3   4   8 15733.3 130.505   0
  -3  -4  -8 15686.1 165.640   1
   3   4   9 70.5203 19.3497   0
  -3  -4  -9 206.665 61.4190   1
   3   4  10 4218.02 107.172   0
  -3  -4 -10 3728.41 100.008   1
  -3  -4 -11 3247.47 120.737   1
   3   4  11 3072.58 103.353   0
   3   4  12 240.750 54.5768   0
  -3  -4 -12 484.516 100.758   1
   3   4  13 8410.13 172.132   0
  -3  -4 -13 10302.4 209.891   1
   3   4  14 5045.98 160.936   0
  -3  -4 -14 5350.24 172.293   1
   3   4  15 56.3452 57.4724   0
  -3  -4 -15 69.9782 40.0803   1
   3   4  16 128.052 53.7010   0
  -3  -4 -16 86.8692 58.1673   1
   3   5 -13 13.1048 30.6803   0
   3   5 -12 256.469 77.0755   0
   3   5 -11 29.1382 37.4528   0
   3   5 -10 720.469 89.2660   0
   3   5  -9 12.2222 30.0317   0
   3   5  -8 1741.12 104.742   0
   3   5  -7 4239.43 142.138   0
   3   5  -6 340.351 46.9416   0
   3   5  -5 9.69986 19.2514   0
   3   5  -5 13.8649 30.0435   5
   3   5  -4 2422.51 91.9155   0
   3   5  -4 2524.27 68.3452   5
   3   5  -3 1375.26 68.1958   0
  -3  -5   3 860.385 38.0667   2
  -3  -5   2 13151.4 102.399   2
   3   5  -2 12458.8 131.227   0
   3   5  -2 14124.3 165.477   3
  -3  -5   1 34.1638 23.7707   2
   3   5  -1 34.2289 27.3997   0
  -3  -5   1 61.2129 15.2481   1
  -3  -5   1 19.2806 19.0175   4
   3   5   0 2817.75 84.0904   0
  -3  -5   0 2708.79 64.8926   1
  -3  -5   0 2657.30 71.7070   4
   3   5   0 2877.96 97.9341   3
   3   5   1 7359.79 87.5346   0
  -3  -5  -1 7011.47 81.2517   1
  -3  -5  -1 7357.81 103.649   4
   3   5   1 7857.99 130.726   3
   3   5   2 12378.7 133.684   3
   3   5   2 11998.9 98.2884   0
  -3  -5  -2 12667.7 124.312   4
  -3  -5  -2 11255.6 115.446   1
   3   5   3 150.900 38.9729   0
   3   5   4 31708.6 148.429   0
   3   5   5 1501.02 63.7518   0
   3   5   6 9064.11 120.151   0
   3   5   7 6172.11 106.388   0
   3   5   8 23891.7 162.593   0
   3   5   9 3368.07 96.1287   0
   3   5  10-17.2647 18.9993   0
   3   5  11 79.7573 47.0962   0
  -3  -5 -11 150.868 68.7306   1
   3   5  12 3894.10 129.852   0
  -3  -5 -12 4342.03 165.970   1
  -3  -5 -13 3195.88 142.315   1
   3   5  13 2693.09 135.510   0
   3   5  14 18.8915 34.7765   0
  -3  -5 -14 66.9355 53.9449   1
  -3  -5 -15 1251.25 119.636   1
   3   5  15 1146.95 138.586   0
   3   5  16 2413.01 159.067   0
  -3  -5 -16 2254.18 152.823   1
   3   5  17 20.9232 41.8616   0
  -3  -5 -17 76.9292 49.1062   1
   3   6 -12 33.1096 51.8258   0
   3   6 -11 567.713 119.355   0
   3   6 -10 31.7891 66.4209   0
   3   6  -9 130.561 65.6794   0
   3   6  -8 1955.14 134.283   0
   3   6  -7 4256.83 146.133   0
   3   6  -6 4952.34 146.636   0
   3   6  -5 498.412 82.5217   0
   3   6  -5 600.991 70.4531   5
   3   6  -4 4111.11 120.212   0
   3   6  -4 5247.31 106.997   5
   3   6  -3 8432.17 156.035   0
   3   6  -2 77.8259 50.2524   0
   3   6  -1 333.920 60.5202   0
   3   6  -1 358.052 66.7192   3
   3   6   0 272.388 43.2748   0
  -3  -6   0 321.978 46.5767   1
  -3  -6   0 317.549 64.8198   4
   3   6   0 309.277 69.0097   3
   3   6   1 12250.9 129.007   0
  -3  -6  -1 12267.0 122.904   4
   3   6   1 13163.3 157.253   3
   3   6   2 1480.64 55.6300   0
  -3  -6  -2 1697.04 72.7964   4
   3   6   2 1635.03 87.9391   3
   3   6   3 26050.2 183.403   3
   3   6   3 26095.9 160.915   0
   3   6   4 505.627 51.7478   0
   3   6   5 5010.56 112.671   0
   3   6   6 579.046 66.6076   0
   3   6   7 36511.9 212.941   0
   3   6   8 16571.9 192.043   0
   3   6   9 23488.2 187.070   0
   3   6  10 2707.17 121.145   0
   3   6  11 5629.57 145.714   0
   3   6  12 49.4976 36.0057   0
   3   6  13 1110.98 95.2203   0
  -3  -6 -14 1618.83 128.888   1
   3   6  14 1165.63 116.774   0
   3   6  15 1314.10 98.2391   0
  -3  -6 -15 2365.32 160.525   1
   3   6  16 23.9624 35.3067   0
  -3  -6 -16 177.759 65.0302   1
   3   7 -11 482.835 120.163   0
   3   7 -10 106.173 70.6247   0
   3   7  -9 213.575 73.4468   0
   3   7  -8 973.891 121.443   0
   3   7  -7 307.859 79.0884   0
   3   7  -6 152.382 56.3689   0
   3   7  -5 375.740 67.5701   0
   3   7  -5 616.959 73.0354   5
   3   7  -4 241.547 41.2821   0
   3   7  -3 334.707 57.5524   0
   3   7  -2 108.497 46.7644   0
   3   7  -1 14.2180 23.8337   0
   3   7   0 2538.26 96.9219   0
  -3  -7   0 2485.59 89.3309   4
   3   7   0 2542.92 95.7695   3
   3   7   1 372.787 44.4729   0
  -3  -7  -1 465.475 61.6024   4
   3   7   1 418.859 77.1341   3
  -3  -7  -2 17106.1 160.229   4
   3   7   2 17246.1 182.321   3
   3   7   3 1544.47 88.2916   0
  -3  -7  -3 1372.41 61.7137   4
   3   7   3 1563.81 105.005   3
   3   7   4 389.065 77.0972   3
   3   7   4 319.676 53.0503   0
   3   7   5 1869.78 96.0485   0
   3   7   6 35607.0 209.350   0
   3   7   7 4220.11 133.203   0
   3   7   8 6047.42 142.084   0
   3   7   9 2490.24 119.929   0
   3   7  10 2300.25 119.048   0
   3   7  11 475.550 81.8111   0
   3   7  12 5777.97 169.229   0
   3   7  13 116.033 71.2365   0
   3   7  14 46.9065 48.9509   0
   3   7  15 140.572 65.4275   0
  -3  -7 -16 1233.06 146.309   1
   3   7  16 1018.40 118.645   0
   3   8  -9 173.896 63.4373   0
   3   8  -8 33.2741 40.3402   0
   3   8  -7 130.695 54.4620   0
   3   8  -6 618.202 98.4454   0
   3   8  -5 5.92702 25.4607   0
   3   8  -5 135.579 67.2373   5
   3   8  -4 373.764 79.1409   0
   3   8  -3 3701.43 131.452   0
   3   8  -2 9626.41 176.867   0
   3   8  -1 40.9494 27.8079   0
   3   8   0 158.566 63.8109   0
  -3  -8   0 66.7808 31.6513   4
   3   8   0 164.820 58.5707   3
   3   8   1 8541.54 157.097   0
  -3  -8  -1 8451.70 149.654   4
   3   8   1 8367.30 166.572   3
   3   8   2 634.689 59.2953   0
  -3  -8  -2 708.872 77.2491   4
   3   8   2 716.675 105.607   3
   3   8   3 1947.82 101.943   0
   3   8   3 1978.25 111.184   3
   3   8   4 1385.59 98.7235   0
   3   8   4 1359.45 94.9306   3
   3   8   5 9921.44 157.882   3
   3   8   5 9668.90 162.419   0
   3   8   6 3169.64 118.076   3
   3   8   6 3059.20 123.434   0
   3   8   7 17161.0 192.665   0
   3   8   8 1295.12 114.115   0
   3   8   9 4517.15 143.969   0
   3   8  10 229.725 80.4848   0
   3   8  11 664.757 106.550   0
   3   8  12 305.571 52.8847   0
   3   8  13 915.615 127.169   0
   3   8  14 88.0805 40.7309   0
   3   8  15 948.270 145.086   0
   3   9  -8 48.2736 65.1555   0
   3   9  -7 153.947 68.0901   0
   3   9  -6 441.450 93.0344   0
   3   9  -5 768.835 94.3394   0
   3   9  -4 47.7336 47.3586   0
   3   9  -3 384.633 92.3764   0
   3   9  -2 765.082 108.741   0
   3   9  -1 292.504 91.6194   0
   3   9   0 228.528 44.0863   0
   3   9   1 479.741 70.7624   0
  -3  -9  -1 337.121 47.1889   4
   3   9   2 4612.15 151.461   0
   3   9   2 3966.00 143.173   3
   3   9   3 1653.89 121.775   0
   3   9   3 1640.07 105.324   3
   3   9   4 146.975 74.6998   0
   3   9   4 114.290 54.5320   3
   3   9   5 65.2548 45.5462   0
   3   9   5 99.4476 46.4356   3
   3   9   6 6100.62 172.746   0
   3   9   6 5689.66 168.724   3
   3   9   7 2111.67 126.156   0
   3   9   8 410.706 73.1238   0
   3   9   9 724.788 102.503   0
   3   9  10 6672.98 189.014   0
   3   9  11 57.0275 49.4836   0
   3   9  12 1153.77 149.796   0
   3   9  13 821.997 118.159   0
   3   9  14 0.98029 35.2359   0
   3   9  15-0.71980 37.4392   0
   3  10  -6 50.9977 67.4921   0
   3  10  -5 27.7893 34.8905   0
   3  10  -4 190.422 86.5898   0
   3  10  -4 44.6426 51.9049   5
   3  10  -3 477.778 107.077   0
   3  10  -2 2889.68 153.427   0
   3  10  -1 11.5382 33.3198   0
   3  10   0 287.556 84.0980   0
   3  10   1 1017.30 111.698   0
   3  10   2 347.100 83.4131   0
   3  10   3 80.1347 59.3463   0
   3  10   3 38.5153 47.7179   3
   3  10   4 171.049 84.5780   0
   3  10   4 247.931 69.5518   3
   3  10   5 1397.42 123.298   0
   3  10   6 2419.58 155.785   0
   3  10   7 534.130 101.603   0
   3  10   8 12.1856 32.9122   0
   3  10   9 2498.79 139.941   0
   3  10  10 46.2857 52.0868   0
   3  10  11 41.5509 46.7050   0
   3  10  12 82.5164 56.5975   0
   3  10  13 951.247 138.210   0
   3  10  14 52.5370 61.9622   0
   3  11  -4 652.351 116.465   0
   3  11  -4 770.371 124.124   5
   3  11  -3 1018.31 113.589   0
   3  11  -2 923.029 129.705   0
   3  11  -1 183.951 83.1141   0
   3  11   0 847.313 121.826   0
   3  11   1 1169.20 141.702   0
   3  11   2 971.460 121.180   0
   3  11   3 226.412 84.9585   0
   3  11   4 2253.10 142.104   0
   3  11   5 1594.37 141.300   0
   3  11   6 789.430 133.370   0
   3  11   7 42.7545 46.3256   0
   3  11   8 75.6518 69.2092   0
   3  11   9 1137.74 117.500   0
   3  11  10 3047.90 163.342   0
   3  11  11 148.908 61.7047   0
   3  11  12 458.739 110.522   0
   3  12  -1 40.0973 44.7856   0
   3  12   0 395.419 96.8539   0
   3  12   1 1322.33 138.534   0
   3  12   2 302.771 111.009   0
   3  12   3 66.3161 63.4848   0
   3  12   4 13.2288 55.8485   0
   3  12   5 15.9832 57.5604   0
   3  12   6 238.522 103.621   0
   3  12   7 12.5387 42.6729   0
   3  12   8 141.147 74.1626   0
   3  12   9 1588.66 164.840   0
  -4   9   8 71.6600 56.9757   6
  -4   9   7 768.988 116.824   6
  -4   9   6 411.986 114.250   6
  -4   9   5 19.6906 51.9607   6
  -4   9   4 19.4678 42.3712   6
  -4   9   3 25.6173 47.1712   6
  -4   9   2 155.671 64.7351   6
  -4   9   1 280.551 78.9812   6
  -4   9   0 54.9200 56.3908   6
  -4   9  -1 161.114 67.3140   6
  -4   9  -2 449.270 102.806   6
  -4   9  -3 99.1413 72.9788   6
  -4   9  -3 295.844 104.621   5
  -4   8   9-8.10198 23.4970   6
  -4   8   8 230.165 78.7045   6
  -4   8   7 702.435 124.543   6
  -4   8   6 1228.60 141.020   6
  -4   8   5 338.865 99.7252   6
  -4   8   4 175.195 86.2882   6
  -4   8   3 64.6400 56.4706   6
  -4   8   2 719.150 100.692   6
  -4   8   1 65.6783 69.4926   6
  -4   8   0 53.7083 51.8574   6
  -4   8  -1 45.4283 51.3445   6
  -4   8  -2 517.991 88.8022   6
  -4   8  -2 423.899 75.3780   5
  -4   8  -3 167.447 63.9177   6
  -4   8  -3 471.695 107.803   5
  -4   8  -4 37.8594 37.4162   6
  -4   8  -4 160.952 90.3295   5
  -4   8  -5 81.8769 58.1091   5
  -4   8  -6 22.5440 60.6205   5
  -4   7  12 203.575 87.2227   2
  -4   7  11 200.299 80.8624   2
  -4   7  10 23.7579 37.5363   2
  -4   7   9 26.9208 38.3640   2
  -4   7   9 8.88840 31.9207   6
  -4   7   8 15.3502 37.1273   6
  -4   7   8 71.3138 42.2657   2
  -4   7   7 864.999 113.602   6
  -4   7   6 456.209 92.4893   6
  -4   7   5 58.7221 48.5163   6
  -4   7   4 73.3491 63.7819   6
  -4   7   3 65.4306 44.5417   6
  -4   7   2 151.965 79.7445   6
  -4   7   1 2709.77 149.967   6
  -4   7   0 361.736 70.0025   6
  -4   7  -1 59.9665 53.2902   6
  -4   7  -2 108.299 62.5402   6
  -4   7  -2 170.627 88.3929   5
  -4   7  -3 344.954 65.8032   6
  -4   7  -3 611.312 101.171   5
  -4   7  -4 19.2141 38.1972   6
  -4   7  -4 35.9525 52.0048   5
  -4   7  -5 55.5365 48.6190   5
  -4   7  -6 6.31391 39.1792   5
  -4   7  -7 887.645 132.115   5
  -4   6  12 569.748 94.9539   2
  -4   6  11 1174.03 110.428   2
  -4   6  10 465.299 75.4881   2
  -4   6   9 238.001 56.2988   2
  -4   6   9 335.927 68.4316   6
  -4   6   8 139.630 70.5983   2
  -4   6   8 94.5255 46.1297   6
  -4   6   7 83.1898 66.0654   2
  -4   6   7 7.12444 29.4073   6
  -4   6   6 504.007 73.8115   2
  -4   6   6 302.918 75.1562   6
  -4   6   5 218.066 64.1480   2
  -4   6   5 77.9344 40.0053   6
  -4   6   4 1363.27 101.221   6
  -4   6   4 1641.78 100.968   2
  -4   6   3 146.624 64.0362   6
  -4   6   2 3720.29 140.390   6
  -4   6   1 143.926 69.6879   6
  -4   6   0 261.383 70.6075   6
  -4   6  -1 141.242 71.1566   6
  -4   6  -1 365.867 72.4010   5
  -4   6  -2 273.030 53.6251   6
  -4   6  -2 432.734 82.4257   5
  -4   6  -3 44.8665 35.6944   6
  -4   6  -3 23.7065 50.6523   5
  -4   6  -4 14.7394 40.8467   5
  -4   6  -4 53.0192 40.0443   6
  -4   6  -5 338.254 68.3075   1
  -4   6  -5 223.473 53.0628   5
  -4   6  -5 306.328 52.6480   6
  -4   6  -6 130.853 40.5948   5
  -4   6  -7 54.0831 49.4332   5
  -4   6  -8 708.118 94.0466   5
  -4   6  -9 75.1861 59.5081   5
  -4   5  13 47.3894 62.8485   2
  -4   5  12 1147.63 137.868   2
  -4   5  11 335.471 88.8903   2
  -4   5  10 78.3439 52.4781   2
  -4   5   9 303.087 70.0468   2
  -4   5   9 319.681 55.2518   6
  -4   5   8 34.8321 52.6657   6
  -4   5   8-10.7340 25.6563   2
  -4   5   7 958.459 113.217   2
  -4   5   7 761.543 76.2663   6
  -4   5   6 38.5190 39.8417   2
  -4   5   6 14.7221 25.1889   6
  -4   5   5 1589.30 108.746   2
  -4   5   5 1097.18 82.6390   6
  -4   5   4 370.361 66.3336   6
  -4   5   4 439.470 77.4051   2
  -4   5   3 5635.50 152.413   2
  -4   5   3 3710.35 120.307   6
  -4   5   2 109.042 30.8495   2
  -4   5   2 150.432 55.1359   6
  -4   5   1 3577.75 114.210   2
  -4   5   1 2291.41 103.190   6
  -4   5   0 762.395 89.1016   6
  -4   5  -1 3034.84 134.683   6
  -4   5  -2 1010.17 103.461   1
  -4   5  -2 939.450 112.555   6
  -4   5  -2 768.287 72.2679   5
  -4   5  -3 11767.4 184.608   1
  -4   5  -3 10693.8 172.404   5
  -4   5  -4 1955.77 102.896   6
  -4   5  -4 1872.95 119.734   5
  -4   5  -5 48.3286 50.8291   1
  -4   5  -5 23.7735 32.3684   6
  -4   5  -5 8.96807 29.4370   5
  -4   5  -6 62.3686 43.5800   1
  -4   5  -6 292.586 72.2651   5
  -4   5  -7 1177.35 125.974   5
  -4   5  -8 198.077 65.6963   5
  -4   5  -9 20.0211 33.6795   5
  -4   5 -10 370.045 104.354   5
  -4   4  13 5.13970 36.0314   2
  -4   4  12 1213.83 124.636   2
  -4   4  11 4147.51 156.955   2
  -4   4  10 170.285 54.6891   2
  -4   4   9 416.331 81.6594   2
  -4   4   8 5544.17 179.814   2
  -4   4   8 4151.54 128.954   6
  -4   4   7 1564.93 122.362   2
  -4   4   7 1272.74 107.837   6
  -4   4   6 1124.18 110.826   2
  -4   4   6 878.208 86.6218   6
  -4   4   5 828.697 86.0847   2
  -4   4   5 742.584 81.7123   6
  -4   4   4 12249.1 183.950   2
  -4   4   4 7954.78 142.842   6
  -4   4   3 149.791 45.0669   2
  -4   4   3 138.727 58.9143   6
  -4   4   2 2939.16 112.040   6
  -4   4   2 4166.48 119.090   2
  -4   4   1 5124.36 115.905   2
  -4   4   1 3392.00 120.927   6
  -4   4   0 2592.20 101.921   2
  -4   4   0 2182.58 113.238   1
  -4   4   0 1766.09 99.3432   6
  -4   4  -1 312.602 54.3708   2
  -4   4  -1 421.681 99.5699   1
  -4   4  -1 250.676 56.4735   6
  -4   4  -1 175.012 35.8232   5
  -4   4  -2 9317.89 169.745   1
  -4   4  -2 8820.29 145.684   5
  -4   4  -3 27.4813 29.9927   1
  -4   4  -3 41.6060 23.6462   6
  -4   4  -3 6.16604 24.7445   5
  -4   4  -4 1408.20 90.9423   6
  -4   4  -4 1648.27 111.132   5
  -4   4  -5 1023.80 80.3062   6
  -4   4  -5 1327.33 103.657   1
  -4   4  -5 1319.39 75.7919   5
  -4   4  -6 146.239 53.0394   6
  -4   4  -6 144.992 62.4799   1
  -4   4  -7 552.167 91.0548   1
  -4   4  -7 996.860 112.250   5
  -4   4  -8 515.473 92.0093   5
  -4   4  -9 54.7558 57.2121   5
  -4   4 -10 1789.44 121.079   5
  -4   4 -11 10.4166 26.4967   5
  -4   3  14-0.17061 37.5456   2
  -4   3  13 1675.11 150.723   2
  -4   3  12 48.6281 48.1623   2
  -4   3  11 363.763 89.6437   2
  -4   3  10 4897.61 170.261   2
  -4   3   9 20.2517 37.9250   2
  -4   3   8 974.179 93.2946   2
  -4   3   8 672.769 60.2194   6
  -4   3   7 66.0765 42.3165   2
  -4   3   7 67.9434 39.1544   6
  -4   3   6 1792.77 125.067   2
  -4   3   6 1255.61 75.5707   6
  -4   3   5 2119.47 108.944   2
  -4   3   5 1530.92 87.2988   6
  -4   3   4 908.171 72.9048   2
  -4   3   4 710.092 74.7260   6
  -4   3   3 6537.14 142.535   2
  -4   3   3 4494.02 121.128   6
  -4   3   2 400.492 55.7228   2
  -4   3   2 290.537 57.3039   6
  -4   3   1 4.45006 19.4644   2
  -4   3   1 39.9714 38.6479   1
  -4   3   1 42.4260 30.9831   6
  -4   3   0 21801.1 201.482   2
  -4   3   0 19732.3 190.278   1
  -4   3  -1 17365.2 170.975   2
  -4   3  -1 18024.3 204.133   1
  -4   3  -2 24.4150 25.4163   2
  -4   3  -2 13.9309 27.3082   1
  -4   3  -2 9.63632 21.3237   5
  -4   3  -2 6.11267 24.3661   6
  -4   3  -3 4540.84 119.610   6
  -4   3  -3 4878.96 123.117   5
  -4   3  -4 21194.7 215.818   1
  -4   3  -4 20734.5 173.573   5
  -4   3  -5 6928.58 163.394   1
  -4   3  -5 6686.14 119.588   5
  -4   3  -6 1364.97 71.6540   6
  -4   3  -6 1580.80 101.846   1
  -4   3  -6 1776.15 90.0952   5
  -4   3  -7 8227.15 167.382   1
  -4   3  -7 7971.24 166.074   5
  -4   3  -8 449.503 85.8360   1
  -4   3  -8 500.882 86.1332   5
  -4   3  -9 9.50503 45.7576   1
  -4   3  -9-6.17325 21.4568   5
  -4   3 -10 841.611 94.0279   5
  -4   3 -11 2715.85 174.267   5
  -4   3 -12 88.4780 72.0697   5
  -4   2  15 88.4426 61.0712   0
  -4   2  14 70.9772 52.5683   0
  -4   2  14 5.43902 32.0303   2
  -4   2  13 55.3237 32.0545   0
  -4   2  13 10.4047 39.6452   2
  -4   2  12 19.5924 42.2099   2
  -4   2  12 17.3508 24.8091   0
  -4   2  11 2311.37 156.473   2
  -4   2  11 1798.71 102.732   0
  -4   2  10 308.896 77.0298   2
  -4   2  10 166.407 49.4675   0
  -4   2   9 443.836 78.1694   2
  -4   2   8 3710.35 141.474   2
  -4   2   7 11991.0 189.574   2
  -4   2   6 468.508 72.2730   2
  -4   2   5 4393.54 108.961   2
  -4   2   5 3270.76 112.716   6
  -4   2   4 3319.91 101.653   6
  -4   2   4 4101.04 107.249   2
  -4   2   3 53.8489 20.5266   2
  -4   2   3 229.551 65.0832   6
  -4   2   2 2450.21 82.6871   2
  -4   2   2 2975.75 111.236   1
  -4   2   2 1943.62 82.0065   6
  -4   2   1 9746.81 141.857   2
  -4   2   1 10458.9 164.453   1
  -4   2   0 5011.02 112.817   2
  -4   2   0 5249.76 117.436   1
  -4   2  -1 1695.94 90.8226   6
  -4   2  -1 2224.61 102.060   2
  -4   2  -1 1980.12 106.670   1
  -4   2  -2 7558.12 137.619   2
  -4   2  -2 6425.72 142.958   1
  -4   2  -2 5326.35 106.474   6
  -4   2  -2 5486.15 82.9588   5
  -4   2  -3 15629.9 158.574   6
  -4   2  -3 16111.9 123.251   5
  -4   2  -4 14555.8 151.548   6
  -4   2  -4 15230.4 137.207   5
  -4   2  -5 2748.17 107.219   1
  -4   2  -5 2666.51 91.2207   5
  -4   2  -6 272.342 41.8415   1
  -4   2  -6 335.830 60.9977   5
  -4   2  -7 1675.92 110.705   1
  -4   2  -7 1362.26 97.5190   5
  -4   2  -8 1023.83 109.453   1
  -4   2  -8 606.219 59.9141   5
  -4   2  -9 1222.39 95.6135   1
  -4   2  -9 985.103 75.7200   5
  -4   2 -10 4250.98 135.712   1
  -4   2 -10 4140.92 156.631   5
  -4   2 -11 68.3644 45.4879   5
  -4   2 -12 4.43957 30.6151   5
  -4   2 -13 46.7401 44.3452   5
  -4   1  15 14.2292 38.5589   0
  -4   1  14-9.52769 27.1359   2
  -4   1  14 94.4376 65.5288   0
  -4   1  13 619.754 100.833   2
  -4   1  13 840.114 88.1941   0
  -4   1  12 2311.63 146.922   2
  -4   1  12 2556.98 125.391   0
  -4   1  11 1140.62 93.4229   0
  -4   1  11 1034.68 115.373   2
  -4   1  10 1710.27 79.9368   0
  -4   1  10 1528.42 117.258   2
  -4   1   9 177.423 68.1849   2
  -4   1   9 176.427 47.0029   0
  -4   1   8 1378.78 111.739   2
  -4   1   8 1118.79 81.0039   0
  -4   1   7 1518.06 109.082   2
  -4   1   7 1794.25 85.9365   4
  -4   1   6 20505.4 203.425   2
  -4   1   5 67.0174 41.1065   2
  -4   1   4 5520.84 124.382   2
  -4   1   3 1417.78 72.7328   2
  -4   1   3 1757.41 91.1407   1
  -4   1   2 4827.31 120.737   2
  -4   1   2 5105.36 107.830   1
  -4   1   1 31251.4 189.104   2
  -4   1   1 31760.9 176.252   1
  -4   1   0 17489.9 168.855   2
  -4   1   0 17338.6 157.769   1
  -4   1  -1 8579.86 130.997   2
  -4   1  -1 8367.69 133.429   1
  -4   1  -2 10011.4 138.937   2
  -4   1  -2 9042.10 147.800   1
  -4   1  -3 22580.6 183.881   1
  -4   1  -3 16456.2 110.845   5
  -4   1  -4 17361.1 185.150   1
  -4   1  -4 12825.4 120.354   5
  -4   1  -5 34256.8 219.334   1
  -4   1  -5 25213.5 171.533   5
  -4   1  -6 13217.7 180.306   1
  -4   1  -6 9184.04 132.765   5
  -4   1  -7 1499.16 100.153   1
  -4   1  -7 845.993 50.6935   5
  -4   1  -8 8854.71 161.134   1
  -4   1  -8 6816.35 169.779   5
  -4   1  -9 12472.6 192.062   1
  -4   1  -9 10310.7 184.909   5
  -4   1 -10 98.5698 56.8707   1
  -4   1 -10 72.6187 43.1471   5
  -4   1 -11 4836.24 143.404   1
  -4   1 -11 4378.54 175.964   5
  -4   1 -12 1539.79 134.198   5
  -4   1 -13 1817.44 151.407   5
  -4   1 -14 221.978 78.1101   5
  -4   0  15 29.3974 47.4791   0
  -4   0  14 7.03261 29.7343   2
  -4   0  14 163.672 93.5230   0
  -4   0  13 1608.42 140.785   0
  -4   0  13 1077.08 114.861   2
  -4   0  12 6.87345 35.1477   2
  -4   0  12 22.1334 38.6969   0
  -4   0  11 1281.69 118.628   2
  -4   0  11 1493.00 101.829   0
  -4   0  10 443.351 81.5596   2
  -4   0  10 514.163 64.1976   0
  -4   0   9 19.1094 35.7828   2
  -4   0   9 8.70517 20.4406   0
  -4   0   9 23.9188 33.7868   4
  -4   0   8 205.299 81.5497   2
  -4   0   8 133.465 37.4051   0
  -4   0   8 118.821 49.4118   4
  -4   0   7 13266.8 189.644   2
  -4   0   7 13547.9 170.910   4
  -4   0   6 900.179 87.5464   2
  -4   0   6 621.325 52.5883   0
  -4   0   6 942.548 92.9361   4
  -4   0   5 1091.61 92.1283   2
  -4   0   5 1201.73 84.5394   4
  -4   0   4 1869.65 85.6522   2
   4   0  -4 2245.71 72.1063   3
  -4   0   3 15366.6 146.723   1
   4   0  -3 14684.8 117.009   3
  -4   0   2 13827.7 148.339   2
  -4   0   2 15230.0 149.497   1
  -4   0   1 18042.6 149.059   1
  -4   0   1 17029.1 141.564   2
  -4   0   0 3973.17 109.724   2
  -4   0   0 3829.60 99.0860   1
  -4   0  -1 1531.05 73.9634   2
  -4   0  -1 1333.15 60.3567   1
  -4   0  -2 2367.02 100.126   2
  -4   0  -2 1862.05 75.3906   1
  -4   0  -2 1204.15 39.8617   5
  -4   0  -3 33285.1 193.942   1
  -4   0  -3 21373.1 112.088   5
  -4   0  -4 32000.9 207.558   1
  -4   0  -4 21005.0 120.937   5
  -4   0  -5 11717.6 173.560   1
  -4   0  -5 8293.32 106.211   5
  -4   0  -6 3315.57 117.105   1
  -4   0  -6 2297.60 81.0552   5
  -4   0  -7 17873.2 190.803   1
  -4   0  -7 14504.1 148.575   5
  -4   0  -8 5095.78 137.542   1
  -4   0  -8 4215.75 129.915   5
  -4   0  -9 5710.41 155.510   1
  -4   0  -9 4926.02 134.894   5
  -4   0 -10 426.640 70.8684   1
  -4   0 -10 313.990 64.1789   5
  -4   0 -11 598.156 79.7491   1
  -4   0 -11 463.064 64.0268   5
  -4   0 -12 681.535 86.2374   1
  -4   0 -12 400.072 73.7553   5
  -4   0 -13 959.423 108.356   5
  -4   0 -14 3051.11 205.965   5
  -4  -1  15 1.07702 27.0167   2
  -4  -1  14 2.12480 24.1111   2
  -4  -1  14 18.2990 41.0170   0
  -4  -1  13 3.85653 26.4344   0
  -4  -1  13-9.21813 23.8752   2
  -4  -1  12 1645.97 125.207   2
  -4  -1  12 1992.17 124.745   0
  -4  -1  11 65.6166 48.6056   2
  -4  -1  11 53.5511 61.1877   0
  -4  -1  11 52.3090 39.6715   4
  -4  -1  10 13.9431 43.8576   2
  -4  -1  10 13.5333 24.8918   0
  -4  -1  10 5.57782 28.0583   4
  -4  -1   9 152.928 54.6928   2
  -4  -1   9 212.796 59.5350   0
  -4  -1   9 165.052 54.3819   4
  -4  -1   8 16003.1 190.308   2
  -4  -1   8 15707.6 184.847   4
  -4  -1   7 2074.07 117.758   2
  -4  -1   7 1851.70 78.0054   0
  -4  -1   7 1978.96 107.475   4
  -4  -1   6 11126.0 170.035   2
  -4  -1   6 11068.4 158.173   4
  -4  -1   5 1732.94 95.2023   2
  -4  -1   5 1871.32 65.6273   0
  -4  -1   5 1777.95 96.8182   4
  -4  -1   4 6936.57 131.652   2
  -4  -1   4 7212.95 96.8309   1
  -4  -1   4 6958.96 123.191   4
   4   1  -4 7781.61 120.266   3
  -4  -1   3 7665.32 103.188   1
   4   1  -3 7471.68 114.301   3
   4   1  -2 34905.7 165.986   3
  -4  -1   2 33965.3 162.931   1
  -4  -1   1 12617.2 151.004   2
  -4  -1   1 13068.2 124.762   1
  -4  -1   0 1476.52 70.6685   2
  -4  -1   0 1530.72 68.3593   1
  -4  -1  -1 8301.47 112.994   2
  -4  -1  -1 8296.02 117.093   1
  -4  -1  -2 99295.7 276.810   2
  -4  -1  -2 90013.8 253.750   1
  -4  -1  -3 6877.97 73.2647   5
  -4  -1  -3 9660.34 125.144   1
  -4  -1  -4 2917.01 57.8184   5
  -4  -1  -4 4198.19 100.041   1
  -4  -1  -5 6554.50 93.4833   5
  -4  -1  -5 9287.04 142.260   1
  -4  -1  -6 35014.6 177.702   5
  -4  -1  -6 46692.9 241.528   1
  -4  -1  -7 12300.1 140.626   5
  -4  -1  -7 14894.6 166.340   1
  -4  -1  -8 6910.20 135.499   5
  -4  -1  -8 8459.01 174.823   1
  -4  -1  -9 5202.16 139.266   5
  -4  -1  -9 5739.15 145.523   1
  -4  -1 -10 7813.93 150.149   5
  -4  -1 -10 8519.17 163.218   1
  -4  -1 -11 227.181 76.1416   5
  -4  -1 -11 142.886 46.0820   1
  -4  -1 -12 8303.06 198.183   5
  -4  -1 -12 8530.13 178.626   1
  -4  -1 -13 2570.55 127.956   5
  -4  -1 -13 3079.43 145.740   1
  -4  -1 -14 62.5443 47.7496   5
  -4  -1 -15-6.24881 27.1691   5
   4   2 -14 38.0392 38.2588   0
  -4  -2  13 214.058 94.1614   2
  -4  -2  12 12.8180 31.9266   2
  -4  -2  11 55.6498 63.9750   2
  -4  -2  11 22.5606 31.0862   0
  -4  -2  10 6.20734 25.7237   0
  -4  -2  10 67.2910 36.9750   2
  -4  -2  10 16.0483 28.8952   4
  -4  -2   9 1207.95 91.0299   2
  -4  -2   9 1297.48 90.2575   0
  -4  -2   9 959.314 84.9504   4
  -4  -2   8 3265.69 126.692   2
  -4  -2   8 2939.27 117.901   4
  -4  -2   7 6257.33 137.534   2
  -4  -2   7 5949.43 149.473   4
  -4  -2   6 193.929 56.4121   2
  -4  -2   6 220.802 55.1353   4
   4   2  -6 116.819 27.4258   0
  -4  -2   5 857.269 76.0785   2
  -4  -2   5 791.783 70.5460   4
  -4  -2   4 164.005 50.5009   2
  -4  -2   4 132.138 50.3206   4
   4   2  -4 123.014 34.6457   3
   4   2  -4 70.0754 27.2020   0
  -4  -2   3 24839.2 174.828   2
  -4  -2   3 25332.4 181.783   4
  -4  -2   3 27246.1 141.654   1
   4   2  -3 27875.7 175.694   3
   4   2  -3 22215.1 109.852   0
  -4  -2   2 2411.59 63.8074   2
  -4  -2   2 2815.77 76.8118   1
  -4  -2   2 2913.70 102.613   4
   4   2  -2 2643.54 78.1348   3
   4   2  -1 7594.08 106.295   3
  -4  -2   1 7296.85 116.871   2
  -4  -2   1 7175.28 95.3062   1
  -4  -2   0 12999.3 133.366   2
  -4  -2   0 12118.0 120.377   1
  -4  -2  -1 45679.7 184.087   2
  -4  -2  -1 46308.6 187.745   1
  -4  -2  -2 2616.69 81.6919   1
  -4  -2  -3 22976.1 164.470   1
  -4  -2  -4 310.474 30.1356   5
  -4  -2  -4 396.750 60.4639   1
  -4  -2  -5 13090.0 113.893   5
  -4  -2  -5 14663.2 150.044   1
  -4  -2  -6 331.369 31.8289   5
  -4  -2  -6 291.997 37.5858   1
  -4  -2  -7 18670.3 158.986   5
  -4  -2  -7 22108.0 204.550   1
  -4  -2  -8 6169.25 124.596   5
  -4  -2  -8 7886.67 157.439   1
  -4  -2  -9 456.750 77.5180   5
  -4  -2  -9 419.124 45.5707   1
  -4  -2 -10 684.351 61.0229   5
  -4  -2 -10 680.036 67.3628   1
  -4  -2 -11 6570.23 159.776   5
  -4  -2 -11 6833.25 154.166   1
  -4  -2 -12 1451.03 106.901   5
  -4  -2 -12 1779.47 106.869   1
  -4  -2 -13 1595.39 129.679   5
  -4  -2 -13 1660.61 111.784   1
  -4  -2 -14 49.1181 55.0349   5
  -4  -2 -14 116.588 74.0719   1
  -4  -2 -15 861.897 128.593   5
   4   3 -13-3.42346 27.9222   0
   4   3 -12 383.226 52.1417   0
   4   3 -11 18.1746 31.6773   0
  -4  -3  10 869.371 93.0809   2
   4   3 -10 437.090 58.6935   0
  -4  -3   9 847.027 85.2130   2
   4   3  -9 542.340 60.8667   0
  -4  -3   8 963.260 72.9470   2
   4   3  -8 636.692 47.0781   0
  -4  -3   7 190.439 58.2816   2
  -4  -3   7 123.796 43.4460   4
   4   3  -7 109.295 42.8860   0
  -4  -3   6 1628.66 84.1188   2
  -4  -3   6 1461.99 83.7089   4
   4   3  -6 1380.74 70.8033   0
  -4  -3   5 2338.96 99.5106   2
  -4  -3   5 2017.68 103.125   4
   4   3  -5 1632.11 58.8588   0
  -4  -3   4 46002.5 220.711   2
  -4  -3   4 48018.1 250.400   4
   4   3  -4 54444.2 243.402   3
   4   3  -4 38986.5 161.503   0
   4   3  -3 55.6911 22.9242   0
  -4  -3   3 46.5639 22.7473   2
  -4  -3   3 92.5890 43.4289   4
   4   3  -3 186.119 58.8709   3
   4   3  -2 8132.26 75.7315   0
  -4  -3   2 8608.85 128.070   2
  -4  -3   2 8984.80 98.7665   1
  -4  -3   2 9151.99 139.646   4
   4   3  -2 10196.2 152.469   3
   4   3  -1 102.680 50.4365   3
  -4  -3   1 121.975 50.1660   2
   4   3  -1 26.6522 11.1833   0
  -4  -3   1 98.5246 50.2969   4
  -4  -3   0 53298.6 205.740   2
  -4  -3   0 50859.3 185.626   1
  -4  -3  -1 29690.7 173.319   2
  -4  -3  -1 28656.7 171.124   1
  -4  -3  -2 8970.83 132.624   1
  -4  -3  -3 22.3124 32.1985   1
  -4  -3  -4 15214.1 147.258   1
  -4  -3  -5 751.809 67.9990   1
  -4  -3  -6 67022.9 277.076   1
  -4  -3  -7 10629.9 129.956   5
  -4  -3  -7 12967.8 160.046   1
  -4  -3  -8 1669.85 81.5168   5
  -4  -3  -8 1877.76 93.5986   1
  -4  -3  -9 913.057 87.9634   5
  -4  -3  -9 933.422 109.681   1
  -4  -3 -10 7910.53 154.258   5
  -4  -3 -10 9283.97 185.032   1
  -4  -3 -11 5564.86 146.168   5
  -4  -3 -11 6249.27 156.674   1
  -4  -3 -12 241.246 73.9515   5
  -4  -3 -12 297.575 74.7951   1
  -4  -3 -13 2136.17 146.160   5
  -4  -3 -13 2282.43 144.111   1
  -4  -3 -14 3157.58 170.084   5
  -4  -3 -14 3097.57 173.798   1
  -4  -3 -15 520.487 96.0884   5
  -4  -3 -15 227.417 44.1293   1
   4   4 -13 24.5018 51.2247   0
   4   4 -12 57.5314 48.2236   0
   4   4 -11 373.317 62.3268   0
   4   4 -10 66.8887 33.6838   0
   4   4  -9 921.389 97.1383   0
   4   4  -8 77.4850 26.9257   0
  -4  -4   7 4.00208 22.6627   2
   4   4  -7 22.3389 25.4348   0
  -4  -4   6 12.6789 20.6675   2
  -4  -4   6 5.47688 35.1429   4
   4   4  -6 57.0896 41.5877   0
   4   4  -5 5219.47 109.179   0
  -4  -4   5 5108.33 107.801   2
  -4  -4   5 5049.81 133.207   4
   4   4  -4 402.655 56.7645   0
  -4  -4   4 185.122 34.4406   2
  -4  -4   4 302.664 60.0114   4
   4   4  -3 23740.3 137.959   0
  -4  -4   3 28605.9 185.752   2
  -4  -4   3 28349.8 206.415   4
   4   4  -3 33159.8 219.627   3
  -4  -4   2 54.8227 33.7908   2
   4   4  -2 71.7528 29.0441   0
  -4  -4   2 64.3375 46.9319   4
   4   4  -2 23.5345 20.4635   3
  -4  -4   1 6507.26 104.437   2
   4   4  -1 6149.88 84.0312   0
  -4  -4   1 6268.59 97.5284   1
  -4  -4   1 5736.99 106.398   4
   4   4  -1 6656.19 125.672   3
   4   4   0 6179.54 129.407   3
  -4  -4   0 5687.42 106.486   2
   4   4   0 5444.27 72.4283   0
  -4  -4   0 5312.64 84.6649   1
  -4  -4   0 5731.38 119.105   4
   4   4   1 79256.9 184.872   0
  -4  -4  -1 77021.6 225.295   1
   4   4   2 16539.4 95.8780   0
  -4  -4  -2 17701.8 141.155   1
  -4  -4  -3 7356.79 119.132   1
  -4  -4  -4 13248.1 154.500   1
  -4  -4  -5 22423.2 178.460   1
  -4  -4  -6 625.966 62.9815   1
  -4  -4  -7 844.584 84.9793   1
  -4  -4  -8 9305.53 164.292   1
  -4  -4  -9 15731.0 193.584   1
  -4  -4 -10 2381.11 122.711   1
  -4  -4 -11 6139.35 131.010   1
  -4  -4 -12 1195.39 133.330   1
  -4  -4 -13 1544.67 127.069   1
  -4  -4 -14 40.5363 53.3522   1
  -4  -4 -15 4119.74 175.456   1
  -4  -4 -16 391.054 115.668   1
   4   5 -12 231.481 86.6889   0
   4   5 -11 969.480 137.343   0
   4   5 -10 2942.54 164.757   0
   4   5  -9 1300.40 124.224   0
   4   5  -8 642.496 104.065   0
   4   5  -7 864.905 103.678   0
   4   5  -6 451.190 82.4238   0
   4   5  -5 929.539 95.4707   0
  -4  -5   5 283.117 41.9144   4
   4   5  -4 11033.1 147.167   0
  -4  -5   4 8716.55 159.454   4
  -4  -5   3 12302.0 136.495   2
   4   5  -3 11442.5 137.041   0
  -4  -5   3 12196.2 187.338   4
  -4  -5   2 291.346 48.2047   2
   4   5  -2 264.471 49.8212   0
  -4  -5   2 342.171 75.7677   4
   4   5  -2 514.288 84.1765   3
  -4  -5   1 2016.12 87.4504   2
   4   5  -1 1789.71 71.1051   0
  -4  -5   1 1793.00 96.5922   4
   4   5  -1 1841.02 111.445   3
  -4  -5   0 46819.8 208.701   2
   4   5   0 41088.0 165.264   0
  -4  -5   0 44360.7 181.165   1
  -4  -5   0 43062.7 232.318   4
   4   5   0 46801.7 245.495   3
   4   5   1 41.2026 42.4644   3
   4   5   1 41.8410 26.9319   0
  -4  -5  -1 146.221 47.7070   1
  -4  -5  -1 151.002 62.9413   4
   4   5   2 26.1208 27.7943   0
  -4  -5  -2 33.9351 30.7951   1
   4   5   3 3135.53 68.1289   0
  -4  -5  -3 2938.80 87.5980   1
  -4  -5  -4 25670.0 182.527   1
   4   5   4 27327.2 146.446   0
  -4  -5  -5 4015.23 105.389   1
   4   5   5 3847.41 74.7323   0
   4   5   6 958.935 53.0070   0
  -4  -5  -6 1167.82 89.4038   1
   4   5   7 21.6500 23.0145   0
  -4  -5  -7 200.169 72.4473   1
  -4  -5  -8 17030.6 203.983   1
  -4  -5  -9 44.9290 29.7384   1
  -4  -5 -10 8361.05 177.002   1
  -4  -5 -11 2043.41 141.354   1
  -4  -5 -12 525.184 90.3394   1
  -4  -5 -13 391.776 109.635   1
  -4  -5 -14 4403.99 163.172   1
  -4  -5 -15 243.055 88.0692   1
  -4  -5 -16 441.001 94.4451   1
   4   6 -11 101.989 69.0354   0
   4   6 -10 401.295 90.7720   0
   4   6  -9 107.538 69.5996   0
   4   6  -8 297.346 63.8413   0
   4   6  -7 49.7410 42.7050   0
   4   6  -6 1229.98 114.720   0
   4   6  -5 1300.05 91.7601   0
   4   6  -4 15.6512 23.5528   0
  -4  -6   4-3.98337 24.0329   4
   4   6  -3 6052.16 123.163   0
  -4  -6   3 5919.01 166.439   4
   4   6  -2 2391.87 86.6117   0
  -4  -6   2 2826.14 125.108   4
   4   6  -2 3324.73 152.589   3
   4   6  -1 12328.3 135.943   0
  -4  -6   1 13437.0 180.625   4
   4   6   0 25.2196 26.8144   0
  -4  -6   0 88.7531 58.6520   4
   4   6   0 32.2479 25.8327   3
   4   6   1 9807.45 128.696   0
  -4  -6  -1 9838.71 127.216   1
  -4  -6  -1 10526.6 163.445   4
   4   6   1 10701.2 162.772   3
   4   6   2 7057.23 149.295   3
   4   6   2 6458.29 97.4614   0
  -4  -6  -2 7216.88 123.239   1
   4   6   3 3451.12 85.7012   0
  -4  -6  -3 3653.25 106.328   1
   4   6   4 3646.31 85.8888   0
  -4  -6  -4 3975.21 113.598   1
  -4  -6  -5 24290.7 197.426   1
   4   6   5 23680.0 162.746   0
  -4  -6  -6 17470.5 194.973   1
   4   6   6 18135.4 166.567   0
   4   6   7 460.733 37.6212   0
  -4  -6  -7 570.058 72.0892   1
   4   6   8 968.608 77.6646   0
  -4  -6  -8 710.341 90.5439   1
  -4  -6  -9 8995.47 163.686   1
  -4  -6 -10 6403.85 152.975   1
   4   6  11 1.74235 16.7739   0
  -4  -6 -11 54.3838 50.5889   1
  -4  -6 -12 74.4114 67.6340   1
  -4  -6 -13 5386.93 180.413   1
  -4  -6 -14 143.709 89.5277   1
  -4  -6 -15 1815.30 141.585   1
   4   7 -10 387.384 78.0068   0
   4   7  -9 2273.81 149.103   0
   4   7  -8 323.286 108.219   0
   4   7  -7 766.252 100.055   0
   4   7  -6 155.237 48.8108   0
   4   7  -5 54.2281 33.3148   0
   4   7  -4-4.91461 22.3820   0
   4   7  -3 2377.31 115.745   0
  -4  -7   3 1895.44 120.153   4
   4   7  -2 501.114 81.4770   0
  -4  -7   2 516.543 81.3539   4
   4   7  -1 892.640 79.2911   0
  -4  -7   1 948.355 83.7515   4
   4   7  -1 975.291 107.625   3
   4   7   0 6331.31 129.240   0
  -4  -7   0 6412.72 141.504   4
   4   7   0 7083.56 166.740   3
   4   7   1 1094.30 73.2035   0
  -4  -7  -1 1316.76 95.5487   4
   4   7   1 1387.56 127.387   3
   4   7   2 2669.12 96.4633   0
  -4  -7  -2 2431.54 85.7401   1
  -4  -7  -2 2934.92 123.938   4
   4   7   2 2759.22 109.450   3
   4   7   3 575.890 94.8047   3
   4   7   3 554.398 66.4206   0
  -4  -7  -3 535.842 62.7496   1
   4   7   4 12594.5 192.760   3
   4   7   4 13097.7 167.105   0
   4   7   5 474.579 73.2519   0
  -4  -7  -5 540.810 85.0707   1
  -4  -7  -6 12665.4 191.898   1
   4   7   6 15276.2 179.178   0
   4   7   7 177.822 34.7134   0
  -4  -7  -7 180.384 55.9183   1
   4   7   8 6779.51 133.642   0
  -4  -7  -8 5700.54 154.213   1
   4   7   9 838.989 77.6473   0
  -4  -7  -9 604.842 93.0125   1
   4   7  10 455.424 73.0747   0
  -4  -7 -10 521.483 103.579   1
   4   7  11 290.271 63.4810   0
  -4  -7 -11 399.016 83.2793   1
  -4  -7 -12 2660.41 153.732   1
  -4  -7 -13 481.608 113.157   1
  -4  -7 -14 1466.19 156.333   1
  -4  -7 -15 18.0410 56.7465   1
   4   8  -9 137.922 56.3431   0
   4   8  -8 293.457 94.1050   0
   4   8  -7-0.35191 43.0694   0
   4   8  -6 32.7308 39.0960   0
   4   8  -5 20.7626 31.6888   0
   4   8  -4 161.122 64.8414   0
   4   8  -3 47.6594 51.5711   0
  -4  -8   3 18.9329 31.1639   4
   4   8  -2 787.690 89.3740   0
  -4  -8   2 452.792 70.6706   4
   4   8  -1 10916.6 174.422   0
  -4  -8   1 10771.7 194.072   4
   4   8  -1 11811.7 217.991   3
   4   8   0 2716.00 118.870   0
  -4  -8   0 2788.08 118.076   4
   4   8   0 3084.23 165.659   3
   4   8   1 11.3369 22.0175   0
  -4  -8  -1 13.3700 37.2686   4
   4   8   1 23.3003 45.0381   3
   4   8   2 114.640 58.3076   0
  -4  -8  -2 131.881 50.6747   4
   4   8   2 99.9969 55.1196   3
   4   8   3 19858.1 198.970   0
   4   8   3 20537.3 240.711   3
   4   8   4 2900.50 137.957   3
   4   8   4 2931.62 97.2154   0
   4   8   5 5994.53 154.654   3
   4   8   5 5733.11 135.334   0
   4   8   6 12294.6 186.398   0
   4   8   7 270.695 57.8103   0
   4   8   8 2699.75 99.4487   0
   4   8   9 18112.2 197.629   0
   4   8  10 698.444 85.9406   0
   4   8  11 179.975 62.1265   0
   4   8  12 53.1581 44.0037   0
  -4  -8 -12 141.215 65.6484   1
   4   8  13 975.599 105.804   0
  -4  -8 -13 1699.14 159.362   1
  -4  -8 -14 508.367 111.288   1
   4   9  -8 25.7457 44.9188   0
   4   9  -7 24.3587 50.5351   0
   4   9  -6 374.996 93.9941   0
   4   9  -5 1956.90 138.621   0
   4   9  -4 218.256 73.3997   0
   4   9  -3 76.9627 53.4479   0
  -4  -9   3 27.1995 43.6427   4
   4   9  -2 64.6138 51.3632   0
  -4  -9   2 47.8014 45.3606   4
   4   9  -1 2318.97 109.812   0
  -4  -9   1 1677.70 127.224   4
   4   9   0 2825.80 125.680   0
  -4  -9   0 3276.78 139.239   4
   4   9   0 3457.81 158.782   3
   4   9   1 626.849 89.1113   0
  -4  -9  -1 524.133 76.5301   4
   4   9   1 820.447 110.441   3
   4   9   2 1734.71 92.1069   0
   4   9   2 2238.17 145.880   3
   4   9   3 1720.78 130.120   0
   4   9   3 1566.77 131.250   3
   4   9   4 7149.59 166.723   0
   4   9   4 7307.62 182.232   3
   4   9   5 4184.73 132.768   0
   4   9   5 3716.88 143.895   3
   4   9   6 321.680 74.6852   3
   4   9   6 449.793 91.3319   0
   4   9   7 151.255 41.4827   3
   4   9   7 339.849 74.8211   0
   4   9   8 65.7947 49.6251   0
   4   9   9 227.398 75.6420   0
   4   9  10 777.748 97.9398   0
   4   9  11 573.197 96.9898   0
   4   9  12 557.427 109.607   0
   4   9  13 21.5192 48.5200   0
   4   9  14 138.285 65.4122   0
   4  10  -6 24.4209 53.5513   0
   4  10  -5 91.2091 58.5936   0
   4  10  -4 351.215 91.4953   0
   4  10  -3 125.383 79.2194   0
  -4 -10   3 178.680 88.1937   4
   4  10  -2 147.466 57.8211   0
  -4 -10   2 47.7145 42.8850   4
   4  10  -1 910.001 112.045   0
  -4 -10   1 878.994 101.073   4
   4  10   0 3709.05 169.697   0
   4  10   1 20.9656 36.0708   0
   4  10   1 32.8601 53.8223   3
   4  10   2 9.88673 31.3905   0
   4  10   2 34.9857 65.1931   3
   4  10   3 2379.61 150.857   0
   4  10   3 2530.85 146.936   3
   4  10   4 956.289 92.0711   0
   4  10   4 1068.48 109.697   3
   4  10   5 62.9997 58.0645   0
   4  10   5 104.517 65.3014   3
   4  10   6 214.584 81.6646   0
   4  10   6 329.965 92.9698   3
   4  10   7 1487.46 119.688   0
   4  10   7 1290.46 122.446   3
   4  10   8 765.214 105.734   0
   4  10   9 3338.87 164.275   0
   4  10  10 2952.73 144.648   0
   4  10  11 146.561 72.0938   0
   4  10  12 63.3649 62.9345   0
   4  10  13 84.7130 63.4187   0
   4  11  -4 55.4049 56.2901   0
   4  11  -3 103.845 64.6246   0
  -4 -11   3 41.4405 51.1741   4
   4  11  -2 4.17579 38.9918   0
  -4 -11   2 19.3870 37.2104   4
   4  11  -1 52.3039 60.5718   0
   4  11   0 587.351 115.609   0
   4  11   1 357.645 118.761   0
   4  11   2 288.151 76.5426   0
   4  11   3 1315.78 129.359   0
   4  11   3 1129.04 105.011   3
   4  11   4 373.788 103.542   0
   4  11   4 418.979 81.4268   3
   4  11   5 11.9895 38.4000   0
   4  11   5 72.4553 62.7619   3
   4  11   6 253.223 89.2415   0
   4  11   7 20.8565 38.5276   0
   4  11   8 20.1965 55.3436   0
   4  11   9 433.304 102.887   0
   4  11  10 116.296 82.6565   0
   4  11  11 173.553 59.3002   0
   4  11  12 37.9255 61.7146   0
   4  12  -1 110.158 45.4874   0
   4  12   0 444.064 103.566   0
   4  12   1 107.235 69.1607   0
   4  12   2 755.308 122.924   0
   4  12   3 653.371 137.696   0
   4  12   4 97.4558 76.1038   0
   4  12   5 9.92904 53.1943   0
   4  12   6 95.7256 60.6509   0
   4  12   7 537.832 83.2942   0
   4  12   8 123.941 72.6213   0
   4  12   9 111.983 85.6135   0
   4  12  10 43.6030 68.9547   0
  -5   8   4 128.332 61.4510   6
  -5   8   3 36.5621 56.0135   6
  -5   8   2 59.9247 44.7977   6
  -5   8   1 83.4008 69.2297   6
  -5   7   9 63.7783 63.9309   2
  -5   7   9 34.9290 51.8212   6
  -5   7   8 579.353 107.921   6
  -5   7   7 293.515 80.3125   6
  -5   7   6 48.9955 46.6240   6
  -5   7   5 475.763 102.473   6
  -5   7   4 60.9069 56.0188   6
  -5   7   3 25.6582 41.5650   6
  -5   7   2 104.773 64.6467   6
  -5   7   1 89.1149 69.4621   6
  -5   7   0 98.9693 60.0995   6
  -5   7  -1 538.966 97.4812   6
  -5   7  -2 123.391 73.0540   6
  -5   7  -3 48.2572 57.5321   6
  -5   7  -4 14.0080 30.9381   6
  -5   6  10 42.9775 41.7512   2
  -5   6   9 33.4058 52.9108   2
  -5   6   9 81.9746 75.4802   6
  -5   6   8 248.772 75.7200   2
  -5   6   8 131.771 60.9080   6
  -5   6   7 418.453 74.3325   2
  -5   6   7 233.903 71.1058   6
  -5   6   6-18.3671 27.4342   2
  -5   6   6 17.4278 45.9691   6
  -5   6   5 71.0643 44.8793   2
  -5   6   5 44.4043 46.0327   6
  -5   6   4 1211.79 110.535   6
  -5   6   3 641.100 102.550   6
  -5   6   2 12.7937 37.6280   6
  -5   6   1 178.884 76.4754   6
  -5   6   0 675.381 105.042   6
  -5   6  -1 112.364 54.5383   6
  -5   6  -2 1262.47 119.726   6
  -5   6  -3 123.777 60.0748   6
  -5   6  -4 2005.18 138.408   6
  -5   6  -5 100.717 58.0468   6
  -5   6  -6 74.1470 55.9363   1
  -5   6  -8 3.20573 22.5799   5
  -5   5  11 76.5319 79.9401   2
  -5   5  10 76.7563 60.3780   2
  -5   5   9 8.58817 43.4904   2
  -5   5   8 6.45340 34.7104   2
  -5   5   8 104.489 72.7153   6
  -5   5   7 80.7929 66.1730   2
  -5   5   7 71.7183 61.7482   6
  -5   5   6 68.6131 52.0364   2
  -5   5   6 20.6879 29.2288   6
  -5   5   5 2494.68 130.619   2
  -5   5   5 1938.86 108.240   6
  -5   5   4 134.505 67.1978   2
  -5   5   4 128.142 69.4128   6
  -5   5   3 161.155 44.2088   2
  -5   5   3 119.329 64.3985   6
  -5   5   2 1026.59 102.621   2
  -5   5   2 313.331 54.3229   6
  -5   5   1 63.6905 46.9629   2
  -5   5   1 4.23302 25.0631   6
  -5   5   0 20.2864 34.2341   6
  -5   5  -1 345.904 68.4677   6
  -5   5  -2 145.439 52.3475   1
  -5   5  -2 144.394 53.4150   6
  -5   5  -3 586.828 116.717   1
  -5   5  -3 378.121 99.3479   6
  -5   5  -4 48.8046 40.6798   1
  -5   5  -4 60.4820 45.1715   6
  -5   5  -5 982.928 119.221   1
  -5   5  -5 971.638 98.8698   6
  -5   5  -6 2.60614 39.3035   1
  -5   5  -7 20.5295 40.3120   1
  -5   5  -8 37.2484 43.6383   5
  -5   5  -9 395.269 97.9506   5
  -5   4  11 11.9205 48.7303   2
  -5   4  10 29.0240 44.6639   2
  -5   4   9 44.5282 48.7626   2
  -5   4   8 366.498 76.4959   6
  -5   4   8 633.081 101.748   2
  -5   4   7 1238.26 140.878   2
  -5   4   7 953.966 96.6435   6
  -5   4   6 2683.23 139.824   2
  -5   4   6 1769.66 112.382   6
  -5   4   5 46.3091 32.9746   2
  -5   4   5 250.821 68.4061   6
  -5   4   4 445.926 76.9985   2
  -5   4   4 484.914 77.1710   6
  -5   4   3 3796.61 137.775   2
  -5   4   3 2740.00 107.499   6
  -5   4   2 3431.97 133.381   2
  -5   4   2 2335.84 127.617   6
  -5   4   1 432.971 74.8600   2
  -5   4   1 318.020 81.6282   6
  -5   4   0 8769.18 185.593   2
  -5   4   0 8635.12 210.954   1
  -5   4  -1 8517.24 155.925   2
  -5   4  -1 9842.31 220.888   1
  -5   4  -2 455.762 107.829   1
  -5   4  -2 327.966 74.1098   6
  -5   4  -3 3525.11 160.382   1
  -5   4  -3 3213.24 136.985   6
  -5   4  -4 5656.26 212.746   1
  -5   4  -4 4540.27 150.021   6
  -5   4  -5 325.685 106.096   1
  -5   4  -5 88.9429 40.2788   6
  -5   4  -6 42.7335 38.9745   1
  -5   4  -7 215.864 94.2603   1
  -5   4  -7 94.3796 62.1520   5
  -5   4  -8 2415.51 144.357   1
  -5   4  -8 1869.04 109.830   5
  -5   4  -9-1.70397 23.8891   5
  -5   4 -10 170.823 70.1168   5
  -5   3  12 24.3018 44.3321   2
  -5   3  11 631.241 103.547   2
  -5   3  10 208.431 71.2435   2
  -5   3   9 295.946 111.164   2
  -5   3   8 865.769 105.560   2
  -5   3   7 52.1620 56.6562   2
  -5   3   6 18.9447 32.9865   2
  -5   3   5 4690.09 157.252   2
  -5   3   5 3733.99 121.953   6
  -5   3   4 4811.94 130.627   2
  -5   3   4 4185.60 148.906   6
  -5   3   3 1280.30 117.007   6
  -5   3   3 1555.73 113.128   2
  -5   3   2 1141.51 111.306   2
  -5   3   2 705.377 109.074   6
  -5   3   1 2407.90 125.310   2
  -5   3   1 2799.99 132.212   1
  -5   3   0 645.024 99.0834   2
  -5   3   0 546.907 99.1805   1
  -5   3   0 272.361 60.1426   6
  -5   3  -1 134.543 80.2063   2
  -5   3  -1 301.043 80.4150   1
  -5   3  -1 186.515 75.6088   6
  -5   3  -2 8895.05 169.635   2
  -5   3  -2 8373.72 188.820   1
  -5   3  -3 42.1635 56.8208   1
  -5   3  -3 17.4615 24.0065   6
  -5   3  -4 5.97462 28.6292   1
  -5   3  -5 2276.22 131.198   1
  -5   3  -6 17.4966 31.2128   1
  -5   3  -7 4423.67 164.531   1
  -5   3  -8 416.923 105.282   1
  -5   3  -8 190.752 48.2143   5
  -5   3  -9 1254.77 119.263   1
  -5   3  -9 874.214 103.474   5
  -5   3 -10 36.9147 47.1464   5
  -5   3 -11 179.634 70.5142   5
  -5   2  12 335.048 109.927   2
  -5   2  11 39.6890 50.8787   2
  -5   2  10 26.7409 59.1392   2
  -5   2   9 1435.36 135.142   2
  -5   2   8 179.545 80.2913   2
  -5   2   7 2923.47 117.378   2
  -5   2   6 78.3844 72.9088   2
  -5   2   5 7693.20 172.250   2
  -5   2   4 84.5170 44.3199   2
  -5   2   3 12441.0 202.994   2
  -5   2   2 2274.36 109.969   2
  -5   2   2 2954.14 129.987   1
  -5   2   1 679.697 83.9472   2
  -5   2   1 741.339 83.7644   1
  -5   2   0 399.466 72.4138   2
  -5   2   0 182.390 66.3117   1
  -5   2  -1 41091.6 292.623   2
  -5   2  -1 37716.6 258.974   1
  -5   2  -2 3118.94 131.528   2
  -5   2  -2 2836.58 134.171   1
  -5   2  -3 1374.34 107.252   1
  -5   2  -4 12268.7 235.107   1
  -5   2  -5 15114.8 229.121   1
  -5   2  -6 1114.21 92.9449   1
  -5   2  -7 3745.65 152.599   1
  -5   2  -8 1813.36 134.884   1
  -5   2  -8 1641.45 114.954   5
  -5   2  -9 61.6548 47.7465   1
  -5   2  -9 11.1568 39.4483   5
  -5   2 -10 303.254 75.9085   1
  -5   2 -10 218.285 53.7762   5
  -5   2 -11 423.750 90.4883   5
  -5   2 -12 2659.08 165.263   5
  -5   1  13 20.0518 64.6190   2
  -5   1  12 39.2234 46.5395   2
  -5   1  11 278.154 65.0535   2
  -5   1  10 1712.76 127.862   2
  -5   1   9 153.583 76.1598   2
  -5   1   8 1961.45 134.518   2
  -5   1   7 45.1252 41.2278   2
  -5   1   6 885.033 108.723   2
  -5   1   5 119.809 70.3534   2
  -5   1   4 15419.2 217.368   2
  -5   1   3 3113.74 120.991   2
  -5   1   3 3798.00 121.674   1
  -5   1   2 450.576 58.2999   2
  -5   1   2 604.954 61.8103   1
  -5   1   1 211.511 59.7502   2
  -5   1   1 136.285 55.5844   1
  -5   1   0 22186.6 210.760   2
  -5   1   0 21161.3 216.650   1
  -5   1  -1 13047.5 186.504   2
  -5   1  -1 12329.6 178.718   1
  -5   1  -2 8452.80 192.770   2
  -5   1  -2 6708.76 166.394   1
  -5   1  -3 3225.30 123.339   1
  -5   1  -4 55.5732 30.8913   1
  -5   1  -5 50.2895 61.5022   1
  -5   1  -6 5436.85 160.203   1
  -5   1  -7 12602.8 216.455   1
  -5   1  -8 30.2956 39.9366   1
  -5   1  -8 4.06949 23.0538   5
  -5   1  -9 226.945 73.7419   1
  -5   1  -9 169.452 46.0766   5
  -5   1 -10 2029.85 143.359   1
  -5   1 -10 1605.65 112.576   5
  -5   1 -11 3324.31 155.530   1
  -5   1 -11 3361.40 150.787   5
  -5   1 -12 231.513 77.2603   5
  -5   1 -13 50.1340 59.3116   5
  -5   0  13 66.0875 53.4659   2
  -5   0  12 105.592 61.6280   2
  -5   0  11 375.885 101.001   2
  -5   0  10 36.0854 41.7641   2
  -5   0   9 3390.00 147.370   2
  -5   0   8 834.754 93.3052   2
  -5   0   8 1078.39 104.858   4
  -5   0   7 492.908 92.0876   2
  -5   0   6 6446.59 161.566   2
  -5   0   5 10376.4 184.743   2
  -5   0   4 209.418 63.2952   2
  -5   0   4 337.873 64.1335   1
  -5   0   3 1086.93 79.8129   2
  -5   0   3 1340.65 89.8133   1
  -5   0   2 62.0319 45.6680   2
  -5   0   2 96.2669 48.9524   1
  -5   0   1 13766.5 187.090   2
  -5   0   1 12402.7 168.365   1
  -5   0   0 21986.8 206.813   2
  -5   0   0 19876.2 201.627   1
  -5   0  -1 11503.7 177.527   2
  -5   0  -1 11000.8 170.825   1
  -5   0  -2 4170.88 138.294   2
  -5   0  -2 3316.94 112.511   1
  -5   0  -3 29921.6 250.559   1
  -5   0  -4 615.483 61.3699   1
  -5   0  -5 28176.8 231.825   1
  -5   0  -6 12591.2 230.494   1
  -5   0  -7 6342.41 154.600   1
  -5   0  -7 4389.89 112.412   5
  -5   0  -8 2981.19 136.444   1
  -5   0  -8 1851.65 85.9943   5
  -5   0  -9 11008.5 222.917   1
  -5   0  -9 8089.50 175.618   5
  -5   0 -10 3319.56 140.063   1
  -5   0 -10 2507.35 132.019   5
  -5   0 -11 1753.61 120.472   1
  -5   0 -11 1280.34 95.6333   5
  -5   0 -12 492.837 98.6053   1
  -5   0 -12 358.529 80.3812   5
  -5   0 -13 753.065 128.852   5
  -5  -1  13 6.91906 30.2697   2
  -5  -1  12 37.9623 59.6888   2
  -5  -1  11 6.52048 31.8761   2
  -5  -1  10 3099.33 156.899   2
  -5  -1   9 28.8026 42.9249   2
  -5  -1   9 44.3875 35.6281   4
  -5  -1   8 161.925 78.7011   2
  -5  -1   8 152.089 69.3853   4
  -5  -1   7 31.6392 40.8101   2
  -5  -1   7 24.5856 32.8085   4
  -5  -1   6 2513.60 135.148   2
  -5  -1   6 2270.68 123.281   4
  -5  -1   5 2222.75 112.726   2
  -5  -1   4 27821.2 259.204   2
  -5  -1   4 30905.6 209.088   1
  -5  -1   3 217.203 53.0954   2
  -5  -1   3 237.327 37.3445   1
   5   1  -3 257.668 66.5000   3
   5   1  -2 8368.07 129.829   3
  -5  -1   2 7714.89 145.391   2
  -5  -1   2 7975.62 134.972   1
  -5  -1   1 3601.42 120.944   2
  -5  -1   1 3679.90 102.064   1
  -5  -1   0 34120.6 235.831   2
  -5  -1   0 31616.0 206.478   1
  -5  -1  -1 10394.5 172.560   2
  -5  -1  -1 10120.2 154.160   1
  -5  -1  -2 12422.3 159.415   2
  -5  -1  -2 11805.9 164.984   1
  -5  -1  -3 55.6017 51.3545   1
  -5  -1  -4 32483.3 213.441   1
  -5  -1  -5 479.302 78.3150   1
  -5  -1  -6 13591.0 200.241   1
  -5  -1  -7 989.744 116.177   1
  -5  -1  -7 571.262 59.8561   5
  -5  -1  -8 5217.05 127.889   5
  -5  -1  -8 6754.81 204.046   1
  -5  -1  -9 3897.93 133.213   5
  -5  -1  -9 4395.43 151.287   1
  -5  -1 -10 5140.82 147.219   5
  -5  -1 -10 5833.71 168.801   1
  -5  -1 -11 2053.79 137.873   5
  -5  -1 -11 2327.83 149.562   1
  -5  -1 -12 470.499 86.1829   5
  -5  -1 -12 596.678 109.675   1
  -5  -1 -13 193.612 62.6908   5
  -5  -1 -13 489.153 89.8626   1
  -5  -1 -14 1924.03 159.102   5
  -5  -2  13 8.18080 44.1449   2
  -5  -2  12 105.807 54.4259   2
  -5  -2  11 2046.69 137.622   2
  -5  -2  11 1485.12 113.592   4
  -5  -2  10 35.9396 36.7968   2
  -5  -2  10-2.62648 20.8572   4
  -5  -2   9 943.420 103.619   2
  -5  -2   9 577.581 79.7763   4
  -5  -2   8 1435.06 103.869   2
  -5  -2   8 1630.56 120.779   4
  -5  -2   7 1011.42 98.0438   2
  -5  -2   7 1197.79 105.405   4
  -5  -2   6 749.666 85.4374   2
  -5  -2   6 595.054 88.1555   4
  -5  -2   5 5319.71 153.521   2
  -5  -2   5 6064.45 149.486   4
   5   2  -5 6863.90 137.109   3
  -5  -2   4 6863.70 146.092   4
   5   2  -4 7241.78 143.794   3
  -5  -2   3 770.380 75.5279   2
  -5  -2   3 931.934 63.2219   1
   5   2  -3 978.961 83.6115   3
  -5  -2   2 777.127 90.0759   2
  -5  -2   2 888.933 74.3692   1
   5   2  -2 604.924 57.1825   3
   5   2  -1 40179.1 221.544   3
  -5  -2   1 39450.0 240.851   2
  -5  -2   1 38826.9 207.832   1
  -5  -2   0 819.142 93.9550   2
  -5  -2   0 824.009 92.7220   1
  -5  -2  -1 309.452 74.9306   2
  -5  -2  -1 227.762 69.3467   1
  -5  -2  -2 983.074 83.4803   1
  -5  -2  -3 36769.6 224.336   1
  -5  -2  -4 5392.06 128.571   1
  -5  -2  -5 8518.73 174.396   1
  -5  -2  -6 13.8660 15.0132   5
  -5  -2  -6 136.032 69.6251   1
  -5  -2  -7 33226.5 257.324   1
  -5  -2  -8 522.448 60.9141   5
  -5  -2  -8 622.100 71.7521   1
  -5  -2  -9 9382.30 155.514   5
  -5  -2  -9 11010.5 197.156   1
  -5  -2 -10 1399.93 110.394   5
  -5  -2 -10 1645.04 101.558   1
  -5  -2 -11 14.4256 31.3686   5
  -5  -2 -11-8.71171 23.5540   1
  -5  -2 -12 1017.83 101.440   5
  -5  -2 -12 974.454 114.172   1
  -5  -2 -13 3397.72 167.066   5
  -5  -2 -13 3139.87 164.112   1
  -5  -2 -14 766.604 102.299   5
  -5  -2 -14 888.261 126.959   1
  -5  -2 -15 223.682 72.1283   1
  -5  -3  13 299.980 85.6120   4
  -5  -3  12 220.464 76.8017   4
  -5  -3  11 360.251 101.065   4
  -5  -3  10 1021.31 88.4608   2
  -5  -3  10 993.639 114.810   4
  -5  -3   9 804.706 104.288   2
  -5  -3   9 559.509 80.1486   4
  -5  -3   8 331.642 60.8052   2
  -5  -3   8 295.921 78.0579   4
  -5  -3   7 434.040 86.4337   2
  -5  -3   7 282.412 75.6705   4
  -5  -3   6 4229.41 119.294   2
  -5  -3   6 5096.36 152.274   4
  -5  -3   5 338.152 47.7099   2
  -5  -3   5 575.491 96.1898   4
  -5  -3   4 4666.58 131.258   2
  -5  -3   4 5131.87 143.369   4
  -5  -3   3 16077.6 194.839   4
   5   3  -3 16781.7 191.334   3
  -5  -3   2 42315.0 279.411   2
   5   3  -2 43400.0 244.594   3
   5   3  -1 12.2437 25.1400   3
  -5  -3   1 77.6952 35.7666   2
  -5  -3   1 101.528 42.9999   1
  -5  -3   0 7498.72 146.103   2
  -5  -3   0 7520.33 127.844   1
  -5  -3  -1 1515.09 98.1107   2
  -5  -3  -1 1802.65 94.2191   1
  -5  -3  -2 15079.9 165.727   1
  -5  -3  -3 5043.29 119.473   1
  -5  -3  -4 23175.9 205.015   1
  -5  -3  -5 77.8780 53.0546   1
  -5  -3  -6 1369.36 105.841   1
  -5  -3  -7 2204.51 114.712   1
  -5  -3  -8 21138.1 185.914   5
  -5  -3  -8 24998.6 246.505   1
  -5  -3  -9 2011.25 98.9928   5
  -5  -3  -9 2284.11 114.586   1
  -5  -3 -10 879.538 85.2814   5
  -5  -3 -10 940.333 99.7214   1
  -5  -3 -11 844.819 106.899   5
  -5  -3 -11 792.438 91.5911   1
  -5  -3 -12 2291.35 133.230   5
  -5  -3 -12 2684.02 142.260   1
  -5  -3 -13 3311.44 165.413   5
  -5  -3 -13 4511.90 186.090   1
  -5  -3 -14 141.694 73.7550   5
  -5  -3 -14 411.912 113.762   1
  -5  -3 -15 122.479 82.1317   1
  -5  -4  12 8.78234 45.4690   4
   5   4 -12 22.5726 38.9746   0
  -5  -4  11 35.6367 38.4760   4
   5   4 -11 16.4614 30.8939   0
  -5  -4  10 38.9502 57.1844   4
  -5  -4   9 109.771 78.2810   4
  -5  -4   8 190.652 75.8113   4
  -5  -4   7 3349.64 149.450   2
  -5  -4   7 3594.15 151.683   4
  -5  -4   6 73.8980 37.9139   2
  -5  -4   6 97.0907 70.5874   4
  -5  -4   5 351.174 50.1691   2
  -5  -4   5 400.367 102.666   4
  -5  -4   4 1727.22 102.439   2
  -5  -4   4 2223.09 110.779   4
   5   4  -4 2224.38 122.329   3
  -5  -4   3 4070.09 123.844   2
  -5  -4   3 4134.04 148.685   4
   5   4  -3 4781.40 142.817   3
  -5  -4   2 218.464 65.6556   2
  -5  -4   2 199.274 70.0755   4
   5   4  -2 121.794 62.4560   3
  -5  -4   1 5120.31 121.485   2
   5   4  -1 4865.91 129.416   3
   5   4   0 1946.78 87.3892   3
  -5  -4   0 1815.49 78.5184   2
  -5  -4   0 2092.76 98.2389   1
  -5  -4  -1 8979.14 160.347   2
  -5  -4  -1 8800.76 137.960   1
  -5  -4  -2 589.458 64.3230   1
  -5  -4  -3 24169.7 180.077   1
  -5  -4  -4 1435.10 104.974   1
  -5  -4  -5 1151.14 89.9393   1
  -5  -4  -6 8203.01 180.646   1
  -5  -4  -7 11236.3 212.666   1
  -5  -4  -8 417.042 81.6050   1
  -5  -4  -9 9.82968 30.4451   1
  -5  -4 -10 1635.04 134.050   1
  -5  -4 -11 7562.94 175.101   1
  -5  -4 -12 977.338 94.3848   1
  -5  -4 -13 1591.93 108.998   1
  -5  -4 -14 11.7250 27.9117   1
  -5  -4 -15 100.761 74.2827   1
   5   5 -11 37.0446 50.2956   0
  -5  -5  11-12.6450 31.9246   4
   5   5 -10 45.6002 47.4750   0
  -5  -5  10 8.41624 32.0909   4
   5   5  -9 213.599 91.8997   0
  -5  -5   9 120.089 75.9043   4
   5   5  -8 1038.09 118.913   0
  -5  -5   8 889.267 97.6426   4
  -5  -5   7 86.2075 76.3891   4
  -5  -5   6 2815.58 131.318   4
  -5  -5   5 826.882 82.5742   4
  -5  -5   4 1482.60 89.9854   2
  -5  -5   4 1443.58 112.895   4
   5   5  -4 1680.56 113.318   3
  -5  -5   3 8306.19 146.904   2
  -5  -5   3 7890.21 180.971   4
  -5  -5   2 29884.0 196.623   2
  -5  -5   2 31069.7 264.930   4
  -5  -5   1 28447.1 202.457   2
  -5  -5   1 29717.6 240.234   4
  -5  -5   0 601.360 45.0519   2
   5   5   0 590.764 61.7408   3
   5   5   1 5926.67 153.837   3
  -5  -5  -1 5896.37 114.069   1
  -5  -5  -2 14486.0 172.380   1
  -5  -5  -3 114.014 43.8108   1
  -5  -5  -4 200.217 44.6899   1
  -5  -5  -5 324.868 65.0420   1
  -5  -5  -6 17200.1 198.572   1
  -5  -5  -7 1922.48 122.038   1
  -5  -5  -8 11471.2 204.158   1
  -5  -5  -9 232.049 72.7243   1
  -5  -5 -10 6203.37 188.932   1
  -5  -5 -11 456.418 97.7098   1
  -5  -5 -12 7606.23 223.758   1
  -5  -5 -13 260.499 82.6616   1
  -5  -5 -14 309.213 100.988   1
   5   6 -11 303.808 74.5249   0
   5   6 -10 459.349 80.5140   0
  -5  -6  10 279.080 99.4744   4
   5   6  -9 150.016 59.4801   0
  -5  -6   9 20.5481 40.6086   4
   5   6  -8 18.6327 35.9426   0
  -5  -6   8-17.0191 27.0891   4
   5   6  -7 1210.42 83.3421   0
  -5  -6   7 1022.31 134.632   4
   5   6  -6 2542.59 118.906   0
  -5  -6   6 1623.20 123.489   4
   5   6  -5 69.7295 47.3409   0
  -5  -6   5 25.7195 41.6912   4
  -5  -6   4 482.182 76.9740   4
  -5  -6   3 2587.36 130.034   4
   5   6  -3 3393.18 153.801   3
  -5  -6   2 896.876 95.3130   4
   5   6  -2 1344.26 115.949   3
  -5  -6   1 1381.76 116.903   4
   5   6  -1 1464.52 114.523   3
  -5  -6   0 2726.86 131.723   4
   5   6   0 3093.76 145.160   3
   5   6   1 5875.94 178.491   3
   5   6   2 62.0358 50.6759   3
  -5  -6  -2 35.0997 19.4563   1
  -5  -6  -3 135.500 41.6420   1
  -5  -6  -4 274.857 56.0824   1
  -5  -6  -5 3976.98 130.475   1
  -5  -6  -6 840.985 92.9812   1
  -5  -6  -7 5161.85 148.342   1
  -5  -6  -8 289.151 84.0239   1
  -5  -6  -9 236.119 78.1773   1
  -5  -6 -10 146.562 75.5142   1
  -5  -6 -11 4570.86 160.417   1
  -5  -6 -12 23.6670 44.5592   1
  -5  -6 -13 174.841 85.9237   1
  -5  -6 -14 767.196 134.122   1
   5   7  -9 938.241 115.275   0
  -5  -7   9 223.859 79.7177   4
   5   7  -8 281.374 79.3756   0
  -5  -7   8-5.45983 32.9082   4
   5   7  -7 86.4160 43.0116   0
  -5  -7   7 71.0497 42.8170   4
   5   7  -6 325.036 63.5965   0
  -5  -7   6 195.516 59.7236   4
   5   7  -5 830.565 82.0566   0
  -5  -7   5 979.965 126.588   4
   5   7  -4 941.268 77.2600   0
  -5  -7   4 1071.55 128.116   4
   5   7  -3 82.3551 67.4974   0
  -5  -7   3 92.2099 68.6399   4
  -5  -7   2 824.066 109.287   4
   5   7  -2 814.960 124.462   3
  -5  -7   1 17980.2 275.337   4
   5   7  -1 18572.2 258.156   3
  -5  -7   0 463.827 94.7505   4
   5   7   0 436.042 104.356   3
  -5  -7  -1 188.967 80.5404   4
   5   7   1 194.635 77.4917   3
   5   7   2 10854.2 224.251   3
   5   7   3 16091.4 235.100   3
  -5  -7  -3 14388.0 173.958   1
  -5  -7  -4 23.3996 36.4331   1
  -5  -7  -5 251.901 60.1875   1
  -5  -7  -6 2418.81 110.525   1
  -5  -7  -7 1809.11 101.747   1
  -5  -7  -8 49.7378 57.4436   1
  -5  -7  -9 1571.16 129.729   1
  -5  -7 -10 8201.07 218.074   1
  -5  -7 -11 82.2005 53.9551   1
  -5  -7 -12 1511.30 138.016   1
  -5  -7 -13 627.892 125.965   1
   5   8  -8 17.5150 47.4539   0
  -5  -8   8 1.01520 30.4979   4
   5   8  -7 28.2594 39.8621   0
  -5  -8   7 71.1788 54.0711   4
   5   8  -6 107.119 36.2666   0
  -5  -8   6 119.150 41.7253   4
   5   8  -5 49.2544 53.2276   0
  -5  -8   5-18.8616 38.6982   4
   5   8  -4 32.8067 49.3663   0
  -5  -8   4 28.8600 45.2362   4
   5   8  -3 555.508 86.6661   0
  -5  -8   3 702.585 110.975   4
   5   8  -2 95.6598 47.6544   0
  -5  -8   2 155.925 78.4385   4
   5   8  -1 145.595 52.3826   0
  -5  -8   1 4.82042 30.7352   4
   5   8  -1 32.1620 45.9296   3
   5   8   0 346.898 41.4198   0
  -5  -8   0 670.826 103.341   4
   5   8   0 795.236 106.851   3
  -5  -8  -1 3345.45 140.926   4
   5   8   1 3615.10 166.849   3
   5   8   2 626.779 114.705   3
   5   8   3 4019.73 161.290   3
   5   8   4 577.737 92.6751   3
  -5  -8  -4 689.168 88.1289   1
   5   8   5 775.765 77.2162   3
  -5  -8  -5 907.429 76.2522   1
  -5  -8  -6-3.65937 25.8443   1
  -5  -8  -7 702.465 71.5502   1
  -5  -8  -8 332.706 76.5893   1
  -5  -8  -9 481.664 83.3205   1
  -5  -8 -10 46.3466 33.7429   1
  -5  -8 -11 1445.24 132.115   1
  -5  -8 -12 75.5406 55.9190   1
  -5  -8 -13 124.995 88.6257   1
   5   9  -7 148.750 68.2353   0
   5   9  -6 44.8680 35.6295   0
  -5  -9   6 33.0658 48.1661   4
   5   9  -5 8.28356 37.6045   0
  -5  -9   5 19.3270 36.5264   4
   5   9  -4 707.674 99.5185   0
  -5  -9   4 664.490 104.566   4
   5   9  -3 618.950 94.7307   0
  -5  -9   3 613.833 137.825   4
   5   9  -2 23.6961 32.2411   0
  -5  -9   2 2.52906 30.0452   4
   5   9  -1 54.8665 27.7797   0
  -5  -9   1 233.617 110.415   4
   5   9  -1 411.946 104.042   3
   5   9   0 1507.12 113.976   0
  -5  -9   0 1843.38 145.566   4
   5   9   0 1722.56 139.074   3
   5   9   1 2320.09 114.853   0
  -5  -9  -1 2461.13 128.217   4
   5   9   2 2655.67 104.989   0
  -5  -9  -2 3387.57 153.674   4
   5   9   2 2977.00 143.887   3
   5   9   3 11952.2 242.452   3
   5   9   4 11.9366 42.7390   3
   5   9   5 2574.38 141.187   3
  -5  -9  -5 2583.40 129.014   1
   5   9   6 5652.06 219.414   3
  -5  -9  -6 4803.29 150.392   1
  -5  -9  -7 1325.20 119.089   1
  -5  -9  -8 94.4544 56.4857   1
  -5  -9  -9 1165.00 118.185   1
  -5  -9 -10 700.566 125.123   1
  -5  -9 -11 78.9712 73.2983   1
  -5  -9 -12 48.0294 62.4043   1
   5  10  -5 298.880 111.140   0
  -5 -10   5 9.79584 38.3023   4
   5  10  -4 181.509 94.4806   0
  -5 -10   4 163.380 97.4079   4
   5  10  -3 623.510 119.074   0
  -5 -10   3 423.687 102.587   4
   5  10  -2 774.661 107.815   0
  -5 -10   2 339.042 86.8053   4
   5  10  -1-15.7173 22.5507   0
  -5 -10   1 31.6093 54.0195   4
   5  10   0 21.0450 38.1040   0
  -5 -10   0 66.3115 62.7568   4
   5  10   0 28.9708 60.6720   3
   5  10   1 1997.84 129.900   0
  -5 -10  -1 1634.82 114.281   4
   5  10   2 3672.04 144.161   0
   5  10   2 4658.41 204.668   3
   5  10   3 65.3413 57.0561   0
   5  10   3 168.346 83.3117   3
   5  10   4 53.5539 58.1740   0
   5  10   4 19.1445 47.3895   3
   5  10   5 26.7472 41.0313   0
   5  10   5 29.8159 40.5465   3
  -5 -10  -6 79.5944 61.8438   1
   5  10   6 25.8201 51.8102   3
   5  10   7 30.3878 41.5730   3
  -5 -10  -7 71.4772 53.3648   1
   5  10   8 142.926 63.6852   3
  -5 -10  -8 171.423 74.1864   1
  -5 -10  -9 7.90121 29.3093   1
  -5 -10 -10 45.8253 42.3758   1
  -5 -10 -11 858.021 120.229   1
   5  11  -3 886.145 130.659   0
  -5 -11   3 416.165 111.092   4
   5  11  -2 15.7749 33.2576   0
  -5 -11   2 76.1805 66.3447   4
   5  11  -1 56.0450 59.3846   0
  -5 -11   1 16.4167 39.6471   4
   5  11   0 16.6589 57.9719   0
   5  11   1 354.956 88.1064   0
   5  11   2 126.381 75.3234   0
   5  11   2 190.644 88.1688   3
   5  11   3 502.088 103.826   0
   5  11   3 509.858 105.138   3
   5  11   4 48.6854 36.5476   0
   5  11   4 214.967 89.7058   3
   5  11   5 1023.05 107.520   0
   5  11   5 1272.44 146.473   3
   5  11   6 1201.28 154.837   0
   5  11   6 1246.42 143.019   3
   5  11   7 1524.43 157.048   3
  -5 -11  -8 172.741 62.5154   1
   5  11   8 225.004 74.8045   3
  -5 -11  -9 12.4119 32.9022   1
  -5 -11 -10 54.8018 39.9407   1
   5  12   0 25.4637 44.5505   0
   5  12   1 188.024 78.5757   0
   5  12   2 302.746 110.694   0
   5  12   3 31.6753 45.6131   0
   5  12   3 49.7994 73.6426   3
   5  12   4 25.5294 56.6873   0
   5  12   4 33.0910 44.5172   3
   5  12   5 23.7042 32.8132   0
   5  12   5 88.7220 69.9869   3
   5  12   6 102.431 64.9476   0
   5  12   7 62.7432 57.3783   0
   5  12   8-6.07244 29.4926   0
  -5 -12  -9 2.77458 39.5476   1
  -6   6   7 20.2171 55.1095   2
  -6   6   7 57.8600 61.5420   6
  -6   6   6 231.328 67.5116   2
  -6   6   6 597.954 115.314   6
  -6   6   5 555.427 121.369   6
  -6   6   4 66.6292 40.9041   6
  -6   6   3 53.2571 40.3824   6
  -6   6   2 623.550 119.876   6
  -6   6   1 614.001 113.089   6
  -6   6   0 115.268 66.6577   6
  -6   6  -1 48.9245 37.9482   6
  -6   6  -2 364.930 85.2464   6
  -6   6  -3 352.596 106.940   6
  -6   6  -4 106.387 66.0681   6
  -6   5   8 6.51644 32.5861   2
  -6   5   7-9.30836 37.0741   2
  -6   5   6 1343.18 121.739   2
  -6   5   6 1275.11 136.194   6
  -6   5   5 82.1053 50.5985   2
  -6   5   5 95.9541 56.7132   6
  -6   5   4 310.144 87.2095   2
  -6   5   4 291.243 98.7744   6
  -6   5   3 458.552 103.848   2
  -6   5   3 474.520 111.723   6
  -6   5   2 664.046 111.225   6
  -6   5   1 624.301 114.401   6
  -6   5   0 1078.04 133.921   6
  -6   5  -1 446.435 80.9367   6
  -6   5  -2 54.0886 57.9775   6
  -6   5  -3 114.035 75.2452   1
  -6   5  -3 104.534 50.2734   6
  -6   5  -4 1314.70 136.961   1
  -6   5  -5 129.218 77.0843   1
  -6   5  -6 37.8956 46.4580   1
  -6   4   9 215.603 105.145   2
  -6   4   8 161.407 60.4144   2
  -6   4   7 1.78861 27.8874   2
  -6   4   6 46.9250 60.9265   2
  -6   4   5 2616.58 153.259   2
  -6   4   4 18.9409 34.8630   2
  -6   4   3 183.460 69.7170   2
  -6   4   2 788.874 102.072   2
  -6   4   2 408.202 83.8740   6
  -6   4   1 1312.45 100.783   2
  -6   4   1 694.310 98.7966   6
  -6   4   0 639.562 102.776   2
  -6   4  -1 822.024 101.623   2
  -6   4  -1 890.066 137.978   1
  -6   4  -2 487.031 105.016   1
  -6   4  -3 865.259 123.954   1
  -6   4  -4 548.546 113.613   1
  -6   4  -5 468.142 98.3164   1
  -6   4  -6 1461.66 164.266   1
  -6   4  -7 167.114 75.6209   1
  -6   4  -8 183.959 94.3094   1
  -6   3  10 113.934 82.4693   2
  -6   3   9 214.107 82.3519   2
  -6   3   8 194.963 74.6652   2
  -6   3   7-0.12772 22.5626   2
  -6   3   6 1968.44 130.848   2
  -6   3   5 132.011 100.900   2
  -6   3   4 404.951 83.1722   2
  -6   3   3 3321.25 129.320   2
  -6   3   2 9811.45 217.027   2
  -6   3   1 545.620 81.6165   2
  -6   3   1 419.916 95.9119   1
  -6   3   0 2527.92 138.109   2
  -6   3   0 3022.56 154.113   1
  -6   3  -1 1408.06 100.710   2
  -6   3  -1 1282.54 124.703   1
  -6   3  -2 898.314 120.609   1
  -6   3  -3 138.133 91.3404   1
  -6   3  -4 2160.62 162.252   1
  -6   3  -5 819.481 114.136   1
  -6   3  -6 127.315 89.4754   1
  -6   3  -7 377.768 97.3205   1
  -6   3  -8 355.918 107.194   1
  -6   3  -9 1603.32 146.035   1
  -6   2  10 10.4785 61.9051   2
  -6   2   9 52.8371 42.9689   2
  -6   2   8 523.340 93.5408   2
  -6   2   7 1928.94 145.488   2
  -6   2   6 936.141 108.284   2
  -6   2   5 4230.19 174.705   2
  -6   2   4 3.58709 28.7626   2
  -6   2   3 2774.48 162.001   2
  -6   2   2 129.070 68.3777   2
  -6   2   2 107.929 53.5575   1
  -6   2   1 11108.8 212.158   2
  -6   2   1 10721.5 189.976   1
  -6   2   0-2.82277 33.6594   2
  -6   2   0 26.1076 40.5411   1
  -6   2  -1 10.6392 26.4166   2
  -6   2  -1 20.3472 40.7074   1
  -6   2  -2 133.834 83.2355   1
  -6   2  -3 3585.30 171.562   1
  -6   2  -4 2038.60 149.463   1
  -6   2  -5 1872.85 140.911   1
  -6   2  -6 1605.43 152.825   1
  -6   2  -7 2714.69 154.121   1
  -6   2  -8 1301.58 158.531   1
  -6   2  -9 932.154 119.075   1
  -6   2 -10 1032.01 130.774   1
  -6   1  10 578.607 130.350   2
  -6   1   9 42.6679 45.3307   2
  -6   1   8 1581.22 148.551   2
  -6   1   7 14.8712 34.0785   2
  -6   1   6 2017.78 155.514   2
  -6   1   5 855.343 103.284   2
  -6   1   4-4.02751 30.1599   2
  -6   1   3 619.936 107.873   2
  -6   1   3 604.764 94.0759   1
  -6   1   2 22664.5 267.189   2
  -6   1   2 24659.3 298.798   1
  -6   1   1 96.7628 58.8136   2
  -6   1   1 246.689 89.7050   1
  -6   1   0 3045.28 168.604   2
  -6   1   0 3062.63 142.233   1
  -6   1  -1 4881.07 159.109   2
  -6   1  -1 4441.67 156.371   1
  -6   1  -2 12817.3 207.900   2
  -6   1  -2 11732.1 223.966   1
  -6   1  -3 409.791 114.149   1
  -6   1  -4 8168.98 216.613   1
  -6   1  -5 27.4178 50.5516   1
  -6   1  -6 1531.18 148.403   1
  -6   1  -7 323.202 60.8451   1
  -6   1  -8 1628.64 133.945   1
  -6   1  -9 2732.52 169.857   1
  -6   1 -10 481.945 111.156   1
  -6   1 -11 4.00248 33.8342   1
  -6   0  11 541.436 114.824   2
  -6   0  10 84.5076 65.7767   2
  -6   0   9 106.228 85.9250   2
  -6   0   8 230.044 75.7619   2
  -6   0   7 4035.53 189.975   2
  -6   0   6 55.9269 50.9901   2
  -6   0   5 107.257 60.1909   2
  -6   0   4 4126.61 176.323   2
  -6   0   3 15966.4 245.303   2
  -6   0   3 17091.9 214.434   1
  -6   0   2 1540.76 136.383   2
  -6   0   2 1651.37 124.887   1
  -6   0   1 3028.30 145.658   2
  -6   0   1 2968.29 135.382   1
  -6   0   0 6046.62 169.220   2
  -6   0   0 5533.35 153.858   1
  -6   0  -1 525.524 71.3728   2
  -6   0  -1 483.047 73.6701   1
  -6   0  -2 1520.38 124.606   2
  -6   0  -2 1634.53 130.892   1
  -6   0  -3 8352.26 192.613   1
  -6   0  -4 2770.34 148.073   1
  -6   0  -5 237.650 84.9089   1
  -6   0  -6 2445.71 146.708   1
  -6   0  -7 11835.6 241.053   1
  -6   0  -8 3219.08 154.293   1
  -6   0  -9 60.1819 55.5363   1
  -6   0 -10 34.5244 45.4789   1
  -6   0 -11 2711.93 160.073   1
  -6   0 -12 500.472 100.864   1
  -6  -1  11 776.197 135.905   2
  -6  -1  10 473.758 120.190   2
  -6  -1   9 531.898 106.996   2
  -6  -1   8 1957.26 147.230   2
  -6  -1   7-3.04024 25.3424   2
  -6  -1   6 288.160 72.0113   2
  -6  -1   5 240.724 74.5857   2
  -6  -1   4 470.991 76.2938   2
  -6  -1   3 3579.90 151.346   2
  -6  -1   3 3749.80 132.119   1
  -6  -1   2 5868.78 124.804   2
  -6  -1   2 7677.96 181.735   1
  -6  -1   1 434.590 119.952   2
  -6  -1   1 172.893 64.5453   1
  -6  -1   0 24155.3 257.843   2
  -6  -1   0 25058.6 259.771   1
  -6  -1  -1 2559.22 136.034   2
  -6  -1  -1 2372.55 132.609   1
  -6  -1  -2 10936.4 189.165   1
  -6  -1  -3 8353.34 193.748   1
  -6  -1  -4 3581.05 148.955   1
  -6  -1  -5 200.588 75.4903   1
  -6  -1  -6 18834.7 237.867   1
  -6  -1  -7 549.791 85.8697   1
  -6  -1  -8 3278.43 169.376   1
  -6  -1  -9 54.7329 48.9658   1
  -6  -1 -10 3851.39 157.464   1
  -6  -1 -11 1386.13 145.641   1
  -6  -1 -12 712.630 116.672   1
  -6  -2  11 55.1948 61.2121   2
  -6  -2  10 577.575 116.463   2
  -6  -2  10 157.883 66.5193   4
  -6  -2   9 999.852 109.122   2
  -6  -2   9 584.257 119.847   4
  -6  -2   8 25.2217 32.8673   2
  -6  -2   8 127.520 59.1543   4
  -6  -2   7 1740.49 106.178   2
  -6  -2   7 2426.42 119.859   4
  -6  -2   6 379.712 82.3891   2
  -6  -2   5 2651.15 149.491   2
  -6  -2   4 3014.21 125.728   2
  -6  -2   3 9639.72 189.239   2
   6   2  -3 10037.1 168.676   3
  -6  -2   2 657.015 93.9287   2
  -6  -2   2 732.596 96.3491   1
   6   2  -2 614.312 80.1257   3
   6   2  -1 7403.17 146.762   3
  -6  -2   1 8402.63 200.186   2
  -6  -2   1 8035.09 185.557   1
  -6  -2   0 1056.43 105.883   2
  -6  -2   0 1110.68 84.2541   1
  -6  -2  -1 25242.8 251.410   2
  -6  -2  -1 23131.5 228.090   1
  -6  -2  -2 102.613 41.6869   1
  -6  -2  -3 4219.73 152.628   1
  -6  -2  -4 3393.51 147.029   1
  -6  -2  -5 9470.97 190.797   1
  -6  -2  -6 4056.60 168.442   1
  -6  -2  -7 10039.1 223.192   1
  -6  -2  -8 87.8810 66.3547   1
  -6  -2  -9 3943.69 174.558   1
  -6  -2 -10 1498.17 142.970   1
  -6  -2 -11 6971.41 227.839   1
  -6  -2 -12 416.158 107.022   1
  -6  -2 -13 63.3124 73.3234   1
  -6  -3  11 759.859 129.743   4
  -6  -3  10 43.9363 35.9693   2
  -6  -3  10 100.299 65.0210   4
  -6  -3   9 6.88422 28.8710   2
  -6  -3   9 65.3835 58.4628   4
  -6  -3   8 2049.14 139.169   2
  -6  -3   8 2821.90 166.003   4
  -6  -3   7 1123.58 112.526   2
  -6  -3   7 1169.60 110.887   4
  -6  -3   6 48.7832 45.3113   2
  -6  -3   6 143.973 67.8654   4
  -6  -3   5 445.428 67.2307   2
   6   3  -5 749.645 92.2859   3
  -6  -3   4 6130.97 143.041   2
   6   3  -4 7616.39 163.821   3
  -6  -3   3 53.2298 51.7619   2
   6   3  -3 24.2838 26.5448   3
  -6  -3   2 1373.38 93.3344   2
   6   3  -2 1673.37 132.097   3
   6   3  -1 6741.93 146.571   3
  -6  -3   1 6431.85 161.319   1
  -6  -3   0 10871.9 174.870   2
  -6  -3   0 11424.1 176.041   1
  -6  -3  -1 18.7557 28.3697   2
  -6  -3  -1 68.3312 62.0380   1
  -6  -3  -2 3024.81 116.539   1
  -6  -3  -3 197.836 70.3220   1
  -6  -3  -4 20698.8 228.673   1
  -6  -3  -5 51.3526 32.5170   1
  -6  -3  -6 12847.6 204.701   1
  -6  -3  -7 31.3294 44.8758   1
  -6  -3  -8 9.07813 28.7477   1
  -6  -3  -9 2985.26 145.158   1
  -6  -3 -10 6302.70 187.221   1
  -6  -3 -11 109.905 51.4597   1
  -6  -3 -12 143.781 61.6379   1
  -6  -3 -13 84.9959 45.0306   5
  -6  -4  10 251.411 93.3282   4
  -6  -4   9 161.894 67.4137   4
  -6  -4   8 567.029 109.902   4
  -6  -4   7 246.196 72.2566   2
  -6  -4   7 303.233 101.244   4
  -6  -4   6 2121.59 128.332   2
  -6  -4   6 2438.65 145.650   4
  -6  -4   5 3794.79 177.553   2
  -6  -4   5 3622.30 140.575   4
  -6  -4   4 184.138 55.9185   2
  -6  -4   4 243.139 83.5931   4
   6   4  -4 207.329 77.8208   3
  -6  -4   3 283.236 74.6384   2
   6   4  -3 409.691 85.6436   3
  -6  -4   2 7230.27 170.052   2
   6   4  -2 7159.32 172.765   3
  -6  -4   1 2458.08 128.605   2
   6   4  -1 2708.67 119.385   3
   6   4   0 1365.79 106.743   3
  -6  -4   0 1609.45 100.657   2
  -6  -4   0 1453.38 85.6126   1
  -6  -4  -1 8846.62 158.058   1
  -6  -4  -2 3533.28 125.631   1
  -6  -4  -3 4945.11 163.299   1
  -6  -4  -4 3893.31 142.056   1
  -6  -4  -5 6753.27 187.196   1
  -6  -4  -6-6.85836 22.3925   1
  -6  -4  -7 904.540 108.850   1
  -6  -4  -8 7918.50 205.663   1
  -6  -4  -9 3939.11 156.096   1
  -6  -4 -10 2464.01 172.007   1
  -6  -4 -11 284.130 93.3725   1
  -6  -4 -12 184.949 84.1913   1
  -6  -5   9 1.94667 27.7064   4
  -6  -5   8 627.755 111.680   4
  -6  -5   7 675.886 102.155   4
  -6  -5   6 1527.96 135.959   4
  -6  -5   5 77.1851 78.4299   4
  -6  -5   4 872.632 89.9361   2
  -6  -5   4 681.293 97.7510   4
  -6  -5   3 1725.75 113.050   2
  -6  -5   3 1526.55 116.926   4
   6   5  -3 1722.37 121.917   3
  -6  -5   2 680.200 86.9764   2
   6   5  -2 656.426 108.044   3
  -6  -5   1 1862.00 112.612   2
   6   5  -1 2076.76 126.216   3
  -6  -5   0 6058.60 152.795   2
   6   5   0 5750.73 179.173   3
   6   5   1 270.506 74.6309   3
  -6  -5  -1 257.963 62.2396   1
  -6  -5  -2 50.2840 44.7668   1
  -6  -5  -3 4797.29 145.110   1
  -6  -5  -4 4769.73 132.518   1
  -6  -5  -5 831.942 71.6990   1
  -6  -5  -6 295.965 89.5193   1
  -6  -5  -7 72.7925 47.5834   1
  -6  -5  -8 7527.10 199.543   1
  -6  -5  -9 972.861 111.415   1
  -6  -5 -10 2283.47 156.245   1
  -6  -5 -11 298.552 67.9466   1
  -6  -5 -12 231.622 93.0508   1
  -6  -5 -13 192.143 86.7871   1
  -6  -6   8 601.392 110.399   4
  -6  -6   7 17.6155 36.8943   4
  -6  -6   6 339.383 93.1425   4
  -6  -6   5 3307.60 177.502   4
  -6  -6   4 7172.31 211.700   4
  -6  -6   3 410.466 87.5197   4
   6   6  -3 482.831 121.507   3
  -6  -6   2 1863.86 130.045   4
   6   6  -2 2265.03 149.801   3
  -6  -6   1 678.941 77.0525   2
   6   6  -1 655.982 111.553   3
   6   6   0 134.556 84.6578   3
   6   6   1 128.434 68.5601   3
   6   6   2 4474.48 170.428   3
  -6  -6  -3 6231.50 158.473   1
  -6  -6  -4 51.1920 41.9643   1
  -6  -6  -5 913.880 91.4115   1
  -6  -6  -6 617.575 95.0523   1
  -6  -6  -7 1858.02 134.713   1
  -6  -6  -8 1006.75 103.087   1
  -6  -6  -9 4778.15 170.611   1
  -6  -6 -10 431.095 127.049   1
  -6  -6 -11 206.235 71.9422   1
  -6  -6 -12 574.652 109.177   1
  -6  -7   7 551.057 92.0338   4
  -6  -7   6 411.429 124.001   4
  -6  -7   5 471.658 96.3201   4
  -6  -7   4 83.6628 58.1070   4
  -6  -7   3 1354.74 134.203   4
   6   7  -3 1666.73 139.859   3
  -6  -7   2 239.990 91.0619   4
   6   7  -2 176.994 81.2750   3
  -6  -7   1 120.937 54.7909   4
   6   7  -1 289.270 95.2661   3
   6   7   0 23.3523 57.1773   3
   6   7   1 1371.63 123.100   3
   6   7   2 9.59553 39.8706   3
   6   7   3 1418.13 146.455   3
  -6  -7  -4 2595.80 111.457   1
  -6  -7  -5 603.825 85.8258   1
  -6  -7  -6 635.953 110.946   1
  -6  -7  -7 2650.92 143.603   1
  -6  -7  -8 1569.85 119.409   1
  -6  -7  -9 145.056 63.5668   1
  -6  -7 -10 269.910 84.5556   1
  -6  -7 -11 3110.70 167.268   1
  -6  -7 -12 76.8635 43.8981   1
  -6  -8   6 16.2213 34.6322   4
  -6  -8   5 173.454 86.3125   4
  -6  -8   4 2520.75 170.293   4
  -6  -8   3 157.173 93.3852   4
  -6  -8   2 40.6173 43.7395   4
   6   8  -2 152.573 98.3873   3
  -6  -8   1 1077.69 136.705   4
   6   8  -1 1075.96 133.829   3
   6   8   0 5750.91 214.462   3
   6   8   1 401.388 100.055   3
   6   8   2 1045.19 134.637   3
   6   8   3 1.34149 31.6069   3
   6   8   4 34.1511 44.5068   3
   6   8   5 8.24877 30.8653   3
  -6  -8  -5 100.544 67.6989   1
  -6  -8  -6 1153.89 125.308   1
  -6  -8  -7 1337.44 123.211   1
  -6  -8  -8 31.0009 41.3067   1
  -6  -8  -9 562.211 121.615   1
  -6  -8 -10 1472.32 127.852   1
  -6  -8 -11 188.590 67.6661   1
  -6  -9   4 120.971 77.7767   4
  -6  -9   3 33.5623 50.0800   4
  -6  -9   2 47.6264 55.5490   4
  -6  -9   1 56.1831 66.8821   4
   6   9  -1 125.518 77.8581   3
  -6  -9   0 1291.10 122.846   4
   6   9   0 1121.91 124.420   3
   6   9   1 85.2696 62.0354   3
   6   9   2 12.1638 36.4918   3
   6   9   3 311.738 116.072   3
   6   9   4 490.250 84.4660   3
   6   9   5 1343.97 159.244   3
   6   9   6 285.568 66.1785   3
  -6  -9  -6 426.440 108.918   1
  -6  -9  -7 218.400 66.8320   1
  -6  -9  -8 83.1726 64.0505   1
  -6  -9  -9 378.864 103.986   1
  -6  -9 -10 33.8261 46.4532   1
  -6  -9 -11 529.236 90.5655   1
  -6 -10   3 135.710 74.3589   4
  -6 -10   2 353.057 92.2270   4
  -6 -10   1 341.474 106.260   4
  -6 -10   0 2650.94 143.429   4
   6  10   0 3256.37 170.035   3
   6  10   1 337.617 109.456   3
   6  10   2 706.696 138.213   3
   6  10   3 1910.51 184.561   3
   6  10   4 1340.88 143.296   3
   6  10   5 610.782 112.050   3
   6  10   6 990.333 152.073   3
   6  10   7 24.3956 37.7589   3
  -6 -10  -7 73.4383 62.8900   1
   6  10   8 8.38023 47.9667   3
  -6 -10  -8 59.6347 39.7322   1
  -6 -10  -9 83.0217 53.2821   1
  -6 -11   1 308.860 93.9380   4
  -6 -11   0 82.0842 70.5524   4
   6  11   1 106.454 100.021   3
   6  11   2 411.450 119.961   3
   6  11   3 314.578 99.3759   3
   6  11   4 129.548 93.2264   3
   6  11   5 667.612 131.564   3
   6  11   6 198.565 96.4213   3
   6  11   7 40.5477 49.5740   3
   6  11   8 27.0626 46.3121   3
  -7   4   5 318.548 97.0042   2
  -7   4   4 572.108 107.413   2
  -7   4   3 1913.65 143.704   2
  -7   4   2 111.625 61.8098   2
  -7   4   1 25.7172 38.2826   2
  -7   4   0 281.349 86.6858   2
  -7   3   6 7.78194 28.7788   2
  -7   3   5 103.020 74.4072   2
  -7   3   4 1509.97 130.006   2
  -7   3   3 80.8514 66.8095   2
  -7   3   2 1224.22 123.444   2
  -7   3   1 0.60546 54.8812   2
  -7   3   0 3391.42 148.496   2
  -7   3   0 3766.68 207.971   1
  -7   3  -1 127.478 77.1455   2
  -7   3  -1 387.149 102.856   1
  -7   3  -2 731.621 146.468   1
  -7   3  -3 41.5673 64.1935   1
  -7   3  -4 56.8180 51.1483   1
  -7   2   7 17.5253 43.2939   2
  -7   2   6 115.278 44.8087   2
  -7   2   5 1412.27 138.509   2
  -7   2   4 194.974 65.1095   2
  -7   2   3 2413.37 136.309   2
  -7   2   2 109.467 66.2369   2
  -7   2   1 1274.08 130.282   2
  -7   2   1 1835.11 173.723   1
  -7   2   0 141.117 86.9183   2
  -7   2   0 197.382 102.628   1
  -7   2  -1 2015.02 139.778   2
  -7   2  -1 1828.99 140.005   1
  -7   2  -2 454.027 118.751   1
  -7   2  -3 85.0102 61.5370   1
  -7   2  -4 97.3097 78.5722   1
  -7   2  -5 1997.94 181.618   1
  -7   2  -6 1305.41 155.919   1
  -7   1   7 296.661 116.043   2
  -7   1   6 201.020 67.4585   2
  -7   1   5 68.9790 83.8319   2
  -7   1   4 3451.98 180.006   2
  -7   1   3 851.567 121.744   2
  -7   1   2 70.2488 51.2823   2
  -7   1   2 93.6205 62.0718   1
  -7   1   1 743.899 134.178   2
  -7   1   1 495.056 92.5485   1
  -7   1   0 7626.62 241.272   2
  -7   1   0 6852.39 209.193   1
  -7   1  -1 148.430 75.6566   2
  -7   1  -1 68.9314 51.0838   1
  -7   1  -2 250.382 100.554   1
  -7   1  -3 24.5507 43.3332   1
  -7   1  -4 2635.12 178.299   1
  -7   1  -5 1079.67 158.908   1
  -7   1  -6 2346.27 188.101   1
  -7   1  -7 43.5292 78.9287   1
  -7   0   8 375.761 104.095   2
  -7   0   7 42.8940 37.2767   2
  -7   0   6 12.8794 47.2441   2
  -7   0   5 3753.96 161.301   2
  -7   0   4 104.879 66.4845   2
  -7   0   3 331.364 85.5183   2
  -7   0   3 434.935 95.5077   1
  -7   0   2 209.306 82.6845   2
  -7   0   2 136.107 63.6874   1
  -7   0   1 5808.45 186.303   2
  -7   0   1 5458.93 178.608   1
  -7   0   0 15.3117 46.6860   2
  -7   0   0 80.1148 58.5048   1
  -7   0  -1 8290.14 219.535   2
  -7   0  -1 6870.74 229.955   1
  -7   0  -2 21.5682 46.0892   1
  -7   0  -3 2683.55 164.893   1
  -7   0  -4 2739.89 172.540   1
  -7   0  -5 2570.39 145.090   1
  -7   0  -6 251.859 65.7388   1
  -7   0  -7 554.908 113.665   1
  -7   0  -8 423.922 91.3348   1
  -7  -1   8 102.490 75.9250   2
  -7  -1   7 580.882 99.8080   2
  -7  -1   6 912.922 123.737   2
  -7  -1   5 44.4945 53.5882   2
  -7  -1   4 494.975 94.4429   2
  -7  -1   3 5017.81 175.032   2
  -7  -1   2 141.004 88.2796   2
  -7  -1   2 44.7301 50.1286   1
  -7  -1   1 1110.99 148.848   2
  -7  -1   1 929.235 93.4871   1
  -7  -1   0 4525.34 186.534   2
  -7  -1   0 4340.64 157.772   1
  -7  -1  -1 427.467 105.937   2
  -7  -1  -1 256.837 79.5223   1
  -7  -1  -2 1455.60 145.949   1
  -7  -1  -3 2199.11 150.539   1
  -7  -1  -4 5008.86 200.516   1
  -7  -1  -5 405.361 112.987   1
  -7  -1  -6 32.8007 62.1509   1
  -7  -1  -7 1390.24 124.307   1
  -7  -1  -8 4157.63 156.717   1
  -7  -1  -9 317.733 118.342   1
  -7  -2   9 201.432 76.4477   2
  -7  -2   8 919.283 132.550   2
  -7  -2   7 120.529 42.1018   2
  -7  -2   6 402.669 108.310   2
  -7  -2   5 466.489 103.745   2
  -7  -2   4 1195.87 131.224   2
  -7  -2   3 6587.58 202.490   2
  -7  -2   2 508.510 108.009   2
  -7  -2   1 1748.47 119.780   2
  -7  -2   1 1912.87 131.606   1
  -7  -2   0 1973.02 126.122   2
  -7  -2   0 1962.86 136.251   1
  -7  -2  -1 1369.48 133.781   2
  -7  -2  -1 1120.66 124.611   1
  -7  -2  -2 103.117 41.8800   1
  -7  -2  -3 19138.7 262.308   1
  -7  -2  -4 105.140 59.1972   1
  -7  -2  -5 635.081 97.1282   1
  -7  -2  -6 2762.22 170.865   1
  -7  -2  -7 4802.77 182.339   1
  -7  -2  -8 1469.57 135.203   1
  -7  -2  -9 1192.94 123.048   1
  -7  -2 -10 165.727 78.3955   1
  -7  -3   9 189.522 86.9608   2
  -7  -3   8 1.83232 27.2606   2
  -7  -3   7 10.9626 35.2813   2
  -7  -3   6 1445.10 134.998   2
  -7  -3   5 651.957 113.994   2
  -7  -3   4 1252.72 136.713   2
  -7  -3   3 1113.07 131.204   2
  -7  -3   2 3084.51 161.071   2
   7   3  -2 2460.55 114.385   3
  -7  -3   1 592.502 90.3906   2
   7   3  -1 520.988 73.3783   3
   7   3   0 1647.82 124.027   3
  -7  -3   0 2154.56 160.835   2
  -7  -3   0 1712.74 134.552   1
  -7  -3  -1 6347.63 177.971   1
  -7  -3  -2 2946.87 150.682   1
  -7  -3  -3 209.160 77.4036   1
  -7  -3  -4 3488.07 147.197   1
  -7  -3  -5 1675.20 125.570   1
  -7  -3  -6 2595.90 166.979   1
  -7  -3  -7 3269.20 167.434   1
  -7  -3  -8 6169.96 221.082   1
  -7  -3  -9 202.571 103.553   1
  -7  -3 -10 83.5279 60.4907   1
  -7  -4   8 1371.21 131.345   4
  -7  -4   7 576.299 106.234   2
  -7  -4   6 524.948 96.2411   2
  -7  -4   5 144.273 75.6391   2
  -7  -4   4 3851.01 168.971   2
   7   4  -4 3448.21 137.886   3
  -7  -4   3 806.193 118.478   2
   7   4  -3 965.833 130.420   3
  -7  -4   2 70.1597 40.0823   2
   7   4  -2 102.087 68.0616   3
  -7  -4   1 262.131 80.7925   2
   7   4  -1 202.274 84.8887   3
   7   4   0 337.922 93.0361   3
  -7  -4   0 512.939 93.6491   2
   7   4   1 5133.11 205.317   3
  -7  -4  -1 4736.84 148.150   1
  -7  -4  -2 820.417 111.785   1
  -7  -4  -3 6849.19 186.950   1
  -7  -4  -4 1147.84 116.627   1
  -7  -4  -5 823.223 133.231   1
  -7  -4  -6 6266.77 202.955   1
  -7  -4  -7 2844.31 167.505   1
  -7  -4  -8 99.6317 66.8461   1
  -7  -4  -9 311.746 107.863   1
  -7  -4 -10 2892.14 164.424   1
  -7  -5   7 142.812 83.5199   4
  -7  -5   6 663.096 118.520   4
  -7  -5   4 777.347 116.858   2
   7   5  -4 507.297 102.785   3
  -7  -5   3 444.254 95.5191   2
   7   5  -3 569.519 102.986   3
  -7  -5   2 437.835 103.366   2
   7   5  -2 506.961 119.733   3
  -7  -5   1 2518.30 150.055   2
   7   5  -1 2381.08 137.309   3
   7   5   0 402.441 97.6682   3
   7   5   1 2671.06 148.684   3
   7   5   2 185.357 72.2720   3
  -7  -5  -2 347.973 76.4978   1
  -7  -5  -3 517.307 100.607   1
  -7  -5  -4 689.544 95.5111   1
  -7  -5  -5 6744.92 188.800   1
  -7  -5  -6 1332.08 132.945   1
  -7  -5  -7 1779.01 116.532   1
  -7  -5  -8 10.3395 50.0971   1
  -7  -5  -9 1783.95 133.441   1
  -7  -5 -10 1144.28 111.568   1
  -7  -6   5 96.9883 94.6703   4
   7   6  -4 553.528 118.899   3
   7   6  -3 146.317 83.4528   3
   7   6  -2 340.127 97.5323   3
   7   6  -1 38.3654 53.3239   3
   7   6   0 3186.71 161.501   3
   7   6   1 103.261 57.5385   3
   7   6   2 405.882 116.064   3
   7   6   3 242.803 63.4447   3
  -7  -6  -3 288.977 80.4986   1
  -7  -6  -4 913.633 130.558   1
  -7  -6  -5 4016.67 164.473   1
  -7  -6  -6 361.184 94.4438   1
  -7  -6  -7 159.189 56.4139   1
  -7  -6  -8 1592.27 143.976   1
  -7  -6  -9 28.9755 47.3620   1
  -7  -6 -10 538.356 119.173   1
  -7  -7   4 75.3924 55.1270   4
   7   7  -3 80.2826 76.7714   3
   7   7  -2 105.869 72.2703   3
   7   7  -1 2643.45 167.925   3
   7   7   0 226.943 85.6384   3
   7   7   1 149.497 101.239   3
   7   7   2-7.90092 28.1223   3
   7   7   3 805.923 130.402   3
   7   7   4 12.3007 37.5937   3
  -7  -7  -4 21.5338 34.6753   1
  -7  -7  -5 569.561 74.8261   1
  -7  -7  -6 1077.77 114.736   1
  -7  -7  -7 591.173 106.909   1
  -7  -7  -8 263.694 103.857   1
  -7  -7  -9 1814.00 144.325   1
  -7  -7 -10 198.248 92.5730   1
  -7  -8   3 75.2556 58.8694   4
   7   8  -2 224.313 88.5717   3
   7   8  -1 82.1605 72.9597   3
   7   8   0 1280.62 163.255   3
   7   8   1 21.4203 50.5150   3
   7   8   2 312.482 103.805   3
   7   8   3-10.5736 38.9646   3
   7   8   4 1962.31 152.403   3
   7   8   5 9.78342 39.4070   3
  -7  -8  -6 37.7799 47.0142   1
  -7  -8  -7 8.01528 34.3107   1
  -7  -8  -8 2077.55 138.954   1
  -7  -8  -9-3.20266 39.0357   1
   7   9   0 192.637 87.5305   3
   7   9   1 71.6854 70.3994   3
   7   9   2 30.4388 46.2671   3
   7   9   3 853.674 141.763   3
   7   9   4 49.3836 61.0063   3
   7   9   5 51.5521 75.9700   3
   7   9   6 129.015 90.2041   3
   7   9   7 745.404 105.315   3
  -7  -9  -7 739.219 102.474   1
  -7  -9  -8 18.0168 34.0332   1
  -7 -10  -8 741.553 83.3516   1
  -8   1   2 396.007 74.6686   1
  -8   1   1 7.07629 35.3572   2
  -8   1   1 129.309 97.7882   1
  -8   1   0 30.6944 39.3055   1
  -8   1  -1 49.2704 44.6295   1
  -8   0   2 123.190 79.0631   2
  -8   0   2 236.405 89.1289   1
  -8   0   1 124.979 81.6183   2
  -8   0   1 59.2568 47.6738   1
  -8   0   0 650.092 125.971   2
  -8   0   0 235.200 69.7748   1
  -8   0  -1 1698.36 151.138   1
  -8   0  -2 321.138 129.020   1
  -8  -1   3 97.4113 59.7661   2
  -8  -1   2 886.900 140.730   2
  -8  -1   1 1104.03 172.045   2
  -8  -1   1 752.605 108.671   1
  -8  -1   0 1128.05 140.542   2
  -8  -1   0 951.511 134.782   1
  -8  -1  -1 1921.43 163.665   1
  -8  -1  -2 757.619 109.594   1
  -8  -1  -3 51.3690 54.5945   1
  -8  -1  -4 1060.15 126.713   1
  -8  -2   4 366.953 104.241   2
  -8  -2   3 964.419 146.135   2
  -8  -2   2 492.871 109.596   2
  -8  -2   1 476.981 129.323   2
  -8  -2   0 2292.35 161.007   2
  -8  -2   0 2024.50 141.054   1
  -8  -2  -1 1017.37 150.245   1
  -8  -2  -2 44.2554 53.2555   1
  -8  -2  -3 20.4029 44.0461   1
  -8  -2  -4 2200.45 167.884   1
  -8  -2  -5 1768.59 147.460   1
  -8  -2  -6 32.2045 49.1636   1
  -8  -3   5 153.961 69.1861   2
  -8  -3   4 229.843 97.7346   2
  -8  -3   3 857.375 128.858   2
  -8  -3   2 303.977 86.0111   2
  -8  -3   1 958.217 157.979   2
  -8  -3   0 5098.62 221.031   2
   8   3   1 4.59490 24.4052   3
  -8  -3  -1 81.2627 73.0741   1
  -8  -3  -2 31.3693 37.2956   1
  -8  -3  -3 2838.00 176.707   1
  -8  -3  -4 1890.90 176.024   1
  -8  -3  -5 527.643 117.785   1
  -8  -3  -6 18.7460 42.9235   1
  -8  -4   5 71.3437 44.3533   2
  -8  -4   4 683.788 118.476   2
  -8  -4   3 105.012 56.0640   2
  -8  -4   2 3281.71 186.797   2
  -8  -4   1 307.470 85.5735   2
   8   4  -1 235.974 76.6589   3
   8   4   0 73.9582 56.9843   3
   8   4   1 802.545 118.446   3
  -8  -4  -2 2810.97 168.565   1
  -8  -4  -3 585.226 126.451   1
  -8  -4  -4 1422.69 108.466   1
  -8  -4  -5 1143.17 139.751   1
  -8  -4  -6 1573.92 172.782   1
  -8  -5   4 17.9179 39.9175   2
  -8  -5   3 52.0606 68.5118   2
   8   5  -3 19.7852 39.0246   3
  -8  -5   2 1254.13 149.368   2
   8   5  -2 567.419 112.957   3
  -8  -5   1 722.534 116.568   2
   8   5  -1 788.146 118.238   3
   8   5   0 177.964 89.8978   3
   8   5   1 406.205 106.605   3
   8   5   2 35.8377 44.5658   3
  -8  -5  -3 3577.83 176.649   1
  -8  -5  -4 315.370 78.8573   1
  -8  -5  -5 642.721 112.297   1
  -8  -5  -6 47.2145 44.0160   1
   8   6  -3 33.4479 51.3089   3
   8   6  -2 870.443 129.439   3
   8   6  -1 75.1663 38.6446   3
   8   6   0 60.8060 67.0619   3
   8   6   1 130.215 95.6406   3
   8   6   2 5229.35 205.961   3
   8   6   3 26.9305 65.2007   3
  -8  -6  -4 402.951 85.6624   1
  -8  -6  -5 68.3250 60.2649   1
  -8  -6  -6 1374.32 170.882   1
  -8  -6  -7 218.958 71.1349   1
   8   7   0 288.335 81.0957   3
   8   7   1 114.476 70.3644   3
   8   7   2 242.085 78.4261   3
   8   7   3 423.434 107.542   3
   8   7   4 54.5809 54.0021   3
  -8  -7  -6 60.2977 48.1032   1
;
_shelx_hkl_checksum              53845
_shelx_res_file
;
TITL GSH24M IN P-1
CELL  0.71073  6.73080 10.32200 13.72300 75.56200 85.55600 75.04600
ZERR 2  0.00070  0.00100  0.00200  0.00800  0.00900  0.00800
LATT 1
SFAC C H BR N O S
UNIT 32 32 2 6 6 2
PLAN 30
FMAP 2
SHEL 14 0.8
SIZE 0.52 0.34 0.18
MPLA 5 S1 N1 C7 C8 O3
MPLA 6 C1 C2 C3 C4 C5 C6
MPLA 6 C10 C11 C12 C13 C14 C15
MPLA 5 C9 N3 N2 C8 O3
L.S. 14
BOND $H
DFIX 0.86 0.02 N1 H1N N2 H2N
HTAB N1 O2_$1
HTAB N2 O3_$2
HTAB C15 O1_$3
EQIV $1 -x+3, -y, -z+1
EQIV $2 -x+2, -y+1, -z+1
EQIV $3 x-1, y+1, z
CONF
ACTA
WGHT    0.115300    0.775200
FVAR       5.10566
BR1   3   -0.203393    0.571940    0.101664    11.00000    0.05708    0.15904 =
         0.07252   -0.02291   -0.01703   -0.03132
S1    6    1.287302   -0.020810    0.386688    11.00000    0.04147    0.04006 =
         0.05634   -0.01720   -0.00437   -0.01108
O1    5    1.111766   -0.055806    0.357940    11.00000    0.04687    0.05462 =
         0.08238   -0.02848   -0.00442   -0.01938
O2    5    1.429536   -0.121543    0.456711    11.00000    0.05775    0.04752 =
         0.06900   -0.00770   -0.01070   -0.01202
O3    5    1.144231    0.335425    0.496770    11.00000    0.04677    0.05612 =
         0.07236   -0.03302   -0.01595   -0.00618
N1    4    1.201128    0.108118    0.436592    11.00000    0.04229    0.05192 =
         0.05541   -0.02695   -0.00483   -0.00979
H1N   2    1.299056    0.126056    0.461083    11.00000   -1.20000
N2    4    0.830530    0.434970    0.431002    11.00000    0.04304    0.04445 =
         0.06290   -0.02507   -0.01184   -0.00673
H2N   2    0.819069    0.506414    0.453302    11.00000   -1.20000
N3    4    0.678517    0.431625    0.370161    11.00000    0.04195    0.04653 =
         0.05002   -0.01491   -0.00886   -0.01168
C1    1    1.425550    0.033192    0.276011    11.00000    0.04072    0.04190 =
         0.05745   -0.01558   -0.00518   -0.00785
C2    1    1.341914    0.055765    0.183049    11.00000    0.05042    0.08360 =
         0.05901   -0.02437   -0.00355   -0.01744
AFIX  43
H2    2    1.214435    0.038821    0.177881    11.00000   -1.20000
AFIX   0
C3    1    1.449258    0.103896    0.097362    11.00000    0.07210    0.09312 =
         0.05395   -0.01878   -0.00463   -0.01932
AFIX  43
H3    2    1.391727    0.119661    0.034712    11.00000   -1.20000
AFIX   0
C4    1    1.639510    0.129176    0.102308    11.00000    0.06521    0.07479 =
         0.06713   -0.01842    0.01229   -0.01170
C5    1    1.718316    0.106325    0.195847    11.00000    0.05221    0.10329 =
         0.08149   -0.02609    0.00954   -0.03089
AFIX  43
H5    2    1.845410    0.123891    0.200884    11.00000   -1.20000
AFIX   0
C6    1    1.615656    0.058088    0.283008    11.00000    0.05343    0.08739 =
         0.05930   -0.02014   -0.00426   -0.02715
AFIX  43
H6    2    1.673565    0.042566    0.345535    11.00000   -1.20000
AFIX   0
C7    1    1.018549    0.213882    0.398148    11.00000    0.04439    0.04371 =
         0.04520   -0.01718   -0.00144   -0.01529
AFIX  23
H7A   2    0.897347    0.177941    0.415053    11.00000   -1.20000
H7B   2    1.028288    0.244231    0.325507    11.00000   -1.20000
AFIX   0
C8    1    1.004163    0.332709    0.445934    11.00000    0.04337    0.04160 =
         0.04448   -0.01535   -0.00373   -0.01072
C9    1    0.522635    0.534502    0.359018    11.00000    0.04611    0.04575 =
         0.05724   -0.02049   -0.00286   -0.01229
AFIX  43
H9    2    0.517410    0.604951    0.390924    11.00000   -1.20000
AFIX   0
C10   1    0.352101    0.542508    0.296464    11.00000    0.04166    0.04060 =
         0.04887   -0.01085   -0.00461   -0.01078
C11   1    0.356820    0.445709    0.240363    11.00000    0.05242    0.04621 =
         0.06591   -0.01631   -0.00774   -0.00686
AFIX  43
H11   2    0.472965    0.373010    0.242508    11.00000   -1.20000
AFIX   0
C12   1    0.194414    0.455360    0.182279    11.00000    0.06182    0.06179 =
         0.05873   -0.02034   -0.00776   -0.02210
AFIX  43
H12   2    0.199815    0.390390    0.145189    11.00000   -1.20000
AFIX   0
C13   1    0.023064    0.563296    0.180000    11.00000    0.05139    0.07183 =
         0.04898   -0.00431   -0.00794   -0.02335
C14   1    0.011218    0.659981    0.232974    11.00000    0.04607    0.06326 =
         0.06598   -0.01188   -0.00341   -0.00337
AFIX  43
H14   2   -0.106198    0.731865    0.230358    11.00000   -1.20000
AFIX   0
C15   1    0.176393    0.650105    0.290971    11.00000    0.04981    0.04877 =
         0.06786   -0.02282    0.00127   -0.01063
AFIX  43
H15   2    0.169632    0.716612    0.326861    11.00000   -1.20000
AFIX   0
C16   1    1.752949    0.185393    0.007201    11.00000    0.10498    0.13393 =
         0.08408   -0.01034    0.03620   -0.03936
AFIX 137
H16A  2    1.896025    0.138028    0.012084    11.00000   -1.50000
H16B  2    1.738603    0.282343   -0.000315    11.00000   -1.50000
H16C  2    1.695721    0.171243   -0.050114    11.00000   -1.50000
AFIX   0
HKLF 4
REM  GSH24M IN P-1
REM R1 =  0.0692 for    2855 Fo > 4sig(Fo)  and  0.0801 for all    3645 data
REM    224 parameters refined using      2 restraints
END
WGHT      0.1134      0.7891
REM Highest difference peak  0.943,  deepest hole -1.007,  1-sigma level  0.094
Q1    1  -0.2293  0.6367  0.1419  11.00000  0.05    0.94
Q2    1  -0.2060  0.5630  0.0222  11.00000  0.05    0.54
Q3    1  -0.1814  0.5213  0.1767  11.00000  0.05    0.41
Q4    1  -0.2043  0.4857  0.0331  11.00000  0.05    0.39
Q5    1  -0.2901  0.8481  0.1829  11.00000  0.05    0.37
Q6    1   1.3803  0.0628  0.2586  11.00000  0.05    0.33
Q7    1  -0.1804  0.6768  0.0015  11.00000  0.05    0.31
Q8    1   1.0959 -0.0497  0.3330  11.00000  0.05    0.30
Q9    1   0.8351  0.1825  0.3276  11.00000  0.05    0.29
Q10   1   1.2814 -0.0415  0.3247  11.00000  0.05    0.29
Q11   1   1.8616  0.1994  0.0225  11.00000  0.05    0.28
Q12   1   1.1015 -0.0231  0.3022  11.00000  0.05    0.28
Q13   1   1.1606  0.3190  0.4443  11.00000  0.05    0.28
Q14   1   1.5828 -0.1152  0.4297  11.00000  0.05    0.27
Q15   1   1.4249 -0.0031  0.3369  11.00000  0.05    0.27
Q16   1   1.4244  0.0894  0.1193  11.00000  0.05    0.25
Q17   1   1.8632  0.0610 -0.0574  11.00000  0.05    0.25
Q18   1   0.7248  0.4347  0.2327  11.00000  0.05    0.25
Q19   1  -0.1747  0.6116  0.2111  11.00000  0.05    0.25
Q20   1   1.4048  0.0149  0.3110  11.00000  0.05    0.25
Q21   1   0.1860  0.3359  0.1068  11.00000  0.05    0.25
Q22   1   1.1216 -0.1338  0.4206  11.00000  0.05    0.24
Q23   1  -0.0229  0.5690  0.0684  11.00000  0.05    0.24
Q24   1  -0.0205  0.5831  0.1117  11.00000  0.05    0.24
Q25   1   0.3382  0.4763  0.1623  11.00000  0.05    0.24
Q26   1   0.3971  0.5253  0.3598  11.00000  0.05    0.23
Q27   1  -0.3938  0.4832  0.1404  11.00000  0.05    0.23
Q28   1   1.2385 -0.1070  0.4804  11.00000  0.05    0.23
Q29   1   1.2414 -0.0977  0.3311  11.00000  0.05    0.23
Q30   1   0.0141  0.4633  0.0948  11.00000  0.05    0.22
;
_shelx_res_checksum              58989
_shelxl_version_number           2014/6
loop_
_space_group_symop_operation_xyz
'x, y, z'
'-x, -y, -z'
loop_
_atom_site_type_symbol
_atom_site_label
_atom_site_fract_x
_atom_site_fract_y
_atom_site_fract_z
_atom_site_U_iso_or_equiv
_atom_site_adp_type
_atom_site_calc_flag
_atom_site_occupancy
Br Br1 -0.20339(9) 0.57194(9) 0.10166(4) 0.0953(3) Uani d 1
S S1 1.28730(15) -0.02081(9) 0.38669(8) 0.0445(3) Uani d 1
O O1 1.1118(5) -0.0558(3) 0.3579(3) 0.0576(8) Uani d 1
O O2 1.4295(5) -0.1215(3) 0.4567(2) 0.0589(8) Uani d 1
O O3 1.1442(5) 0.3354(3) 0.4968(2) 0.0556(7) Uani d 1
N N1 1.2011(5) 0.1081(3) 0.4366(3) 0.0474(8) Uani d 1
H H1N 1.299(6) 0.126(5) 0.461(3) 0.057 Uiso d 1
N N2 0.8305(5) 0.4350(3) 0.4310(3) 0.0480(8) Uani d 1
H H2N 0.819(8) 0.506(3) 0.453(4) 0.058 Uiso d 1
N N3 0.6785(5) 0.4316(3) 0.3702(3) 0.0449(7) Uani d 1
C C1 1.4255(6) 0.0332(4) 0.2760(3) 0.0462(8) Uani d 1
C C2 1.3419(8) 0.0558(6) 0.1830(4) 0.0627(11) Uani d 1
H H2 1.2144 0.0388 0.1779 0.075 Uiso calc 1
C C3 1.4493(9) 0.1039(6) 0.0974(4) 0.0728(14) Uani d 1
H H3 1.3917 0.1197 0.0347 0.087 Uiso calc 1
C C4 1.6395(9) 0.1292(6) 0.1023(4) 0.0706(13) Uani d 1
C C5 1.7183(8) 0.1063(7) 0.1958(4) 0.0766(15) Uani d 1
H H5 1.8454 0.1239 0.2009 0.092 Uiso calc 1
C C6 1.6157(8) 0.0581(6) 0.2830(4) 0.0642(12) Uani d 1
H H6 1.6736 0.0426 0.3455 0.077 Uiso calc 1
C C7 1.0185(6) 0.2139(4) 0.3981(3) 0.0423(8) Uani d 1
H H7A 0.8973 0.1779 0.4151 0.051 Uiso calc 1
H H7B 1.0283 0.2442 0.3255 0.051 Uiso calc 1
C C8 1.0042(6) 0.3327(4) 0.4459(3) 0.0420(8) Uani d 1
C C9 0.5226(6) 0.5345(4) 0.3590(3) 0.0479(9) Uani d 1
H H9 0.5174 0.6050 0.3909 0.057 Uiso calc 1
C C10 0.3521(6) 0.5425(4) 0.2965(3) 0.0433(8) Uani d 1
C C11 0.3568(7) 0.4457(4) 0.2404(4) 0.0549(10) Uani d 1
H H11 0.4730 0.3730 0.2425 0.066 Uiso calc 1
C C12 0.1944(8) 0.4554(5) 0.1823(4) 0.0580(10) Uani d 1
H H12 0.1998 0.3904 0.1452 0.070 Uiso calc 1
C C13 0.0231(7) 0.5633(5) 0.1800(3) 0.0573(11) Uani d 1
C C14 0.0112(7) 0.6600(5) 0.2330(4) 0.0609(11) Uani d 1
H H14 -0.1062 0.7319 0.2304 0.073 Uiso calc 1
C C15 0.1764(7) 0.6501(4) 0.2910(4) 0.0543(10) Uani d 1
H H15 0.1696 0.7166 0.3269 0.065 Uiso calc 1
C C16 1.7529(13) 0.1854(9) 0.0072(6) 0.111(3) Uani d 1
H H16A 1.8960 0.1380 0.0121 0.166 Uiso calc 1
H H16B 1.7386 0.2823 -0.0003 0.166 Uiso calc 1
H H16C 1.6957 0.1712 -0.0501 0.166 Uiso calc 1
loop_
_atom_site_aniso_label
_atom_site_aniso_U_11
_atom_site_aniso_U_22
_atom_site_aniso_U_33
_atom_site_aniso_U_12
_atom_site_aniso_U_13
_atom_site_aniso_U_23
Br1 0.0571(4) 0.1590(8) 0.0725(4) -0.0313(4) -0.0170(3) -0.0229(4)
S1 0.0415(5) 0.0401(5) 0.0563(6) -0.0111(4) -0.0044(4) -0.0172(4)
O1 0.0469(16) 0.0546(16) 0.082(2) -0.0194(13) -0.0044(15) -0.0285(15)
O2 0.0578(18) 0.0475(16) 0.069(2) -0.0120(13) -0.0107(15) -0.0077(14)
O3 0.0468(16) 0.0561(16) 0.0724(19) -0.0062(12) -0.0159(14) -0.0330(15)
N1 0.0423(18) 0.0519(18) 0.0554(19) -0.0098(14) -0.0048(14) -0.0270(15)
N2 0.0430(18) 0.0445(17) 0.063(2) -0.0067(14) -0.0118(15) -0.0251(15)
N3 0.0419(17) 0.0465(17) 0.0500(17) -0.0117(13) -0.0089(13) -0.0149(14)
C1 0.041(2) 0.0419(19) 0.057(2) -0.0078(15) -0.0052(16) -0.0156(16)
C2 0.050(2) 0.084(3) 0.059(3) -0.017(2) -0.004(2) -0.024(2)
C3 0.072(3) 0.093(4) 0.054(3) -0.019(3) -0.005(2) -0.019(3)
C4 0.065(3) 0.075(3) 0.067(3) -0.012(2) 0.012(2) -0.018(2)
C5 0.052(3) 0.103(4) 0.081(4) -0.031(3) 0.010(2) -0.026(3)
C6 0.053(3) 0.087(3) 0.059(3) -0.027(2) -0.004(2) -0.020(2)
C7 0.044(2) 0.0437(19) 0.0452(19) -0.0153(15) -0.0014(15) -0.0172(15)
C8 0.043(2) 0.0416(18) 0.0445(19) -0.0107(15) -0.0037(15) -0.0154(15)
C9 0.046(2) 0.046(2) 0.057(2) -0.0123(16) -0.0029(17) -0.0205(17)
C10 0.042(2) 0.0406(18) 0.049(2) -0.0108(15) -0.0046(15) -0.0108(15)
C11 0.052(2) 0.046(2) 0.066(3) -0.0069(18) -0.0077(19) -0.0163(19)
C12 0.062(3) 0.062(3) 0.059(2) -0.022(2) -0.008(2) -0.020(2)
C13 0.051(2) 0.072(3) 0.049(2) -0.023(2) -0.0079(18) -0.004(2)
C14 0.046(2) 0.063(3) 0.066(3) -0.003(2) -0.003(2) -0.012(2)
C15 0.050(2) 0.049(2) 0.068(3) -0.0106(18) 0.0013(19) -0.023(2)
C16 0.105(6) 0.134(6) 0.084(4) -0.039(5) 0.036(4) -0.010(4)
loop_
_atom_type_symbol
_atom_type_description
_atom_type_scat_dispersion_real
_atom_type_scat_dispersion_imag
_atom_type_scat_source
C C 0.0033 0.0016 'International Tables Vol C Tables 4.2.6.8 and 6.1.1.4'
H H 0.0000 0.0000 'International Tables Vol C Tables 4.2.6.8 and 6.1.1.4'
Br Br -0.2901 2.4595 'International Tables Vol C Tables 4.2.6.8 and 6.1.1.4'
N N 0.0061 0.0033 'International Tables Vol C Tables 4.2.6.8 and 6.1.1.4'
O O 0.0106 0.0060 'International Tables Vol C Tables 4.2.6.8 and 6.1.1.4'
S S 0.1246 0.1234 'International Tables Vol C Tables 4.2.6.8 and 6.1.1.4'
loop_
_geom_angle_atom_site_label_1
_geom_angle_atom_site_label_2
_geom_angle_atom_site_label_3
_geom_angle
O1 S1 O2 119.49(19)
O1 S1 N1 106.59(18)
O2 S1 N1 106.38(19)
O1 S1 C1 107.7(2)
O2 S1 C1 107.90(19)
N1 S1 C1 108.41(18)
C7 N1 S1 120.8(3)
C7 N1 H1N 122(3)
S1 N1 H1N 110(3)
C8 N2 N3 120.2(3)
C8 N2 H2N 120(4)
N3 N2 H2N 119(4)
C9 N3 N2 115.4(3)
C2 C1 C6 119.9(4)
C2 C1 S1 120.4(3)
C6 C1 S1 119.6(3)
C1 C2 C3 119.4(5)
C1 C2 H2 120.3
C3 C2 H2 120.3
C4 C3 C2 121.8(5)
C4 C3 H3 119.1
C2 C3 H3 119.1
C5 C4 C3 117.5(5)
C5 C4 C16 121.5(6)
C3 C4 C16 121.0(6)
C4 C5 C6 122.3(5)
C4 C5 H5 118.8
C6 C5 H5 118.8
C5 C6 C1 119.1(5)
C5 C6 H6 120.5
C1 C6 H6 120.5
N1 C7 C8 107.4(3)
N1 C7 H7A 110.2
C8 C7 H7A 110.2
N1 C7 H7B 110.2
C8 C7 H7B 110.2
H7A C7 H7B 108.5
O3 C8 N2 121.5(3)
O3 C8 C7 121.3(3)
N2 C8 C7 117.2(3)
N3 C9 C10 120.4(3)
N3 C9 H9 119.8
C10 C9 H9 119.8
C15 C10 C11 117.6(4)
C15 C10 C9 119.7(4)
C11 C10 C9 122.7(4)
C12 C11 C10 121.6(4)
C12 C11 H11 119.2
C10 C11 H11 119.2
C11 C12 C13 118.6(4)
C11 C12 H12 120.7
C13 C12 H12 120.7
C14 C13 C12 122.0(4)
C14 C13 Br1 120.1(4)
C12 C13 Br1 117.9(3)
C13 C14 C15 119.1(4)
C13 C14 H14 120.5
C15 C14 H14 120.5
C14 C15 C10 121.1(4)
C14 C15 H15 119.4
C10 C15 H15 119.4
C4 C16 H16A 109.5
C4 C16 H16B 109.5
H16A C16 H16B 109.5
C4 C16 H16C 109.5
H16A C16 H16C 109.5
H16B C16 H16C 109.5
loop_
_geom_bond_atom_site_label_1
_geom_bond_atom_site_label_2
_geom_bond_distance
Br1 C13 1.903(4)
S1 O1 1.430(3)
S1 O2 1.432(3)
S1 N1 1.603(3)
S1 C1 1.763(4)
O3 C8 1.225(5)
N1 C7 1.450(5)
N1 H1N 0.843(19)
N2 C8 1.347(5)
N2 N3 1.382(4)
N2 H2N 0.850(19)
N3 C9 1.273(5)
C1 C2 1.376(6)
C1 C6 1.383(6)
C2 C3 1.383(7)
C2 H2 0.9300
C3 C4 1.381(8)
C3 H3 0.9300
C4 C5 1.369(8)
C4 C16 1.523(8)
C5 C6 1.381(7)
C5 H5 0.9300
C6 H6 0.9300
C7 C8 1.508(5)
C7 H7A 0.9700
C7 H7B 0.9700
C9 C10 1.459(6)
C9 H9 0.9300
C10 C15 1.390(6)
C10 C11 1.398(6)
C11 C12 1.371(6)
C11 H11 0.9300
C12 C13 1.377(7)
C12 H12 0.9300
C13 C14 1.357(7)
C14 C15 1.385(7)
C14 H14 0.9300
C15 H15 0.9300
C16 H16A 0.9600
C16 H16B 0.9600
C16 H16C 0.9600
loop_
_geom_hbond_atom_site_label_D
_geom_hbond_atom_site_label_H
_geom_hbond_atom_site_label_A
_geom_hbond_site_symmetry_A
_geom_hbond_distance_DH
_geom_hbond_distance_HA
_geom_hbond_distance_DA
_geom_hbond_angle_DHA
N1 H1N O2 2_856 0.843(19) 2.20(2) 3.031(5) 167(5)
N2 H2N O3 2_766 0.850(19) 2.00(2) 2.834(4) 168(5)
C15 H15 O1 1_465 0.93 2.42 3.301(5) 158.2
loop_
_geom_torsion_atom_site_label_1
_geom_torsion_atom_site_label_2
_geom_torsion_atom_site_label_3
_geom_torsion_atom_site_label_4
_geom_torsion
O1 S1 N1 C7 -36.3(4)
O2 S1 N1 C7 -164.8(3)
C1 S1 N1 C7 79.4(3)
C8 N2 N3 C9 -178.5(4)
O1 S1 C1 C2 9.9(4)
O2 S1 C1 C2 140.1(4)
N1 S1 C1 C2 -105.0(4)
O1 S1 C1 C6 -172.6(4)
O2 S1 C1 C6 -42.4(4)
N1 S1 C1 C6 72.4(4)
C6 C1 C2 C3 -0.3(7)
S1 C1 C2 C3 177.2(4)
C1 C2 C3 C4 0.5(8)
C2 C3 C4 C5 -0.7(9)
C2 C3 C4 C16 -178.5(6)
C3 C4 C5 C6 0.9(9)
C16 C4 C5 C6 178.6(6)
C4 C5 C6 C1 -0.7(9)
C2 C1 C6 C5 0.4(7)
S1 C1 C6 C5 -177.1(4)
S1 N1 C7 C8 -168.5(3)
N3 N2 C8 O3 177.5(4)
N3 N2 C8 C7 -3.0(6)
N1 C7 C8 O3 8.2(5)
N1 C7 C8 N2 -171.4(3)
N2 N3 C9 C10 -180.0(4)
N3 C9 C10 C15 175.2(4)
N3 C9 C10 C11 -5.0(6)
C15 C10 C11 C12 -0.3(7)
C9 C10 C11 C12 179.9(4)
C10 C11 C12 C13 -0.2(7)
C11 C12 C13 C14 0.3(7)
C11 C12 C13 Br1 -178.4(4)
C12 C13 C14 C15 0.1(7)
Br1 C13 C14 C15 178.8(4)
C13 C14 C15 C10 -0.7(7)
C11 C10 C15 C14 0.8(7)
C9 C10 C15 C14 -179.4(4)

_cod_database_fobs_code 2021325
