#------------------------------------------------------------------------------
#$Date: 2019-02-13 05:30:19 +0200 (Wed, 13 Feb 2019) $
#$Revision: 213617 $
#$URL: file:///home/coder/svn-repositories/cod/cif/2/02/14/2021480.cif $
#------------------------------------------------------------------------------
#
# This file is available in the Crystallography Open Database (COD),
# http://www.crystallography.net/. The original data for this entry
# were provided by IUCr Journals, http://journals.iucr.org/.
#
# The file may be used within the scientific community so long as
# proper attribution is given to the journal article from which the
# data were obtained.
#
data_2021480
loop_
_publ_author_name
'R\'adai, Zita'
'Kiss, N\'ora Zsuzsa'
'Czugler, M\'aty\'as'
'Karaghiosoff, Konstantin'
'Keglevich, Gy\"orgy'
_publ_section_title
;
 The typical crystal structures of a few representative
 \a-aryl-\a-hydroxyphosphonates
;
_journal_coeditor_code           KU3235
_journal_issue                   3
_journal_name_full               'Acta Crystallographica Section C'
_journal_page_first
;
;
_journal_paper_doi               10.1107/S2053229619001839
_journal_volume                  75
_journal_year                    2019
_chemical_formula_iupac          'C10 H14 N O6 P'
_chemical_formula_moiety         'C10 H14 N O6 P'
_chemical_formula_sum            'C10 H14 N O6 P'
_chemical_formula_weight         275.19
_chemical_name_common            2b
_chemical_name_systematic
;
Dimethyl [1-hydroxy-1-(4-nitrophenyl)ethyl]phosphonate
;
_space_group_crystal_system      triclinic
_space_group_IT_number           2
_space_group_name_Hall           '-P 1'
_space_group_name_H-M_alt        'P -1'
_symmetry_space_group_name_Hall  '-P 1'
_symmetry_space_group_name_H-M   'P -1'
_atom_sites_solution_hydrogens   mixed
_audit_creation_method           SHELXL-2014
_cell_angle_alpha                102.173(5)
_cell_angle_beta                 94.897(4)
_cell_angle_gamma                107.504(5)
_cell_formula_units_Z            2
_cell_length_a                   8.1800(4)
_cell_length_b                   8.4006(6)
_cell_length_c                   9.9661(4)
_cell_measurement_reflns_used    3426
_cell_measurement_temperature    173(2)
_cell_measurement_theta_max      31.2800
_cell_measurement_theta_min      4.6200
_cell_volume                     630.26(7)
_computing_cell_refinement
;
CrysAlis PRO (Agilent, 2014)
;
_computing_data_collection
;
CrysAlis PRO (Agilent, 2014)
;
_computing_data_reduction
;
CrysAlis PRO (Agilent, 2014)
;
_computing_molecular_graphics
;
ORTEP (Burnett & Johnson, 1996), ORTEP-3 (Farrugia, 2012),
PLATON (Spek, 2009) and DIAMOND (Brandenburg, 1999)
;
_computing_publication_material
;
PLATON (Spek, 2009)
;
_computing_structure_refinement
;
SHELXL2014 (Sheldrick, 2015b)
;
_computing_structure_solution
;
SHELXT (Sheldrick, 2015a)
;
_diffrn_ambient_temperature      173(2)
_diffrn_detector_area_resol_mean 15.9809
_diffrn_measured_fraction_theta_full 0.990
_diffrn_measured_fraction_theta_max 0.994
_diffrn_measurement_device_type  'Agilent Xcalibur Sapphire3'
_diffrn_measurement_method       '\w scans'
_diffrn_radiation_type           MoK\a
_diffrn_radiation_wavelength     0.71073
_diffrn_reflns_av_R_equivalents  0.0282
_diffrn_reflns_av_unetI/netI     0.0307
_diffrn_reflns_limit_h_max       11
_diffrn_reflns_limit_h_min       -11
_diffrn_reflns_limit_k_max       11
_diffrn_reflns_limit_k_min       -11
_diffrn_reflns_limit_l_max       14
_diffrn_reflns_limit_l_min       -14
_diffrn_reflns_number            12564
_diffrn_reflns_theta_full        25.242
_diffrn_reflns_theta_max         30.508
_diffrn_reflns_theta_min         4.238
_diffrn_source                   'Enhance (Mo) X-ray Source'
_exptl_absorpt_coefficient_mu    0.237
_exptl_absorpt_correction_T_max  1.00000
_exptl_absorpt_correction_T_min  0.94805
_exptl_absorpt_correction_type   multi-scan
_exptl_absorpt_process_details
;
(CrysAlis PRO; Agilent, 2014)
;
_exptl_crystal_colour            colorless
_exptl_crystal_density_diffrn    1.450
_exptl_crystal_description       block
_exptl_crystal_F_000             288
_exptl_crystal_size_max          0.400
_exptl_crystal_size_mid          0.350
_exptl_crystal_size_min          0.200
_refine_diff_density_max         0.342
_refine_diff_density_min         -0.281
_refine_ls_extinction_method     none
_refine_ls_goodness_of_fit_ref   1.030
_refine_ls_hydrogen_treatment    mixed
_refine_ls_matrix_type           full
_refine_ls_number_parameters     176
_refine_ls_number_reflns         3827
_refine_ls_number_restraints     0
_refine_ls_restrained_S_all      1.030
_refine_ls_R_factor_all          0.0562
_refine_ls_R_factor_gt           0.0412
_refine_ls_shift/su_max          0.000
_refine_ls_shift/su_mean         0.000
_refine_ls_structure_factor_coef Fsqd
_refine_ls_weighting_details
'w=1/[\s^2^(Fo^2^)+(0.0555P)^2^+0.1729P] where P=(Fo^2^+2Fc^2^)/3'
_refine_ls_weighting_scheme      calc
_refine_ls_wR_factor_gt          0.1026
_refine_ls_wR_factor_ref         0.1138
_reflns_number_gt                3070
_reflns_number_total             3827
_reflns_threshold_expression     'I > 2\s(I)'
_cod_data_source_file            ku3235sup1.cif
_cod_data_source_block           2b
_cod_original_cell_volume        630.26(6)
_cod_database_code               2021480
_shelx_space_group_comment
;
The symmetry employed for this shelxl refinement is uniquely defined
by the following loop, which should always be used as a source of
symmetry information in preference to the above space-group names.
They are only intended as comments.
;
_shelx_estimated_absorpt_t_min   0.911
_shelx_estimated_absorpt_t_max   0.954
_shelx_hkl_file
;
   0   0  -2  477.90    3.89
   0   0  -2  494.00    6.38
   0   0  -2  483.64    6.82
   0   0  -3  480.13    8.49
   0   0  -3  479.52    7.79
   0   0  -3  485.79    8.50
   0   0  -3  515.93    6.32
   0   0   3  485.33    4.83
   0   0  -4  353.31    8.52
   0   0  -4  352.38    6.05
   0   0  -4  346.10    7.69
   0   0   4  345.10    4.70
   0   0  -4  354.26    8.46
   0   0  -5  103.86    5.26
   0   0  -5  107.95    4.91
   0   0   5  102.54    2.87
   0   0  -5  107.83    3.73
   0   0  -5  106.31    5.40
   0   0  -6  103.51    5.31
   0   0  -6  106.51    5.91
   0   0  -6  104.96    5.81
   0   0   6  103.90    3.11
   0   0   6  105.04    4.49
   0   0  -6  103.20    3.98
   0   0  -7   -0.26    1.27
   0   0   7   -0.67    0.78
   0   0  -7   -0.60    1.18
   0   0  -7    0.04    1.46
   0   0   7   -0.29    0.47
   0   0  -8    5.33    2.38
   0   0   8    8.12    1.63
   0   0  -8    3.18    1.85
   0   0  -8    5.35    1.88
   0   0   9    0.25    0.96
   0   0  -9   -0.63    1.91
   0   0  -9    0.02    1.47
   0   0  -9   -0.42    1.93
   0   0   9    0.81    0.95
   0   0  10  137.56    7.43
   0   0 -10  137.76    9.14
   0   0  10  121.40    8.20
   0   0 -10  129.98    8.88
   0   0  10  116.02    7.37
   0   0 -10  114.42    7.82
   0   0 -11  173.82   10.88
   0   0  11  160.63    9.13
   0   0 -11  154.52   10.36
   0   0  11  173.76   10.40
   0   0  11  174.03    8.87
   0   0  12   19.86    4.25
   0   0 -12    8.95    3.13
   0   0  12   14.45    3.05
   0   0 -13   17.50    4.31
   0   0  13   21.48    4.53
   0   0 -14    4.42    3.16
   0   1 -14   16.16    4.58
   0  -1  14   13.40    4.17
   0   1 -13    7.51    3.36
   0  -1  13   15.27    3.94
   0  -1  13   11.95    2.91
   0   1 -12    3.26    1.98
   0  -1  12    1.97    1.59
   0  -1  12    1.08    1.66
   0  -1  12    1.84    2.10
   0   1 -12    5.53    3.09
   0   1 -11  105.54    7.64
   0  -1  11   97.06    6.96
   0   1 -11  108.21    8.83
   0  -1  10  152.04    8.05
   0   1 -10  151.55    8.52
   0   1 -10  156.82    9.76
   0  -1   9  268.37    9.99
   0   1  -9  273.76    8.59
   0   1  -9  257.71   11.74
   0  -1   9  248.12    7.96
   0   1  -9  270.57   10.45
   0  -1   8   16.22    2.57
   0   1  -8   10.10    2.92
   0  -1   8   12.25    1.43
   0   1  -8   11.17    2.26
   0   1  -8   13.62    2.04
   0  -1   8   15.57    1.97
   0  -1   7   10.17    1.95
   0   1  -7    7.97    1.75
   0   1  -7   10.15    2.32
   0   1  -7   12.20    1.79
   0   1  -7   10.64    2.49
   0   1  -6  191.70    6.88
   0   1  -6  191.18    6.04
   0   1  -6  193.76    7.95
   0   1  -6  183.89    7.47
   0  -1   6  187.82    3.01
   0   1  -5  184.25    6.78
   0   1  -5  190.09    7.21
   0   1  -5  197.12    5.66
   0   1  -5  190.39    6.16
   0  -1   5  194.72    3.30
   0  -1   4   17.11    1.04
   0   1  -4   16.26    2.02
   0   1  -4   17.94    1.76
   0   1  -4   14.76    1.53
   0  -1   3  360.41    4.52
   0   1  -3  353.78    6.26
   0   1  -3  371.72    7.62
   0  -1   3  346.09    6.52
   0   1  -3  360.01    6.28
   0   1  -2 1122.15    8.97
   0   1  -2 1112.29    9.72
   0  -1   2 1134.22    7.91
   0   1  -2 1123.28   11.00
   0  -1   2 1144.13   10.09
   0   1   2  671.26    7.16
   0  -1  -2  672.05    6.27
   0   1   2  654.45    8.31
   0  -1  -2  674.17    7.98
   0   1   2  647.87    8.32
   0  -1  -2  668.18    9.36
   0   1   2  677.58    5.79
   0  -1  -3  655.24    9.69
   0  -1  -3  660.67   10.91
   0   1   3  654.89    9.43
   0   1   3  671.23    8.76
   0  -1  -3  662.35   10.22
   0  -1  -3  672.40    6.14
   0   1   3  658.31    6.16
   0   1   3  659.19    9.92
   0  -1  -4  124.42    2.82
   0   1   4  122.63    4.35
   0   1   4  120.98    4.57
   0  -1  -4  123.08    5.44
   0   1   4  127.88    5.09
   0  -1  -4  116.46    4.88
   0  -1  -4  121.04    5.01
   0   1   4  119.91    2.83
   0   1   5    1.48    0.79
   0  -1  -5    0.43    1.04
   0   1   5    0.48    1.07
   0   1   5    0.93    0.75
   0  -1  -5    0.06    0.32
   0  -1  -5    0.99    1.17
   0   1   5    0.31    0.28
   0  -1  -5    1.00    1.35
   0  -1  -6  190.36    3.93
   0   1   6  192.16    7.70
   0  -1  -6  196.68    7.77
   0   1   6  193.98    6.80
   0   1   6  184.83    3.95
   0  -1  -6  198.29    8.44
   0   1   6  186.80    6.69
   0  -1  -6  207.71    8.00
   0   1   7  350.71   10.07
   0  -1  -7  352.11   12.10
   0  -1  -7  348.43   11.31
   0  -1  -7  365.53   11.53
   0   1   7  373.79   11.67
   0   1   7  350.78    9.81
   0  -1  -8  157.47    8.91
   0   1   8  151.37    8.08
   0  -1  -8  152.66    8.10
   0   1   8  153.26    6.98
   0  -1  -8  158.81    8.38
   0   1   8  148.93    7.08
   0  -1  -9  119.41    7.81
   0   1   9  114.84    6.49
   0   1   9  109.51    6.55
   0   1   9  113.12    7.69
   0  -1  -9  104.66    7.89
   0  -1 -10   11.21    3.47
   0  -1 -10   11.88    3.26
   0   1  10   12.76    2.61
   0   1  10   13.44    3.19
   0   1  10    9.92    2.20
   0   1  11   10.26    3.06
   0  -1 -11    7.91    3.14
   0  -1 -11    8.22    2.97
   0  -1 -12   34.08    5.41
   0   1  12   37.24    5.49
   0  -1 -12   37.37    5.58
   0   1  13    2.54    2.44
   0  -1 -13   -3.16    2.45
   0  -1 -13    0.74    1.89
   0  -1 -14    4.62    2.56
   0  -2  14   -1.54    2.30
   0  -2  14   -0.13    0.37
   0   2 -13   40.26    5.33
   0  -2  13   42.60    5.41
   0   2 -13   46.08    6.73
   0   2 -12   77.47    8.05
   0   2 -12   72.39    6.69
   0  -2  12   61.72    6.22
   0   2 -11   61.62    5.70
   0   2 -11   58.42    6.68
   0  -2  11   53.41    5.39
   0   2 -11   58.62    4.82
   0   2 -10   10.37    2.15
   0   2 -10    6.78    2.71
   0   2 -10    8.42    2.48
   0  -2  10    7.21    2.31
   0   2  -9  367.83   14.00
   0   2  -9  389.49   11.05
   0  -2   9  376.19   12.30
   0   2  -9  371.56   11.99
   0   2  -8   11.15    2.04
   0  -2   8    8.66    2.12
   0   2  -8   12.00    2.19
   0   2  -8   10.51    2.79
   0   2  -7  211.52    7.37
   0  -2   7  198.79    7.88
   0   2  -7  218.02    9.35
   0  -2   7  226.20    4.87
   0   2  -7  226.84    7.94
   0   2  -6   14.81    2.62
   0   2  -6   12.68    1.83
   0  -2   6   13.36    2.07
   0  -2   6   17.05    1.43
   0   2  -6   14.18    1.98
   0   2  -5  655.14   11.31
   0  -2   5  645.69    8.58
   0  -2   5  618.65   11.77
   0   2  -5  634.98   13.30
   0   2  -5  617.97   10.73
   0   2  -4    1.19    0.85
   0  -2   4    1.93    1.09
   0   2  -4    1.65    0.76
   0   2  -4    1.33    1.10
   0  -2   4    2.28    0.73
   0  -2   3  113.02    4.25
   0  -2   3  117.47    3.66
   0   2  -3  112.01    4.07
   0   2  -3  109.51    3.54
   0   2  -3  108.33    4.35
   0   2  -2 7134.21   23.99
   0  -2   2 6928.31   29.73
   0   2  -2 7074.53   24.68
   0   2  -2 6797.83   28.71
   0   2  -1 1069.10    9.83
   0  -2   1 1048.16   10.62
   0   2  -1 1045.01   10.17
   0  -2   1 1042.13   10.81
   0  -2   0  343.72    5.68
   0   2   0  368.42    5.46
   0   2   0  347.35    5.21
   0  -2   0  346.04    6.22
   0   2   0  363.35    6.31
   0  -2  -1 1756.74   14.16
   0  -2  -1 1741.09    9.75
   0   2   1 1774.79   11.65
   0   2   1 1782.77   15.31
   0   2   1 1766.30   10.21
   0  -2  -1 1738.06   12.53
   0   2   2  396.74    6.13
   0  -2  -2  400.44    6.19
   0   2   2  379.49    7.78
   0  -2  -2  377.96    6.66
   0   2   2  379.67    7.25
   0  -2  -2  404.04    8.57
   0   2   3   86.28    4.07
   0  -2  -3   76.64    3.05
   0  -2  -3   82.84    3.48
   0   2   3   82.48    3.21
   0   2   3   81.91    3.88
   0  -2  -3   83.22    4.46
   0   2   4  310.49    5.53
   0   2   4  323.34    8.42
   0  -2  -4  315.46    9.39
   0   2   4  312.88    6.95
   0  -2  -4  303.50    5.36
   0   2   4  304.29    8.27
   0  -2  -4  311.24    7.75
   0  -2  -5   11.37    1.81
   0   2   5   12.72    2.06
   0   2   5   11.66    1.88
   0  -2  -5   12.72    1.18
   0   2   5   12.42    1.16
   0  -2  -5   12.91    2.27
   0   2   5   11.54    1.57
   0  -2  -6  132.48    3.58
   0  -2  -6  134.84    7.42
   0   2   6  131.93    6.22
   0   2   6  128.17    6.56
   0  -2  -6  128.18    6.24
   0   2   6  133.80    5.66
   0   2   7   80.70    5.28
   0  -2  -7   85.84    6.62
   0   2   7   84.05    5.85
   0  -2  -7   83.00    5.56
   0   2   7   90.58    5.06
   0   2   8    1.56    1.64
   0   2   8    0.16    1.10
   0   2   8    1.12    1.04
   0  -2  -8    0.72    1.49
   0  -2  -8   -0.63    2.32
   0   2   9   50.09    4.63
   0  -2  -9   41.67    5.26
   0   2   9   48.03    5.20
   0  -2  -9   46.59    5.02
   0   2   9   46.83    4.23
   0   2  10   18.89    3.68
   0   2  10   14.04    2.88
   0  -2 -10   11.43    3.71
   0  -2 -10   12.14    3.05
   0  -2 -11   -0.32    1.62
   0  -2 -11    5.35    2.59
   0   2  11    2.80    2.34
   0   2  12    7.21    2.73
   0  -2 -12   11.53    3.18
   0  -2 -12   11.27    3.56
   0   2  13    1.49    1.98
   0   3 -14   -2.86    2.26
   0  -3  14    0.45    1.81
   0   3 -14   -1.90    2.71
   0  -3  13    3.94    2.57
   0   3 -13    6.32    3.55
   0   3 -13    5.46    2.22
   0  -3  12   14.47    3.31
   0   3 -12   17.18    3.40
   0   3 -12   16.75    3.07
   0   3 -12   16.05    4.23
   0   3 -11   65.22    6.98
   0   3 -11   64.86    5.37
   0   3 -11   59.83    5.56
   0  -3  11   57.47    5.80
   0  -3  10   27.71    4.06
   0   3 -10   29.22    3.73
   0   3 -10   28.03    3.52
   0   3 -10   29.66    4.70
   0  -3   9  119.95    7.40
   0   3  -9  131.57    7.02
   0   3  -9  135.26    7.05
   0   3  -9  129.54    8.61
   0   3  -8  936.98   21.11
   0   3  -8  938.75   17.16
   0   3  -8  953.49   17.63
   0  -3   8  946.78   19.18
   0   3  -7  283.95    8.74
   0   3  -7  275.25    9.04
   0   3  -7  273.32   10.62
   0  -3   7  280.39    6.99
   0  -3   7  279.35    9.89
   0   3  -6  241.52    8.01
   0  -3   6  248.47    6.64
   0   3  -6  236.22    7.35
   0   3  -6  245.38    9.30
   0  -3   6  254.80    8.86
   0   3  -5   45.94    3.40
   0   3  -5   48.26    3.10
   0   3  -5   49.47    3.97
   0  -3   5   52.66    3.10
   0  -3   5   51.99    3.80
   0   3  -4 1350.30   16.84
   0   3  -4 1373.40   18.07
   0  -3   4 1358.98   15.29
   0  -3   4 1331.11   17.48
   0   3  -4 1342.92   14.38
   0  -3   3 3943.39   25.97
   0   3  -3 3954.23   26.99
   0   3  -3 3955.96   27.26
   0   3  -3 3974.09   22.80
   0   3  -3 4019.94   22.35
   0  -3   3 3988.41   28.01
   0   3  -2   23.86    1.82
   0   3  -2   26.39    2.16
   0  -3   2   21.67    2.06
   0  -3   2   23.59    2.12
   0   3  -1   26.71    1.97
   0   3  -1   28.59    2.09
   0  -3   1   28.94    2.37
   0  -3   1   23.82    2.01
   0  -3   0   44.95    2.83
   0  -3   0   40.08    2.48
   0   3   0   39.03    2.61
   0   3   0   39.24    2.25
   0   3   0   40.39    2.23
   0   3   1  336.91    5.82
   0   3   1  358.52    8.30
   0   3   1  373.37    6.57
   0  -3  -1  366.96    7.96
   0  -3  -1  355.46    4.94
   0  -3  -1  350.49    6.96
   0   3   2   85.81    2.62
   0  -3  -2   92.13    3.03
   0   3   2   90.99    3.37
   0  -3  -2   94.01    4.12
   0  -3  -2   85.82    3.50
   0   3   2   88.01    4.50
   0   3   3  385.99    4.97
   0   3   3  361.28    8.76
   0  -3  -3  380.97   10.49
   0  -3  -3  390.46    8.32
   0   3   3  399.70    7.50
   0   3   3  386.83    9.86
   0  -3  -3  370.50    7.22
   0   3   4  128.33    2.63
   0  -3  -4  138.73    6.87
   0   3   4  130.89    6.13
   0   3   4  132.44    5.86
   0   3   4  136.63    4.82
   0  -3  -4  133.57    5.03
   0  -3  -5  148.38    5.99
   0  -3  -5  153.30    4.59
   0   3   5  147.17    6.86
   0   3   5  152.78    5.58
   0   3   5  148.61    6.81
   0  -3  -5  147.48    7.77
   0   3   6   75.45    5.31
   0  -3  -6   76.05    6.10
   0  -3  -6   76.15    4.83
   0   3   6   68.89    4.11
   0  -3  -6   72.29    3.12
   0   3   6   72.66    5.21
   0  -3  -7  513.14   16.36
   0   3   7  522.13   14.64
   0  -3  -7  514.20   13.46
   0   3   7  497.58   11.76
   0   3   7  508.70   14.25
   0   3   8   29.35    3.99
   0  -3  -8   30.43    4.61
   0   3   8   31.43    3.90
   0  -3  -8   25.58    3.50
   0  -3  -9   17.74    3.84
   0  -3  -9   18.39    3.25
   0   3   9   16.08    3.35
   0   3   9   16.06    3.06
   0  -3 -10    2.57    2.62
   0   3  10    4.57    2.16
   0   3  10    4.36    2.13
   0   3  11    0.83    2.13
   0  -3 -11   -0.76    2.47
   0  -3 -12    2.46    2.39
   0   3  12    2.55    1.87
   0  -4  14   28.79    4.94
   0   4 -14   24.25    5.46
   0   4 -13   -1.20    1.58
   0   4 -13    3.70    1.83
   0  -4  13    0.51    1.80
   0   4 -12   -3.21    1.98
   0  -4  12    1.00    1.99
   0   4 -12   -2.03    1.69
   0   4 -12   -1.36    2.50
   0  -4  11   26.27    4.34
   0   4 -11   18.30    4.41
   0   4 -11   27.41    3.94
   0   4 -11   27.46    3.80
   0   4 -10   50.89    4.69
   0   4 -10   45.70    4.67
   0  -4  10   46.80    5.25
   0   4 -10   53.73    6.18
   0   4  -9  119.50    6.61
   0   4  -9  136.96    7.61
   0  -4   9  119.15    7.73
   0   4  -9  133.62    8.82
   0   4  -8  193.87    7.82
   0   4  -8  182.83    9.66
   0  -4   8  189.04    9.18
   0  -4   8  206.11    7.05
   0   4  -8  191.28    8.52
   0  -4   7    0.69    0.98
   0   4  -7    0.73    1.36
   0   4  -7   -1.01    1.79
   0   4  -7    0.96    1.17
   0  -4   7   -0.72    1.68
   0  -4   6   30.64    2.80
   0   4  -6   24.19    2.52
   0   4  -6   25.99    3.01
   0   4  -6   27.13    3.33
   0  -4   6   32.55    3.55
   0   4  -5    0.36    1.25
   0  -4   5    0.49    0.92
   0   4  -5    0.26    0.65
   0  -4   5    0.26    1.26
   0   4  -5    1.25    1.17
   0   4  -4  286.56    6.92
   0   4  -4  284.73    8.54
   0  -4   4  300.92    8.40
   0   4  -4  298.62    8.72
   0  -4   4  286.94    8.94
   0   4  -4  281.97    7.10
   0  -4   3  179.56    6.73
   0  -4   3  183.44    6.59
   0   4  -3  181.26    5.65
   0   4  -3  186.87    6.53
   0   4  -3  175.79    5.43
   0   4  -2 1059.09   14.69
   0   4  -2 1093.36   14.28
   0  -4   2 1059.42   15.45
   0  -4   2 1077.38   15.80
   0   4  -1   39.34    2.92
   0   4  -1   34.17    2.55
   0  -4   1   36.26    2.87
   0  -4   1   37.62    3.08
   0  -4   0  150.33    5.93
   0  -4   0  137.99    5.21
   0   4   0  137.78    5.63
   0   4   0  139.37    4.66
   0   4   1   29.29    2.90
   0  -4  -1   32.67    2.87
   0  -4  -1   28.84    1.56
   0  -4  -1   31.49    2.53
   0   4   1   31.77    2.31
   0   4   1   32.47    2.14
   0  -4  -2  394.97    6.29
   0   4   2  416.34   10.90
   0  -4  -2  405.93    8.62
   0   4   2  409.80    6.79
   0   4   2  403.67    7.97
   0  -4  -2  400.82    9.77
   0  -4  -3   11.73    2.47
   0   4   3   13.60    1.62
   0   4   3   13.54    2.32
   0  -4  -3    9.18    1.76
   0   4   3    8.59    0.94
   0  -4  -3    8.85    1.21
   0  -4  -4    0.35    1.68
   0   4   4    0.33    1.25
   0  -4  -4    1.01    0.79
   0  -4  -4    2.70    1.13
   0   4   4    0.85    0.81
   0  -4  -5   -0.09    1.05
   0  -4  -5    2.02    1.90
   0   4   5    1.42    1.49
   0   4   5    0.90    0.92
   0   4   6   10.20    2.34
   0  -4  -6   11.36    2.95
   0   4   6   10.87    1.84
   0   4   6    8.14    2.44
   0  -4  -6    7.31    1.60
   0   4   7   45.58    4.82
   0  -4  -7   46.68    5.52
   0   4   7   46.75    4.81
   0   4   8  131.64    8.31
   0  -4  -8  117.55    8.96
   0   4   8  114.32    7.91
   0   4   9    4.32    2.28
   0  -4  -9    8.47    3.20
   0   4   9    3.44    2.11
   0   4  10   -0.78    1.41
   0  -4 -10    1.14    2.20
   0   4  11    2.26    1.98
   0  -4 -11    0.31    2.09
   0   4  11    4.85    2.52
   0   4  12   10.40    3.45
   0  -5  14    7.26    2.84
   0   5 -13   73.32    8.59
   0   5 -13   67.13    6.52
   0  -5  13   71.66    7.66
   0   5 -12    4.31    2.14
   0   5 -12   -2.35    1.72
   0   5 -12    8.48    3.40
   0  -5  12    5.09    2.63
   0   5 -11   14.65    3.07
   0   5 -11   10.38    2.46
   0   5 -11    9.75    3.43
   0  -5  11   11.75    3.20
   0   5 -10   10.15    2.70
   0   5 -10   10.33    2.31
   0  -5  10   11.62    3.11
   0   5 -10    9.74    3.41
   0   5  -9  124.09    7.60
   0  -5   9  122.67    8.26
   0   5  -9  129.16    6.89
   0   5  -9  123.35    8.61
   0   5  -8  117.99    7.17
   0   5  -8  115.73    7.80
   0  -5   8  112.34    6.03
   0  -5   8  112.46    7.51
   0   5  -8  119.69    6.27
   0  -5   7   19.63    3.27
   0   5  -7   15.24    2.65
   0   5  -7   14.16    2.28
   0   5  -7   18.21    3.01
   0  -5   7   19.00    2.65
   0   5  -6    2.78    1.57
   0  -5   6    2.21    1.51
   0   5  -6    2.59    1.24
   0  -5   6    2.89    1.31
   0   5  -6    2.90    1.54
   0  -5   5  259.19    9.73
   0   5  -5  270.88    7.57
   0   5  -5  239.67    8.92
   0  -5   5  241.84    8.64
   0   5  -5  249.63    7.51
   0   5  -4   15.78    2.02
   0   5  -4   18.73    2.55
   0  -5   4   16.86    2.62
   0   5  -4   13.01    1.81
   0  -5   4   16.44    2.44
   0  -5   3   92.12    5.37
   0   5  -3   90.31    5.00
   0  -5   3   87.57    5.23
   0   5  -3   96.14    4.78
   0   5  -2  201.75    7.01
   0  -5   2  200.46    7.50
   0   5  -2  206.47    7.18
   0  -5   2  202.32    7.86
   0  -5   1  219.48    7.64
   0   5  -1  211.52    6.85
   0   5  -1  227.89    7.85
   0  -5   1  218.48    8.15
   0   5   0   25.76    2.31
   0   5   0   30.53    3.16
   0  -5   0   28.40    2.79
   0  -5   0   24.48    2.95
   0  -5  -1    0.69    0.34
   0   5   1   -0.08    0.80
   0  -5  -1    0.50    1.23
   0   5   1    0.17    0.69
   0  -5  -1    0.09    0.93
   0   5   1    0.67    1.16
   0   5   2   17.67    2.02
   0  -5  -2   14.99    2.43
   0  -5  -2   15.06    2.07
   0   5   2   14.43    1.58
   0   5   2   12.54    2.31
   0  -5  -2   14.23    1.26
   0  -5  -3    1.86    1.33
   0   5   3    2.37    0.66
   0   5   3    0.64    0.75
   0  -5  -3    1.30    0.53
   0   5   3    0.38    1.21
   0  -5  -3   -0.88    2.22
   0  -5  -4   15.82    2.46
   0   5   4   10.77    2.51
   0  -5  -4   16.68    3.18
   0   5   4   13.02    1.76
   0   5   5   16.25    2.97
   0  -5  -5   16.71    3.42
   0  -5  -6    2.83    2.08
   0   5   6    1.85    1.69
   0   5   7  247.64   11.76
   0  -5  -7  239.09   12.58
   0  -5  -8   -1.10    1.76
   0   5   8    1.23    1.65
   0   5   9    3.08    2.14
   0  -5  -9   10.57    3.73
   0  -5 -10   -1.60    2.20
   0   5  10   -0.73    1.42
   0   5  11   10.51    3.44
   0   6 -14    2.81    2.22
   0  -6  13    8.08    3.36
   0   6 -13    9.39    2.82
   0  -6  12   24.81    4.82
   0   6 -12   23.01    4.28
   0   6 -11  116.31    8.41
   0  -6  11  121.03    9.41
   0  -6  10   60.11    6.59
   0   6 -10   63.26    6.14
   0   6 -10   55.82    4.94
   0   6  -9   12.46    3.04
   0  -6   9    8.44    2.06
   0  -6   9   10.79    2.96
   0   6  -9   11.43    2.36
   0   6  -8   -0.51    1.70
   0  -6   8   -0.82    1.17
   0  -6   8   -0.05    1.69
   0   6  -8    1.04    1.09
   0   6  -7   23.30    3.52
   0  -6   7   28.12    3.51
   0  -6   7   22.71    3.78
   0   6  -7   21.75    2.71
   0   6  -6    4.19    1.93
   0  -6   6    5.30    2.18
   0   6  -6    5.42    1.49
   0  -6   6    3.05    1.39
   0  -6   5   -1.17    1.55
   0   6  -5    0.10    1.09
   0   6  -5   -0.22    1.82
   0  -6   5    0.24    1.54
   0   6  -5    0.07    0.78
   0   6  -4   27.99    3.31
   0   6  -4   26.64    2.71
   0   6  -4   26.30    2.87
   0  -6   4   27.01    3.46
   0  -6   4   26.02    3.39
   0  -6   3   20.90    2.94
   0  -6   3   19.69    3.13
   0   6  -3   18.85    2.70
   0   6  -3   20.55    2.59
   0  -6   2   23.52    3.28
   0  -6   2   21.10    2.92
   0   6  -2   19.72    2.63
   0   6  -2   21.63    2.83
   0   6  -1  316.03    9.14
   0  -6   1  320.68   10.18
   0  -6   1  323.72   11.05
   0   6  -1  320.96   10.47
   0   6   0  400.34   12.08
   0  -6   0  393.44   12.15
   0   6   0  400.43    9.73
   0  -6   0  387.80   10.83
   0   6   1    6.25    1.98
   0  -6  -1    4.87    1.61
   0   6   1    5.26    1.19
   0  -6  -1    5.49    1.91
   0  -6  -2    2.61    1.37
   0  -6  -2    1.69    1.49
   0   6   2    1.35    0.70
   0   6   2    0.58    0.75
   0   6   2    0.73    1.49
   0  -6  -3    1.18    1.26
   0   6   3   -2.31    1.62
   0  -6  -3   -1.61    1.82
   0  -6  -4   17.51    3.79
   0  -6  -4   19.90    3.03
   0   6   4   15.54    3.18
   0   6   5    0.52    1.60
   0  -6  -5   -1.66    1.90
   0   6   6   14.94    3.29
   0  -6  -6   12.46    3.43
   0   6   7    0.08    1.74
   0  -6  -7    3.77    2.50
   0  -6  -8   16.57    4.26
   0   6   8   11.64    3.28
   0   6   9    3.22    2.58
   0  -6  -9    5.77    3.25
   0   6  10   16.50    3.78
   0   7 -13    1.14    1.90
   0  -7  13    2.07    2.72
   0   7 -12   10.01    3.34
   0  -7  12   14.66    4.06
   0  -7  11    6.27    3.10
   0   7 -11    6.44    2.85
   0   7 -10   26.35    4.49
   0  -7  10   24.59    4.65
   0  -7   9   23.63    3.55
   0   7  -9   18.82    3.61
   0  -7   9   17.54    3.98
   0   7  -8   33.94    4.60
   0  -7   8   33.90    4.85
   0   7  -8   32.32    3.59
   0  -7   8   33.20    4.19
   0  -7   7   21.42    3.80
   0   7  -7   23.21    2.93
   0   7  -7   22.17    3.43
   0  -7   7   18.15    3.10
   0   7  -6   35.00    4.24
   0   7  -6   34.52    3.36
   0   7  -6   36.78    3.51
   0  -7   6   33.84    4.35
   0  -7   6   30.98    3.93
   0  -7   5   57.49    5.42
   0   7  -5   56.18    4.39
   0  -7   5   55.29    5.17
   0   7  -5   59.93    4.29
   0   7  -5   51.97    4.96
   0   7  -4   88.43    5.23
   0  -7   4   77.41    6.02
   0   7  -4   89.13    5.64
   0   7  -4   86.93    6.03
   0  -7   4   77.01    6.08
   0   7  -3    4.81    1.73
   0   7  -3    5.53    1.86
   0  -7   3    3.06    1.94
   0  -7   3    3.16    2.02
   0  -7   2   72.90    5.96
   0   7  -2   78.25    5.29
   0  -7   2   66.02    5.40
   0   7  -2   76.29    5.55
   0  -7   1  250.72   10.73
   0   7  -1  269.23    9.19
   0  -7   1  262.71    9.99
   0   7  -1  265.44   10.55
   0   7   0  202.05    9.52
   0  -7   0  206.88    9.84
   0   7   0  196.97    7.52
   0  -7   0  199.15    8.56
   0  -7  -1   38.60    3.82
   0   7   1   37.26    3.15
   0  -7  -1   38.20    4.37
   0   7   1   35.45    4.30
   0  -7  -2   93.87    6.69
   0  -7  -2   94.87    5.72
   0   7   2   85.77    6.75
   0  -7  -3    7.21    2.28
   0   7   3    3.72    2.19
   0  -7  -3    3.93    2.53
   0  -7  -4    3.39    2.17
   0   7   4    0.44    1.63
   0   7   5   32.75    4.92
   0  -7  -5   29.87    4.99
   0  -7  -6   45.49    6.44
   0   7   6   37.98    5.22
   0  -7  -7   23.98    4.91
   0   7   7   22.69    4.48
   0  -7  -8   15.74    4.28
   0   7   8   10.09    3.56
   0   7   9    2.89    2.07
   0  -8  12   80.05    8.77
   0   8 -12   70.84    7.54
   0  -8  11   10.30    3.68
   0   8 -11    7.60    2.90
   0  -8  10    4.96    2.70
   0   8 -10    5.75    2.40
   0   8  -9   22.95    4.35
   0  -8   9   25.92    4.68
   0  -8   9   19.08    3.76
   0  -8   8   11.88    3.34
   0   8  -8    6.40    2.27
   0  -8   8   10.22    2.78
   0   8  -7    2.09    1.83
   0  -8   7    5.10    2.26
   0  -8   7    0.07    1.81
   0   8  -6    0.46    1.02
   0  -8   6   -0.47    1.59
   0  -8   6   -0.67    1.75
   0   8  -6    0.18    1.44
   0   8  -5   18.81    3.31
   0   8  -5   19.59    2.96
   0  -8   5   13.71    3.31
   0   8  -5   17.16    2.61
   0  -8   5   16.82    3.53
   0   8  -4   57.37    5.34
   0   8  -4   61.00    4.75
   0  -8   4   53.40    5.60
   0   8  -4   51.37    4.79
   0  -8   4   50.50    5.25
   0  -8   3   18.16    3.34
   0   8  -3   20.75    3.25
   0   8  -3   19.91    3.18
   0  -8   3   20.06    3.70
   0   8  -2  144.32    7.58
   0  -8   2  123.93    7.68
   0   8  -2  126.68    7.75
   0  -8   2  123.97    8.28
   0  -8   1   53.23    5.70
   0  -8   1   55.74    5.10
   0   8  -1   51.86    4.40
   0   8  -1   53.72    5.30
   0  -8   0    3.38    1.83
   0  -8   0    1.19    1.79
   0   8   0    3.96    1.93
   0  -8  -1   48.40    4.68
   0  -8  -1   42.86    5.21
   0   8   1   47.26    5.32
   0  -8  -2    0.55    1.85
   0   8   2   -0.26    1.86
   0  -8  -3   64.44    7.01
   0  -8  -3   68.60    6.27
   0   8   3   62.73    6.56
   0  -8  -4   63.48    7.24
   0   8   4   62.16    6.80
   0  -8  -5   -0.18    2.68
   0   8   5    0.83    1.92
   0  -8  -6   -3.31    2.83
   0   8   6    1.40    2.04
   0  -8  -7    0.14    2.77
   0   8   7    3.46    2.75
   0  -9  11   26.07    5.24
   0   9 -11   31.44    5.32
   0  -9  10   21.62    4.65
   0   9 -10   14.27    3.74
   0  -9   9    2.68    2.37
   0  -9   9    2.01    1.90
   0   9  -9    8.35    3.29
   0   9  -8   34.95    5.04
   0  -9   8   39.97    5.24
   0  -9   8   40.63    5.73
   0  -9   7  118.46    8.96
   0  -9   7  116.10    9.15
   0   9  -7  117.47    8.71
   0  -9   6   -1.23    2.00
   0  -9   6    0.16    2.22
   0   9  -6    3.61    1.84
   0  -9   5   20.50    3.89
   0   9  -5   20.48    3.27
   0  -9   5   22.28    4.39
   0   9  -5   23.04    3.78
   0  -9   4    2.00    2.02
   0  -9   4    1.51    1.73
   0   9  -4    2.11    1.53
   0   9  -4    0.90    1.51
   0   9  -3    7.28    2.10
   0  -9   3    4.79    2.27
   0   9  -3    8.65    2.69
   0  -9   3    6.01    2.21
   0   9  -2   51.44    4.99
   0  -9   2   45.02    5.60
   0  -9   2   43.53    5.14
   0   9  -2   45.52    5.19
   0  -9   1   10.60    3.28
   0  -9   1    9.37    2.54
   0   9  -1   10.45    2.90
   0  -9   0   23.88    3.72
   0  -9   0   31.25    4.85
   0   9   0   27.46    4.39
   0  -9  -1   -3.32    2.36
   0   9   1    0.40    1.88
   0  -9  -2    1.43    2.23
   0   9   2    9.96    3.11
   0   9   3   33.88    5.21
   0  -9  -3   30.37    5.30
   0  -9  -4   56.63    7.41
   0   9   4   49.31    6.40
   0   9   5   27.74    5.19
   0  -9  -5   27.74    5.59
   0 -10   9   98.46    9.04
   0 -10   9  102.31    9.43
   0  10  -9  109.34    9.29
   0 -10   8   -3.64    2.40
   0 -10   8   -2.67    2.59
   0  10  -8   -4.88    2.50
   0  10  -7    1.80    2.30
   0 -10   7    2.72    2.46
   0 -10   6  143.64   10.56
   0 -10   6  147.53   10.53
   0  10  -6  171.93   10.56
   0  10  -5    0.07    1.52
   0 -10   5    4.14    2.42
   0  10  -5    0.34    0.98
   0 -10   5    1.10    2.72
   0 -10   4    3.49    2.68
   0  10  -4    5.41    2.07
   0  10  -4    4.16    2.28
   0 -10   4    5.72    2.35
   0 -10   3    2.12    2.12
   0 -10   3    3.49    2.47
   0  10  -3    2.01    1.53
   0  10  -3    4.31    2.06
   0  10  -2   -1.81    1.96
   0 -10   2    2.67    2.69
   0 -10   2    1.67    1.69
   0 -10   1   56.70    6.89
   0  10  -1   56.68    6.35
   0 -10   0   -0.47    2.20
   0  10   0    1.19    1.68
   0 -10  -1   16.80    4.04
   0  10   1   18.68    4.45
   0 -10  -2   55.59    7.24
   0  10   2   48.92    6.44
   0 -10  -3   29.94    5.72
   0  10   3   20.95    4.68
   0 -11   8   29.67    5.48
   0 -11   7   10.07    3.62
   0 -11   7    4.69    2.53
   0  11  -6   -0.94    1.48
   0 -11   6   -1.00    1.89
   0 -11   6   -2.11    2.35
   0 -11   5    2.27    2.15
   0  11  -5   -0.67    1.54
   0 -11   5    2.00    2.45
   0  11  -4   28.55    4.61
   0  11  -4   36.14    5.03
   0 -11   4   41.75    6.02
   0 -11   4   47.38    6.62
   0 -11   3   12.82    3.52
   0 -11   3    8.88    3.50
   0  11  -3    9.92    3.08
   0  11  -2   20.74    4.11
   0 -11   2   32.79    5.75
   0 -11   1   -1.44    2.33
   0  11  -1   -0.45    1.78
   0  11   0    4.69    2.55
   0 -11   0   10.27    3.65
   0  11   1   -0.68    2.05
   0  12  -3    2.42    1.73
  -1  12  -1   -2.59    2.06
  -1  12  -2    4.56    2.21
   1 -12   3   16.14    3.96
   1 -12   4    8.85    2.98
   1 -12   5   15.93    4.16
  -1  12  -5   26.11    4.55
  -1  11   2    8.03    3.24
   1 -11  -2    3.43    2.90
   1 -11  -1   -0.77    2.50
  -1  11   1   -0.02    1.56
  -1  11   0    5.65    2.46
  -1  11  -1   20.53    4.40
  -1  11  -2    1.60    1.55
   1 -11   2   -0.76    2.34
   1 -11   2    2.24    2.22
  -1  11  -3    2.57    1.61
   1 -11   3    3.59    2.29
   1 -11   3    6.43    3.15
   1 -11   4    4.35    2.68
  -1  11  -4   -1.15    1.68
   1 -11   4   -2.58    2.39
   1 -11   5  125.69   10.06
   1 -11   5  128.80   10.51
  -1  11  -5  143.66    9.86
  -1  11  -6   13.95    3.52
   1 -11   6   17.04    4.26
   1 -11   6    8.47    3.18
  -1  11  -7   18.27    4.08
   1 -11   7   13.94    3.76
   1 -11   7   13.51    3.94
  -1  11  -8   -2.91    2.18
   1 -11   8    1.98    2.25
   1 -11   8    2.12    2.35
  -1  10   4  114.72   10.01
   1 -10  -4  122.10   10.85
  -1  10   3    3.65    2.49
   1 -10  -3    1.00    2.33
  -1  10   2    0.54    1.91
   1 -10  -2    0.50    2.19
  -1  10   1   -3.75    2.52
   1 -10   0    4.37    2.41
  -1  10   0    8.37    2.90
   1 -10   1    8.42    2.98
  -1  10  -1    9.83    2.89
   1 -10   1    6.22    2.65
  -1  10  -2   33.75    4.65
   1 -10   2   36.77    5.05
   1 -10   2   36.28    5.54
  -1  10  -2   33.78    4.29
   1 -10   3    1.69    2.06
  -1  10  -3    5.17    2.01
  -1  10  -3    2.56    1.66
   1 -10   3    4.46    2.34
   1 -10   4    4.08    2.49
  -1  10  -4    8.20    2.29
   1 -10   4    5.60    2.88
  -1  10  -4    6.31    2.45
  -1  10  -5    0.69    1.64
   1 -10   5   -1.95    2.32
   1 -10   5    3.41    2.35
   1 -10   6  227.07   13.12
   1 -10   6  247.98   13.38
  -1  10  -6  252.35   12.72
  -1  10  -7   95.05    8.25
   1 -10   7   80.41    8.13
   1 -10   7   77.74    7.57
  -1  10  -8   25.84    4.86
   1 -10   8   27.81    5.20
   1 -10   8   26.05    4.64
  -1  10  -9   16.82    4.09
   1 -10   9   14.86    4.07
   1 -10   9   19.97    4.37
   1 -10  10    0.93    2.27
  -1  10 -10    9.84    3.23
   1  -9  -6    3.45    2.86
  -1   9   6   11.94    3.67
  -1   9   5   -0.69    1.72
   1  -9  -5   -0.60    2.42
  -1   9   4   31.05    5.26
   1  -9  -4   30.26    5.33
   1  -9  -3   33.92    5.44
  -1   9   3   32.52    5.18
   1  -9  -2   18.36    4.00
  -1   9   2   19.41    3.84
  -1   9   1   54.13    5.95
   1  -9  -1   52.90    5.38
   1  -9  -1   43.80    5.51
   1  -9   0    4.96    2.51
   1  -9   0    5.18    2.17
  -1   9   0    8.58    2.50
   1  -9   1   -0.57    1.98
  -1   9  -1    5.29    2.13
  -1   9  -1    1.38    1.24
   1  -9   1   -0.01    1.96
   1  -9   2   -1.07    1.66
  -1   9  -2    0.81    1.34
  -1   9  -2    0.47    1.28
  -1   9  -3   74.21    6.18
   1  -9   3   81.12    7.28
   1  -9   3   76.33    6.69
  -1   9  -3   76.80    6.10
  -1   9  -4   32.60    4.29
   1  -9   4   35.22    4.89
   1  -9   4   31.54    4.89
  -1   9  -4   30.23    3.86
  -1   9  -5  120.43    8.21
   1  -9   5  110.66    8.51
   1  -9   5  124.28    9.01
   1  -9   6   -3.48    2.16
  -1   9  -6   -0.55    1.89
   1  -9   6   -3.08    2.46
  -1   9  -7    1.72    1.93
   1  -9   7    4.32    2.17
   1  -9   7    2.37    2.35
   1  -9   8   77.11    7.05
  -1   9  -8   84.56    7.60
   1  -9   8   96.21    8.68
   1  -9   9   52.37    5.93
  -1   9  -9   49.76    6.08
   1  -9   9   46.11    6.42
  -1   9 -10   73.15    7.43
   1  -9  10   77.33    8.33
  -1   9 -11    3.06    2.35
   1  -9  11    4.96    3.14
  -1   8   8   -4.08    2.82
  -1   8   7    9.88    3.18
   1  -8  -7   21.04    4.72
  -1   8   6   46.30    6.10
   1  -8  -6   45.04    6.45
  -1   8   5   49.10    6.14
   1  -8  -5   39.64    5.86
  -1   8   4   53.39    6.21
   1  -8  -4   49.80    6.07
   1  -8  -3   44.44    5.64
  -1   8   3   48.03    5.58
  -1   8   2    4.89    2.24
   1  -8  -2    8.08    2.29
   1  -8  -1  116.51    7.24
  -1   8   1  103.70    7.42
   1  -8  -1  103.08    7.59
  -1   8   0   49.24    4.25
   1  -8   0   53.03    5.04
  -1   8   0   42.99    4.73
   1  -8   0   41.11    4.94
   1  -8   1  120.03    7.54
  -1   8  -1  108.94    7.10
   1  -8   1  104.51    7.66
  -1   8  -1  115.42    6.61
  -1   8  -2   82.88    6.05
   1  -8   2   85.04    6.90
  -1   8  -2   96.31    6.30
   1  -8   2   85.97    6.56
  -1   8  -3    2.68    1.45
   1  -8   3    0.87    1.83
   1  -8   3   -0.18    1.90
  -1   8  -3    2.60    1.52
  -1   8  -4   48.29    4.81
   1  -8   4   50.10    5.29
   1  -8   4   45.37    5.13
  -1   8  -4   44.97    4.16
   1  -8   5   37.05    4.78
   1  -8   5   33.34    4.41
  -1   8  -5   30.81    3.36
  -1   8  -5   29.66    3.97
   1  -8   6   34.97    4.65
  -1   8  -6   37.67    4.70
   1  -8   6   29.64    4.27
  -1   8  -7   21.74    3.77
   1  -8   7   18.26    3.30
   1  -8   7   16.41    3.41
   1  -8   8   20.32    3.59
  -1   8  -8   11.42    3.04
   1  -8   8   10.43    3.10
   1  -8   9   -0.44    2.08
  -1   8  -9   -2.09    1.98
   1  -8   9    1.76    1.40
   1  -8  10  108.87    9.35
  -1   8 -10  103.43    8.46
  -1   8 -11   40.10    5.81
   1  -8  11   45.55    6.43
   1  -8  12   15.31    4.24
  -1   8 -12   11.88    3.57
   1  -7  -9    2.01    2.34
  -1   7   9    1.93    1.53
  -1   7   8   55.07    6.63
   1  -7  -8   62.28    7.55
  -1   7   7   13.38    3.62
   1  -7  -7   14.26    3.85
   1  -7  -6    4.17    2.80
  -1   7   6    3.29    2.20
  -1   7   5   17.19    3.69
   1  -7  -5   15.24    3.76
  -1   7   4    5.85    2.10
   1  -7  -4    6.05    2.59
   1  -7  -3   89.81    7.15
  -1   7   3   88.68    6.91
   1  -7  -2    1.21    1.36
  -1   7   2    2.35    1.87
   1  -7  -2   -0.52    1.76
   1  -7  -1  112.62    7.25
   1  -7  -1  101.59    6.27
  -1   7   1   99.35    6.73
  -1   7   1   99.85    5.33
  -1   7   0   46.49    3.84
   1  -7   0   51.32    4.61
  -1   7   0   44.88    4.45
   1  -7   0   45.11    4.75
  -1   7  -1  158.15    7.76
  -1   7  -1  162.45    7.30
   1  -7   1  154.04    7.85
   1  -7   2   17.46    3.06
  -1   7  -2   20.06    3.02
  -1   7  -2   17.63    2.72
   1  -7   2   18.14    3.43
   1  -7   3 2035.10   29.59
  -1   7  -3 1998.93   25.16
   1  -7   3 2022.52   29.24
  -1   7  -3 2029.76   27.36
  -1   7  -4    9.60    1.91
  -1   7  -4   10.31    2.46
   1  -7   4    6.73    2.42
  -1   7  -4   13.83    1.96
   1  -7   4    8.44    2.35
  -1   7  -5   25.11    3.51
  -1   7  -5   25.79    2.57
  -1   7  -5   23.83    2.70
   1  -7   5   22.39    3.64
   1  -7   5   24.35    3.53
   1  -7   6   11.69    2.62
  -1   7  -6   13.88    3.01
   1  -7   6   10.49    2.91
  -1   7  -7    0.79    1.59
   1  -7   7    0.86    1.96
   1  -7   7    2.29    1.66
  -1   7  -8   14.97    3.08
   1  -7   8   17.37    3.06
   1  -7   8   13.97    3.30
  -1   7  -8   17.79    3.52
   1  -7   9   28.04    4.61
  -1   7  -9   28.21    4.44
  -1   7  -9   26.84    4.08
  -1   7 -10   15.36    3.34
  -1   7 -10   12.21    3.60
   1  -7  10   10.20    3.01
  -1   7 -11   58.49    7.03
  -1   7 -11   50.09    5.96
   1  -7  11   52.10    6.45
  -1   7 -12   -0.63    1.56
  -1   7 -12    3.00    2.71
   1  -7  12    6.14    2.96
  -1   7 -13   35.15    5.35
   1  -7  13   48.92    7.08
   1  -6 -10    1.68    2.57
  -1   6  10   -3.23    2.48
  -1   6   9   -0.69    1.67
   1  -6  -9    1.66    2.53
   1  -6  -8   53.85    6.80
  -1   6   8   51.70    6.16
  -1   6   7   77.59    7.13
   1  -6  -7   72.76    7.30
  -1   6   6   56.82    5.92
   1  -6  -6   63.79    6.61
   1  -6  -5    1.58    1.88
  -1   6   5    0.91    1.42
   1  -6  -4    2.32    1.93
  -1   6   4    5.30    2.13
   1  -6  -3  159.13    8.68
  -1   6   3  157.78    8.47
   1  -6  -2  140.79    6.72
   1  -6  -2  145.61    7.46
  -1   6   2  147.55    7.79
  -1   6   2  146.44    5.71
  -1   6   1   70.91    5.19
   1  -6  -1   64.25    5.06
  -1   6   1   65.86    4.00
   1  -6  -1   73.33    4.96
  -1   6   0   -0.51    0.95
  -1   6   0    1.40    1.39
   1  -6   0    1.06    1.50
   1  -6   0    1.38    1.54
   1  -6   1    2.50    1.61
  -1   6  -1    1.08    1.08
   1  -6   1    0.35    1.53
  -1   6  -1   -0.12    1.06
   1  -6   2  133.41    7.07
   1  -6   2  148.68    7.23
  -1   6  -2  146.04    6.64
  -1   6  -2  129.43    6.01
  -1   6  -3    8.61    1.85
   1  -6   3   10.08    2.32
  -1   6  -3   10.72    1.87
   1  -6   3   11.99    2.40
   1  -6   4  472.53   13.02
   1  -6   4  484.81   13.81
  -1   6  -4  498.77   13.17
  -1   6  -4  490.33    9.78
  -1   6  -4  481.08   10.56
  -1   6  -5   82.21    4.11
  -1   6  -5   84.18    4.28
  -1   6  -5   76.70    5.16
   1  -6   5   75.08    5.75
  -1   6  -5   79.12    5.61
   1  -6   5   81.65    5.55
  -1   6  -6  115.65    6.95
  -1   6  -6  129.90    7.21
  -1   6  -6  121.61    5.22
   1  -6   6  112.26    6.41
   1  -6   6  106.76    7.07
   1  -6   7    0.09    1.10
   1  -6   7    4.63    2.19
  -1   6  -7    2.74    1.06
  -1   6  -7   -1.53    1.61
  -1   6  -7    1.15    1.58
  -1   6  -8   85.08    6.41
  -1   6  -8   94.66    7.24
  -1   6  -8   86.81    5.00
   1  -6   8   89.65    5.77
   1  -6   8   82.56    6.79
  -1   6  -9    5.31    2.55
  -1   6  -9    7.50    2.47
   1  -6   9    8.32    2.80
  -1   6 -10   80.50    7.55
   1  -6  10   75.06    7.08
  -1   6 -10   70.99    6.38
   1  -6  11    3.86    2.01
  -1   6 -11    4.08    2.05
  -1   6 -11    3.24    2.56
  -1   6 -12    9.59    2.95
   1  -6  12   12.45    3.40
  -1   6 -12   16.33    4.31
  -1   6 -13    1.17    2.85
  -1   6 -13    1.86    1.87
   1  -6  13   -3.22    2.31
   1  -6  14    2.58    2.84
  -1   6 -14   11.47    3.15
   1  -5 -11    0.94    2.45
  -1   5  11    0.04    1.84
   1  -5 -10   10.44    3.76
  -1   5  10    8.74    2.99
   1  -5  -9    1.12    2.25
  -1   5   9    3.09    2.31
  -1   5   8   34.54    4.71
   1  -5  -8   28.44    4.88
   1  -5  -7   17.55    3.95
  -1   5   7   22.26    3.77
   1  -5  -6  190.10   10.32
   1  -5  -6  176.44    6.74
  -1   5   6  187.10    9.61
   1  -5  -5   16.89    2.27
  -1   5   5   16.42    3.01
   1  -5  -5   21.40    3.73
  -1   5   4  115.83    4.24
  -1   5   4  124.27    7.16
   1  -5  -4  120.48    7.37
  -1   5   3   20.47    1.72
  -1   5   3   20.52    1.95
  -1   5   3   18.48    2.85
   1  -5  -3   21.39    3.12
   1  -5  -2   46.69    3.89
   1  -5  -2   54.24    3.83
  -1   5   2   57.97    3.31
  -1   5   2   55.57    4.38
  -1   5   1  121.37    6.07
  -1   5   1  119.28    4.90
   1  -5  -1  117.72    5.92
   1  -5  -1  117.47    5.56
  -1   5   0    0.15    0.87
   1  -5   0   -0.35    1.26
   1  -5   0   -0.85    1.01
  -1   5   0    0.22    0.78
   1  -5   1  610.27   13.31
   1  -5   1  602.55   12.78
  -1   5  -1  607.83   11.97
   1  -5   2   11.52    2.19
  -1   5  -2   13.29    1.75
  -1   5  -2   14.39    2.17
   1  -5   2   10.02    2.01
  -1   5  -3   47.52    3.77
  -1   5  -3   47.46    2.72
   1  -5   3   50.18    4.11
  -1   5  -3   49.05    3.25
  -1   5  -3   49.75    3.11
   1  -5   3   48.13    3.83
   1  -5   4   85.06    5.07
  -1   5  -4   83.82    4.72
  -1   5  -4   82.48    3.79
  -1   5  -4   85.16    3.71
   1  -5   4   92.59    5.63
  -1   5  -4   80.77    5.05
  -1   5  -5  248.68    6.62
  -1   5  -5  252.85    9.10
  -1   5  -5  238.96    6.15
  -1   5  -5  241.95    8.82
   1  -5   5  238.57    8.28
   1  -5   5  238.25    9.31
  -1   5  -6   53.58    4.66
  -1   5  -6   65.77    3.70
   1  -5   6   53.15    4.78
   1  -5   6   63.15    4.37
  -1   5  -6   57.42    4.64
  -1   5  -7  326.84   11.23
  -1   5  -7  320.99    8.77
   1  -5   7  320.74    9.65
   1  -5   7  322.20   11.86
  -1   5  -7  328.81   12.03
  -1   5  -8   -0.33    1.64
  -1   5  -8    0.09    0.82
  -1   5  -8   -4.80    2.33
   1  -5   8   -0.82    1.30
   1  -5   8    0.02    1.75
   1  -5   9   11.63    2.93
  -1   5  -9    5.43    2.02
  -1   5  -9    5.25    2.78
  -1   5  -9    5.95    1.59
   1  -5  10    5.44    2.25
  -1   5 -10    8.07    2.41
  -1   5 -10    2.49    1.25
  -1   5 -10    5.37    2.69
   1  -5  11    5.06    2.32
  -1   5 -11    5.90    2.39
  -1   5 -11   12.23    3.69
  -1   5 -12    6.03    2.27
   1  -5  12    4.90    2.47
  -1   5 -12    1.03    2.61
  -1   5 -13    9.48    4.29
   1  -5  13    9.77    3.24
  -1   5 -13   10.40    2.97
   1  -5  14    1.78    2.06
  -1   4  12   -1.94    2.09
   1  -4 -11    1.48    2.45
  -1   4  11    9.16    3.05
  -1   4  11    3.65    2.01
   1  -4 -10   12.44    3.67
  -1   4  10   13.02    3.06
  -1   4  10    9.46    3.05
  -1   4   9   26.79    4.13
   1  -4  -9   20.07    4.24
  -1   4   9   18.82    3.67
  -1   4   8    1.33    1.73
   1  -4  -8    0.62    1.87
  -1   4   8    1.25    1.58
   1  -4  -7   20.75    3.89
  -1   4   7   22.31    3.54
  -1   4   7   20.23    3.49
   1  -4  -6   35.50    4.46
  -1   4   6   30.18    3.82
  -1   4   6   34.70    4.11
   1  -4  -6   35.56    3.17
   1  -4  -6   27.95    2.56
   1  -4  -5  751.15   12.47
   1  -4  -5  772.66   18.05
  -1   4   5  768.32   16.91
   1  -4  -5  791.51   12.60
  -1   4   5  735.66   10.33
  -1   4   4  446.75   12.19
  -1   4   4  453.35    7.32
   1  -4  -4  469.62    8.24
   1  -4  -4  455.92   12.93
   1  -4  -3  293.88    9.69
  -1   4   3  291.45    9.29
   1  -4  -3  277.15    5.10
  -1   4   3  289.79    5.35
   1  -4  -2   41.18    3.23
  -1   4   2   44.37    2.08
   1  -4  -2   38.45    3.34
  -1   4   2   40.27    2.52
   1  -4  -2   43.40    3.15
  -1   4   2   37.54    3.28
   1  -4  -1  454.65   10.28
  -1   4   1  441.89    8.40
  -1   4   1  448.52   10.14
   1  -4  -1  440.84    9.53
   1  -4   0  499.58   10.64
  -1   4   0  543.34   10.46
  -1   4   0  514.37    9.48
   1  -4   0  553.23   10.73
   1  -4   1   50.00    3.44
  -1   4  -1   46.10    3.08
  -1   4  -1   45.91    2.89
   1  -4   1   50.28    3.48
  -1   4  -2    1.96    1.04
  -1   4  -2    1.70    0.76
   1  -4   2    2.12    1.23
  -1   4  -2    3.60    1.03
   1  -4   2    2.12    1.06
   1  -4   3  394.87   10.01
  -1   4  -3  384.98    8.58
  -1   4  -3  390.15    7.12
   1  -4   3  399.69    9.48
  -1   4  -3  416.11    9.77
  -1   4  -3  387.65    6.60
  -1   4  -4   23.08    2.61
  -1   4  -4   27.12    1.80
   1  -4   4   25.55    2.48
  -1   4  -4   23.83    2.58
   1  -4   4   22.24    2.68
  -1   4  -4   24.86    1.88
  -1   4  -5  131.04    6.32
   1  -4   5  126.37    6.29
  -1   4  -5  128.85    4.58
  -1   4  -5  134.40    6.15
   1  -4   5  124.11    5.22
  -1   4  -6  377.63    8.56
  -1   4  -6  371.71   10.63
  -1   4  -6  365.72   11.52
   1  -4   6  380.40    9.14
   1  -4   6  364.47   11.18
  -1   4  -7  285.91   11.13
  -1   4  -7  289.17    8.24
  -1   4  -7  292.17    9.91
   1  -4   7  292.22    7.99
   1  -4   7  285.07   10.40
  -1   4  -8  210.13    7.72
  -1   4  -8  206.16   10.15
   1  -4   8  185.04    8.98
  -1   4  -8  202.35    8.60
  -1   4  -9   24.41    4.08
  -1   4  -9   18.95    3.09
   1  -4   9   21.44    3.46
  -1   4  -9   23.24    2.86
   1  -4  10   55.07    5.51
  -1   4 -10   46.19    5.79
  -1   4 -10   44.93    4.31
  -1   4 -10   45.52    4.68
   1  -4  11    3.54    1.99
  -1   4 -11    0.66    2.44
  -1   4 -11    2.73    1.51
  -1   4 -11   -0.11    1.31
  -1   4 -12   39.03    6.03
  -1   4 -12   32.85    4.27
   1  -4  12   34.12    4.69
  -1   4 -12   28.02    4.00
   1  -4  13   -1.23    1.99
  -1   4 -13    1.54    2.44
  -1   4 -14   -0.04    2.59
   1  -3 -12   -1.30    2.35
  -1   3  12    1.10    1.93
  -1   3  11   -0.50    1.51
   1  -3 -11    1.11    2.46
  -1   3  11    3.14    2.24
  -1   3  10    2.40    1.58
   1  -3 -10    3.71    2.59
  -1   3  10    0.17    1.60
  -1   3   9   12.64    3.14
   1  -3  -9   13.28    3.55
  -1   3   9   15.20    2.90
   1  -3  -9   13.57    2.83
   1  -3  -8   40.64    5.10
   1  -3  -8   44.81    4.35
  -1   3   8   43.79    4.81
  -1   3   8   42.57    4.54
  -1   3   7   18.82    2.98
   1  -3  -7   14.62    3.15
  -1   3   7   13.10    1.84
   1  -3  -7   16.63    1.79
  -1   3   7   13.16    2.82
   1  -3  -7   14.02    2.40
  -1   3   6   79.07    3.82
  -1   3   6   82.89    5.67
   1  -3  -6   82.60    3.84
   1  -3  -6   82.71    4.83
  -1   3   6   82.01    5.49
   1  -3  -6   79.41    6.08
  -1   3   6   73.44    3.68
  -1   3   5   97.02    4.13
   1  -3  -5  100.59    6.24
   1  -3  -5  102.39    4.77
  -1   3   5   96.42    3.77
  -1   3   5   94.62    5.61
   1  -3  -5   91.32    3.97
  -1   3   5   95.43    5.50
   1  -3  -4    2.74    1.49
  -1   3   4    4.38    0.80
  -1   3   4    1.88    1.06
   1  -3  -4    1.59    0.75
  -1   3   4    3.43    0.94
   1  -3  -4    3.35    0.97
  -1   3   4    3.63    1.49
  -1   3   3   71.53    4.16
   1  -3  -3   65.64    2.72
  -1   3   3   66.47    2.31
   1  -3  -3   63.82    4.18
  -1   3   3   61.65    3.18
  -1   3   2   18.18    2.05
  -1   3   2   19.37    1.11
   1  -3  -2   15.09    1.96
   1  -3  -2   15.09    1.02
   1  -3  -2   19.21    1.94
  -1   3   2   15.22    1.65
  -1   3   1   49.28    2.95
   1  -3  -1   53.56    2.99
   1  -3  -1   48.21    2.92
  -1   3   1   49.64    2.78
   1  -3   0  143.59    4.83
  -1   3   0  135.49    4.34
   1  -3   0  148.93    5.01
  -1   3   0  141.86    4.50
  -1   3  -1    1.00    0.74
   1  -3   1    0.18    0.70
  -1   3  -1    0.69    0.43
   1  -3   1   -0.18    0.74
  -1   3  -1    0.70    0.52
  -1   3  -2   61.23    3.27
  -1   3  -2   64.59    2.94
   1  -3   2   62.24    3.42
  -1   3  -2   62.16    2.42
   1  -3   2   66.29    3.31
  -1   3  -2   67.90    2.20
  -1   3  -3  925.62    8.94
  -1   3  -3  953.78    8.39
  -1   3  -3  948.17   13.24
   1  -3   3  927.78   12.11
   1  -3   3  945.67   13.69
  -1   3  -4  898.24   13.66
   1  -3   4  870.93   14.12
  -1   3  -4  898.71   14.56
  -1   3  -4  925.82   10.44
   1  -3   4  927.13   12.00
  -1   3  -5  457.95   10.32
   1  -3   5  459.97   10.85
   1  -3   5  449.98    8.37
  -1   3  -5  444.07   11.43
  -1   3  -5  434.88    8.24
  -1   3  -6  125.02    5.73
  -1   3  -6  127.00    5.03
  -1   3  -6  118.03    6.53
   1  -3   6  126.59    4.37
   1  -3   6  125.41    6.12
  -1   3  -7   -0.29    1.04
   1  -3   7    0.06    1.11
  -1   3  -7   -0.04    0.85
  -1   3  -7   -0.62    1.92
   1  -3   8  193.60    8.59
  -1   3  -8  205.74    7.80
  -1   3  -8  203.26    8.01
  -1   3  -8  205.88   10.01
   1  -3   9  128.70    7.49
  -1   3  -9  146.36    9.12
  -1   3  -9  141.93    7.06
  -1   3  -9  152.82    7.32
  -1   3 -10   41.69    4.24
  -1   3 -10   45.17    4.32
  -1   3 -10   48.29    5.84
   1  -3  10   43.71    4.73
   1  -3  11   14.42    3.13
  -1   3 -11   15.73    2.79
  -1   3 -11   16.40    2.95
  -1   3 -11   11.43    3.78
  -1   3 -12   11.01    2.73
  -1   3 -12   14.65    4.07
   1  -3  12   15.88    3.35
   1  -3  13    5.21    2.53
  -1   3 -13    1.21    2.57
   1  -3  14    8.34    2.65
  -1   3 -14    7.24    3.77
   1  -2 -13    0.17    2.69
  -1   2  13    3.13    2.63
  -1   2  12    5.52    2.93
   1  -2 -12    3.70    2.52
   1  -2 -12    9.44    3.04
   1  -2 -11   -0.52    1.72
   1  -2 -11   -0.13    1.94
  -1   2  11    1.35    1.02
  -1   2  11   -1.33    2.23
   1  -2 -10   28.93    4.31
   1  -2 -10   38.27    5.24
  -1   2  10   33.84    4.20
  -1   2  10   35.98    4.95
  -1   2   9    1.34    1.94
   1  -2  -9    0.48    1.50
   1  -2  -9   -0.57    2.23
  -1   2   9    0.21    1.06
   1  -2  -8    9.60    2.62
  -1   2   8    8.14    1.66
   1  -2  -8    6.27    2.07
  -1   2   8    8.32    2.50
  -1   2   8    7.32    2.00
   1  -2  -8    5.84    2.54
   1  -2  -7   61.73    5.17
   1  -2  -7   63.90    5.63
  -1   2   7   69.38    4.14
   1  -2  -7   70.14    5.04
   1  -2  -7   66.39    3.26
  -1   2   7   66.72    3.33
  -1   2   7   65.25    4.79
  -1   2   7   68.85    5.39
   1  -2  -6  410.70   12.64
  -1   2   6  403.83   10.97
   1  -2  -6  426.37   11.07
  -1   2   6  442.23    9.29
   1  -2  -6  425.64    7.86
   1  -2  -6  431.29   11.98
  -1   2   6  416.16    8.00
  -1   2   6  419.90   11.89
  -1   2   5   29.88    2.85
   1  -2  -5   34.86    3.57
   1  -2  -5   31.24    3.13
  -1   2   5   34.96    2.35
   1  -2  -5   33.43    2.84
  -1   2   5   31.13    3.17
  -1   2   5   31.48    2.16
   1  -2  -5   33.39    2.20
   1  -2  -4   85.40    4.49
   1  -2  -4   81.10    3.82
  -1   2   4   93.69    4.76
  -1   2   4   89.01    3.18
  -1   2   4   86.57    3.41
   1  -2  -4   93.47    5.08
   1  -2  -4   85.22    3.33
  -1   2   4   82.65    4.33
   1  -2  -3  227.78    5.42
  -1   2   3  230.05    6.63
  -1   2   3  224.97    6.46
   1  -2  -3  228.84    5.19
   1  -2  -3  243.40    7.20
  -1   2   3  220.59    5.20
  -1   2   3  240.65    4.18
   1  -2  -3  233.37    6.54
   1  -2  -2  314.46    6.61
  -1   2   2  311.29    6.87
  -1   2   2  329.15    6.09
   1  -2  -2  332.15    7.32
  -1   2   2  324.53    3.49
  -1   2   1   10.75    1.13
  -1   2   1   10.70    1.25
   1  -2  -1   10.83    1.24
   1  -2  -1    7.88    1.06
   1  -2   0  263.11    5.42
  -1   2   0  269.87    4.95
  -1   2   0  255.18    5.10
  -1   2  -1   16.17    1.43
  -1   2  -1   16.58    1.17
   1  -2   1   15.99    1.46
  -1   2  -1   15.14    0.99
   1  -2   1   18.25    1.47
  -1   2  -2   20.99    0.90
   1  -2   2   20.58    1.53
  -1   2  -2   21.49    1.01
  -1   2  -2   21.60    1.70
  -1   2  -2   18.16    1.65
   1  -2   2   20.45    1.74
  -1   2  -3    6.03    0.79
   1  -2   3    6.04    1.20
  -1   2  -3    6.80    1.28
  -1   2  -3    5.34    1.08
   1  -2   3    6.30    0.91
  -1   2  -4  169.34    4.59
   1  -2   4  164.27    5.52
   1  -2   4  170.83    4.06
  -1   2  -4  158.17    6.10
  -1   2  -4  156.94    5.11
  -1   2  -5    0.07    1.38
  -1   2  -5   -0.74    0.83
  -1   2  -5    0.49    0.80
   1  -2   5    1.13    0.92
  -1   2  -6   -0.72    1.59
  -1   2  -6   -0.34    0.78
  -1   2  -6    0.32    0.77
   1  -2   6    0.86    0.41
   1  -2   6    1.02    1.03
  -1   2  -7    0.22    0.88
   1  -2   7    0.54    1.02
  -1   2  -7   -0.83    2.11
  -1   2  -7    1.45    1.00
   1  -2   7   -0.38    0.35
   1  -2   8    2.51    1.38
  -1   2  -8   -0.09    1.89
  -1   2  -8    1.53    1.09
  -1   2  -8    1.74    1.40
  -1   2  -9   30.35    4.61
   1  -2   9   38.78    4.00
  -1   2  -9   34.62    3.38
  -1   2  -9   31.23    3.61
  -1   2 -10  756.52   18.12
   1  -2  10  800.60   18.60
  -1   2 -10  773.03   21.85
  -1   2 -10  801.78   16.06
  -1   2 -11    0.76    1.35
  -1   2 -11   -0.85    2.34
   1  -2  11   -0.75    1.59
   1  -2  12    6.89    2.28
  -1   2 -12    1.27    2.28
   1  -2  13   19.19    4.14
  -1   2 -13   17.98    4.60
   1  -2  14    4.82    2.68
  -1   2 -14    5.79    3.48
   1  -2  14    5.74    2.30
   1  -1 -13    6.24    2.82
  -1   1  13    2.72    2.27
   1  -1 -12    7.31    3.13
   1  -1 -12    7.17    3.29
  -1   1  12    1.82    2.13
   1  -1 -11   50.89    5.86
   1  -1 -11   53.01    6.16
   1  -1 -11   57.20    6.70
  -1   1  11   61.91    6.57
   1  -1 -10    4.07    2.06
  -1   1  10    7.82    2.42
  -1   1  10    7.01    1.96
   1  -1 -10    6.25    2.55
  -1   1  10    7.07    2.09
   1  -1 -10    4.33    2.14
   1  -1  -9   34.18    4.39
   1  -1  -9   30.34    4.52
   1  -1  -9   27.11    3.94
  -1   1   9   36.72    3.73
  -1   1   9   29.59    3.49
  -1   1   9   33.91    4.38
   1  -1  -8   96.69    6.42
   1  -1  -8   87.43    6.22
   1  -1  -8   88.08    6.68
  -1   1   8   91.91    5.60
  -1   1   8   86.88    6.29
   1  -1  -7   -0.19    0.56
   1  -1  -7    0.53    1.58
   1  -1  -7   -0.91    1.73
  -1   1   7   -0.12    1.06
  -1   1   7   -0.24    1.51
   1  -1  -7    0.62    1.46
  -1   1   7   -0.37    0.63
   1  -1  -6   -0.36    1.44
  -1   1   6    0.13    0.50
   1  -1  -6   -0.96    1.38
   1  -1  -6   -0.38    1.13
   1  -1  -6    0.61    0.54
  -1   1   6    1.09    1.28
   1  -1  -5   45.13    3.38
   1  -1  -5   42.12    2.30
   1  -1  -5   41.00    3.54
  -1   1   5   42.52    3.44
  -1   1   5   43.52    2.36
   1  -1  -5   41.28    3.36
   1  -1  -4    0.17    0.94
   1  -1  -4    0.68    0.57
   1  -1  -4    0.21    0.99
   1  -1  -4    0.44    0.93
  -1   1   4    1.11    1.10
  -1   1   4    1.22    0.60
   1  -1  -3  154.36    4.87
  -1   1   3  153.38    4.96
   1  -1  -3  148.60    4.60
   1  -1  -3  156.75    3.81
   1  -1  -3  160.42    5.30
  -1   1   3  150.55    3.80
   1  -1  -2   69.61    2.41
   1  -1  -2   71.66    2.98
   1  -1  -2   72.62    2.63
  -1   1   2   72.17    2.44
   1  -1  -2   69.82    2.76
  -1   1   2   73.12    2.95
  -1   1  -2  570.20    5.79
  -1   1  -2  551.45    6.65
  -1   1  -2  543.48    8.24
   1  -1   2  540.15    6.88
  -1   1  -2  550.38    6.90
  -1   1  -3 1297.14   11.39
   1  -1   3 1275.58    7.11
  -1   1  -3 1261.98   12.82
  -1   1  -3 1276.37   11.57
  -1   1  -3 1229.23   14.68
  -1   1  -4  297.09    6.13
  -1   1  -4  294.02    7.39
   1  -1   4  301.67    4.58
   1  -1   4  294.26    6.61
  -1   1  -4  302.52    8.28
  -1   1  -4  308.02    6.69
  -1   1  -5    0.74    0.84
  -1   1  -5    0.79    1.11
   1  -1   5    0.50    0.46
   1  -1   5    0.96    0.74
  -1   1  -5    1.16    0.97
  -1   1  -5    0.41    0.61
  -1   1  -6    1.06    1.07
   1  -1   6    0.99    0.93
  -1   1  -6    0.96    1.00
   1  -1   6    0.75    0.54
  -1   1  -6    0.62    0.73
  -1   1  -6    0.78    1.43
   1  -1   7   19.86    2.45
  -1   1  -7   21.72    3.26
   1  -1   7   17.71    1.22
  -1   1  -7   22.14    2.76
  -1   1  -7   22.70    3.15
   1  -1   7   21.78    1.93
  -1   1  -7   19.10    2.07
   1  -1   8    2.10    0.91
  -1   1  -8   -1.43    1.85
  -1   1  -8   -1.29    1.48
   1  -1   8    0.82    0.98
  -1   1  -8    0.64    0.77
  -1   1  -8   -0.40    1.37
  -1   1  -9   -1.27    1.81
  -1   1  -9   -0.85    1.82
   1  -1   9   -1.95    1.36
  -1   1  -9    1.18    0.96
   1  -1   9    0.02    1.56
  -1   1  -9   -0.82    2.38
  -1   1 -10   54.87    6.12
   1  -1  10   55.66    4.86
  -1   1 -10   53.63    5.73
   1  -1  10   50.91    5.25
   1  -1  11  158.44    9.58
  -1   1 -11  146.73   10.27
   1  -1  12   42.13    5.34
  -1   1 -12   37.41    5.66
   1  -1  13   24.43    4.44
  -1   1 -13   22.91    4.92
   1  -1  13   27.20    4.96
  -1   1 -14   10.63    3.95
   1   0 -13   20.53    4.79
  -1   0  13   21.58    4.62
   1   0 -13   18.42    3.99
   1   0 -12   12.35    3.29
  -1   0  12   14.99    3.84
  -1   0  12   12.71    2.95
   1   0 -12   11.23    3.69
   1   0 -11    5.11    2.42
   1   0 -11    9.50    3.34
  -1   0  11    7.96    2.95
  -1   0  10   51.16    4.50
   1   0 -10   48.79    5.71
   1   0 -10   48.01    5.20
  -1   0  10   57.13    5.76
   1   0  -9    1.64    1.84
   1   0  -9    0.82    1.64
  -1   0   9    1.82    2.05
   1   0  -9    2.51    2.02
   1   0  -8  156.00    7.77
   1   0  -8  172.69    8.77
  -1   0   8  168.30    5.47
   1   0  -8  159.94    8.55
  -1   0   8  160.76    8.18
  -1   0   7    3.29    0.62
  -1   0   7    3.93    0.88
   1   0  -7    3.81    1.32
   1   0  -7    4.64    1.91
   1   0  -7    3.43    1.85
  -1   0   6  159.91    4.87
   1   0  -6  159.56    7.28
  -1   0   6  157.51    3.75
   1   0  -6  171.48    6.89
   1   0  -6  169.35    7.26
  -1   0   5 1808.76   15.16
   1   0  -5 1841.23   20.27
   1   0  -5 1867.61   21.71
   1   0  -5 1861.24   21.87
   1   0  -5 1847.19   15.18
   1   0  -4  103.46    4.33
   1   0  -4  104.53    4.70
  -1   0   4  106.18    3.40
   1   0  -4  103.48    3.35
   1   0  -4  101.19    4.61
   1   0  -3    9.84    1.32
   1   0  -3    9.90    1.38
   1   0  -3    9.69    1.03
   1   0  -3   11.11    1.45
   1   0  -2  218.56    4.59
   1   0  -2  211.30    4.72
  -1   0   2  207.49    4.36
   1   0  -2  204.35    3.89
  -1   0  -2  477.76    4.76
  -1   0  -2  472.00    4.03
  -1   0  -2  472.83    7.08
   1   0   2  500.21    7.53
  -1   0  -2  471.16    7.75
   1   0   2  480.80    4.81
   1   0   2  486.09    5.78
  -1   0  -3 1377.12   15.60
   1   0   3 1411.40   11.48
  -1   0  -3 1461.26    9.60
   1   0   3 1455.63   10.88
  -1   0  -3 1384.50   14.65
   1   0   3 1405.96   14.65
   1   0   4    1.74    0.66
   1   0   4    1.82    0.92
  -1   0  -4    2.41    0.58
  -1   0  -4    2.28    1.11
   1   0   5   84.97    3.60
  -1   0  -5   78.91    2.94
  -1   0  -5   75.03    4.67
  -1   0  -5   90.43    5.02
   1   0   5   84.07    4.51
   1   0   6  183.17    5.94
  -1   0  -6  171.52    7.48
  -1   0  -6  169.55    4.72
   1   0   6  173.25    7.02
  -1   0  -6  178.59    7.84
   1   0   6  171.66    5.59
   1   0   7   58.20    3.79
  -1   0  -7   57.97    3.02
   1   0   7   64.27    3.73
   1   0   7   54.35    4.34
  -1   0  -7   52.78    4.82
  -1   0  -7   55.56    4.79
   1   0   8  244.21    8.28
  -1   0  -8  247.94   10.74
   1   0   8  248.31    7.93
   1   0   8  255.32    9.94
  -1   0  -8  257.45   10.85
  -1   0  -8  236.62    6.45
  -1   0  -9  162.09    9.40
   1   0   9  147.81    8.08
   1   0   9  155.49    7.20
  -1   0  -9  165.72    9.31
   1   0  10   69.80    5.95
  -1   0 -10   68.44    6.70
   1   0  11   51.83    5.51
  -1   0 -11   53.16    6.34
  -1   0 -11   64.57    6.91
   1   0  11   63.30    6.43
   1   0  12    3.90    1.85
  -1   0 -12    7.30    2.85
  -1   0 -12    5.94    2.99
   1   0  12    5.36    2.49
  -1   0 -13    3.27    2.68
   1   0  13   11.32    3.48
  -1   0 -14    7.56    3.65
   1   1 -14   -0.67    1.68
  -1  -1  14    3.00    2.32
   1   1 -13   59.55    6.85
  -1  -1  13   67.80    7.38
  -1  -1  13   59.62    6.27
  -1  -1  13   55.99    6.16
   1   1 -13   64.52    7.69
  -1  -1  12   11.73    3.38
  -1  -1  12   10.28    2.76
   1   1 -12   14.93    4.02
   1   1 -12   12.92    3.27
  -1  -1  11   18.03    3.20
  -1  -1  11   20.45    3.82
   1   1 -11   16.85    3.37
   1   1 -11   17.12    3.93
  -1  -1  10    3.60    1.96
   1   1 -10    0.46    2.19
   1   1 -10    2.49    1.51
   1   1  -9   32.38    4.05
   1   1  -9   32.18    4.51
   1   1  -8   22.95    2.66
  -1  -1   8   21.31    2.17
   1   1  -8   14.82    3.04
   1   1  -8   18.00    2.75
   1   1  -7  195.69    8.84
   1   1  -7  185.33    6.72
   1   1  -7  180.55    7.50
  -1  -1   7  185.10    4.48
   1   1  -6    3.98    1.73
   1   1  -6    4.84    1.33
   1   1  -6    4.45    1.43
  -1  -1   6    2.57    0.66
   1   1  -5  115.43    5.71
   1   1  -5  115.36    4.68
  -1  -1   5  110.86    3.48
   1   1  -5  118.76    5.11
   1   1  -4   30.11    2.27
   1   1  -4   27.32    2.31
  -1  -1   4   30.58    1.82
   1   1  -4   30.14    2.75
  -1  -1   3  372.55    6.01
   1   1  -3  370.64    7.93
   1   1  -3  363.47    7.09
   1   1  -3  368.90    7.00
   1   1  -2  197.46    4.58
  -1  -1   2  209.28    4.34
   1   1  -2  203.51    4.66
   1   1  -1 3098.24   16.64
   1   1  -1 3036.56   15.43
  -1  -1   0  513.74    6.46
   1   1   0  509.14    6.77
   1   1   1 2168.80   14.88
  -1  -1  -1 2174.82   12.85
   1   1   1 2157.36   14.95
   1   1   1 2176.07   10.92
  -1  -1  -2 4474.44   26.08
   1   1   2 4377.43   23.45
  -1  -1  -2 4437.41   18.19
  -1  -1  -2 4436.86   24.40
  -1  -1  -3  681.68   11.66
  -1  -1  -3  695.82    7.11
  -1  -1  -3  708.94   11.32
   1   1   3  686.10   10.17
   1   1   3  710.82   10.68
  -1  -1  -4  676.97   12.37
   1   1   4  646.40   10.72
   1   1   4  658.01   11.34
  -1  -1  -4  670.00    6.66
  -1  -1  -4  647.00   12.65
   1   1   5   48.83    3.25
   1   1   5   48.52    3.43
  -1  -1  -5   51.08    4.06
  -1  -1  -5   53.81    3.94
  -1  -1  -6  215.07    8.92
   1   1   6  234.64    8.10
   1   1   6  216.06    7.24
  -1  -1  -6  205.49    8.34
  -1  -1  -7  200.80    9.38
   1   1   7  204.17    8.18
   1   1   7  197.71    7.44
  -1  -1  -7  193.04    8.76
   1   1   7  197.50    8.46
   1   1   8    2.11    1.31
  -1  -1  -8    2.76    2.01
   1   1   8    3.59    1.96
   1   1   8    3.96    1.37
  -1  -1  -8    3.35    2.03
   1   1   9   31.13    3.46
  -1  -1  -9   28.37    4.29
   1   1   9   24.47    3.39
  -1  -1  -9   28.27    4.15
   1   1   9   30.73    4.06
   1   1  10   58.47    5.96
  -1  -1 -10   51.58    6.09
  -1  -1 -10   50.02    5.66
   1   1  10   45.52    4.85
   1   1  11   79.76    6.71
   1   1  11   76.17    7.13
  -1  -1 -11   77.14    7.59
  -1  -1 -11   80.41    7.53
  -1  -1 -12   -2.50    2.63
  -1  -1 -12   -4.14    2.66
   1   1  12   -2.07    2.18
  -1  -1 -13   -1.85    2.36
  -1  -1 -13    2.39    2.16
   1   1  13    0.51    2.25
  -1  -2  14   -1.68    1.60
  -1  -2  14    0.06    2.29
   1   2 -14    0.06    1.38
  -1  -2  13    8.55    2.88
   1   2 -13    2.85    3.10
   1   2 -13    5.44    2.32
  -1  -2  13   10.13    3.26
   1   2 -12   80.79    8.08
   1   2 -12   87.60    7.39
  -1  -2  12   82.84    7.19
   1   2 -11    2.78    2.68
   1   2 -11    6.67    2.43
  -1  -2  11    6.31    2.53
   1   2 -10  463.84   16.68
  -1  -2  10  421.70   14.21
   1   2 -10  442.78   12.89
   1   2 -10  429.72   14.09
   1   2  -9  114.94    6.92
  -1  -2   9  122.16    7.26
   1   2  -9  115.11    6.33
   1   2  -9  121.17    8.18
   1   2  -8    0.33    1.97
   1   2  -8    0.34    1.40
  -1  -2   8    0.27    0.69
  -1  -2   8   -0.84    2.09
   1   2  -8   -0.71    1.33
  -1  -2   7  308.53    6.98
   1   2  -7  310.87    9.66
  -1  -2   7  301.63    9.96
   1   2  -7  300.63    9.18
   1   2  -7  297.63   11.01
   1   2  -6  318.86    8.88
   1   2  -6  302.31    8.84
  -1  -2   6  313.39    7.00
  -1  -2   6  306.86    9.30
   1   2  -6  316.20   10.33
  -1  -2   5   46.76    2.70
  -1  -2   5   46.74    3.43
   1   2  -5   43.71    3.20
   1   2  -5   42.34    3.65
   1   2  -5   43.87    3.21
   1   2  -4  509.92    9.87
  -1  -2   4  515.50    8.60
  -1  -2   4  516.15   10.17
   1   2  -4  505.67    9.50
   1   2  -3    2.59    0.92
  -1  -2   3    3.62    0.91
  -1  -2   3    4.23    1.13
   1   2  -3    3.52    0.95
   1   2  -2  700.16    9.78
  -1  -2   2  702.90    9.71
   1   2  -2  680.68    9.61
  -1  -2   2  693.86    9.75
   1   2  -2  674.15    9.48
  -1  -2   1    7.63    1.03
   1   2  -1    8.00    1.06
   1   2  -1    7.71    1.19
   1   2  -1    8.86    1.20
  -1  -2   1   10.50    1.33
   1   2   0  112.66    3.84
  -1  -2   0  118.70    3.97
   1   2   0  106.02    3.96
  -1  -2   0  114.95    3.14
   1   2   0  115.17    3.11
   1   2   1 1732.91   15.29
   1   2   1 1740.65   16.67
  -1  -2  -1 1710.02   10.78
  -1  -2  -1 1674.18   14.86
   1   2   1 1726.58    9.66
   1   2   2  127.18    4.44
  -1  -2  -2  128.20    4.39
  -1  -2  -2  133.03    4.16
   1   2   2  132.94    4.97
   1   2   2  124.27    3.97
  -1  -2  -3  112.57    3.83
   1   2   3  112.44    4.89
   1   2   3  117.15    4.58
  -1  -2  -3  101.86    5.18
   1   2   3   99.65    4.13
  -1  -2  -3   99.69    4.36
  -1  -2  -4  444.45   11.66
  -1  -2  -4  438.89   10.08
   1   2   4  433.80    9.64
  -1  -2  -4  430.36    7.38
   1   2   4  420.26   10.01
   1   2   4  434.04    9.51
  -1  -2  -5  201.57    7.55
  -1  -2  -5  170.56    3.30
   1   2   5  197.77    7.29
   1   2   5  188.74    6.79
  -1  -2  -5  187.52    8.19
   1   2   5  185.83    7.15
  -1  -2  -5  192.02    4.81
   1   2   6  268.55    9.30
  -1  -2  -6  275.73   10.75
   1   2   6  260.12    8.97
  -1  -2  -6  287.00    9.78
   1   2   6  274.46    8.78
  -1  -2  -7  368.07   12.01
   1   2   7  345.47   10.96
   1   2   7  352.16   10.74
  -1  -2  -7  363.29   13.33
   1   2   7  362.48   11.79
  -1  -2  -8  205.98    9.73
  -1  -2  -8  208.03   10.75
   1   2   8  193.26    8.51
   1   2   8  197.85    8.86
   1   2   8  197.39    9.38
   1   2   9    3.70    1.68
  -1  -2  -9    3.39    2.07
   1   2   9    1.73    1.38
  -1  -2  -9    3.59    2.05
   1   2   9    4.24    2.02
  -1  -2 -10   -3.37    2.71
   1   2  10    2.64    2.05
  -1  -2 -10    2.08    2.12
  -1  -2 -11   -2.69    2.27
  -1  -2 -11   -1.02    2.09
   1   2  11   -0.42    1.64
   1   2  12   23.91    4.74
  -1  -2 -12   27.30    5.02
  -1  -2 -12   26.39    5.25
   1   2  13    0.41    1.56
   1   3 -14    2.44    2.02
  -1  -3  14    1.91    2.18
  -1  -3  14    3.21    2.01
   1   3 -13   -0.23    1.64
  -1  -3  13   -2.48    1.97
  -1  -3  12   -1.37    1.76
   1   3 -12    1.78    2.79
   1   3 -12   -4.08    2.17
   1   3 -11    1.43    2.46
   1   3 -11    3.25    1.77
   1   3 -11    3.13    1.57
  -1  -3  11    3.07    2.02
   1   3 -10   39.55    4.30
   1   3 -10   38.96    4.43
   1   3 -10   37.72    5.19
  -1  -3  10   33.90    4.51
   1   3  -9 1155.75   21.23
   1   3  -9 1218.21   21.44
   1   3  -9 1208.22   25.49
  -1  -3   9 1133.96   22.77
   1   3  -8  214.77    8.69
   1   3  -8  216.03    8.77
   1   3  -8  228.00   10.57
  -1  -3   8  225.29    6.98
  -1  -3   8  238.74    9.93
  -1  -3   7    2.12    0.96
  -1  -3   7    1.87    1.64
   1   3  -7    4.42    1.67
   1   3  -7   -0.38    1.97
   1   3  -7    1.99    1.37
   1   3  -6   85.50    4.81
  -1  -3   6   84.78    5.33
  -1  -3   6   93.44    4.50
   1   3  -6  100.94    5.46
   1   3  -6   93.78    5.95
  -1  -3   5    8.95    1.50
   1   3  -5   10.11    1.67
   1   3  -5   11.28    1.94
  -1  -3   5   11.83    2.03
  -1  -3   4  323.30    8.81
  -1  -3   4  327.60    8.20
   1   3  -4  335.14    8.69
   1   3  -4  316.21    8.04
  -1  -3   3 2576.09   22.87
   1   3  -3 2640.21   21.51
   1   3  -3 2643.67   22.66
  -1  -3   3 2613.62   22.76
   1   3  -3 2631.53   21.83
   1   3  -2   34.67    2.57
   1   3  -2   37.21    2.60
  -1  -3   2   34.12    2.54
  -1  -3   2   32.93    2.63
  -1  -3   1  372.75    7.48
   1   3  -1  374.33    7.27
   1   3  -1  370.88    8.36
  -1  -3   1  373.54    8.50
  -1  -3   0  243.51    5.71
  -1  -3   0  245.73    6.84
   1   3   0  252.69    6.60
   1   3   0  255.85    7.20
   1   3   0  255.21    5.42
  -1  -3  -1 1346.18   12.54
   1   3   1 1384.10   15.34
   1   3   1 1366.11   17.35
   1   3   1 1331.39   10.90
  -1  -3  -1 1349.47   15.97
   1   3   2 2123.99   19.71
  -1  -3  -2 2151.80   18.54
   1   3   2 2135.37   22.88
  -1  -3  -2 2119.85   15.13
  -1  -3  -2 2093.58   19.95
  -1  -3  -3    0.79    0.80
   1   3   3    1.08    0.82
  -1  -3  -3    2.89    1.61
   1   3   3    0.38    0.81
  -1  -3  -3    1.21    0.92
   1   3   3    1.01    1.21
   1   3   4   11.34    1.80
   1   3   4   12.26    1.97
  -1  -3  -4    9.94    1.52
  -1  -3  -4    8.28    1.60
   1   3   4   11.16    2.04
  -1  -3  -4   12.33    2.63
   1   3   5  139.46    6.02
  -1  -3  -5  133.20    7.66
   1   3   5  129.07    6.67
  -1  -3  -5  133.44    6.18
  -1  -3  -5  117.45    4.75
   1   3   5  124.58    6.09
  -1  -3  -6  138.97    6.90
   1   3   6  134.67    7.22
   1   3   6  153.46    7.32
  -1  -3  -6  143.42    8.41
   1   3   6  139.30    6.45
   1   3   7    9.78    2.10
  -1  -3  -7   13.51    3.21
  -1  -3  -7   12.65    2.44
   1   3   7   13.77    2.69
   1   3   7   11.21    2.57
  -1  -3  -8  181.17   10.65
   1   3   8  185.67    9.34
   1   3   8  174.67    9.05
  -1  -3  -8  179.29    9.06
   1   3   8  179.19    8.28
   1   3   9   26.18    3.68
  -1  -3  -9   25.27    4.54
  -1  -3  -9   21.23    3.64
   1   3   9   22.87    3.84
   1   3  10   14.50    3.61
  -1  -3 -10   17.78    4.00
   1   3  10   16.65    3.21
   1   3  11    0.48    1.83
  -1  -3 -11   -6.83    3.06
  -1  -3 -12    1.16    2.47
   1   3  12    3.66    2.49
   1   4 -14   18.22    3.85
  -1  -4  14   21.91    4.54
   1   4 -13    6.33    2.25
  -1  -4  13    2.79    2.18
   1   4 -12   42.82    5.06
   1   4 -12   35.21    4.74
  -1  -4  12   35.68    5.25
  -1  -4  11    2.36    1.98
   1   4 -11    0.66    1.44
   1   4 -11    1.07    1.53
   1   4 -10   -1.00    1.42
  -1  -4  10    0.15    1.81
   1   4 -10    0.89    1.46
   1   4  -9  150.57    7.81
  -1  -4   9  135.46    8.43
   1   4  -9  150.69    8.16
  -1  -4   8  443.49   11.26
   1   4  -8  454.60   13.45
   1   4  -8  470.58   12.83
  -1  -4   7  264.82   10.34
   1   4  -7  265.26    9.80
   1   4  -7  263.09    9.11
  -1  -4   7  268.30    8.72
   1   4  -6  169.35    6.88
  -1  -4   6  173.74    6.95
  -1  -4   6  155.51    7.56
   1   4  -6  177.96    7.70
   1   4  -5   61.33    4.03
  -1  -4   5   62.55    4.63
  -1  -4   5   63.74    4.22
   1   4  -5   61.18    4.38
   1   4  -4  219.24    7.11
   1   4  -4  221.72    7.07
  -1  -4   4  230.78    8.06
   1   4  -4  227.28    7.81
  -1  -4   4  227.38    7.79
  -1  -4   3  203.27    7.19
   1   4  -3  208.58    6.91
   1   4  -3  206.27    6.79
   1   4  -3  210.16    7.03
  -1  -4   3  203.86    7.46
   1   4  -2   88.60    4.62
   1   4  -2   80.37    4.14
  -1  -4   2   84.62    4.79
  -1  -4   2   83.16    4.40
   1   4  -1  903.11   14.89
  -1  -4   1  893.82   13.41
  -1  -4   1  933.51   15.40
   1   4  -1  918.80   12.85
   1   4   0  780.11   14.40
  -1  -4   0  775.72   11.91
  -1  -4   0  797.69   14.30
   1   4   0  790.79   13.08
   1   4   0  773.79   10.83
  -1  -4  -1   28.26    2.86
   1   4   1   27.50    2.93
   1   4   1   24.80    2.41
  -1  -4  -1   28.64    2.25
   1   4   1   26.55    1.86
   1   4   2   42.88    3.76
  -1  -4  -2   44.44    3.49
  -1  -4  -2   43.77    2.66
   1   4   2   42.22    3.11
  -1  -4  -2   46.87    2.89
   1   4   2   42.56    1.99
  -1  -4  -3  442.79    9.45
   1   4   3  426.80   12.06
   1   4   3  426.69    9.96
  -1  -4  -3  405.37   10.33
  -1  -4  -4   11.91    1.83
  -1  -4  -4   16.39    2.23
   1   4   4   14.31    2.63
  -1  -4  -4   10.49    2.74
   1   4   4   12.18    2.00
  -1  -4  -5  116.26    5.82
  -1  -4  -5  116.22    7.73
   1   4   5  126.38    5.96
   1   4   5  129.65    6.56
   1   4   5  117.48    7.05
  -1  -4  -5  118.66    5.56
  -1  -4  -6    1.70    1.13
  -1  -4  -6   -0.18    1.65
   1   4   6   -0.96    1.09
   1   4   6    1.35    1.54
   1   4   6   -1.27    1.38
  -1  -4  -7   59.17    6.37
   1   4   7   55.31    5.34
   1   4   7   56.23    5.09
   1   4   8    4.18    2.08
  -1  -4  -8   -0.01    2.34
   1   4   8   -0.07    1.53
   1   4   9   87.70    7.31
   1   4   9   89.31    7.26
  -1  -4  -9   86.05    8.15
   1   4  10   21.62    4.14
   1   4  10   23.29    4.19
  -1  -4 -10   21.19    4.72
  -1  -4 -11   17.32    4.67
   1   4  11   16.42    4.01
  -1  -5  14    2.09    1.84
   1   5 -13    5.16    2.29
   1   5 -13    1.25    2.12
  -1  -5  13    3.38    2.86
   1   5 -12   53.89    5.74
  -1  -5  12   60.93    6.77
   1   5 -12   50.31    5.70
  -1  -5  11   77.76    7.37
   1   5 -11   82.54    6.59
   1   5 -11   74.56    6.67
   1   5 -10  172.87    8.92
  -1  -5  10  169.81   10.23
   1   5 -10  167.72    9.44
  -1  -5   9   50.79    4.28
  -1  -5   9   57.49    5.85
   1   5  -9   53.41    5.27
   1   5  -9   59.63    5.09
  -1  -5   8   11.11    2.18
  -1  -5   8   10.41    2.76
   1   5  -8   16.54    2.68
   1   5  -8   13.84    2.65
   1   5  -7   57.44    4.51
  -1  -5   7   65.78    5.53
   1   5  -7   61.42    5.24
  -1  -5   7   67.31    4.97
   1   5  -6    8.92    1.85
  -1  -5   6    4.78    1.98
  -1  -5   6    5.49    1.66
   1   5  -6    7.33    2.09
  -1  -5   5  319.46   10.87
   1   5  -5  331.64    9.49
   1   5  -5  308.75   10.36
   1   5  -5  336.71    9.74
  -1  -5   5  324.00   10.42
  -1  -5   4   62.02    4.69
   1   5  -4   66.37    4.30
   1   5  -4   67.19    4.63
  -1  -5   4   64.42    4.75
   1   5  -4   65.12    4.30
   1   5  -3  282.98    8.98
  -1  -5   3  285.09    9.69
   1   5  -3  291.95    8.97
  -1  -5   3  287.20    9.28
   1   5  -2    9.00    1.87
  -1  -5   2    5.62    1.52
  -1  -5   2    7.19    1.97
   1   5  -2    7.41    1.63
  -1  -5   1  122.94    6.42
   1   5  -1  127.18    5.31
  -1  -5   1  131.19    5.77
   1   5  -1  121.61    6.23
   1   5   0  471.19    9.48
  -1  -5   0  454.26   10.25
   1   5   0  460.22   12.49
  -1  -5   0  470.66   12.43
   1   5   0  473.22   11.18
  -1  -5  -1  302.33    9.85
   1   5   1  287.16    8.68
  -1  -5  -1  309.32    8.21
   1   5   1  303.80   10.55
   1   5   1  301.17    6.96
  -1  -5  -2    0.22    1.13
  -1  -5  -2    1.36    0.91
   1   5   2    0.96    0.64
   1   5   2    0.87    1.27
  -1  -5  -2    0.49    0.70
   1   5   2    0.40    0.95
   1   5   3  129.60    5.95
   1   5   3  131.59    7.44
  -1  -5  -3  122.40    6.49
  -1  -5  -3  123.14    5.07
   1   5   4    5.64    1.51
  -1  -5  -4    7.04    1.97
   1   5   4    7.84    2.33
  -1  -5  -4    5.36    2.36
   1   5   5    2.90    1.76
  -1  -5  -5    3.40    1.43
   1   5   5    1.94    1.14
  -1  -5  -5    4.70    2.26
   1   5   6   49.50    5.33
  -1  -5  -6   51.33    6.09
   1   5   7    0.60    1.65
  -1  -5  -7    0.12    2.05
   1   5   8   12.38    3.11
  -1  -5  -8   12.58    3.75
   1   5   9   39.07    5.30
  -1  -5  -9   47.49    6.57
  -1  -5 -10   26.48    5.44
   1   5  10   22.58    4.22
   1   6 -14   46.36    6.05
   1   6 -13   35.65    5.37
  -1  -6  13   38.01    6.16
   1   6 -12  154.64   10.12
  -1  -6  12  169.30   11.62
   1   6 -11   28.72    4.45
  -1  -6  11   37.51    5.44
   1   6 -11   32.78    4.34
   1   6 -10   26.74    4.20
   1   6 -10   26.24    3.73
  -1  -6  10   26.62    4.49
  -1  -6   9    4.01    1.61
   1   6  -9    6.96    2.41
  -1  -6   9    5.36    2.54
   1   6  -9    3.21    1.65
   1   6  -8   72.01    5.37
  -1  -6   8   70.07    6.41
  -1  -6   8   67.03    5.52
   1   6  -8   72.41    6.15
   1   6  -7   12.24    2.74
   1   6  -7   16.82    2.60
  -1  -6   7   15.29    3.19
  -1  -6   7   12.15    2.64
  -1  -6   6    8.18    2.39
  -1  -6   6    7.69    2.23
   1   6  -6   10.66    2.10
   1   6  -6    7.49    2.43
   1   6  -5   24.07    2.92
   1   6  -5   24.88    3.05
  -1  -6   5   29.99    3.74
  -1  -6   5   24.12    3.37
   1   6  -5   26.47    3.48
   1   6  -4   37.94    3.74
   1   6  -4   40.80    3.73
   1   6  -4   42.47    4.13
  -1  -6   4   43.80    4.48
  -1  -6   4   40.78    4.16
   1   6  -3  116.40    6.45
  -1  -6   3  125.25    7.21
  -1  -6   3  118.07    6.58
   1   6  -3  123.80    6.39
   1   6  -2 1747.47   25.26
   1   6  -2 1780.58   22.75
  -1  -6   2 1736.40   23.90
  -1  -6   2 1769.13   26.44
   1   6  -1  214.27    9.13
   1   6  -1  222.80    7.67
  -1  -6   1  219.06    8.28
  -1  -6   1  205.41    9.10
   1   6   0    8.87    2.34
   1   6   0    6.82    1.49
  -1  -6   0    7.25    1.79
  -1  -6   0    8.95    2.35
   1   6   1   56.49    5.12
   1   6   1   56.48    4.31
   1   6   1   60.06    3.51
  -1  -6  -1   52.72    4.75
  -1  -6  -1   63.84    4.25
   1   6   2    0.32    0.88
   1   6   2   -0.73    1.53
  -1  -6  -2   -0.17    1.24
  -1  -6  -2    1.63    1.15
   1   6   3    4.40    2.13
  -1  -6  -3    5.34    1.93
   1   6   3    3.40    1.34
   1   6   4    5.81    2.36
  -1  -6  -4    3.76    1.65
  -1  -6  -4    2.38    2.10
  -1  -6  -5   -4.45    2.38
  -1  -6  -5   -4.02    1.70
   1   6   5    0.00    1.46
   1   6   6   14.98    3.41
  -1  -6  -6   14.40    3.81
   1   6   7    5.33    2.48
  -1  -6  -7    5.06    2.75
   1   6   8    7.40    2.88
  -1  -6  -8   22.82    4.74
  -1  -6  -9   14.80    4.33
   1   6   9   12.32    3.22
   1   6  10   10.58    3.32
   1   7 -13   40.74    6.00
  -1  -7  12   75.04    8.33
   1   7 -12   64.87    7.08
  -1  -7  11  159.37   11.37
   1   7 -11  157.77   10.55
   1   7 -10    2.52    2.23
  -1  -7  10    3.94    2.43
   1   7  -9   -1.23    1.99
   1   7  -9    0.15    1.34
  -1  -7   9   -2.97    2.27
  -1  -7   9   -0.19    1.57
  -1  -7   8    8.13    2.52
   1   7  -8    9.92    2.49
   1   7  -8   10.61    2.34
  -1  -7   8    6.32    2.65
  -1  -7   7   33.80    4.78
   1   7  -7   36.57    3.88
   1   7  -7   31.81    4.32
  -1  -7   7   33.78    4.37
  -1  -7   6   14.58    3.13
  -1  -7   6   14.44    3.01
   1   7  -6   21.53    3.01
   1   7  -6   18.16    3.24
   1   7  -6   18.04    2.79
   1   7  -5    8.77    2.39
   1   7  -5    6.17    1.75
  -1  -7   5    5.25    2.10
   1   7  -5    7.95    2.05
  -1  -7   5    3.89    1.91
   1   7  -4    3.29    1.68
  -1  -7   4    5.79    2.09
   1   7  -4    6.73    1.85
   1   7  -4    5.22    1.90
  -1  -7   4    4.91    2.17
  -1  -7   3   42.12    4.81
   1   7  -3   51.59    4.50
   1   7  -3   50.54    4.69
  -1  -7   3   52.85    4.86
   1   7  -2    8.03    2.01
   1   7  -2    7.80    2.29
  -1  -7   2    4.77    1.91
  -1  -7   2    4.81    2.20
   1   7  -1  458.33   14.50
  -1  -7   1  480.78   15.10
  -1  -7   1  471.33   13.19
   1   7  -1  472.11   12.10
   1   7   0   88.33    6.73
  -1  -7   0   89.33    6.72
  -1  -7   0   86.28    5.58
   1   7   0   89.44    5.04
   1   7   1   -1.74    2.10
  -1  -7  -1    2.15    1.27
  -1  -7  -1    0.01    1.49
   1   7   2    4.01    2.09
  -1  -7  -2    0.46    1.67
   1   7   2   -0.13    0.95
   1   7   3    7.53    2.63
  -1  -7  -3   12.11    3.27
  -1  -7  -3    8.22    2.45
  -1  -7  -4    0.07    2.01
  -1  -7  -4   -2.11    1.66
   1   7   4   -3.36    2.32
  -1  -7  -5   15.91    3.85
   1   7   5   15.07    3.71
  -1  -7  -6   10.55    3.85
   1   7   6   11.44    3.35
  -1  -7  -7    0.37    2.61
   1   7   7   -0.02    1.57
   1   7   8   -3.44    2.52
  -1  -7  -8   -4.24    2.98
   1   8 -12   12.92    3.72
  -1  -8  12   16.08    4.28
  -1  -8  11   66.57    7.80
   1   8 -11   67.36    7.41
   1   8 -10   36.95    5.36
  -1  -8  10   43.15    6.19
   1   8  -9   -1.24    1.87
  -1  -8   9    3.42    2.40
  -1  -8   9    1.77    2.10
  -1  -8   8   11.19    3.16
  -1  -8   8   10.88    3.18
   1   8  -8   10.11    3.03
  -1  -8   7    7.71    2.66
   1   8  -7    8.99    2.27
  -1  -8   7    3.77    2.31
   1   8  -7   10.03    2.90
   1   8  -6   -3.13    1.55
  -1  -8   6   -2.14    1.92
   1   8  -6    0.74    1.27
   1   8  -6    0.04    1.56
  -1  -8   6    2.41    1.74
   1   8  -5    7.11    2.04
  -1  -8   5    7.22    2.86
  -1  -8   5    6.34    2.35
   1   8  -5    7.68    2.25
   1   8  -5   10.51    2.58
   1   8  -4   84.63    6.45
   1   8  -4   96.25    6.42
  -1  -8   4   89.45    6.91
  -1  -8   4   83.41    7.16
   1   8  -4   91.02    6.51
   1   8  -3   45.32    4.89
  -1  -8   3   57.86    5.52
  -1  -8   3   47.15    5.56
   1   8  -3   51.79    4.84
   1   8  -2    4.59    1.66
   1   8  -2    6.85    2.50
  -1  -8   2    6.90    2.83
  -1  -8   2    6.91    2.27
   1   8  -1   28.98    3.37
  -1  -8   1   26.87    3.57
   1   8  -1   29.20    4.18
  -1  -8   1   23.18    4.18
  -1  -8   0    5.76    1.75
   1   8   0    4.35    2.34
  -1  -8   0    5.68    2.53
   1   8   1   46.32    5.51
  -1  -8  -1   49.17    5.54
   1   8   2   -2.69    2.12
  -1  -8  -2    0.75    1.78
   1   8   3    1.45    1.77
  -1  -8  -3    0.96    2.45
  -1  -8  -3    3.10    1.74
   1   8   4   65.14    7.11
  -1  -8  -4   57.55    5.96
  -1  -8  -4   78.89    8.28
   1   8   5    2.88    2.11
  -1  -8  -5    1.57    2.51
  -1  -8  -6   -2.65    2.65
   1   8   6    1.04    1.96
   1   9 -10  221.14   13.05
  -1  -9  10  210.07   13.55
  -1  -9   9   57.36    7.03
  -1  -9   9   57.66    6.58
  -1  -9   8   27.37    4.70
  -1  -9   8   36.82    5.63
   1   9  -7   -2.53    2.04
  -1  -9   7   -7.97    2.79
  -1  -9   7   -3.39    2.56
   1   9  -6   11.37    3.15
  -1  -9   6   13.91    3.48
  -1  -9   6   15.50    3.58
   1   9  -6    9.79    2.69
  -1  -9   5   24.41    4.28
   1   9  -5   27.92    4.12
  -1  -9   5   20.89    4.07
   1   9  -5   23.93    3.55
   1   9  -5   29.98    4.19
   1   9  -4    1.59    1.70
   1   9  -4    2.64    1.56
   1   9  -4    0.65    1.33
  -1  -9   4   -2.08    1.68
  -1  -9   4    4.28    2.63
   1   9  -3   14.92    2.88
  -1  -9   3   14.44    3.13
  -1  -9   3   12.97    3.40
   1   9  -3   14.27    3.19
   1   9  -2    1.57    1.76
  -1  -9   2    1.81    1.65
  -1  -9   2    3.81    2.40
   1   9  -1    1.91    1.95
  -1  -9   1   -2.00    1.95
   1   9   0    6.35    2.29
  -1  -9   0    6.70    3.06
   1   9   1   43.37    5.72
  -1  -9  -1   32.90    4.96
   1   9   2   30.56    5.00
  -1  -9  -2   32.56    5.06
   1   9   3   14.19    3.68
  -1  -9  -3   13.92    4.09
  -1  -9  -3   13.06    3.43
  -1  -9  -4    1.11    2.61
   1   9   4    1.19    1.74
  -1 -10   9   48.09    6.86
   1  10  -9   53.07    6.69
  -1 -10   9   47.37    6.33
   1  10  -8   56.16    6.81
  -1 -10   8   49.08    6.49
  -1 -10   8   57.41    7.12
   1  10  -7   18.76    3.97
  -1 -10   7   19.88    4.44
  -1 -10   7   16.87    4.11
   1  10  -6    6.14    2.49
  -1 -10   6    6.77    3.23
  -1 -10   6    7.89    2.80
   1  10  -5   -0.09    2.07
  -1 -10   5    1.89    1.85
   1  10  -5    1.32    1.62
  -1 -10   5    2.40    2.58
   1  10  -4   36.93    4.88
  -1 -10   4   47.16    5.69
   1  10  -4   38.90    5.22
  -1 -10   4   34.47    5.65
  -1 -10   3   17.90    3.80
   1  10  -3   18.71    3.75
  -1 -10   3   14.23    3.75
  -1 -10   2    3.70    2.47
   1  10  -2    5.63    2.57
   1  10  -1    2.02    1.91
  -1 -10   1   -0.03    2.15
   1  10   0   -1.59    2.35
  -1 -10   0    2.76    2.47
   1  10   1   -4.41    2.79
  -1 -10  -1   -0.62    2.07
  -1 -10  -2   46.44    6.94
   1  10   2   43.02    6.27
  -1 -10  -2   38.02    5.64
   1  11  -7   12.85    3.41
  -1 -11   7    3.27    2.00
   1  11  -6    2.50    1.63
  -1 -11   6   -1.69    2.19
  -1 -11   5   32.62    5.81
  -1 -11   5   24.10    4.45
   1  11  -5   26.51    4.39
  -1 -11   4    0.81    2.19
   1  11  -4    2.57    2.04
   1  11  -3    4.15    2.47
  -1 -11   3    2.25    2.98
   1  11  -2   -1.43    2.17
  -1 -11   2    0.95    2.55
   1  11  -1   10.49    3.30
   2 -12   0    1.39    2.22
  -2  12   0    2.68    1.94
  -2  12  -1    3.93    2.34
   2 -12   2    1.86    2.39
   2 -12   3   10.40    3.36
  -2  12  -4    7.98    2.62
   2 -12   4    8.90    3.45
  -2  12  -5    9.77    3.08
   2 -12   5    2.44    2.60
   2 -11  -3    0.65    2.51
   2 -11  -2   25.26    5.14
  -2  11   2   14.11    3.85
  -2  11   1   10.84    2.80
   2 -11  -1   10.69    3.79
  -2  11   0   10.65    2.89
   2 -11   0    8.20    2.98
   2 -11   1    8.57    2.84
  -2  11  -1    7.67    2.64
  -2  11  -2    1.03    1.80
   2 -11   2   -4.88    2.78
   2 -11   3    1.71    2.36
  -2  11  -3    1.03    1.85
  -2  11  -4   24.17    4.07
   2 -11   4   24.28    4.74
   2 -11   5    6.25    3.00
  -2  11  -5    6.70    2.93
   2 -11   6   38.41    6.04
  -2  11  -6   52.39    6.36
  -2  11  -7   18.40    4.17
   2 -11   7    8.20    3.43
  -2  11  -8    8.73    3.03
   2 -11   8    8.12    3.34
   2 -10  -5   11.02    3.80
   2 -10  -4    3.45    2.77
  -2  10   4   15.28    4.30
   2 -10  -3    1.99    2.41
  -2  10   3    0.68    1.76
   2 -10  -2   -2.56    2.10
   2 -10  -2   -0.08    2.27
  -2  10   2   -0.87    1.97
   2 -10  -1   -1.93    1.97
   2 -10  -1    1.12    1.55
  -2  10   1    0.13    1.30
  -2  10   0    2.54    2.06
   2 -10   0   -0.18    1.80
  -2  10  -1   35.10    4.56
  -2  10  -1   32.48    4.15
   2 -10   1   27.68    4.53
  -2  10  -2    1.02    1.29
  -2  10  -2    0.92    1.47
   2 -10   3    0.41    1.79
  -2  10  -3    1.06    1.43
  -2  10  -3    0.26    1.26
   2 -10   4   70.46    7.24
  -2  10  -4   68.33    6.43
   2 -10   5   28.80    4.98
  -2  10  -5   28.20    4.35
   2 -10   6   24.23    4.82
  -2  10  -6   35.73    4.94
  -2  10  -7  146.26   10.05
   2 -10   7  141.74   10.72
  -2  10  -8    0.77    1.92
   2 -10   8    2.14    2.68
   2 -10   9   20.29    4.71
  -2  10  -9   22.55    4.42
   2 -10  10   -1.04    2.44
  -2  10 -10    1.35    2.45
   2  -9  -7    0.17    1.99
   2  -9  -6   10.45    4.06
  -2   9   6    5.05    2.44
  -2   9   5   15.60    3.80
   2  -9  -5   20.51    4.41
  -2   9   4    4.76    2.36
   2  -9  -4    6.05    2.93
   2  -9  -3    8.11    3.02
  -2   9   3    4.23    2.23
  -2   9   2    1.22    1.66
   2  -9  -2    4.19    2.06
   2  -9  -2    4.96    2.39
  -2   9   1   19.72    3.66
   2  -9  -1   20.47    3.74
   2  -9   0   14.18    3.20
  -2   9   0   12.20    2.49
  -2   9   0   12.19    2.93
  -2   9  -1    0.71    1.40
  -2   9  -1    1.26    1.65
   2  -9   1   -1.59    1.90
  -2   9  -2   68.97    5.90
  -2   9  -2   69.18    5.75
   2  -9   2   75.33    6.71
  -2   9  -3    9.93    2.75
   2  -9   3    9.60    2.89
  -2   9  -3   11.11    2.54
   2  -9   3   12.64    3.28
  -2   9  -4    2.88    1.73
  -2   9  -4    2.94    1.30
   2  -9   4    3.78    2.09
   2  -9   4   -1.04    2.33
   2  -9   5   88.86    7.78
   2  -9   5  102.87    7.91
   2  -9   6   11.54    3.48
  -2   9  -6    6.03    2.47
   2  -9   6    4.10    2.30
   2  -9   7   43.74    5.84
  -2   9  -7   37.73    5.06
  -2   9  -8    6.44    3.02
   2  -9   8    4.08    2.37
   2  -9   9    3.27    2.41
  -2   9  -9    5.00    2.57
   2  -9  10    7.92    3.25
  -2   9 -10    8.80    3.06
  -2   9 -11   -2.43    2.33
   2  -9  11    5.19    2.61
   2  -8  -8   33.03    5.96
  -2   8   8   30.57    5.67
  -2   8   7    1.06    1.74
   2  -8  -7   -1.57    2.12
   2  -8  -6   -0.06    1.92
  -2   8   6    4.91    2.50
   2  -8  -5    0.28    1.15
  -2   8   5   -0.20    1.57
   2  -8  -5   -1.09    2.15
  -2   8   4   44.09    5.52
   2  -8  -4   52.13    6.00
   2  -8  -3    3.43    2.25
  -2   8   3    5.49    2.17
   2  -8  -2    1.86    1.72
  -2   8   2    2.07    1.82
   2  -8  -2    6.99    2.55
   2  -8  -1    3.90    1.98
  -2   8   1    2.74    1.76
  -2   8   1    3.13    1.41
  -2   8   0   15.32    2.97
   2  -8   0   14.80    3.15
  -2   8   0   20.07    3.01
  -2   8  -1    7.88    2.03
  -2   8  -1    8.05    2.26
   2  -8   1    6.28    2.24
   2  -8   2  610.31   17.71
  -2   8  -2  632.32   16.13
  -2   8  -2  627.49   15.51
   2  -8   2  604.81   17.15
  -2   8  -3   88.21    6.32
  -2   8  -3   94.70    5.84
   2  -8   3   94.85    7.08
   2  -8   3   85.71    6.75
  -2   8  -4  130.12    7.90
   2  -8   4  127.27    8.39
  -2   8  -4  131.74    6.57
   2  -8   4  127.23    8.24
   2  -8   5    1.44    1.88
  -2   8  -5    1.66    1.73
   2  -8   5    4.81    2.20
   2  -8   6    0.62    1.80
  -2   8  -6    1.33    1.68
   2  -8   6    1.25    1.80
  -2   8  -7   42.65    4.79
  -2   8  -7   42.64    5.06
   2  -8   7   36.11    5.06
  -2   8  -8   24.19    4.11
   2  -8   8   20.49    3.92
  -2   8  -8   19.41    3.45
  -2   8  -9   11.05    3.07
   2  -8   9    6.78    2.88
  -2   8  -9    3.48    2.30
  -2   8 -10    1.98    1.90
   2  -8  10   -0.75    2.34
  -2   8 -10   -4.62    2.71
  -2   8 -11    0.83    1.73
  -2   8 -11    2.16    2.18
   2  -8  11   -0.99    2.19
   2  -8  12    9.19    3.63
  -2   8 -12    9.99    3.23
  -2   8 -12    9.26    3.50
  -2   7   9    5.35    2.81
   2  -7  -9    4.59    2.86
   2  -7  -8   -2.09    2.65
  -2   7   8    1.32    1.83
   2  -7  -7   70.78    7.54
  -2   7   7   74.59    7.38
   2  -7  -6    0.79    2.17
  -2   7   6   -0.65    1.75
  -2   7   5   14.39    3.22
   2  -7  -5   12.00    3.21
   2  -7  -5   10.95    2.35
  -2   7   4   23.09    3.96
   2  -7  -4   27.01    4.07
  -2   7   3  130.66    8.15
   2  -7  -3  145.16    8.65
   2  -7  -2  333.81   12.32
  -2   7   2  319.15   12.11
  -2   7   2  339.80   10.05
   2  -7  -2  347.82   11.74
  -2   7   1   -0.13    1.51
  -2   7   1    1.70    1.27
   2  -7  -1   -0.52    1.72
  -2   7   0   60.52    4.59
   2  -7   0   62.17    5.24
  -2   7   0   60.95    4.91
  -2   7  -1    6.87    1.98
  -2   7  -1    7.69    1.85
   2  -7   1    4.15    2.16
   2  -7   1    7.08    2.28
  -2   7  -2  246.19    9.52
   2  -7   2  243.03   10.28
   2  -7   2  241.11   10.10
  -2   7  -2  232.30    8.52
  -2   7  -3  417.90   12.69
  -2   7  -3  411.72   10.76
   2  -7   3  397.40   13.35
   2  -7   3  405.29   13.33
  -2   7  -4  329.44    9.15
   2  -7   4  324.00   12.32
  -2   7  -4  337.91    9.76
  -2   7  -4  349.83   12.00
   2  -7   4  321.74   11.81
  -2   7  -5   23.62    3.61
  -2   7  -5   16.93    2.08
   2  -7   5   23.82    3.45
  -2   7  -5   20.13    2.86
   2  -7   5   15.14    3.17
  -2   7  -6   19.72    3.29
   2  -7   6   18.09    3.46
   2  -7   6   21.32    3.28
  -2   7  -6   20.15    3.02
  -2   7  -7    2.31    1.94
   2  -7   7    3.31    2.27
  -2   7  -7    5.05    2.16
  -2   7  -8    0.65    1.60
  -2   7  -8   -0.92    1.95
   2  -7   8    1.05    1.98
  -2   7  -9   61.38    6.07
  -2   7  -9   62.25    6.41
   2  -7   9   62.30    6.57
  -2   7 -10   38.93    5.10
   2  -7  10   32.62    5.23
  -2   7 -10   29.93    4.97
   2  -7  11   65.78    7.23
  -2   7 -11   72.75    7.73
  -2   7 -11   75.95    7.01
  -2   7 -12   22.85    4.22
   2  -7  12   22.78    4.67
  -2   7 -12   16.90    4.18
  -2   7 -13    3.57    3.30
  -2   7 -13   -1.12    1.71
   2  -7  13    1.44    1.67
  -2   6  10   26.40    4.89
   2  -6 -10   16.26    4.45
  -2   6   9    3.32    2.38
   2  -6  -9    0.52    2.12
  -2   6   8    1.26    2.02
   2  -6  -8    3.34    2.37
   2  -6  -7    3.08    2.39
  -2   6   7    2.65    1.85
   2  -6  -6    9.25    1.93
  -2   6   6    8.76    2.74
   2  -6  -6    8.56    2.56
  -2   6   5   46.77    5.01
   2  -6  -5   42.56    3.91
   2  -6  -5   40.61    4.92
   2  -6  -4  107.17    7.35
  -2   6   4  105.91    7.18
  -2   6   3    1.51    1.05
   2  -6  -3    1.03    1.42
  -2   6   3    1.98    1.67
  -2   6   2   78.35    4.58
   2  -6  -2   96.79    6.15
   2  -6  -2   91.90    5.77
  -2   6   2   82.47    5.70
   2  -6  -1   33.45    3.61
  -2   6   1   37.91    3.80
  -2   6   1   32.09    3.07
  -2   6   0  350.65   10.03
   2  -6   0  348.91   10.92
  -2   6   0  354.79   10.51
  -2   6  -1  104.87    5.46
  -2   6  -1  107.95    5.74
   2  -6   1  106.34    6.18
  -2   6  -2  314.31    6.88
  -2   6  -2  321.21   10.16
  -2   6  -2  318.17    8.83
   2  -6   2  324.84   10.73
   2  -6   2  315.56   10.69
  -2   6  -3   25.28    2.42
  -2   6  -3   24.61    1.87
  -2   6  -3   20.98    2.94
   2  -6   3   23.28    3.25
  -2   6  -3   23.59    2.34
   2  -6   3   28.99    3.38
   2  -6   4    8.15    2.40
  -2   6  -4    7.46    1.79
  -2   6  -4   11.84    2.60
  -2   6  -4   13.32    1.40
  -2   6  -4    8.56    1.41
   2  -6   4   12.49    2.47
  -2   6  -5  597.90   15.06
  -2   6  -5  589.41   14.04
  -2   6  -5  602.96    9.86
  -2   6  -5  616.77    9.26
   2  -6   5  580.16   14.25
   2  -6   5  579.29   15.65
  -2   6  -6  263.23   10.36
  -2   6  -6  247.37    9.90
   2  -6   6  238.57   10.42
  -2   6  -7  145.18    8.30
   2  -6   7  136.77    8.26
  -2   6  -7  127.84    7.52
  -2   6  -8   -1.97    1.64
   2  -6   8    0.11    1.69
  -2   6  -8    0.52    1.59
  -2   6  -9   32.73    4.79
   2  -6   9   38.98    5.14
  -2   6  -9   29.29    4.12
   2  -6  10    7.01    2.71
  -2   6 -10   11.96    2.96
  -2   6 -10   11.13    3.35
  -2   6 -11   37.54    5.78
  -2   6 -11   34.77    4.66
   2  -6  11   43.61    5.71
  -2   6 -12   27.80    4.38
  -2   6 -12   34.98    5.93
   2  -6  12   27.18    4.81
   2  -6  13    4.40    2.51
  -2   6 -13    4.02    2.36
  -2   6 -13    6.52    3.72
   2  -6  14   12.24    3.62
  -2   5  12    7.25    2.76
   2  -5 -11    2.64    2.59
  -2   5  11    2.80    2.17
   2  -5 -10   -0.03    2.02
  -2   5  10    2.79    2.12
  -2   5   9   73.84    7.00
   2  -5  -9   49.81    6.34
   2  -5  -8    9.72    3.18
  -2   5   8   10.17    2.81
  -2   5   7  297.51   12.59
   2  -5  -7  297.83   13.40
   2  -5  -6  116.90    5.86
   2  -5  -6  108.91    7.74
  -2   5   6  106.34    7.30
   2  -5  -5   71.30    4.61
  -2   5   5   78.17    5.96
   2  -5  -5   74.77    6.11
  -2   5   5   77.49    4.87
  -2   5   4  355.50   10.14
  -2   5   4  361.88   11.90
   2  -5  -4  360.60   12.09
   2  -5  -3  180.15    8.03
  -2   5   3  183.70    8.13
  -2   5   3  177.92    7.15
   2  -5  -2   43.31    3.70
  -2   5   2   41.13    3.72
   2  -5  -2   36.50    3.48
  -2   5   1  171.21    6.32
  -2   5   1  165.61    6.80
   2  -5  -1  170.84    6.96
  -2   5   0    0.26    1.15
  -2   5   0    0.32    0.87
   2  -5   0   -0.55    1.26
   2  -5   1   41.75    3.63
  -2   5  -1   39.17    3.28
  -2   5  -1   42.15    2.03
  -2   5  -1   45.81    3.17
  -2   5  -2  118.77    4.30
  -2   5  -2  127.40    4.88
   2  -5   2  127.61    6.24
  -2   5  -2  128.10    5.94
  -2   5  -3  185.61    7.44
   2  -5   3  185.50    7.72
  -2   5  -3  191.33    6.36
   2  -5   3  181.31    7.22
  -2   5  -3  169.41    3.93
  -2   5  -3  183.64    5.33
  -2   5  -4   80.10    5.04
   2  -5   4   83.47    5.50
  -2   5  -4   82.46    4.76
  -2   5  -4   79.60    3.23
   2  -5   4   82.92    4.91
  -2   5  -4   89.07    2.99
   2  -5   5    9.72    2.25
  -2   5  -5   10.75    1.06
  -2   5  -5    9.19    1.97
  -2   5  -5    9.87    1.18
  -2   5  -5   10.99    2.31
  -2   5  -6   58.03    4.69
  -2   5  -6   60.38    5.00
  -2   5  -6   48.20    2.79
   2  -5   6   45.68    4.45
  -2   5  -7  190.97    8.62
  -2   5  -7  212.51    9.80
   2  -5   7  213.73    9.66
  -2   5  -7  204.84    6.39
  -2   5  -8  162.39    9.29
  -2   5  -8  168.47    6.40
   2  -5   8  161.42    8.84
  -2   5  -8  168.20    8.39
  -2   5  -9  150.82    8.23
  -2   5  -9  151.18    9.58
   2  -5   9  147.21    8.76
   2  -5  10  137.20    8.85
  -2   5 -10  121.77    7.71
  -2   5 -10  128.05    9.36
  -2   5 -11    9.56    2.52
   2  -5  11   12.80    3.07
  -2   5 -11   16.61    4.18
  -2   5 -12    6.26    2.24
   2  -5  12    6.37    2.58
  -2   5 -12    4.88    2.81
   2  -5  13   18.16    3.77
  -2   5 -13   24.13    5.70
  -2   4  12   12.17    3.61
  -2   4  12   12.51    3.20
   2  -4 -12    9.46    3.61
  -2   4  11    0.58    1.35
   2  -4 -11    1.65    2.60
  -2   4  11    1.64    1.80
  -2   4  10   32.57    5.01
  -2   4  10   32.86    4.81
   2  -4 -10   23.21    4.77
  -2   4   9    4.46    2.22
   2  -4  -9    4.20    2.68
  -2   4   9    6.42    2.50
  -2   4   8   17.40    3.50
   2  -4  -8   14.91    3.49
  -2   4   8   14.99    3.07
   2  -4  -7   23.25    2.60
   2  -4  -7   19.30    3.59
  -2   4   7   15.53    3.11
  -2   4   7   20.73    2.45
  -2   4   6 1428.56   19.13
   2  -4  -6 1435.59   18.77
   2  -4  -6 1424.92   25.50
  -2   4   6 1380.68   24.07
  -2   4   5  126.59    7.01
   2  -4  -5  125.63    7.34
   2  -4  -5  122.29    5.47
  -2   4   5  123.18    5.59
  -2   4   4   39.97    3.18
   2  -4  -4   39.11    3.81
   2  -4  -4   36.92    3.04
  -2   4   4   40.44    3.81
   2  -4  -3    0.90    1.06
  -2   4   3    0.14    1.13
  -2   4   3    0.85    0.80
  -2   4   2  130.21    5.82
   2  -4  -2  132.47    5.76
   2  -4  -2  132.68    5.74
  -2   4   2  126.16    5.32
  -2   4   1  105.69    4.91
   2  -4  -1  103.00    5.01
  -2   4   1  105.44    4.86
   2  -4   0 1557.55   18.95
  -2   4   0 1533.48    8.55
  -2   4   0 1555.79   17.00
  -2   4   0 1557.69   18.26
   2  -4   1   86.43    4.59
  -2   4  -1   88.72    4.45
  -2   4  -1   94.30    3.12
  -2   4  -1   97.73    3.92
  -2   4  -2   34.92    2.95
  -2   4  -2   30.14    1.32
  -2   4  -2   32.27    2.07
  -2   4  -2   34.09    2.35
   2  -4   2   27.02    2.77
  -2   4  -3  129.40    5.69
  -2   4  -3  131.52    2.74
   2  -4   3  129.30    5.87
  -2   4  -3  129.84    5.16
  -2   4  -3  131.39    3.55
  -2   4  -4 1136.42    9.73
   2  -4   4 1137.26   17.85
  -2   4  -4 1110.95   16.99
  -2   4  -4 1129.00   17.25
   2  -4   5  673.90   14.31
  -2   4  -5  646.28   13.53
  -2   4  -5  671.65   14.64
  -2   4  -5  657.20    8.99
  -2   4  -6   47.09    3.94
  -2   4  -6   50.47    2.93
   2  -4   6   47.70    4.18
  -2   4  -6   46.96    4.46
  -2   4  -7    0.41    1.15
  -2   4  -7    0.08    0.63
   2  -4   7    0.20    1.48
  -2   4  -7    0.20    1.72
  -2   4  -8   12.30    2.45
  -2   4  -8    9.40    1.73
   2  -4   8    6.74    2.10
  -2   4  -8    5.82    2.52
  -2   4  -9   -0.96    1.28
  -2   4  -9    0.93    1.20
   2  -4   9    1.33    1.52
  -2   4  -9    1.59    2.22
  -2   4 -10   69.10    5.22
  -2   4 -10   62.86    6.81
   2  -4  10   64.77    5.86
  -2   4 -10   70.91    5.57
  -2   4 -11   74.60    7.70
  -2   4 -11   82.02    6.27
   2  -4  11   83.19    6.95
  -2   4 -12    0.21    2.35
   2  -4  12    2.41    1.68
  -2   4 -13    3.26    3.12
   2  -4  13   -2.45    2.16
   2  -4  14    4.09    2.58
  -2   3  12    6.27    2.94
   2  -3 -12    7.89    3.08
  -2   3  12    5.59    2.50
   2  -3 -11   40.42    6.00
  -2   3  11   49.68    6.28
  -2   3  11   56.22    6.01
  -2   3  10    3.83    2.22
   2  -3 -10    2.29    2.61
  -2   3  10    1.40    1.85
   2  -3  -9   16.15    3.80
  -2   3   9   19.30    3.37
  -2   3   9   15.27    3.41
   2  -3  -8   -0.51    1.90
  -2   3   8   -2.32    1.46
   2  -3  -8    0.34    1.92
  -2   3   8   -2.58    1.90
   2  -3  -7   40.91    3.13
   2  -3  -7   37.45    4.57
  -2   3   7   41.84    4.24
  -2   3   7   42.76    4.62
   2  -3  -7   42.75    4.57
  -2   3   7   38.18    3.11
   2  -3  -6  237.98    9.38
   2  -3  -6  226.92    6.98
  -2   3   6  230.72    5.65
  -2   3   6  212.18    8.75
  -2   3   6  221.61    9.40
   2  -3  -6  228.76    9.80
  -2   3   6  215.48    7.02
   2  -3  -5 1179.86   19.03
   2  -3  -5 1189.80   15.54
  -2   3   5 1230.92   19.63
  -2   3   5 1215.64   20.00
  -2   3   5 1170.17   10.64
   2  -3  -5 1225.07   20.61
  -2   3   5 1176.64   15.82
  -2   3   4  281.83    8.81
   2  -3  -4  273.90    7.24
   2  -3  -4  287.57    9.21
   2  -3  -4  265.18    8.26
  -2   3   4  258.96    7.22
   2  -3  -3  212.28    6.22
   2  -3  -3  217.00    6.76
   2  -3  -3  232.57    7.48
  -2   3   3  220.92    6.47
   2  -3  -2   11.08    1.65
   2  -3  -2   11.90    1.52
  -2   3   2    9.73    1.43
   2  -3  -1   14.90    1.88
   2  -3  -1   12.89    1.33
   2  -3  -1   15.38    1.60
  -2   3   1   15.89    1.78
  -2   3   0  270.58    6.08
  -2   3   0  255.27    4.32
   2  -3   0  268.94    7.02
  -2   3   0  266.09    6.61
   2  -3   1  192.49    5.95
  -2   3  -1  193.18    4.54
  -2   3  -1  198.69    4.67
  -2   3  -1  189.18    5.53
  -2   3  -2  216.58    6.36
  -2   3  -2  229.67    4.10
   2  -3   2  231.53    6.73
  -2   3  -2  222.54    5.94
  -2   3  -3  233.84    6.97
  -2   3  -3  245.37    3.48
   2  -3   3  241.53    7.19
  -2   3  -3  226.41    2.91
  -2   3  -3  241.19    6.97
  -2   3  -4   15.84    2.23
  -2   3  -4   15.63    2.05
  -2   3  -4   16.30    1.28
   2  -3   4   17.43    2.18
  -2   3  -5   18.34    2.30
  -2   3  -5   20.36    2.78
  -2   3  -5   19.35    1.70
   2  -3   5   17.31    2.31
  -2   3  -6  480.48   11.17
  -2   3  -6  496.80    9.48
   2  -3   6  488.93   11.87
  -2   3  -6  507.64   13.68
  -2   3  -7   51.40    3.52
  -2   3  -7   49.93    3.90
  -2   3  -7   50.69    4.89
   2  -3   7   44.96    3.88
  -2   3  -8  165.95    6.96
   2  -3   8  170.03    7.94
  -2   3  -8  158.13    9.05
  -2   3  -8  162.43    7.11
   2  -3   9   96.90    6.34
  -2   3  -9  103.87    5.99
  -2   3  -9  105.29    7.90
  -2   3  -9   98.95    5.83
  -2   3 -10    0.50    1.25
   2  -3  10    0.50    1.29
  -2   3 -10   -0.02    2.10
  -2   3 -11   26.45    4.89
   2  -3  11   23.57    3.67
   2  -3  11   24.02    4.33
   2  -3  12   39.63    5.60
  -2   3 -12   43.19    6.43
  -2   3 -13   14.96    4.57
   2  -3  13   13.38    3.71
   2  -3  14    3.05    2.22
  -2   2  13    1.66    2.76
   2  -2 -12    4.33    2.57
  -2   2  12    2.31    2.51
   2  -2 -11   -0.14    1.87
   2  -2 -11   -0.86    2.24
  -2   2  11    5.71    2.07
  -2   2  11    0.28    1.73
   2  -2 -10    2.87    2.13
  -2   2  10    2.04    1.50
   2  -2 -10    1.16    1.74
  -2   2  10    0.93    1.74
   2  -2  -9   22.13    4.05
   2  -2  -9   26.27    3.83
   2  -2  -9   25.31    4.06
  -2   2   9   20.05    3.19
  -2   2   9   28.31    4.28
  -2   2   8  207.61    6.97
   2  -2  -8  210.19    6.77
   2  -2  -8  209.07    9.77
  -2   2   8  221.26    7.54
   2  -2  -8  217.12   10.66
  -2   2   8  215.68    9.27
  -2   2   8  218.38   10.14
   2  -2  -8  220.26    9.44
   2  -2  -7  251.32    9.99
   2  -2  -7  256.22   10.63
   2  -2  -7  252.28    7.27
  -2   2   7  252.75    7.45
   2  -2  -7  258.13    9.41
  -2   2   7  274.53   10.62
  -2   2   6   59.36    3.53
   2  -2  -6   59.01    3.46
   2  -2  -6   60.07    4.87
   2  -2  -6   61.10    4.33
  -2   2   6   66.68    4.98
   2  -2  -6   60.57    4.67
   2  -2  -5   83.78    3.92
   2  -2  -5   79.86    4.76
   2  -2  -5   75.06    4.92
  -2   2   5   75.81    3.79
  -2   2   5   92.19    5.33
  -2   2   4  565.59    9.78
   2  -2  -4  559.80   11.26
   2  -2  -4  569.46    9.66
   2  -2  -4  580.11   12.07
  -2   2   4  561.83   11.85
  -2   2   3  149.52    4.86
   2  -2  -3  152.41    4.85
   2  -2  -3  150.59    5.53
   2  -2  -3  152.65    5.27
  -2   2   3  160.28    5.82
   2  -2  -2 1324.11   13.26
  -2   2   2 1321.21   13.68
   2  -2  -2 1321.56   13.49
   2  -2  -2 1347.91   14.05
   2  -2  -1    3.72    0.93
   2  -2  -1    2.42    0.61
   2  -2  -1    2.32    0.35
  -2   2   1    2.10    0.76
   2  -2  -1    1.34    0.65
   2  -2  -1    2.34    0.61
   2  -2   0   91.74    2.55
  -2   2   0   94.16    3.45
   2  -2   0   94.48    2.24
   2  -2   0   93.60    3.61
   2  -2   1   31.16    2.13
  -2   2  -1   34.03    2.09
  -2   2  -1   33.09    2.01
  -2   2  -2  642.20   10.18
   2  -2   2  628.49    9.48
  -2   2  -2  656.71    8.57
   2  -2   3   72.26    3.45
  -2   2  -3   73.40    3.48
  -2   2  -3   74.81    4.03
   2  -2   4  518.10    9.75
  -2   2  -4  499.26   11.50
  -2   2  -4  506.40    9.49
  -2   2  -5  104.10    4.53
   2  -2   5  115.11    4.98
  -2   2  -5  111.94    6.01
  -2   2  -5  106.73    4.24
  -2   2  -6  235.15    7.07
   2  -2   6  226.81    3.67
   2  -2   6  239.88    7.71
  -2   2  -6  238.99    7.16
  -2   2  -6  243.73    9.56
  -2   2  -7   10.36    2.39
  -2   2  -7   10.21    1.72
   2  -2   7   12.63    2.06
  -2   2  -8    9.17    1.77
   2  -2   8   10.27    2.02
  -2   2  -8    6.28    2.39
   2  -2   9  169.27    7.88
   2  -2   9  179.45    9.51
  -2   2  -9  177.26   10.20
  -2   2  -9  173.41    7.03
   2  -2  10   44.95    5.17
   2  -2  10   37.31    4.08
  -2   2 -10   34.60    5.08
  -2   2 -11   13.97    3.76
   2  -2  11   13.06    3.18
   2  -2  12    0.07    1.76
  -2   2 -12    0.59    1.97
   2  -2  13   19.82    4.23
  -2   2 -13   16.12    4.32
   2  -2  14   10.28    3.03
   2  -1 -13   48.08    6.49
  -2   1  13   65.87    7.65
   2  -1 -12   23.79    4.46
  -2   1  12   24.18    4.55
  -2   1  11    0.50    1.75
  -2   1  11    4.29    1.80
   2  -1 -11    4.09    2.08
   2  -1 -10   29.29    4.49
   2  -1 -10   30.61    4.83
  -2   1  10   30.77    3.86
  -2   1  10   27.96    4.34
   2  -1  -9  108.87    7.88
   2  -1  -9   94.37    6.97
  -2   1   9  109.99    7.56
   2  -1  -9  109.80    7.40
   2  -1  -8   19.17    3.60
  -2   1   8   19.48    2.19
   2  -1  -8   18.11    3.17
   2  -1  -8   18.28    3.20
   2  -1  -8   16.20    2.01
  -2   1   8   21.87    3.45
  -2   1   7  231.71    7.02
   2  -1  -7  226.76    9.10
   2  -1  -7  243.73    7.06
   2  -1  -7  229.88    9.85
   2  -1  -7  250.28    9.47
  -2   1   7  245.83    9.67
   2  -1  -6   40.75    3.77
   2  -1  -6   43.04    4.03
   2  -1  -6   41.79    2.84
  -2   1   6   38.23    2.78
   2  -1  -6   41.86    3.72
  -2   1   6   40.90    3.80
  -2   1   5  289.46    7.08
   2  -1  -5  288.99    8.56
   2  -1  -5  283.84    9.03
   2  -1  -5  289.68    6.97
  -2   1   5  306.18    9.07
   2  -1  -4  864.07   13.31
   2  -1  -4  839.44   11.15
   2  -1  -4  862.27   13.93
  -2   1   4  837.15   11.47
  -2   1   3 1118.86   12.46
  -2   1   3 1112.86   13.84
   2  -1  -3 1113.30   13.84
   2  -1  -3 1121.47   12.25
   2  -1  -3 1142.10   13.67
   2  -1  -2  432.52    7.20
  -2   1   2  430.27    7.26
   2  -1  -2  444.94    7.39
   2  -1  -2  437.65    7.19
  -2   1   2  420.62    7.49
  -2   1   1  182.38    4.43
   2  -1  -1  185.92    4.01
   2  -1  -1  177.05    4.34
   2  -1  -1  182.90    3.63
   2  -1  -1  178.78    3.41
  -2   1   0   97.06    3.04
   2  -1   0   97.87    3.03
   2  -1   0  103.38    2.50
   2  -1   0   94.69    2.99
   2  -1   0   98.01    2.88
  -2   1  -1 9753.04   27.99
   2  -1   1 9674.13   33.24
   2  -1   2  741.78    7.06
   2  -1   2  728.67   10.48
  -2   1  -2  712.27    7.52
   2  -1   2  761.05    8.45
  -2   1  -2  715.99   11.00
  -2   1  -2  741.10    7.22
  -2   1  -3    1.54    1.11
  -2   1  -3    2.64    0.76
  -2   1  -3    1.46    0.41
   2  -1   3    2.55    0.47
   2  -1   3    1.42    0.60
  -2   1  -3    2.97    0.84
   2  -1   3    3.79    0.53
   2  -1   3    1.02    0.81
  -2   1  -4   68.03    3.07
   2  -1   4   64.75    1.78
  -2   1  -4   62.87    3.48
   2  -1   4   69.46    2.39
   2  -1   4   73.08    4.21
   2  -1   4   69.41    3.14
  -2   1  -4   67.71    4.36
   2  -1   5   28.26    1.71
   2  -1   5   27.18    2.92
   2  -1   5   25.47    2.21
  -2   1  -5   25.50    2.59
  -2   1  -5   25.63    3.18
  -2   1  -5   21.60    1.88
  -2   1  -6    4.33    1.02
   2  -1   6    4.51    0.89
   2  -1   6    4.26    1.43
  -2   1  -6    7.29    1.74
  -2   1  -6    6.12    1.98
   2  -1   6    4.89    1.21
  -2   1  -7   17.28    3.08
  -2   1  -7   15.59    1.79
  -2   1  -7   19.99    2.90
   2  -1   7   19.99    2.99
   2  -1   7   18.43    2.27
   2  -1   7   15.42    1.60
  -2   1  -8   41.15    4.43
   2  -1   8   42.90    4.48
   2  -1   8   48.56    3.87
  -2   1  -8   43.15    4.88
  -2   1  -8   47.98    3.22
   2  -1   9  196.47    8.06
  -2   1  -9  188.13   10.40
  -2   1  -9  187.54    9.61
   2  -1   9  180.26    9.41
   2  -1  10   34.95    4.61
  -2   1 -10   39.58    5.19
  -2   1 -10   36.12    5.26
  -2   1 -11    7.79    2.73
  -2   1 -11    6.44    3.15
   2  -1  11   10.84    2.88
  -2   1 -12   -1.93    2.23
   2  -1  12    0.04    1.58
   2  -1  13    2.04    1.54
  -2   1 -13    0.45    2.57
   2  -1  13   -2.15    2.05
   2  -1  14    7.96    2.76
   2   0 -14    2.45    2.31
  -2   0  13   29.24    4.54
  -2   0  13   32.82    5.38
  -2   0  12    8.07    2.93
   2   0 -12   12.94    3.30
   2   0 -11   16.43    3.62
  -2   0  11   17.10    3.66
  -2   0  10   39.64    4.95
   2   0 -10   42.07    4.85
  -2   0   9  128.48    5.79
   2   0  -9  124.18    7.63
   2   0  -9  117.03    7.74
  -2   0   9  123.69    7.85
  -2   0   8  332.77    8.96
  -2   0   8  336.59   11.77
   2   0  -8  340.56   12.23
   2   0  -8  319.83   11.32
   2   0  -7    0.22    1.46
  -2   0   7    0.07    0.77
  -2   0   7    0.23    1.39
  -2   0   7    0.30    0.53
   2   0  -6  107.22    5.63
  -2   0   6  114.22    4.77
  -2   0   6  119.80    6.01
   2   0  -6  112.42    4.67
   2   0  -5    3.04    0.98
   2   0  -5    3.73    1.39
  -2   0   5    3.78    1.05
  -2   0   4  191.07    5.48
   2   0  -4  198.13    6.35
   2   0  -4  198.48    5.50
  -2   0   4  206.22    6.27
   2   0  -3   35.09    2.24
   2   0  -3   33.94    2.46
  -2   0   3   35.33    2.33
   2   0  -2 2222.55   16.80
   2   0  -2 2221.23   16.08
  -2   0   2 2210.26   14.90
   2   0  -2 2182.31   15.64
   2   0  -1   28.61    1.77
   2   0  -1   24.26    1.67
   2   0  -1   26.61    1.74
  -2   0   0 2594.74   14.82
   2   0   0 2528.43   14.67
   2   0   0 2563.53   16.83
   2   0   1 3635.01   18.96
  -2   0  -1 3676.79   16.13
   2   0   1 3704.74   22.21
   2   0   1 3695.45   15.90
  -2   0  -2 2948.28   19.18
   2   0   2 2916.56   17.60
   2   0   2 3019.87   22.09
   2   0   2 2965.05   11.14
  -2   0  -2 2961.41   22.89
  -2   0  -3   25.68    1.49
   2   0   3   27.35    2.46
   2   0   3   28.70    1.92
  -2   0  -3   29.51    2.38
  -2   0  -3   24.78    1.42
   2   0   3   28.46    1.40
   2   0   4   77.03    4.42
   2   0   4   76.81    3.30
   2   0   4   74.75    2.72
  -2   0  -4   76.23    4.16
  -2   0  -4   77.03    2.22
  -2   0  -4   67.10    4.36
  -2   0  -4   69.78    2.50
  -2   0  -5   41.93    2.10
   2   0   5   52.00    3.90
   2   0   5   42.29    2.65
  -2   0  -5   43.79    3.92
  -2   0  -5   44.74    3.63
   2   0   5   41.52    2.42
  -2   0  -5   42.23    1.32
   2   0   6   42.11    3.85
   2   0   6   44.17    2.81
  -2   0  -6   43.73    3.98
   2   0   6   40.81    2.87
  -2   0  -6   41.30    4.10
  -2   0  -6   43.50    2.28
  -2   0  -7    0.88    1.57
  -2   0  -7    0.91    0.60
   2   0   7    0.70    0.75
   2   0   7    0.66    1.01
  -2   0  -7   -0.40    1.27
   2   0   7    1.64    0.87
  -2   0  -8   17.32    3.35
   2   0   8   10.27    2.49
  -2   0  -8   13.08    2.85
   2   0   8   16.62    2.12
   2   0   8   16.33    2.14
  -2   0  -9    1.87    1.70
   2   0   9    2.11    1.46
  -2   0  -9    0.19    2.07
  -2   0 -10   21.54    4.23
  -2   0 -10   30.09    4.66
   2   0  10   29.62    4.21
  -2   0 -11   11.14    3.37
   2   0  11    9.19    2.51
   2   0  11   10.36    2.90
  -2   0 -11   12.68    3.50
  -2   0 -12    3.39    2.16
   2   0  12    1.14    1.88
   2   0  12    2.82    1.95
  -2   0 -12    0.18    2.84
  -2   0 -13   -0.19    1.79
   2   0  13    5.11    2.84
  -2  -1  14   56.23    7.29
   2   1 -14   48.81    6.48
  -2  -1  14   49.03    6.21
   2   1 -13   -2.26    2.08
  -2  -1  13   -1.47    2.35
  -2  -1  13    3.54    2.08
   2   1 -12    3.89    2.25
  -2  -1  12    1.20    2.05
  -2  -1  12    2.62    1.95
  -2  -1  11    0.17    1.86
   2   1 -11    0.97    1.68
   2   1 -10    3.16    1.82
  -2  -1  10    0.78    1.65
   2   1  -9  104.40    6.95
  -2  -1   9  114.66    5.63
  -2  -1   9  103.89    6.99
  -2  -1   8   34.54    3.07
   2   1  -8   43.14    4.24
  -2  -1   8   42.40    2.75
   2   1  -7  159.26    7.38
  -2  -1   7  163.83    5.38
  -2  -1   6  161.52    5.24
   2   1  -6  145.40    6.52
   2   1  -5    3.60    1.41
  -2  -1   5    3.62    1.00
  -2  -1   4  112.41    4.17
   2   1  -4  111.41    4.85
  -2  -1   3   48.04    2.70
   2   1  -3   45.31    2.86
   2   1  -2  273.43    6.51
   2   1  -2  275.16    6.45
  -2  -1   2  271.74    6.13
  -2  -1   2  283.88    4.73
   2   1  -1  674.49    9.77
   2   1  -1  655.78    9.74
  -2  -1   1  700.58    9.50
  -2  -1   1  684.33    4.61
   2   1   0  219.63    5.70
   2   1   0  224.31    5.67
  -2  -1   0  222.41    5.24
   2   1   1  997.17   12.11
   2   1   1  992.93   12.65
  -2  -1  -1  959.34   10.69
   2   1   2  171.62    5.25
  -2  -1  -2  172.19    4.45
  -2  -1  -2  173.97    5.88
  -2  -1  -3    2.77    1.21
  -2  -1  -3    1.93    1.07
  -2  -1  -3    1.67    0.32
   2   1   3    2.93    1.12
   2   1   3    1.26    0.76
  -2  -1  -3    0.85    0.55
  -2  -1  -4    1.32    1.15
   2   1   4    1.66    1.07
   2   1   4    1.74    0.46
   2   1   4    1.74    0.93
  -2  -1  -4    1.44    1.17
  -2  -1  -4    1.87    0.62
   2   1   5   10.32    1.89
  -2  -1  -5    9.25    2.04
  -2  -1  -5    8.86    0.94
   2   1   5    9.09    1.05
   2   1   5    9.45    1.58
  -2  -1  -6   19.98    3.09
   2   1   6   18.95    1.73
  -2  -1  -6   16.64    2.69
   2   1   6   18.92    2.69
   2   1   6   17.91    2.27
   2   1   7  444.24   12.93
   2   1   7  464.25   11.56
  -2  -1  -7  477.86   14.41
  -2  -1  -7  476.04   14.56
  -2  -1  -8    9.27    2.71
  -2  -1  -8    5.09    2.37
   2   1   8    4.60    1.83
   2   1   8    6.53    1.99
   2   1   8    6.90    1.70
  -2  -1  -9    6.61    2.52
   2   1   9    4.17    1.98
   2   1   9    4.81    1.94
  -2  -1  -9    9.43    2.71
  -2  -1 -10   -2.52    2.09
  -2  -1 -10   -2.06    2.24
   2   1  10    2.43    1.59
   2   1  10    3.09    1.84
   2   1  11   18.06    3.39
  -2  -1 -11   16.69    4.22
  -2  -1 -11   14.87    3.67
   2   1  11   15.04    3.59
  -2  -1 -12   22.81    4.70
   2   1  12   23.47    4.46
  -2  -1 -12   25.16    5.14
   2   1  13    1.41    2.05
  -2  -1 -13    0.91    1.69
  -2  -1 -13    0.36    2.06
   2   2 -14   -2.43    2.12
  -2  -2  14   -0.76    2.12
  -2  -2  14   -0.18    2.47
  -2  -2  13   11.11    3.38
  -2  -2  13   10.58    3.05
   2   2 -13   13.01    3.66
   2   2 -12    1.65    1.95
  -2  -2  12    1.26    1.94
  -2  -2  12   -0.65    2.28
   2   2 -11    1.51    1.60
  -2  -2  11   -0.77    1.83
  -2  -2  10    2.07    1.19
  -2  -2  10   -1.52    1.97
   2   2 -10    0.17    1.38
   2   2  -9   69.16    5.61
  -2  -2   9   75.64    5.98
  -2  -2   8    2.92    1.11
   2   2  -8    1.03    1.50
   2   2  -8    0.47    1.44
   2   2  -7 1129.02   19.37
  -2  -2   7 1134.39   15.37
   2   2  -7 1167.57   18.85
   2   2  -6  396.42   10.76
  -2  -2   6  412.33    9.17
   2   2  -6  421.40   10.78
   2   2  -5   66.38    4.21
  -2  -2   5   62.52    3.62
   2   2  -4  261.59    7.62
   2   2  -4  265.51    7.62
  -2  -2   4  268.27    7.16
   2   2  -3  116.32    4.85
   2   2  -3  121.46    4.86
  -2  -2   3  116.76    4.72
  -2  -2   2  349.42    7.11
   2   2  -2  344.26    8.03
  -2  -2   2  328.38    7.73
   2   2  -2  348.93    7.47
   2   2  -2  342.77    8.28
   2   2  -1  931.22   13.16
  -2  -2   1  922.48   10.37
   2   2  -1  960.13   13.40
  -2  -2   1  921.52   12.56
   2   2  -1  919.71   11.07
  -2  -2   0   16.88    1.87
   2   2   0   21.19    2.14
  -2  -2   0   15.57    1.23
   2   2   0   16.69    1.98
   2   2   1 1601.49   17.64
  -2  -2  -1 1593.25   15.91
  -2  -2  -1 1566.46    9.21
   2   2   2  346.67    8.79
   2   2   2  345.82    8.58
  -2  -2  -2  353.53    7.51
   2   2   2  330.72    6.14
   2   2   3  487.11   10.82
  -2  -2  -3  495.62    8.85
   2   2   3  482.66   10.77
  -2  -2  -3  493.80   11.71
  -2  -2  -3  497.50   10.98
   2   2   3  474.12    8.71
   2   2   4  247.75    8.09
  -2  -2  -4  246.32    9.05
   2   2   4  246.31    7.17
   2   2   4  260.44    8.35
  -2  -2  -4  250.94    6.28
  -2  -2  -4  254.38    8.52
   2   2   5  137.80    6.36
  -2  -2  -5  129.02    7.19
   2   2   5  135.09    6.51
  -2  -2  -5  129.33    6.63
  -2  -2  -5  128.88    4.41
   2   2   5  132.10    5.93
  -2  -2  -6   74.48    5.50
   2   2   6   77.60    5.13
   2   2   6   74.97    5.19
  -2  -2  -6   69.69    5.82
   2   2   6   75.53    4.98
  -2  -2  -7    0.92    1.43
   2   2   7    0.85    1.13
   2   2   7    2.79    1.65
  -2  -2  -7    3.31    1.86
   2   2   7    0.91    1.20
  -2  -2  -8    6.88    2.38
  -2  -2  -8    4.56    2.24
   2   2   8    6.16    1.92
   2   2   8    7.80    2.10
   2   2   8    7.72    2.28
  -2  -2  -9   17.29    3.53
   2   2   9   15.24    2.90
   2   2   9   15.48    2.95
   2   2   9   15.55    3.18
  -2  -2  -9   18.65    3.67
   2   2  10   21.94    3.81
  -2  -2 -10   11.24    3.11
  -2  -2 -10   22.75    4.49
   2   2  10   23.41    3.98
  -2  -2 -11    0.82    2.31
  -2  -2 -11   -0.33    2.18
   2   2  11    2.33    1.96
  -2  -2 -12    7.92    3.38
   2   2  12   14.65    3.61
   2   3 -14    1.03    1.72
  -2  -3  14    3.44    2.33
  -2  -3  14    0.23    1.81
  -2  -3  13   -1.02    1.92
   2   3 -13    1.34    1.77
  -2  -3  13   -2.84    2.27
  -2  -3  12    0.38    1.84
   2   3 -12   -0.65    1.61
  -2  -3  11   40.09    5.21
   2   3 -11   33.33    4.35
   2   3 -10    1.10    1.62
  -2  -3  10    2.35    1.87
   2   3 -10    1.46    1.63
   2   3  -9    8.59    2.30
   2   3  -9    6.67    2.30
  -2  -3   9    5.80    2.23
  -2  -3   8  537.63   12.00
   2   3  -8  562.52   14.71
  -2  -3   8  539.48   15.16
   2   3  -8  544.01   14.30
  -2  -3   7   87.31    5.90
  -2  -3   7   83.78    4.75
   2   3  -7   77.92    5.30
   2   3  -7   84.40    5.51
   2   3  -6  576.11   13.25
   2   3  -6  594.93   13.65
  -2  -3   6  583.31   13.83
  -2  -3   6  554.79   11.84
   2   3  -5  257.52    8.34
  -2  -3   5  247.79    8.47
   2   3  -5  258.14    8.55
  -2  -3   5  243.40    7.73
  -2  -3   4   48.90    3.58
   2   3  -4   42.69    3.36
  -2  -3   4   44.97    3.32
   2   3  -4   49.40    3.66
   2   3  -3   32.99    2.88
   2   3  -3   32.58    2.92
  -2  -3   3   32.23    2.76
  -2  -3   3   26.33    2.62
   2   3  -3   29.99    2.65
   2   3  -2  146.24    6.07
  -2  -3   2  156.76    5.39
  -2  -3   2  146.05    5.83
   2   3  -2  147.10    5.36
  -2  -3   1  172.88    5.13
   2   3  -1  169.77    6.31
  -2  -3   1  168.62    6.13
   2   3  -1  175.96    6.50
   2   3  -1  164.71    5.26
   2   3   0  497.61   11.20
   2   3   0  518.04   10.86
  -2  -3   0  503.91    7.99
  -2  -3   0  498.33   10.48
   2   3   0  494.70    8.12
   2   3   1   55.53    3.99
   2   3   1   61.03    3.91
  -2  -3  -1   56.04    3.60
  -2  -3  -1   59.52    2.47
   2   3   2  221.25    7.93
   2   3   2  228.89    7.55
  -2  -3  -2  207.99    3.96
  -2  -3  -2  212.54    6.84
  -2  -3  -3   88.22    4.45
   2   3   3   93.23    5.44
   2   3   3  101.33    5.27
  -2  -3  -3   96.26    5.01
   2   3   3   90.55    4.11
  -2  -3  -4   75.69    4.15
   2   3   4   68.96    4.92
   2   3   4   70.00    4.65
  -2  -3  -4   76.30    5.64
  -2  -3  -4   79.68    4.93
   2   3   4   76.28    4.23
  -2  -3  -5  284.78   11.36
   2   3   5  276.47   10.13
  -2  -3  -5  280.48    7.73
  -2  -3  -5  292.77   10.00
   2   3   5  285.68    9.61
   2   3   5  288.43    9.02
   2   3   6   68.66    5.31
   2   3   6   69.13    5.13
  -2  -3  -6   78.52    5.62
  -2  -3  -6   85.91    6.81
   2   3   6   73.48    5.11
   2   3   7   56.44    5.13
   2   3   7   59.87    4.99
  -2  -3  -7   60.65    6.06
  -2  -3  -7   56.33    5.16
   2   3   7   55.82    4.81
  -2  -3  -8   27.76    4.02
   2   3   8   30.87    3.81
   2   3   8   28.97    3.83
  -2  -3  -8   30.72    4.88
   2   3   8   33.58    4.24
   2   3   9   12.09    2.99
   2   3   9    8.33    2.30
  -2  -3  -9    8.14    3.38
  -2  -3  -9   11.86    3.00
  -2  -3 -10   17.74    4.29
   2   3  10   16.12    3.49
  -2  -3 -11   13.25    3.92
   2   3  11   16.69    3.63
  -2  -4  14   -0.15    1.71
   2   4 -14    0.29    1.33
   2   4 -13    6.14    2.74
  -2  -4  13    4.11    2.54
   2   4 -12    3.32    2.11
  -2  -4  12    2.54    2.40
  -2  -4  11   37.62    5.22
   2   4 -11   31.59    4.42
   2   4 -11   26.33    4.06
   2   4 -10   22.08    3.65
  -2  -4  10   14.87    3.13
   2   4 -10   20.33    3.37
   2   4  -9  128.80    7.59
  -2  -4   9  127.78    8.27
  -2  -4   9  120.66    6.39
   2   4  -9  127.14    7.75
   2   4  -8  111.88    6.83
  -2  -4   8  111.95    6.17
  -2  -4   8  122.32    7.66
   2   4  -8  127.64    7.48
   2   4  -7   32.21    3.82
   2   4  -7   29.96    3.50
  -2  -4   7   33.07    3.43
  -2  -4   7   32.35    3.86
   2   4  -6  162.78    7.33
  -2  -4   6  172.62    8.09
  -2  -4   6  163.10    7.22
   2   4  -6  163.88    7.76
  -2  -4   5  273.15    9.59
   2   4  -5  287.91    9.34
  -2  -4   5  275.18    9.25
   2   4  -5  292.67    9.69
   2   4  -4   38.65    3.39
   2   4  -4   37.88    3.40
  -2  -4   4   41.49    3.64
  -2  -4   4   41.97    3.66
   2   4  -4   39.77    3.55
   2   4  -3    1.08    1.07
  -2  -4   3    0.83    0.89
  -2  -4   3    0.29    1.14
   2   4  -3    0.44    0.97
   2   4  -2  356.90   10.13
   2   4  -2  333.19    8.69
  -2  -4   2  330.13    8.67
  -2  -4   2  343.92   10.00
  -2  -4   1  226.40    6.70
  -2  -4   1  227.26    8.17
   2   4  -1  219.45    8.16
   2   4  -1  233.07    8.12
   2   4  -1  230.16    6.73
   2   4   0   79.01    4.74
   2   4   0   83.67    5.18
  -2  -4   0   81.40    3.81
  -2  -4   0   90.65    5.16
   2   4   0   87.58    3.83
   2   4   1  179.30    7.08
   2   4   1  187.59    7.92
  -2  -4  -1  187.98    5.24
  -2  -4  -1  182.19    7.26
   2   4   1  185.52    4.97
   2   4   2  211.85    7.84
   2   4   2  214.39    8.84
  -2  -4  -2  212.57    5.08
  -2  -4  -2  210.90    7.77
  -2  -4  -2  226.42    7.49
  -2  -4  -3    4.49    1.35
   2   4   3    3.27    1.56
  -2  -4  -3    3.61    1.41
   2   4   3    2.49    1.50
  -2  -4  -4    0.63    0.95
   2   4   4    0.27    1.11
   2   4   4   -1.60    1.45
  -2  -4  -4   -1.00    2.00
  -2  -4  -4    0.89    1.05
  -2  -4  -5    4.14    1.68
  -2  -4  -5    4.72    2.48
   2   4   5    4.54    1.94
  -2  -4  -5    5.84    1.65
   2   4   5    2.93    1.33
   2   4   5    4.89    1.68
  -2  -4  -6    8.93    2.15
   2   4   6   10.00    2.36
  -2  -4  -6   10.71    3.04
   2   4   6    8.61    2.18
   2   4   6    8.32    2.21
   2   4   7   12.79    2.52
   2   4   7   10.63    2.71
  -2  -4  -7   10.66    3.44
   2   4   7    7.89    2.22
   2   4   8  310.05   13.22
  -2  -4  -8  323.81   15.38
   2   4   8  325.02   12.56
  -2  -4  -9    9.29    3.60
   2   4   9    4.41    2.28
  -2  -4 -10   12.95    3.80
   2   5 -14    5.31    2.42
   2   5 -13   94.97    8.04
  -2  -5  13  101.26    9.33
  -2  -5  12    7.31    2.79
   2   5 -12    9.09    2.81
   2   5 -12    6.11    2.57
  -2  -5  11   11.07    3.16
   2   5 -11   12.03    3.32
   2   5 -11    9.06    2.58
   2   5 -10    7.18    2.37
  -2  -5  10    4.78    2.44
   2   5 -10    6.81    2.43
   2   5  -9   -1.85    1.67
  -2  -5   9    0.68    1.36
  -2  -5   9    3.47    2.11
   2   5  -9    1.03    1.60
  -2  -5   8   62.03    5.84
  -2  -5   8   51.86    4.63
   2   5  -8   70.58    5.66
   2   5  -8   69.45    5.95
   2   5  -7   16.47    3.05
  -2  -5   7   17.50    2.83
   2   5  -7   23.83    3.19
  -2  -5   7   21.19    3.60
   2   5  -6   15.76    2.82
  -2  -5   6   15.03    2.66
  -2  -5   6   17.65    3.09
   2   5  -6   15.49    2.52
   2   5  -5   42.45    3.91
  -2  -5   5   40.07    4.03
  -2  -5   5   45.17    4.28
   2   5  -5   43.76    4.15
   2   5  -4  391.49   11.46
   2   5  -4  393.78   11.43
  -2  -5   4  390.90   11.57
  -2  -5   4  403.46   12.23
   2   5  -4  413.02   11.69
   2   5  -3  196.07    7.72
   2   5  -3  200.78    8.32
  -2  -5   3  184.07    7.55
  -2  -5   3  196.08    8.56
   2   5  -2  907.23   17.78
  -2  -5   2  927.83   15.94
  -2  -5   2  923.89   18.21
   2   5  -2  946.01   15.84
   2   5  -1  467.01   13.03
   2   5  -1  440.85   10.18
  -2  -5   1  463.73   10.73
   2   5  -1  449.43   12.25
  -2  -5   1  461.22   12.81
   2   5   0  113.14    6.16
   2   5   0  123.56    7.01
  -2  -5   0  117.58    6.60
  -2  -5   0  117.45    5.14
   2   5   0  111.55    4.79
   2   5   1    7.97    1.27
  -2  -5  -1    7.00    2.07
   2   5   1    8.03    2.20
   2   5   1    8.97    2.05
  -2  -5  -1    6.92    1.36
   2   5   2   31.17    3.44
   2   5   2   30.95    3.86
  -2  -5  -2   29.12    3.42
  -2  -5  -2   30.02    2.88
   2   5   3   74.80    5.96
  -2  -5  -3   78.85    5.45
   2   5   3   76.31    5.19
  -2  -5  -3   81.28    4.84
   2   5   4   24.27    3.62
  -2  -5  -4   22.77    4.03
  -2  -5  -4   22.73    3.21
   2   5   4   24.39    3.13
   2   5   5   15.81    2.83
   2   5   5   16.42    3.12
  -2  -5  -5   12.60    2.26
  -2  -5  -5   12.82    3.37
   2   5   6    4.92    2.28
  -2  -5  -6    5.84    2.56
   2   5   7    6.77    2.64
  -2  -5  -7   13.02    3.65
  -2  -5  -8   -0.94    2.10
   2   5   8    3.86    2.08
   2   5   9  135.12    9.72
  -2  -5  -9  163.35   12.13
  -2  -6  13    7.21    3.34
   2   6 -13   17.03    3.91
   2   6 -12  111.93    8.45
  -2  -6  12  118.68    9.92
   2   6 -12  112.44    8.96
   2   6 -11   38.01    5.18
  -2  -6  11   45.33    6.21
   2   6 -11   44.00    5.31
   2   6 -10   10.22    3.06
   2   6 -10    8.64    2.54
  -2  -6  10    8.49    2.78
   2   6  -9   12.79    3.22
   2   6  -9    6.91    2.21
  -2  -6   9    9.73    2.89
  -2  -6   9    9.97    2.59
   2   6  -8   32.88    4.45
   2   6  -8   21.95    3.38
  -2  -6   8   26.98    4.22
  -2  -6   8   29.57    4.00
   2   6  -7  301.64   11.21
  -2  -6   7  293.59   12.34
  -2  -6   7  293.27   11.74
   2   6  -7  308.92   12.23
   2   6  -6   11.40    2.74
  -2  -6   6    7.09    2.30
   2   6  -6    8.22    2.23
  -2  -6   6    7.96    2.34
   2   6  -5    1.58    1.30
   2   6  -5    1.51    1.67
  -2  -6   5    2.33    1.62
   2   6  -5    0.04    1.14
  -2  -6   5    2.72    1.83
   2   6  -4   23.49    3.21
   2   6  -4   22.41    3.10
  -2  -6   4   22.38    3.22
  -2  -6   4   24.06    3.54
   2   6  -4   21.59    3.17
   2   6  -3    6.74    2.03
  -2  -6   3    7.87    2.06
   2   6  -3    6.49    2.05
  -2  -6   3    8.28    2.45
   2   6  -2  105.38    6.78
  -2  -6   2  111.08    6.12
  -2  -6   2  113.81    7.20
   2   6  -2  121.70    6.19
   2   6  -1  683.54   17.27
   2   6  -1  677.58   13.67
  -2  -6   1  700.39   14.48
  -2  -6   1  680.86   17.16
   2   6   0   38.78    4.44
   2   6   0   43.68    4.25
  -2  -6   0   46.54    3.67
  -2  -6   0   42.18    4.54
   2   6   0   41.00    3.27
   2   6   1   69.10    5.28
   2   6   1   61.77    5.65
  -2  -6  -1   64.94    5.44
   2   6   2   40.23    4.09
   2   6   2   38.65    4.69
  -2  -6  -2   32.24    3.97
   2   6   3    0.14    1.53
   2   6   3    0.58    1.20
  -2  -6  -3    1.83    1.65
   2   6   4   16.70    3.63
   2   6   4   16.90    2.81
  -2  -6  -4   11.66    3.30
  -2  -6  -4    8.05    2.77
   2   6   5   30.71    4.52
  -2  -6  -5   27.53    4.85
  -2  -6  -6   44.72    6.26
   2   6   6   41.38    5.35
   2   6   7   33.19    5.06
  -2  -6  -7   35.15    5.92
   2   6   8    8.38    2.29
  -2  -6  -8    6.57    3.10
   2   6   9   20.01    4.31
   2   7 -12    5.79    2.64
  -2  -7  12    2.97    2.68
   2   7 -11    9.43    2.87
  -2  -7  11   13.88    3.77
   2   7 -11   11.09    3.44
   2   7 -10   65.40    6.12
   2   7 -10   74.77    7.23
  -2  -7  10   78.63    7.89
  -2  -7   9   62.29    6.06
   2   7  -9   57.02    5.60
  -2  -7   9   57.75    6.46
   2   7  -9   54.62    6.04
   2   7  -8    4.47    2.25
   2   7  -8    6.13    2.10
  -2  -7   8    4.31    2.29
  -2  -7   8    4.87    2.20
   2   7  -7    1.46    1.76
   2   7  -7    1.59    1.56
  -2  -7   7    0.56    1.72
  -2  -7   7    1.31    1.71
   2   7  -6  127.78    7.54
  -2  -7   6  113.04    7.87
  -2  -7   6  121.05    8.22
   2   7  -6  124.95    7.98
   2   7  -5   12.28    2.85
   2   7  -5    4.86    1.92
   2   7  -5    9.16    2.50
  -2  -7   5    7.00    2.32
  -2  -7   5   10.84    2.85
  -2  -7   4  126.50    7.63
   2   7  -4  140.93    7.83
  -2  -7   4  135.10    8.68
   2   7  -4  145.41    8.32
   2   7  -4  143.77    7.86
   2   7  -3  136.50    8.16
  -2  -7   3  137.50    7.67
  -2  -7   3  130.84    8.39
   2   7  -3  139.78    7.48
   2   7  -2   55.99    5.44
  -2  -7   2   51.05    4.56
  -2  -7   2   46.42    5.28
   2   7  -2   51.84    4.38
  -2  -7   1   52.98    5.57
   2   7  -1   50.74    5.31
   2   7  -1   55.19    4.26
  -2  -7   1   45.57    4.19
   2   7   0  443.92   15.56
  -2  -7   0  420.89   14.73
  -2  -7  -1   49.33    5.27
   2   7   1   62.47    5.32
   2   7   1   57.98    5.92
   2   7   2   82.05    7.22
  -2  -7  -2   76.24    6.39
   2   7   2   81.81    6.08
   2   7   3    2.59    2.19
  -2  -7  -3    2.67    1.68
   2   7   4    2.36    2.07
  -2  -7  -4    4.54    2.61
  -2  -7  -4    1.88    1.67
   2   7   5    7.67    3.21
  -2  -7  -5    5.38    2.96
   2   7   6    0.75    1.75
  -2  -7  -6   -0.07    2.43
   2   7   7   20.92    4.65
  -2  -7  -7   21.33    5.01
   2   8 -11    6.88    3.14
  -2  -8  11    7.06    3.35
   2   8 -10   20.82    4.33
  -2  -8  10   21.94    4.58
  -2  -8  10   12.02    3.10
   2   8  -9   95.61    7.39
  -2  -8   9  102.14    8.96
  -2  -8   9   91.77    7.94
   2   8  -9  100.49    8.36
   2   8  -8   77.43    6.49
  -2  -8   8   67.84    7.10
  -2  -8   8   75.63    7.17
   2   8  -8   75.37    7.14
  -2  -8   7   60.30    6.46
   2   8  -7   72.27    6.13
  -2  -8   7   58.06    6.39
   2   8  -7   61.87    6.11
   2   8  -6   47.30    5.21
  -2  -8   6   33.91    4.99
  -2  -8   6   34.18    4.76
   2   8  -6   43.09    4.81
   2   8  -6   41.36    4.67
   2   8  -5   31.46    4.27
   2   8  -5   29.65    4.14
   2   8  -5   30.11    4.12
  -2  -8   5   26.84    4.06
  -2  -8   5   39.23    5.20
   2   8  -4    3.40    2.08
  -2  -8   4   -0.02    2.00
  -2  -8   4    3.68    2.02
   2   8  -4    0.28    1.56
   2   8  -4    1.05    1.48
   2   8  -3   18.83    3.14
  -2  -8   3   22.36    3.61
   2   8  -3   24.41    3.92
  -2  -8   2   15.99    3.00
   2   8  -2   17.93    2.85
   2   8  -2   24.96    3.93
  -2  -8   2   16.20    3.68
   2   8  -1    5.88    2.55
  -2  -8   1   -0.34    1.83
   2   8   0   54.66    6.13
  -2  -8   0   50.56    5.88
   2   8   1   64.21    6.64
  -2  -8  -1   51.18    5.99
   2   8   2   52.51    6.35
  -2  -8  -2   52.10    6.05
   2   8   3   61.70    7.02
  -2  -8  -3   58.78    7.23
  -2  -8  -3   55.82    6.05
   2   8   4   16.19    4.23
  -2  -8  -4   16.21    4.30
   2   8   5   30.71    5.50
  -2  -8  -5   25.46    5.50
   2   8   6   48.73    6.67
   2   9 -10   16.53    4.15
  -2  -9  10   21.39    4.88
  -2  -9  10   17.95    4.11
   2   9  -9   20.17    4.50
  -2  -9   9   27.52    5.21
  -2  -9   9   22.98    4.77
   2   9  -8   13.83    3.55
  -2  -9   8    8.55    3.39
  -2  -9   8    3.04    2.37
   2   9  -7    5.35    2.66
  -2  -9   7    1.98    2.19
   2   9  -7    3.39    2.06
  -2  -9   7    8.79    3.48
   2   9  -6   14.60    3.36
   2   9  -6   14.37    3.16
   2   9  -6    6.88    2.31
  -2  -9   6    8.53    2.88
  -2  -9   6   13.31    3.44
  -2  -9   5  124.93    8.96
   2   9  -5  133.25    9.09
   2   9  -5  136.23    8.80
  -2  -9   5  127.26    9.89
   2   9  -5  132.85    8.78
   2   9  -4   21.08    3.66
  -2  -9   4   24.88    4.10
   2   9  -4   20.05    3.60
   2   9  -4   26.48    4.35
  -2  -9   4   14.67    4.01
  -2  -9   3    2.53    2.27
   2   9  -3    4.37    2.20
   2   9  -2   14.03    3.54
  -2  -9   2   13.59    3.87
   2   9  -1   15.85    3.57
  -2  -9   1   18.65    3.97
   2   9   0   83.94    8.08
  -2  -9   0   82.54    7.93
   2   9   1    0.40    1.99
  -2  -9  -1    0.93    2.05
   2   9   2    4.25    2.68
  -2  -9  -2    4.71    2.61
  -2  -9  -3   -1.04    2.51
   2   9   3   -2.83    2.11
  -2  -9  -3   -2.60    2.05
  -2 -10   9  122.59   10.44
   2  10  -8    5.94    3.10
  -2 -10   8    7.30    3.34
  -2 -10   8    0.91    1.93
   2  10  -7    5.64    2.83
  -2 -10   7    9.91    3.37
  -2 -10   7    1.43    2.06
   2  10  -6   -2.95    2.24
   2  10  -6    5.59    2.53
  -2 -10   6    0.14    2.45
  -2 -10   6    2.13    2.18
   2  10  -5    6.33    2.39
  -2 -10   5    2.19    2.00
  -2 -10   5    4.00    2.57
   2  10  -5    8.80    2.80
   2  10  -4   17.52    3.79
   2  10  -4   23.62    4.25
  -2 -10   4   18.23    4.39
   2  10  -3   22.36    4.35
  -2 -10   3   23.93    4.92
   2  10  -2   10.77    3.10
  -2 -10   2    8.80    3.67
   2  10  -1    0.84    1.53
  -2 -10   1    1.10    2.12
   2  10   0    4.75    2.42
  -2 -10   0    2.51    2.47
   2  10   1   42.23    6.46
  -2 -10  -1   36.14    6.03
  -2 -10  -2   13.63    3.70
   2  11  -5    1.54    1.69
   2  11  -4    3.94    2.16
   2  11  -3    4.28    2.92
   3 -12   0    4.62    2.64
  -3  12   0   11.55    3.09
   3 -12   1   -0.46    2.11
  -3  12  -1    3.74    2.12
   3 -12   2    2.06    2.69
  -3  12  -3    5.29    2.40
   3 -12   3    2.98    2.78
   3 -12   4   27.65    5.12
  -3  12  -4   24.56    4.37
  -3  12  -5   21.99    4.55
   3 -12   5   22.35    4.89
   3 -11  -4   -2.50    2.44
  -3  11   3   99.77    9.33
   3 -11  -3   97.84    9.18
   3 -11  -2    1.34    2.53
  -3  11   2    3.09    2.30
   3 -11  -1   17.57    4.10
   3 -11  -1   13.15    3.53
  -3  11   1   13.39    3.65
   3 -11   0    9.98    3.26
   3 -11   0    7.00    2.57
  -3  11   0    3.36    2.02
   3 -11   1    7.07    2.95
  -3  11  -1    6.12    2.30
  -3  11  -2   -4.07    1.96
  -3  11  -2   -5.19    1.95
   3 -11   2   -2.20    2.20
  -3  11  -3   21.26    4.08
   3 -11   3   18.97    4.16
   3 -11   4    9.54    3.33
  -3  11  -4    8.04    2.82
  -3  11  -5   58.97    6.54
   3 -11   5   53.22    6.75
  -3  11  -6    1.34    1.72
   3 -11   6    2.39    2.60
  -3  11  -7   59.03    6.89
   3 -11   7   68.52    7.98
  -3  11  -8   13.85    3.52
   3 -11   8    4.26    2.75
  -3  10   5    4.77    2.53
   3 -10  -5   15.22    4.45
  -3  10   4   13.94    3.70
   3 -10  -4    8.03    2.80
   3 -10  -3    4.61    2.73
  -3  10   3   -0.54    1.80
  -3  10   2   53.16    6.34
   3 -10  -2   48.52    6.03
   3 -10  -1    4.25    2.47
   3 -10  -1    7.21    2.55
  -3  10   1    4.56    2.21
  -3  10   0   20.64    3.41
   3 -10   0   18.30    3.89
  -3  10   0   18.76    3.66
  -3  10  -1    8.91    2.59
  -3  10  -1    6.06    2.18
   3 -10   1    6.78    3.15
  -3  10  -2   31.13    4.11
  -3  10  -2   28.72    4.11
   3 -10   2   30.75    4.85
  -3  10  -3   -0.38    1.51
   3 -10   3    1.49    1.84
   3 -10   4    5.14    2.94
  -3  10  -4    7.25    2.52
  -3  10  -5    0.45    1.76
   3 -10   5    0.96    2.26
  -3  10  -6   33.00    4.95
   3 -10   6   45.60    6.32
   3 -10   7    3.73    2.51
  -3  10  -7   -0.25    1.83
   3 -10   8    2.25    2.23
  -3  10  -8    6.41    2.73
  -3  10  -9    7.77    3.42
   3 -10   9   20.67    4.87
  -3  10 -10    2.99    2.94
   3 -10  10    2.40    2.45
   3  -9  -7   -1.39    2.17
  -3   9   6    4.63    2.65
   3  -9  -6   11.13    3.31
   3  -9  -5    3.84    2.41
  -3   9   5    4.99    2.74
   3  -9  -5    6.20    2.16
  -3   9   4    4.57    2.55
   3  -9  -4    5.00    2.33
  -3   9   3    4.39    2.26
   3  -9  -3    9.21    2.74
   3  -9  -2   10.11    2.94
  -3   9   2    7.93    2.79
   3  -9  -2   13.74    3.33
  -3   9   1   15.61    2.73
   3  -9  -1   12.00    3.22
  -3   9   1   17.53    3.38
   3  -9  -1   17.95    3.35
  -3   9   0    4.61    1.51
   3  -9   0    6.30    2.50
  -3   9   0    4.43    2.04
  -3   9  -1   49.62    4.99
   3  -9   1   44.42    5.24
  -3   9  -1   47.84    4.92
  -3   9  -2    1.89    1.74
  -3   9  -2    0.15    1.26
   3  -9   2    0.85    2.07
  -3   9  -3   74.26    6.37
  -3   9  -3   71.07    5.35
   3  -9   3   81.87    7.11
   3  -9   4    6.49    2.76
  -3   9  -4    5.24    2.45
  -3   9  -5   83.52    7.05
   3  -9   5   77.48    7.26
  -3   9  -6    4.99    2.39
   3  -9   6    8.51    3.10
  -3   9  -7    0.74    1.69
   3  -9   7    3.57    2.71
   3  -9   8   77.54    7.84
  -3   9  -8   77.01    7.30
  -3   9  -9   15.04    3.51
   3  -9   9   15.25    3.99
  -3   9 -10    2.82    2.14
  -3   9 -10    3.24    2.19
   3  -9  10    5.84    2.91
  -3   9 -11    5.39    2.82
  -3   9 -11    3.42    2.56
   3  -9  11    3.22    2.82
  -3   9 -12   53.82    7.42
   3  -8  -8    3.67    2.38
  -3   8   8    9.73    3.57
   3  -8  -7   -2.57    2.16
  -3   8   7    0.67    1.98
   3  -8  -6    3.18    2.20
  -3   8   6    2.80    2.32
  -3   8   5   14.60    3.61
   3  -8  -5   12.30    3.51
   3  -8  -5    8.88    2.22
   3  -8  -4    6.90    2.46
   3  -8  -4    9.62    2.49
  -3   8   4    4.43    2.28
   3  -8  -3   93.36    7.35
  -3   8   3   87.59    7.15
  -3   8   2    3.57    1.44
   3  -8  -2    6.35    2.48
  -3   8   2    5.16    2.29
   3  -8  -2    9.52    2.66
  -3   8   1   44.57    4.36
   3  -8  -1   41.04    4.73
   3  -8  -1   46.45    4.79
  -3   8   1   43.56    4.78
   3  -8   0   48.31    5.09
  -3   8   0   45.46    4.66
  -3   8   0   46.15    4.45
  -3   8  -1  142.47    7.85
   3  -8   1  129.08    8.14
  -3   8  -1  131.10    7.29
   3  -8   2   50.11    5.42
  -3   8  -2   50.71    4.38
  -3   8  -2   48.93    4.86
  -3   8  -3    3.82    1.89
   3  -8   3    2.46    2.12
  -3   8  -3    2.91    1.23
  -3   8  -4   60.13    5.61
   3  -8   4   49.22    5.47
  -3   8  -5   15.90    3.11
   3  -8   5   15.94    3.46
  -3   8  -6   40.90    4.84
   3  -8   6   40.15    5.22
  -3   8  -6   40.12    4.24
  -3   8  -7    3.61    2.23
   3  -8   7    2.30    1.90
  -3   8  -7    3.39    1.77
   3  -8   8   36.71    5.28
  -3   8  -8   33.84    4.78
  -3   8  -8   32.72    4.67
  -3   8  -9   20.87    3.95
   3  -8   9   16.46    3.92
  -3   8  -9   15.96    3.42
  -3   8 -10    0.02    1.87
  -3   8 -10    4.14    2.54
   3  -8  10    7.41    3.12
  -3   8 -11   11.98    3.39
   3  -8  11   15.44    3.94
  -3   8 -11   17.99    4.15
  -3   8 -12   53.87    6.47
   3  -8  12   58.65    7.33
  -3   8 -12   51.56    7.00
   3  -7  -9   -2.46    2.44
  -3   7   9    1.20    1.93
   3  -7  -8   18.99    4.24
  -3   7   8   22.19    4.58
   3  -7  -7   -2.74    2.29
  -3   7   7   -0.16    2.02
   3  -7  -6    2.44    1.28
   3  -7  -6    2.39    2.04
  -3   7   6    2.95    2.18
   3  -7  -5    0.43    1.84
   3  -7  -5   -0.05    1.40
  -3   7   5   -0.83    1.88
   3  -7  -4    7.21    2.10
   3  -7  -4   11.78    2.84
  -3   7   4    8.85    2.55
  -3   7   3    6.30    1.78
   3  -7  -3    2.78    1.81
  -3   7   3    4.72    2.10
   3  -7  -2   42.93    4.47
  -3   7   2   46.82    4.68
  -3   7   2   43.71    3.97
   3  -7  -2   44.44    4.58
   3  -7  -1   -0.52    1.64
  -3   7   1   -2.49    1.61
   3  -7  -1    0.94    1.26
  -3   7   1   -0.67    1.14
  -3   7   0    3.36    1.65
  -3   7   0    0.79    1.27
   3  -7   0    2.30    1.97
  -3   7  -1  168.46    8.02
   3  -7   1  154.72    8.26
  -3   7  -1  165.70    7.38
  -3   7  -2   85.39    5.93
   3  -7   2   72.86    5.87
  -3   7  -2   78.43    4.84
  -3   7  -3  856.89   14.69
  -3   7  -3  817.40   18.35
  -3   7  -3  817.74   13.59
   3  -7   3  817.48   19.24
  -3   7  -4  317.04   11.72
  -3   7  -4  310.12    8.24
   3  -7   4  316.64   12.32
  -3   7  -4  319.41    9.71
  -3   7  -5   17.07    3.07
   3  -7   5   21.68    3.74
  -3   7  -5   27.52    3.35
  -3   7  -6  194.68    9.70
   3  -7   6  181.83    9.89
  -3   7  -6  199.08    9.24
  -3   7  -7   -0.79    1.64
   3  -7   7    0.72    1.81
  -3   7  -7    0.23    1.69
  -3   7  -8    0.49    1.74
  -3   7  -8    0.64    1.61
   3  -7   8   -3.53    2.20
  -3   7  -9    1.07    2.10
  -3   7  -9    0.47    1.85
   3  -7   9   -0.31    1.52
  -3   7 -10   -0.30    1.51
   3  -7  10   -0.56    2.16
  -3   7 -10   -1.53    1.98
  -3   7 -11   -2.35    2.12
   3  -7  11   -2.29    2.05
  -3   7 -11    0.58    2.23
  -3   7 -12    9.98    2.94
   3  -7  12   10.86    3.87
  -3   7 -12    9.72    3.51
  -3   7 -13   44.74    5.89
   3  -7  13   48.15    6.72
   3  -6 -10   -1.10    1.94
  -3   6  10    5.17    2.62
   3  -6  -9   -0.10    1.76
  -3   6   9    1.53    2.00
  -3   6   8    7.41    2.62
   3  -6  -8    8.15    3.10
   3  -6  -7    5.10    2.58
  -3   6   7    4.04    2.19
   3  -6  -6   26.37    3.36
   3  -6  -6   32.76    4.55
  -3   6   6   28.47    4.24
  -3   6   6   26.54    3.30
   3  -6  -5   24.47    3.72
  -3   6   5   20.87    3.60
  -3   6   5   18.21    2.80
   3  -6  -5   18.14    2.78
  -3   6   4   18.12    2.73
  -3   6   4   20.06    3.34
   3  -6  -4   19.05    3.19
   3  -6  -4   18.48    2.82
  -3   6   3   75.41    5.76
   3  -6  -3   80.03    5.73
  -3   6   3   82.15    5.59
   3  -6  -2    0.83    1.49
   3  -6  -2    0.17    1.15
  -3   6   2    0.81    1.14
  -3   6   2   -0.69    1.26
  -3   6   1    1.23    0.85
   3  -6  -1   -0.54    1.44
   3  -6  -1   -0.23    0.94
  -3   6   0    7.08    1.92
   3  -6   0    3.10    1.59
  -3   6   0    5.87    1.56
   3  -6   1    2.30    1.63
  -3   6  -1    1.31    1.34
  -3   6  -1    2.41    1.20
  -3   6  -1    2.54    0.58
  -3   6  -2    2.34    1.49
  -3   6  -2    4.07    1.15
   3  -6   2    2.70    1.66
  -3   6  -2    2.81    0.80
  -3   6  -3   88.65    5.75
   3  -6   3   87.50    6.03
  -3   6  -3   86.43    4.14
  -3   6  -3   93.41    4.72
  -3   6  -4  985.30   19.48
  -3   6  -4 1021.87   12.57
   3  -6   4  976.16   20.03
  -3   6  -4  985.68   17.00
   3  -6   5    1.60    2.07
  -3   6  -5    4.84    2.19
  -3   6  -5    3.12    1.63
   3  -6   6   49.07    4.92
  -3   6  -6   51.92    4.86
  -3   6  -6   48.73    4.61
  -3   6  -7   99.69    6.80
   3  -6   7   92.03    6.88
  -3   6  -7  110.29    7.37
   3  -6   8   -0.09    1.86
  -3   6  -8   -2.66    1.79
  -3   6  -8   -2.34    1.95
  -3   6  -9    5.31    2.28
   3  -6   9   -2.26    1.78
  -3   6  -9    3.07    2.28
  -3   6 -10  133.61    9.81
   3  -6  10  129.02    9.01
  -3   6 -10  123.68    8.24
  -3   6 -11    7.32    2.64
   3  -6  11    9.58    2.94
  -3   6 -11   10.43    3.15
  -3   6 -12    1.48    1.70
   3  -6  12    1.53    1.89
  -3   6 -12    0.39    2.37
   3  -6  13    4.83    2.40
  -3   6 -13    2.05    3.13
   3  -5 -11    7.30    3.41
  -3   5  11    3.89    2.11
   3  -5 -10    7.63    3.23
  -3   5  10    7.14    2.61
  -3   5   9    1.90    1.89
   3  -5  -9    0.36    1.88
   3  -5  -8    0.92    1.99
  -3   5   8   -1.55    1.76
  -3   5   7  139.60    8.79
   3  -5  -7  155.10    9.61
   3  -5  -7  149.24    7.12
  -3   5   7  167.40    7.73
   3  -5  -6  131.61    6.66
  -3   5   6  136.93    6.87
   3  -5  -6  137.02    8.49
  -3   5   6  125.92    7.96
   3  -5  -5    0.67    1.17
  -3   5   5   -0.55    1.27
  -3   5   5    0.66    1.67
   3  -5  -5    1.92    1.87
   3  -5  -4  110.37    5.83
   3  -5  -4  119.51    6.79
  -3   5   4  110.49    6.03
  -3   5   4  113.86    6.79
  -3   5   3    1.37    1.23
   3  -5  -3    2.60    1.30
   3  -5  -3    1.09    1.23
  -3   5   3    1.88    1.47
  -3   5   2   12.55    2.17
   3  -5  -2   15.55    2.48
   3  -5  -2   11.79    1.95
  -3   5   2   15.34    2.36
   3  -5  -1  203.99    6.93
  -3   5   1  202.84    7.48
   3  -5  -1  183.61    3.48
   3  -5  -1  194.81    7.84
  -3   5   1  207.68    7.78
  -3   5   0   55.16    2.18
   3  -5   0   51.34    4.15
  -3   5   0   57.95    4.19
  -3   5   0   56.93    3.73
  -3   5  -1   25.56    2.37
   3  -5   1   26.03    3.04
  -3   5  -1   33.07    3.20
  -3   5  -1   25.07    1.90
  -3   5  -2  209.20    7.92
  -3   5  -2  188.39    5.66
   3  -5   2  206.62    8.19
  -3   5  -2  189.30    5.94
  -3   5  -3   55.35    4.30
  -3   5  -3   62.04    3.91
   3  -5   3   58.73    4.56
  -3   5  -3   57.63    2.83
  -3   5  -4 1280.02   20.55
   3  -5   4 1301.03   21.17
  -3   5  -4 1228.78   10.62
  -3   5  -4 1304.46   19.40
  -3   5  -5  667.85   15.31
   3  -5   5  661.62   15.66
  -3   5  -6  156.79    7.68
   3  -5   6  156.65    7.91
  -3   5  -6  138.67    7.68
  -3   5  -7   30.09    3.64
   3  -5   7   36.68    4.22
  -3   5  -7   33.29    4.26
  -3   5  -8   -0.46    1.50
   3  -5   8    2.70    1.89
  -3   5  -8    1.90    2.24
  -3   5  -9   21.43    3.41
   3  -5   9   21.68    3.57
  -3   5  -9   22.63    3.98
  -3   5 -10    2.06    1.49
   3  -5  10    3.91    1.92
  -3   5 -10    1.15    2.13
  -3   5 -11   24.03    3.77
   3  -5  11   23.96    4.08
  -3   5 -11   23.47    4.69
   3  -5  12   21.14    3.79
   3  -5  12   30.60    5.47
  -3   5 -12   32.86    5.91
   3  -5  13    2.61    1.92
  -3   5 -13    6.77    3.31
  -3   4  12    4.21    2.18
   3  -4 -12    6.35    3.17
   3  -4 -11   16.19    4.41
  -3   4  11   16.53    3.81
  -3   4  10    4.29    2.26
   3  -4 -10    0.78    2.02
  -3   4   9   -0.64    1.59
   3  -4  -9    1.65    2.05
   3  -4  -8   34.91    4.77
   3  -4  -8   35.31    3.45
   3  -4  -8   32.79    4.56
  -3   4   8   30.71    4.25
   3  -4  -7    1.41    1.66
  -3   4   7    1.01    1.16
   3  -4  -7    0.74    1.78
   3  -4  -7    1.29    1.18
  -3   4   7   -0.79    1.73
   3  -4  -6  147.89    7.83
  -3   4   6  147.68    8.11
   3  -4  -6  137.97    7.96
  -3   4   6  147.00    6.72
   3  -4  -6  147.99    6.58
   3  -4  -5  931.31   17.84
   3  -4  -5  976.23   16.36
  -3   4   5  955.17   19.07
   3  -4  -5  981.32   19.37
  -3   4   5  956.72   16.61
   3  -4  -4    5.68    1.68
   3  -4  -4    4.78    1.43
   3  -4  -4    5.23    1.65
  -3   4   4    7.88    1.73
   3  -4  -3   71.14    4.30
   3  -4  -3   75.39    4.27
   3  -4  -3   79.04    4.67
  -3   4   3   73.16    4.43
   3  -4  -2    0.38    1.02
   3  -4  -2    0.03    0.73
  -3   4   2    0.73    0.90
   3  -4  -2    0.45    0.83
   3  -4  -1   33.33    1.39
   3  -4  -1   35.77    3.27
   3  -4  -1   34.11    2.48
  -3   4   1   31.30    2.86
  -3   4   0    2.07    1.10
  -3   4   0    1.65    0.68
   3  -4   0    1.78    1.39
   3  -4   0    1.98    0.59
  -3   4   0    2.30    0.90
   3  -4   1  259.26    8.20
  -3   4  -1  274.02    6.55
  -3   4  -1  255.40    6.20
  -3   4  -1  254.12    7.67
  -3   4  -2  204.87    4.99
   3  -4   2  222.03    7.63
  -3   4  -2  209.29    6.39
  -3   4  -2  199.77    6.76
  -3   4  -3  338.82    9.54
   3  -4   3  329.12    9.50
  -3   4  -3  327.79    8.93
  -3   4  -3  327.48    5.22
  -3   4  -4    5.36    1.57
  -3   4  -4    6.04    1.73
   3  -4   4    4.66    1.49
  -3   4  -5 1130.47   18.43
   3  -4   5 1078.60   18.40
  -3   4  -5 1108.62   19.64
  -3   4  -6  251.05    8.97
   3  -4   6  241.60    9.06
  -3   4  -6  244.50   10.12
  -3   4  -7   72.08    5.09
   3  -4   7   76.52    5.42
  -3   4  -7   75.37    6.08
  -3   4  -8   92.95    7.30
   3  -4   8   88.14    6.06
  -3   4  -8   84.69    5.65
   3  -4   9   49.42    4.88
  -3   4  -9   54.57    5.94
  -3   4  -9   47.47    4.50
   3  -4  10   29.92    4.70
   3  -4  10   40.96    4.66
  -3   4 -10   36.08    5.51
  -3   4 -10   41.42    4.29
   3  -4  11   30.02    4.18
  -3   4 -11   33.84    5.64
   3  -4  11   17.53    3.72
   3  -4  12   40.61    5.87
  -3   4 -12   37.57    5.97
   3  -4  13   33.29    5.97
  -3   4 -13   29.66    6.08
   3  -3 -12    0.72    2.03
  -3   3  12    2.84    1.96
  -3   3  12   -1.81    2.37
   3  -3 -11    1.41    2.23
  -3   3  11    5.45    2.33
   3  -3 -11    1.39    2.20
   3  -3 -10   12.13    3.48
  -3   3  10   13.86    3.15
  -3   3  10   13.96    3.68
   3  -3  -9    9.65    2.89
   3  -3  -9   14.43    3.48
  -3   3   9   19.63    3.58
  -3   3   9   12.00    3.27
  -3   3   8   80.14    5.01
   3  -3  -8   83.25    6.65
   3  -3  -8   77.02    6.68
   3  -3  -8   73.55    4.65
  -3   3   8   76.75    6.09
  -3   3   8   83.98    6.79
  -3   3   7   61.15    4.30
   3  -3  -7   61.40    4.21
   3  -3  -7   60.89    5.30
   3  -3  -7   57.21    5.35
  -3   3   7   68.96    5.82
  -3   3   6   53.48    3.89
   3  -3  -6   46.26    4.34
   3  -3  -6   50.50    4.70
  -3   3   6   58.13    5.08
   3  -3  -6   49.79    3.70
  -3   3   5   11.25    0.93
  -3   3   5   15.12    2.16
   3  -3  -5   15.01    2.13
   3  -3  -5   11.54    2.30
   3  -3  -5   14.03    2.39
  -3   3   4  531.02   11.26
   3  -3  -4  500.36   11.35
   3  -3  -4  539.14   11.09
   3  -3  -4  523.57   12.11
   3  -3  -3  759.74   12.52
   3  -3  -3  783.70   12.99
   3  -3  -3  761.29   13.06
  -3   3   3  770.15   13.14
  -3   3   2  246.91    7.20
   3  -3  -2  247.26    7.09
   3  -3  -2  244.47    6.28
   3  -3  -2  262.46    6.72
   3  -3  -1   20.04    2.10
   3  -3  -1   18.62    1.56
   3  -3  -1   18.93    1.16
  -3   3   1   15.54    1.89
   3  -3  -1   15.45    2.08
   3  -3  -1   18.68    1.59
   3  -3   0   32.23    1.87
   3  -3   0   33.89    1.59
   3  -3   0   36.85    1.73
   3  -3   0   35.50    2.82
  -3   3   0   33.87    2.65
   3  -3   1  317.08    8.11
   3  -3   1  301.92    6.70
  -3   3  -1  304.99    7.10
  -3   3  -1  299.15    7.40
   3  -3   2  792.31   12.27
   3  -3   2  785.97   12.82
  -3   3  -2  794.23   12.69
  -3   3  -2  785.92   11.73
  -3   3  -3  996.83   14.99
  -3   3  -3  974.75   12.93
   3  -3   3  994.37   14.86
  -3   3  -3 1017.21   15.82
   3  -3   4  117.89    5.31
  -3   3  -4  101.90    4.99
  -3   3  -4  108.62    5.80
  -3   3  -5  281.41    8.49
   3  -3   5  294.42    8.75
  -3   3  -5  272.72    9.83
  -3   3  -6  194.16    7.30
   3  -3   6  204.34    7.74
  -3   3  -6  183.87    8.83
  -3   3  -7   13.89    2.94
  -3   3  -7   16.94    2.35
   3  -3   7   14.19    2.74
   3  -3   7   16.88    2.59
  -3   3  -8   97.81    5.58
   3  -3   8   91.95    6.84
  -3   3  -8   94.17    7.25
   3  -3   8  100.09    6.09
  -3   3  -9   19.01    2.66
   3  -3   9   20.12    2.97
   3  -3   9   20.35    3.65
  -3   3  -9   17.04    3.91
   3  -3  10   12.42    2.65
   3  -3  10   11.25    3.09
  -3   3 -10   16.56    4.09
   3  -3  11  277.46   13.85
  -3   3 -11  279.42   14.80
   3  -3  12   -1.50    1.74
  -3   3 -12   -0.52    2.13
   3  -3  13   18.14    4.22
  -3   3 -13   22.75    5.11
   3  -2 -13    3.86    2.41
  -3   2  13    2.23    2.08
   3  -2 -12   63.27    7.11
  -3   2  12   61.10    7.18
  -3   2  12   66.61    6.60
   3  -2 -11    4.69    2.55
  -3   2  11    1.99    1.98
  -3   2  11    4.93    2.01
   3  -2 -10   96.75    7.74
   3  -2 -10   90.57    7.91
  -3   2  10  111.01    8.42
  -3   2  10  106.64    7.53
   3  -2  -9   13.46    3.23
   3  -2  -9   17.06    3.39
   3  -2  -9   16.87    2.37
  -3   2   9   17.22    3.43
   3  -2  -8   10.19    1.99
   3  -2  -8    9.93    2.64
   3  -2  -8   12.58    2.96
  -3   2   8   12.04    2.09
  -3   2   8   11.54    2.73
  -3   2   7   99.45    5.22
   3  -2  -7   98.86    6.40
   3  -2  -7   92.48    6.49
   3  -2  -7   94.22    4.98
  -3   2   7   93.23    6.37
  -3   2   6  109.08    5.27
   3  -2  -6  104.76    5.05
   3  -2  -6  112.86    6.24
   3  -2  -6  113.79    6.55
  -3   2   6  108.61    6.36
  -3   2   5   18.01    2.20
   3  -2  -5   18.67    2.60
   3  -2  -5   16.42    2.38
   3  -2  -5   17.50    2.07
  -3   2   5   21.02    2.81
  -3   2   4   10.70    1.73
   3  -2  -4   10.39    1.75
   3  -2  -4   10.21    1.80
   3  -2  -4   10.78    1.66
  -3   2   4   11.05    2.01
  -3   2   3 1028.34   14.14
   3  -2  -3 1038.60   14.03
   3  -2  -3  990.53   13.81
   3  -2  -3 1016.14   13.97
  -3   2   2  329.25    7.71
   3  -2  -2  328.42    7.06
   3  -2  -2  338.78    7.71
   3  -2  -2  335.71    5.06
   3  -2  -2  325.20    6.81
  -3   2   1 1640.44   16.53
   3  -2  -1 1593.40   13.50
   3  -2  -1 1621.75   12.17
   3  -2  -1 1649.08   11.83
  -3   2   0 1394.88   14.63
   3  -2   0 1378.73   14.46
   3  -2   0 1403.84   10.54
   3  -2   0 1373.62   14.97
   3  -2   0 1351.65   12.60
  -3   2  -1 3337.85   21.96
   3  -2   1 3390.84   21.73
   3  -2   1 3357.27   14.51
   3  -2   1 3337.38   22.47
   3  -2   2 1404.22   13.43
   3  -2   2 1404.64   14.94
   3  -2   2 1372.22   16.30
  -3   2  -2 1353.06   17.05
  -3   2  -2 1421.22   13.83
   3  -2   3    6.37    1.24
  -3   2  -3    6.95    1.06
   3  -2   3    5.87    1.45
  -3   2  -3    4.74    0.85
  -3   2  -3    7.45    1.80
   3  -2   3    6.62    1.03
  -3   2  -4   46.10    3.08
   3  -2   4   49.27    2.35
  -3   2  -4   42.97    2.66
   3  -2   4   49.75    3.13
   3  -2   4   46.26    3.73
  -3   2  -5   44.93    3.14
   3  -2   5   44.30    2.13
   3  -2   5   48.24    4.10
   3  -2   5   42.41    3.05
  -3   2  -5   36.86    2.89
  -3   2  -5   43.52    4.13
  -3   2  -6   21.25    2.26
  -3   2  -6   23.33    3.53
   3  -2   6   20.31    1.34
  -3   2  -6   22.37    2.64
   3  -2   6   25.24    3.18
   3  -2   6   22.70    2.41
  -3   2  -7    8.36    2.63
  -3   2  -7    5.53    1.39
   3  -2   7    3.19    1.47
  -3   2  -7    3.02    1.32
   3  -2   7    4.09    1.23
  -3   2  -8   59.21    4.84
   3  -2   8   69.54    4.72
   3  -2   8   59.00    5.52
  -3   2  -8   60.98    5.98
  -3   2  -8   63.76    4.14
   3  -2   9   60.81    5.92
  -3   2  -9   64.92    6.54
   3  -2  10  109.71    8.24
  -3   2 -10  107.29    8.82
   3  -2  11   -2.19    1.85
  -3   2 -11    1.38    2.25
   3  -2  12  197.06   12.15
  -3   2 -12  186.58   12.79
   3  -2  13    2.66    2.12
  -3   2 -13    8.03    3.40
   3  -1 -13   30.04    5.17
  -3   1  13   37.82    5.95
  -3   1  12    4.19    2.00
   3  -1 -12    3.21    2.19
   3  -1 -11   12.25    3.16
  -3   1  11    8.33    2.94
   3  -1 -10    3.20    2.20
  -3   1  10    4.44    2.01
  -3   1   9  258.73    8.91
   3  -1  -9  260.94   11.52
  -3   1   9  262.86   11.64
  -3   1   8   41.57    3.54
   3  -1  -8   37.44    4.27
   3  -1  -8   31.37    3.05
  -3   1   8   35.34    4.35
  -3   1   7   27.19    2.76
   3  -1  -7   25.69    3.38
   3  -1  -7   24.97    2.65
  -3   1   7   30.82    3.67
  -3   1   6   21.54    2.41
   3  -1  -6   27.03    3.23
  -3   1   6   20.73    2.91
   3  -1  -6   17.97    2.72
   3  -1  -6   21.84    2.36
  -3   1   5  712.15   12.63
   3  -1  -5  726.91   14.18
   3  -1  -5  729.06   12.49
  -3   1   5  735.99   14.20
   3  -1  -4 2190.55   20.64
   3  -1  -4 2157.26   22.31
  -3   1   4 2189.16   21.08
  -3   1   4 2182.23   22.24
  -3   1   3   21.04    2.11
   3  -1  -3   20.37    2.12
   3  -1  -3   18.31    1.95
  -3   1   3   20.33    2.08
   3  -1  -2  152.35    4.28
  -3   1   2  161.62    5.24
   3  -1  -2  156.03    4.92
   3  -1  -2  157.88    5.05
   3  -1  -1   36.24    2.37
  -3   1   1   35.56    2.40
   3  -1  -1   34.77    2.13
   3  -1  -1   33.22    2.08
   3  -1   0    4.00    0.91
   3  -1   0    5.36    0.94
   3  -1   0    5.47    1.06
  -3   1   0    4.95    1.00
  -3   1  -1 1978.37   15.40
   3  -1   1 2001.57   15.31
   3  -1   1 1979.40   14.67
   3  -1   1 1986.12   18.22
  -3   1  -2 2647.36   16.77
   3  -1   2 2660.91   23.17
   3  -1   2 2715.91   16.66
   3  -1   2 2706.88   16.81
  -3   1  -2 2658.05   15.73
  -3   1  -2 2614.77   24.37
  -3   1  -3  215.76    4.44
   3  -1   3  210.62    4.84
   3  -1   3  213.45    7.16
   3  -1   3  216.53    4.97
   3  -1   3  228.75    4.47
  -3   1  -3  204.44    7.44
  -3   1  -3  196.27    5.28
  -3   1  -4    3.81    1.63
  -3   1  -4    3.04    0.91
  -3   1  -4    3.04    0.53
   3  -1   4    3.86    1.40
   3  -1   4    2.17    0.64
   3  -1   4    2.79    0.80
  -3   1  -4    3.55    0.91
   3  -1   4    3.01    0.54
  -3   1  -5   33.05    2.43
  -3   1  -5   28.26    2.76
   3  -1   5   34.07    3.44
   3  -1   5   32.75    2.34
   3  -1   5   31.55    2.04
  -3   1  -5   29.88    3.59
  -3   1  -6   48.90    2.98
   3  -1   6   52.53    4.56
   3  -1   6   49.58    2.70
  -3   1  -6   48.12    4.77
   3  -1   6   50.14    3.18
  -3   1  -6   46.26    3.88
  -3   1  -6   41.16    1.72
  -3   1  -7   28.62    4.06
  -3   1  -7   26.12    2.29
   3  -1   7   24.52    2.43
  -3   1  -7   23.07    3.08
   3  -1   7   22.13    3.53
  -3   1  -8   67.85    6.31
   3  -1   8   70.26    5.91
  -3   1  -8   73.14    5.69
  -3   1  -9   33.54    4.76
  -3   1  -9   34.77    4.36
   3  -1   9   29.52    4.17
   3  -1  10    8.47    2.65
  -3   1 -10   10.99    2.88
  -3   1 -10    6.02    2.82
   3  -1  11    3.74    2.18
  -3   1 -11    9.45    3.00
  -3   1 -11   14.95    3.80
   3  -1  12   18.32    3.96
  -3   1 -12   14.72    4.47
   3  -1  13   23.79    4.47
  -3   1 -13   21.50    5.09
   3  -1  13   25.64    4.76
  -3   0  14   81.04    8.06
   3   0 -13   33.34    5.46
  -3   0  13   28.96    5.10
   3   0 -12   10.45    3.21
  -3   0  12   11.86    3.26
   3   0 -11    0.09    1.51
  -3   0  11   -0.90    1.74
   3   0 -10   20.50    3.75
  -3   0  10   23.35    4.09
  -3   0   9    0.45    0.86
   3   0  -9   -0.60    1.82
  -3   0   9   -0.17    1.67
  -3   0   8  117.64    5.97
   3   0  -8  119.92    7.25
  -3   0   8  119.96    5.20
  -3   0   8  118.10    7.19
  -3   0   7   62.30    4.17
   3   0  -7   66.43    5.10
  -3   0   7   69.26    5.10
  -3   0   6  320.74    8.88
   3   0  -6  324.38   10.19
   3   0  -6  326.38    8.87
  -3   0   6  344.32   10.23
   3   0  -5  213.20    7.71
  -3   0   5  218.69    7.04
   3   0  -5  209.55    6.83
  -3   0   5  218.91    7.40
  -3   0   4   13.26    1.79
   3   0  -4   16.55    2.21
   3   0  -4   14.84    1.95
  -3   0   4   15.43    1.86
   3   0  -3 1979.19   19.66
  -3   0   3 1967.11   19.00
  -3   0   3 1921.04   17.21
   3   0  -3 1964.76   18.85
  -3   0   2   77.67    3.64
   3   0  -2   79.10    3.71
   3   0  -2   77.72    3.65
   3   0  -2   75.10    3.52
  -3   0   1  751.36   10.54
   3   0  -1  780.00   10.95
   3   0  -1  769.34   10.58
   3   0  -1  744.08   10.87
  -3   0   0  143.83    4.39
   3   0   0  130.94    4.79
   3   0   0  132.30    4.19
   3   0   1   10.46    1.60
   3   0   1    9.43    1.13
   3   0   1    8.20    1.29
  -3   0  -2  279.06    6.51
  -3   0  -2  293.71    5.40
   3   0   2  278.12    6.57
   3   0   2  286.16    7.97
   3   0   2  280.97    5.18
  -3   0  -3 2660.91   14.18
   3   0   3 2607.99   20.45
   3   0   3 2712.13   26.19
   3   0   3 2607.43   12.06
  -3   0  -3 2632.92   22.53
  -3   0  -3 2687.99   18.35
  -3   0  -3 2668.28   27.15
  -3   0  -4  173.74    4.50
   3   0   4  168.79    5.47
   3   0   4  179.06    7.23
   3   0   4  178.48    3.68
  -3   0  -4  178.90    4.55
  -3   0  -4  169.09    6.40
  -3   0  -4  165.54    7.36
  -3   0  -5  300.34    5.88
   3   0   5  315.98    7.78
   3   0   5  314.41   10.22
   3   0   5  315.74    5.75
  -3   0  -5  307.54    9.48
  -3   0  -5  314.59    5.59
  -3   0  -5  322.01   10.96
   3   0   6  109.18    4.89
   3   0   6  102.46    6.32
   3   0   6  107.57    3.88
  -3   0  -6  108.56    6.26
  -3   0  -6  110.76    7.04
  -3   0  -6  105.63    3.54
  -3   0  -7   -0.91    1.76
   3   0   7    0.10    0.76
  -3   0  -7   -0.26    1.56
   3   0   7   -0.62    1.52
  -3   0  -8    1.30    1.92
  -3   0  -8    3.49    1.81
   3   0   8    1.06    1.46
  -3   0  -9   12.07    3.36
   3   0   9   13.88    2.95
  -3   0  -9   11.93    2.89
  -3   0 -10   37.77    5.04
   3   0  10   26.69    4.27
  -3   0 -10   40.14    5.49
   3   0  11   -0.25    1.43
  -3   0 -11   -0.67    1.98
   3   0  11    2.87    2.06
  -3   0 -11    4.56    2.92
   3   0  12    2.40    1.73
  -3   0 -12    2.19    2.07
   3   0  12   -0.67    1.85
   3   0  13    6.76    2.56
   3   0  13    6.81    3.14
  -3   0 -13    1.73    2.07
  -3  -1  14   10.36    3.27
   3   1 -14   20.12    4.57
  -3  -1  14   11.90    3.62
   3   1 -13   18.20    3.97
  -3  -1  13   24.69    4.54
  -3  -1  13   17.33    4.14
   3   1 -12   -0.31    1.71
  -3  -1  12    1.42    2.31
   3   1 -11   66.95    6.51
  -3  -1  11   61.99    6.39
   3   1 -10    5.53    2.19
  -3  -1  10    7.72    1.83
  -3  -1  10    7.40    2.52
   3   1  -9   58.58    5.46
  -3  -1   9   64.06    4.70
  -3  -1   9   62.86    5.55
   3   1  -8   51.68    4.95
  -3  -1   8   52.34    4.13
  -3  -1   8   54.55    3.74
  -3  -1   8   54.20    4.81
  -3  -1   7  277.11    9.69
   3   1  -7  291.97   10.40
  -3  -1   7  271.08    7.98
   3   1  -6 1213.25   19.72
  -3  -1   6 1193.31   16.37
  -3  -1   6 1197.61   18.25
   3   1  -5  700.11   13.93
  -3  -1   5  690.50   12.21
  -3  -1   5  686.20   12.43
   3   1  -4   55.86    3.83
  -3  -1   4   57.43    3.21
  -3  -1   4   57.60    3.56
   3   1  -3    3.91    1.24
  -3  -1   3    2.31    0.98
   3   1  -3    3.46    1.25
  -3  -1   3    2.40    0.75
   3   1  -2   68.66    3.80
   3   1  -2   64.40    3.75
  -3  -1   2   73.78    2.48
  -3  -1   2   68.60    3.69
   3   1  -1   31.59    2.64
  -3  -1   1   27.72    2.33
   3   1   0    3.89    1.28
  -3  -1   0    2.49    1.02
   3   1   0    1.64    0.93
   3   1   1    0.97    0.88
   3   1   1    2.14    1.22
  -3  -1  -1    1.28    0.89
   3   1   2  406.43    9.15
  -3  -1  -2  417.20    8.17
   3   1   2  418.75   10.16
   3   1   3  240.88    7.33
  -3  -1  -3  235.67    7.73
   3   1   3  236.26    8.07
  -3  -1  -3  246.40    6.17
  -3  -1  -3  239.65    8.39
  -3  -1  -4  612.04    6.35
   3   1   4  629.96   12.22
   3   1   4  647.16   14.19
  -3  -1  -4  630.60   13.70
  -3  -1  -4  707.66   10.10
  -3  -1  -4  652.88   14.69
   3   1   5  267.15    8.38
   3   1   5  274.77    9.78
  -3  -1  -5  266.92    9.71
  -3  -1  -5  254.32    9.90
  -3  -1  -5  265.77    6.00
   3   1   6  474.40   11.68
  -3  -1  -6  466.13   14.26
  -3  -1  -6  468.43   13.80
   3   1   6  441.75   13.08
   3   1   7   28.54    3.13
  -3  -1  -7   25.26    3.71
   3   1   7   20.93    3.32
  -3  -1  -7   26.77    3.99
  -3  -1  -8   29.78    4.42
   3   1   8   24.09    3.62
  -3  -1  -8   20.08    3.77
  -3  -1  -9   19.46    3.82
   3   1   9   26.85    3.94
  -3  -1  -9   21.99    3.95
   3   1   9   20.37    3.66
  -3  -1 -10   17.67    3.99
   3   1  10   14.74    3.24
   3   1  10   16.37    3.40
  -3  -1 -10   17.60    3.87
  -3  -1 -11   13.59    3.57
   3   1  11    8.12    2.83
   3   1  11    9.17    2.98
  -3  -1 -11   17.90    4.26
  -3  -1 -12    9.51    3.47
   3   1  12    8.79    3.35
  -3  -1 -12    6.84    2.98
  -3  -2  14   14.44    3.84
   3   2 -14    4.81    2.91
  -3  -2  14    7.31    3.03
   3   2 -13   -5.43    2.68
  -3  -2  13    1.02    1.77
  -3  -2  13    0.25    2.19
   3   2 -12   99.38    8.13
  -3  -2  12   98.67    8.25
  -3  -2  12   98.06    8.25
   3   2 -11    0.18    1.93
  -3  -2  11   -2.52    2.04
  -3  -2  11   -0.32    1.85
   3   2 -10   48.00    5.33
  -3  -2  10   44.92    4.17
  -3  -2  10   37.78    4.55
   3   2  -9   16.73    3.20
  -3  -2   9   20.53    2.52
  -3  -2   9   25.01    3.66
   3   2  -8 1098.94   21.36
  -3  -2   8 1097.64   17.40
   3   2  -7   17.33    3.00
  -3  -2   7   22.80    2.71
   3   2  -6  106.70    6.09
  -3  -2   6  109.32    5.44
   3   2  -5  467.48   11.77
  -3  -2   5  469.50   10.87
   3   2  -4   83.22    4.81
  -3  -2   4   83.59    4.58
  -3  -2   3    0.11    1.09
   3   2  -3   -0.09    0.98
  -3  -2   3    0.29    0.44
   3   2  -2  519.57   11.27
   3   2  -2  528.58   11.44
  -3  -2   2  525.85   10.78
  -3  -2   2  504.37    5.34
   3   2  -1    6.16    1.55
   3   2  -1    8.16    1.66
  -3  -2   1    5.86    1.00
  -3  -2   1    6.81    1.44
  -3  -2   0    3.43    0.72
   3   2   0    3.10    1.30
   3   2   0    3.15    1.26
  -3  -2   0    4.65    1.31
   3   2   1  189.81    6.97
  -3  -2  -1  183.13    6.16
  -3  -2  -1  180.56    3.04
   3   2   1  189.35    7.06
   3   2   2   73.02    4.47
   3   2   2   61.29    4.27
  -3  -2  -2   56.88    3.46
   3   2   2   68.10    2.65
   3   2   3  319.28    9.84
   3   2   3  317.98    9.50
  -3  -2  -3  330.86    8.11
  -3  -2  -3  315.95    9.98
  -3  -2  -3  322.73   10.06
   3   2   3  317.86    7.01
   3   2   4   40.43    3.86
  -3  -2  -4   38.05    2.80
   3   2   4   34.71    3.33
  -3  -2  -4   35.00    3.79
  -3  -2  -4   31.37    3.53
   3   2   4   33.31    2.68
   3   2   5   80.80    5.28
  -3  -2  -5   85.31    6.09
  -3  -2  -5   85.56    4.05
   3   2   5   85.16    5.71
  -3  -2  -5   80.40    5.72
   3   2   5   89.53    4.86
  -3  -2  -6   35.90    4.22
   3   2   6   42.47    4.04
   3   2   6   44.10    4.47
  -3  -2  -6   34.35    4.28
   3   2   6   37.34    3.55
  -3  -2  -7    3.63    1.91
  -3  -2  -7    1.95    1.75
   3   2   7    4.20    1.61
   3   2   7    4.04    1.50
   3   2   7    7.44    2.06
  -3  -2  -8    4.90    2.26
   3   2   8    6.64    1.98
  -3  -2  -8    6.78    2.45
   3   2   8    8.40    2.36
   3   2   8    7.02    2.18
  -3  -2  -9    3.82    2.09
   3   2   9   -0.43    1.53
   3   2   9    1.81    1.57
  -3  -2  -9    5.52    2.71
   3   2  10    0.78    1.48
  -3  -2 -10    0.64    1.94
   3   2  10   -4.00    2.05
  -3  -2 -10    2.45    2.36
  -3  -2 -11    0.66    1.92
  -3  -2 -11    1.95    2.02
  -3  -2 -12    6.17    3.11
   3   3 -14   -1.30    2.03
  -3  -3  14    5.67    3.03
  -3  -3  14    2.01    2.17
   3   3 -13   13.89    3.77
  -3  -3  13   12.88    3.36
  -3  -3  13   16.77    3.90
   3   3 -12   -1.30    1.69
  -3  -3  12    0.63    1.62
  -3  -3  12    0.40    1.58
   3   3 -11    3.79    2.08
  -3  -3  11    2.94    1.93
  -3  -3  11    8.00    2.42
   3   3 -10   14.04    3.18
  -3  -3  10   13.69    3.30
   3   3  -9   49.78    5.10
  -3  -3   9   47.47    5.13
  -3  -3   9   44.92    3.92
   3   3  -8   74.61    5.82
  -3  -3   8   75.39    5.02
  -3  -3   8   72.39    5.94
   3   3  -7  466.43   13.48
  -3  -3   7  481.18   12.21
  -3  -3   7  495.57   14.02
   3   3  -7  471.81   13.39
   3   3  -6  515.82   13.36
   3   3  -6  504.85   13.30
  -3  -3   6  496.12   13.16
  -3  -3   6  486.12   12.11
   3   3  -5  143.14    6.91
  -3  -3   5  155.33    6.98
   3   3  -5  149.83    6.95
  -3  -3   5  147.47    6.63
   3   3  -4    6.34    1.83
   3   3  -4    5.14    1.66
  -3  -3   4    4.52    1.39
  -3  -3   4    4.91    1.51
   3   3  -3  234.20    8.31
   3   3  -3  234.61    8.27
  -3  -3   3  230.92    8.02
  -3  -3   3  228.25    7.25
   3   3  -3  215.09    7.42
   3   3  -2  382.27   10.54
  -3  -3   2  388.22   10.24
   3   3  -2  369.89   10.57
  -3  -3   2  369.57    8.50
   3   3  -1   19.89    2.66
  -3  -3   1   20.68    1.92
   3   3  -1   20.51    2.70
  -3  -3   1   22.18    2.57
  -3  -3   0    2.14    0.71
   3   3   0    1.24    1.21
  -3  -3   0    0.41    1.02
   3   3   0    3.34    1.55
   3   3   1   41.61    3.77
  -3  -3  -1   38.88    1.84
  -3  -3  -1   37.62    3.24
   3   3   1   38.50    3.57
   3   3   2   27.63    3.17
   3   3   2   35.32    3.52
  -3  -3  -2   32.05    3.02
  -3  -3  -3   11.60    2.17
   3   3   3    8.97    2.12
  -3  -3  -3    9.66    1.83
   3   3   3   13.56    2.42
   3   3   3    9.26    1.41
   3   3   4  242.93    9.59
   3   3   4  243.53    9.45
   3   3   4  244.27    7.38
  -3  -3  -4  249.47   10.48
  -3  -3  -4  243.15    7.87
  -3  -3  -4  255.53    9.64
  -3  -3  -5    3.53    1.72
   3   3   5   -0.60    1.63
  -3  -3  -5    1.79    1.81
   3   3   5    1.14    1.30
  -3  -3  -5    0.42    1.00
   3   3   5    2.19    1.07
   3   3   6    0.12    1.40
  -3  -3  -6   -0.32    1.66
   3   3   6    0.77    1.32
  -3  -3  -6    0.37    1.77
   3   3   6    1.47    1.15
  -3  -3  -7   31.43    4.23
   3   3   7   41.52    4.56
   3   3   7   37.50    4.35
  -3  -3  -7   48.01    5.66
   3   3   7   36.28    3.90
  -3  -3  -8   46.92    5.96
   3   3   8   46.66    4.96
  -3  -3  -8   44.15    5.20
   3   3   8   50.47    5.20
  -3  -3  -9    1.77    2.14
   3   3   9    4.17    1.90
  -3  -3  -9    2.02    2.20
  -3  -3 -10   12.86    3.91
  -3  -3 -11    3.43    2.32
   3   4 -14    8.26    2.95
  -3  -4  14   12.52    3.52
   3   4 -13   10.50    2.99
  -3  -4  13    3.51    2.84
  -3  -4  13    7.30    3.05
   3   4 -12    5.65    2.55
  -3  -4  12    3.20    2.55
   3   4 -11    3.03    2.02
  -3  -4  11    1.63    1.87
  -3  -4  10   84.73    7.29
   3   4 -10   87.15    6.96
  -3  -4   9   24.93    4.02
   3   4  -9   24.46    3.73
  -3  -4   9   23.88    3.20
   3   4  -9   27.76    3.93
   3   4  -8    4.35    2.13
   3   4  -8    4.88    1.95
  -3  -4   8    3.88    1.97
  -3  -4   8    3.46    1.58
  -3  -4   7  132.69    7.07
   3   4  -7  128.63    7.36
  -3  -4   7  130.50    7.65
   3   4  -7  141.42    7.73
   3   4  -6   33.66    3.89
   3   4  -6   32.65    3.80
  -3  -4   6   27.86    3.47
  -3  -4   6   28.64    3.37
   3   4  -5   24.12    3.16
   3   4  -5   20.80    3.00
  -3  -4   5   21.55    3.05
  -3  -4   5   21.46    2.97
   3   4  -4   -0.44    1.51
   3   4  -4   -0.49    1.35
  -3  -4   4   -1.11    1.20
  -3  -4   4    0.99    1.43
   3   4  -3   99.85    5.91
  -3  -4   3   92.59    5.06
  -3  -4   3   87.66    5.54
   3   4  -3   86.93    5.07
   3   4  -2  299.13   10.29
   3   4  -2  318.49   10.54
  -3  -4   2  313.59    8.60
  -3  -4   2  299.80   10.00
   3   4  -2  317.84    8.95
   3   4  -1  111.05    6.42
  -3  -4   1  107.99    6.00
   3   4  -1  119.72    6.50
  -3  -4   1  116.18    4.89
   3   4   0   29.12    3.50
   3   4   0   25.66    3.19
  -3  -4   0   24.08    2.08
  -3  -4   0   20.79    2.76
   3   4   1  237.05    9.17
   3   4   1  254.48    9.99
  -3  -4  -1  244.43    5.53
  -3  -4  -1  246.96    9.06
   3   4   2    5.86    1.80
  -3  -4  -2    5.63    1.68
   3   4   2    5.38    2.15
   3   4   3   63.99    5.34
   3   4   3   56.93    4.80
  -3  -4  -3   61.22    4.59
  -3  -4  -3   64.80    4.87
  -3  -4  -4    4.64    1.69
   3   4   4    5.38    2.17
  -3  -4  -4    4.19    2.21
  -3  -4  -4    3.87    1.55
   3   4   4    2.90    1.80
  -3  -4  -5   -0.06    1.28
   3   4   5    1.40    1.49
  -3  -4  -5   -0.99    1.67
   3   4   5    1.55    1.31
  -3  -4  -6    3.55    1.73
   3   4   6    3.02    1.77
   3   4   6    6.39    2.21
  -3  -4  -6    2.69    2.42
  -3  -4  -7    6.49    2.56
   3   4   7    4.91    1.97
   3   4   7    6.17    2.21
   3   4   8   50.73    5.67
  -3  -4  -8   54.30    6.60
  -3  -4  -9   92.82    9.11
  -3  -4 -10    0.23    2.41
   3   5 -14    5.15    2.50
  -3  -5  14    1.07    1.79
   3   5 -13    4.37    2.49
  -3  -5  13    0.45    1.95
  -3  -5  13    5.29    2.70
   3   5 -12   12.32    3.43
  -3  -5  12   12.81    3.65
   3   5 -11   60.31    6.17
  -3  -5  11   56.32    6.71
   3   5 -10   30.99    4.63
  -3  -5  10   30.22    4.82
   3   5 -10   22.31    3.93
   3   5  -9   28.85    4.26
   3   5  -9   21.20    3.55
  -3  -5   9   21.71    4.13
  -3  -5   9   21.41    3.49
   3   5  -8    3.21    2.06
   3   5  -8    5.29    2.03
  -3  -5   8    6.13    2.45
  -3  -5   8    2.57    1.72
   3   5  -7   23.28    3.59
  -3  -5   7   16.35    3.23
  -3  -5   7   24.81    3.57
   3   5  -7   21.56    3.47
   3   5  -6   95.62    6.45
  -3  -5   6   91.50    6.44
  -3  -5   6   89.92    6.29
   3   5  -6   90.42    6.40
  -3  -5   5  195.57    8.85
   3   5  -5  210.61    9.25
  -3  -5   5  189.37    9.06
   3   5  -5  222.36    9.30
   3   5  -4   24.19    3.09
   3   5  -4   21.51    3.10
   3   5  -4   19.72    3.08
  -3  -5   4   24.05    3.15
  -3  -5   4   19.22    3.06
   3   5  -3    4.48    1.59
  -3  -5   3    1.30    1.07
  -3  -5   3    1.53    1.87
   3   5  -2   45.50    4.52
  -3  -5   2   47.50    3.75
  -3  -5   2   48.14    4.57
   3   5  -2   44.91    3.67
   3   5  -1    8.83    1.69
   3   5  -1   10.33    2.54
   3   5  -1    4.57    1.94
  -3  -5   1   11.02    1.97
  -3  -5   1    7.69    2.34
   3   5   0   -0.62    1.38
   3   5   0    2.32    1.73
  -3  -5   0    0.80    0.87
  -3  -5   0    2.39    1.56
   3   5   1   71.95    5.85
   3   5   1   66.83    5.34
  -3  -5  -1   62.96    5.13
   3   5   2   50.59    5.10
   3   5   2   52.74    4.81
  -3  -5  -2   51.86    4.78
  -3  -5  -2   61.26    4.72
  -3  -5  -3    1.68    1.25
   3   5   3    0.20    1.63
  -3  -5  -3    1.41    1.40
   3   5   3   -1.82    1.53
   3   5   4   32.68    4.40
   3   5   4   30.83    3.94
  -3  -5  -4   36.94    5.04
  -3  -5  -4   37.00    4.06
   3   5   5    7.60    2.24
  -3  -5  -5    7.86    2.85
   3   5   5   11.40    2.97
   3   5   6   51.64    5.74
   3   5   6   45.71    4.87
  -3  -5  -6   52.91    6.46
  -3  -5  -7   37.61    5.84
   3   5   7   29.71    4.79
   3   5   8   20.08    3.90
  -3  -5  -8   25.39    4.93
  -3  -5  -9    1.14    2.16
   3   6 -13    1.14    1.57
   3   6 -12   14.06    3.41
  -3  -6  12   24.87    4.94
  -3  -6  11    9.50    3.22
   3   6 -11   12.67    3.20
   3   6 -11   14.79    3.35
  -3  -6  10   99.63    8.54
   3   6 -10  108.06    8.08
  -3  -6  10  106.70    7.72
   3   6 -10   98.65    8.08
   3   6  -9   16.01    3.50
   3   6  -9    9.89    2.69
  -3  -6   9    6.64    2.89
  -3  -6   9   15.19    3.11
   3   6  -8   25.67    4.01
  -3  -6   8   20.67    3.91
   3   6  -8   30.65    4.15
  -3  -6   8   26.82    4.12
   3   6  -7    0.62    1.84
  -3  -6   7    0.63    1.60
   3   6  -7    1.46    1.49
  -3  -6   7   -0.08    1.52
   3   6  -6    1.38    1.80
   3   6  -6    3.60    1.85
  -3  -6   6    1.96    1.71
  -3  -6   6    0.20    1.61
  -3  -6   5   51.75    4.96
   3   6  -5   51.28    5.04
  -3  -6   5   49.69    5.18
   3   6  -5   56.27    5.01
   3   6  -4  262.04   11.06
   3   6  -4  273.68   11.09
  -3  -6   4  269.25   10.44
  -3  -6   4  262.16   11.48
   3   6  -4  266.84   10.34
   3   6  -3  197.57    9.69
  -3  -6   3  185.78    8.31
  -3  -6   3  197.83    9.82
   3   6  -3  216.22    8.83
   3   6  -2   76.81    6.26
  -3  -6   2   69.64    4.91
  -3  -6   2   69.35    6.00
   3   6  -2   68.39    4.90
   3   6  -1   33.51    4.24
   3   6  -1   32.39    4.19
  -3  -6   1   35.85    3.36
  -3  -6   1   28.73    4.00
   3   6  -1   29.81    3.15
   3   6   0    1.80    1.82
   3   6   0    2.16    1.75
  -3  -6   0   -1.27    2.05
   3   6   1    1.25    2.05
   3   6   1    1.33    1.56
  -3  -6  -1    3.56    2.13
   3   6   2   60.79    5.43
   3   6   2   69.61    6.41
  -3  -6  -2   58.37    5.47
  -3  -6  -3   14.06    3.04
   3   6   3   17.70    3.18
   3   6   3   18.96    3.69
   3   6   4    2.44    1.33
   3   6   4    2.27    1.46
  -3  -6  -4    1.11    2.18
  -3  -6  -4    2.66    1.51
   3   6   5    1.55    1.54
  -3  -6  -5   -0.97    2.09
   3   6   6    5.91    2.57
  -3  -6  -6    5.34    3.06
  -3  -6  -7   12.61    3.67
   3   6   7   13.46    3.52
   3   6   8   11.78    3.44
  -3  -6  -8   17.92    4.49
  -3  -7  12    9.51    3.03
   3   7 -12   -2.24    1.87
   3   7 -11   11.66    3.42
   3   7 -11   12.19    3.25
  -3  -7  11    8.24    3.13
   3   7 -10    1.49    2.15
  -3  -7  10    1.52    2.10
  -3  -7  10    0.62    1.80
   3   7 -10   -0.93    1.71
   3   7  -9    2.65    2.19
   3   7  -9   -0.20    1.35
  -3  -7   9   -4.22    2.64
  -3  -7   9   -2.92    2.19
   3   7  -8   34.23    4.82
   3   7  -8   35.74    4.54
  -3  -7   8   33.77    4.76
  -3  -7   8   43.54    5.49
   3   7  -7   48.24    5.38
   3   7  -7   46.63    5.21
  -3  -7   7   38.49    5.10
  -3  -7   7   44.27    5.38
   3   7  -6   50.82    5.27
  -3  -7   6   51.34    5.42
  -3  -7   6   51.34    5.69
   3   7  -6   47.84    5.13
  -3  -7   5   -0.66    2.18
   3   7  -5    1.91    1.50
   3   7  -5    0.28    1.43
  -3  -7   5    0.32    1.23
   3   7  -5   -1.38    1.58
   3   7  -4    3.14    1.66
   3   7  -4    1.76    1.72
   3   7  -4   -1.38    1.54
  -3  -7   4    3.09    1.28
  -3  -7   4    0.85    1.84
   3   7  -3   33.55    3.86
  -3  -7   3   29.72    4.44
   3   7  -3   31.90    4.38
  -3  -7   3   26.57    3.53
   3   7  -2    4.23    1.52
   3   7  -2    0.50    1.55
  -3  -7   2    0.55    2.00
   3   7  -1  188.89   10.55
  -3  -7   1  173.41   10.01
   3   7   0    6.49    2.52
  -3  -7   0    7.46    2.77
   3   7   1   34.26    4.42
   3   7   1   30.32    4.61
  -3  -7  -1   21.81    3.94
   3   7   2    8.60    2.44
   3   7   2    6.41    2.71
  -3  -7  -2   11.47    3.11
  -3  -7  -3   31.10    4.43
   3   7   3   34.27    5.19
   3   7   4   22.83    4.55
  -3  -7  -4   20.68    4.66
   3   7   5  108.03    9.22
  -3  -7  -5  114.26   10.30
   3   7   6   15.61    4.12
  -3  -7  -6   18.68    5.14
   3   7   7   -1.29    1.82
  -3  -8  11   40.13    6.56
   3   8 -10    5.36    2.62
  -3  -8  10    3.75    2.95
   3   8 -10    4.17    2.58
  -3  -8  10    3.72    2.39
   3   8  -9   24.84    4.66
   3   8  -9   24.51    4.24
  -3  -8   9   34.14    5.37
  -3  -8   9   37.85    5.72
   3   8  -8   27.48    4.46
  -3  -8   8   20.36    4.43
   3   8  -8   17.24    3.54
  -3  -8   8   17.65    3.84
   3   8  -7    8.87    2.99
  -3  -8   7    8.73    2.90
   3   8  -7    5.01    2.07
  -3  -8   7    5.70    2.79
   3   8  -6   51.18    5.63
   3   8  -6   48.33    5.43
  -3  -8   6   36.58    4.99
  -3  -8   6   39.82    5.62
   3   8  -5   72.61    6.85
   3   8  -5   73.81    6.66
  -3  -8   5   70.25    6.36
  -3  -8   5   69.91    7.22
   3   8  -5   87.11    6.89
   3   8  -4    0.00    1.13
   3   8  -4    0.02    1.63
  -3  -8   4   -0.99    1.51
   3   8  -4    0.01    1.44
  -3  -8   4   -0.58    2.14
   3   8  -3   12.87    2.66
   3   8  -3    8.06    2.85
  -3  -8   2    9.67    3.36
   3   8  -2   10.36    2.99
   3   8  -1   27.50    4.53
  -3  -8   1   27.33    4.53
   3   8   0  107.94    8.76
  -3  -8   0  117.66    8.95
   3   8   1   76.09    7.55
  -3  -8  -1   52.76    6.19
  -3  -8  -2    0.29    1.52
   3   8   2    2.33    2.07
   3   8   3    7.49    3.02
  -3  -8  -3    5.11    3.11
  -3  -8  -3    8.47    2.77
   3   8   4    1.15    2.17
  -3  -8  -4   -6.14    3.30
  -3  -9  10  187.59   12.52
   3   9  -9    1.65    2.15
  -3  -9   9    4.26    2.53
  -3  -9   9    3.04    2.54
   3   9  -8   61.79    6.90
   3   9  -8   50.19    6.06
  -3  -9   8   45.10    6.22
  -3  -9   8   43.86    6.18
   3   9  -7   43.17    5.66
   3   9  -7   42.60    5.36
  -3  -9   7   37.89    5.64
  -3  -9   7   36.19    5.92
   3   9  -6   10.61    2.98
   3   9  -6    9.25    2.86
  -3  -9   6    1.22    1.77
  -3  -9   6    9.55    3.40
   3   9  -5   12.84    3.00
   3   9  -5    4.11    2.34
   3   9  -5    6.72    2.55
  -3  -9   5   13.82    3.27
  -3  -9   5   10.65    3.70
   3   9  -4   25.43    4.52
   3   9  -4   27.47    4.45
  -3  -9   4   18.63    4.30
   3   9  -3   11.48    3.31
  -3  -9   3   13.07    3.67
   3   9  -2   14.86    3.67
  -3  -9   2   17.69    4.60
   3   9  -1    6.97    2.73
  -3  -9   1    8.94    3.42
   3   9   0   32.33    5.51
  -3  -9   0   19.24    4.33
  -3  -9  -1   25.80    5.14
   3   9   1   37.27    5.86
   3   9   2    7.19    2.99
  -3  -9  -2    4.69    2.52
  -3 -10   8    9.25    4.02
   3  10  -7   21.56    4.28
  -3 -10   7   17.81    3.95
   3  10  -6   16.33    3.71
  -3 -10   6   21.45    5.01
   3  10  -5    1.53    1.99
   3  10  -5    1.56    1.85
  -3 -10   5    7.39    3.33
   3  10  -4    9.59    3.06
   3  10  -4   10.58    3.26
  -3 -10   4    8.20    3.57
   3  10  -3   46.94    6.44
  -3 -10   3   61.52    8.14
   3  10  -2   38.22    5.88
  -3 -10   2   27.00    5.46
   3  10  -1   21.91    4.72
  -3 -10   1   20.50    4.97
  -4  12   1   -2.23    1.61
  -4  12   0   -0.18    1.42
   4 -12   0    8.03    3.52
   4 -12   1   -0.42    2.19
  -4  12  -2   20.84    3.91
   4 -12   2   20.08    4.80
  -4  12  -3    0.80    1.26
   4 -12   3    5.26    2.86
  -4  12  -4    0.07    1.47
   4 -12   4   11.01    3.83
  -4  12  -5    9.96    3.32
   4 -11  -4    6.96    2.59
   4 -11  -3   25.19    4.39
  -4  11   3   37.05    5.97
  -4  11   2  109.22    9.39
  -4  11   1    0.20    1.85
   4 -11  -1   -1.31    2.25
  -4  11   0   -0.10    1.47
   4 -11   0    3.22    2.87
  -4  11  -1   13.32    3.12
  -4  11  -1   15.76    3.42
   4 -11   1    8.23    3.04
  -4  11  -2    1.23    1.93
   4 -11   2    0.60    2.23
  -4  11  -3   12.51    3.29
   4 -11   3   11.75    3.66
  -4  11  -4    7.07    2.64
   4 -11   4    2.86    3.03
  -4  11  -5   -0.45    1.82
   4 -11   5    2.99    2.19
  -4  11  -6    6.82    2.61
   4 -11   6   12.65    3.74
  -4  11  -7   -1.08    1.61
   4 -11   7    2.16    2.48
   4 -11   8  102.41    9.86
  -4  11  -8  107.36    9.53
   4 -10  -6    0.98    2.19
   4 -10  -5   12.52    3.36
  -4  10   5    5.43    2.87
  -4  10   4   -1.64    2.24
   4 -10  -4   -3.81    2.38
   4 -10  -4    0.21    1.37
   4 -10  -3    3.21    2.11
   4 -10  -3    1.84    2.01
  -4  10   3    7.24    2.83
   4 -10  -2    1.32    1.75
  -4  10   2    2.74    2.17
  -4  10   1   80.36    7.20
   4 -10  -1   85.94    7.79
  -4  10   0   96.24    7.41
  -4  10   0   99.90    7.70
   4 -10   0  104.99    8.52
  -4  10  -1   18.31    3.38
  -4  10  -1   20.56    3.45
   4 -10   1   17.50    3.85
  -4  10  -2   18.34    3.44
   4 -10   2   18.71    4.03
  -4  10  -2   19.41    3.19
  -4  10  -3   -0.84    2.04
   4 -10   3  -10.76    3.44
  -4  10  -4    1.43    1.66
   4 -10   4    6.23    2.78
  -4  10  -5   31.33    4.98
   4 -10   5   25.30    4.62
  -4  10  -6   68.26    6.94
   4 -10   6   80.30    8.02
  -4  10  -7   -2.46    2.52
   4 -10   7    2.88    2.51
  -4  10  -8   31.54    5.39
   4 -10   8   30.69    5.46
  -4  10  -9   49.62    6.55
   4 -10   9   53.20    6.98
   4 -10  10   17.84    4.80
   4  -9  -7    6.04    2.85
  -4   9   7    4.29    2.99
   4  -9  -6    5.67    2.54
  -4   9   6   -1.14    1.93
   4  -9  -5   27.66    4.70
  -4   9   5   19.55    4.46
   4  -9  -5   15.83    3.46
   4  -9  -4   16.58    3.66
  -4   9   4   15.43    3.79
   4  -9  -4   13.71    3.07
   4  -9  -3   29.33    4.47
  -4   9   3   25.92    4.34
  -4   9   2   -1.04    1.35
   4  -9  -2   -1.66    2.01
   4  -9  -2    1.05    1.72
  -4   9   2    1.06    1.87
  -4   9   1    8.04    2.52
   4  -9  -1    7.49    2.74
  -4   9   1    6.45    2.30
   4  -9  -1   10.38    2.62
  -4   9   0   87.65    6.76
  -4   9   0   98.61    7.12
   4  -9   0   95.20    7.70
   4  -9   0  109.57    7.14
  -4   9  -1   65.86    5.55
   4  -9   1   66.30    6.59
  -4   9  -1   63.72    5.91
  -4   9  -2   95.79    7.30
  -4   9  -2   96.92    6.39
   4  -9   2  106.49    8.25
  -4   9  -3   39.89    4.86
   4  -9   3   32.27    4.67
  -4   9  -4   69.97    6.49
   4  -9   4   75.98    7.18
  -4   9  -5    1.99    1.90
   4  -9   5    6.05    2.84
  -4   9  -6   15.04    3.30
   4  -9   6   14.74    3.64
  -4   9  -7   22.89    4.03
   4  -9   7   21.20    4.36
  -4   9  -8   -4.12    2.58
   4  -9   8    0.83    2.09
  -4   9  -9    2.08    2.18
   4  -9   9    2.62    2.61
  -4   9 -10   -0.05    2.16
   4  -9  10    0.42    2.67
  -4   9 -11   17.53    3.99
   4  -9  11   18.62    4.64
  -4   9 -11   29.79    5.46
   4  -8  -8    3.61    2.57
  -4   8   8    2.24    2.34
   4  -8  -7   -1.72    2.05
  -4   8   7   -0.68    2.18
   4  -8  -6   42.33    4.84
  -4   8   6   33.48    5.27
   4  -8  -5    0.46    1.28
   4  -8  -5    1.30    1.50
  -4   8   5    1.96    1.77
   4  -8  -4   17.43    3.69
  -4   8   4   19.05    3.61
   4  -8  -4   16.65    3.19
   4  -8  -3    0.76    1.60
  -4   8   3    6.45    2.05
   4  -8  -3    4.39    2.06
  -4   8   3    5.17    2.28
  -4   8   2  139.64    7.84
  -4   8   2  132.59    8.33
   4  -8  -2  138.26    8.66
   4  -8  -2  146.22    8.24
  -4   8   1  156.98    8.42
  -4   8   1  150.28    8.45
   4  -8  -1  161.90    9.28
   4  -8  -1  165.81    8.35
  -4   8   0   16.84    3.07
   4  -8   0   21.80    3.84
  -4   8   0   18.38    3.03
   4  -8   0   15.97    2.60
  -4   8  -1   21.62    3.43
   4  -8   1   15.87    3.46
  -4   8  -1   17.97    2.84
  -4   8  -2   81.35    6.30
  -4   8  -2   81.99    5.38
   4  -8   2   79.37    6.63
  -4   8  -3    5.71    1.52
  -4   8  -3    5.38    2.14
   4  -8   3    7.75    2.71
  -4   8  -4  258.19   11.58
   4  -8   4  272.23   12.32
  -4   8  -5  107.48    7.73
   4  -8   5   94.16    7.53
  -4   8  -6    5.26    2.35
   4  -8   6    5.43    2.70
  -4   8  -6    8.16    2.29
  -4   8  -7   38.75    4.96
   4  -8   7   33.48    4.90
  -4   8  -7   37.14    4.63
  -4   8  -8    4.53    2.30
   4  -8   8    3.37    2.53
  -4   8  -8    4.35    1.86
  -4   8  -9   12.99    3.17
   4  -8   9   18.49    4.16
  -4   8  -9   19.58    4.01
  -4   8 -10    3.92    2.47
   4  -8  10    7.36    2.92
  -4   8 -10   -0.38    1.83
  -4   8 -11    1.16    2.24
   4  -8  11    1.70    2.43
  -4   8 -11    0.96    2.49
  -4   8 -12   -4.83    2.30
   4  -8  12   -0.73    2.52
  -4   8 -12   -1.27    2.65
   4  -7  -9   -2.93    2.46
  -4   7   9   -2.48    2.19
   4  -7  -8    4.13    2.58
  -4   7   8    0.01    1.57
   4  -7  -7   42.31    5.69
  -4   7   7   46.20    5.96
   4  -7  -6    0.90    1.39
   4  -7  -6    1.71    2.14
  -4   7   6    1.45    1.44
   4  -7  -5   48.03    4.78
   4  -7  -5   59.58    5.88
  -4   7   5   57.04    5.88
  -4   7   5   55.00    5.20
   4  -7  -4    0.02    1.64
  -4   7   4   -1.03    1.95
  -4   7   4   -0.60    1.55
   4  -7  -4    0.70    1.38
   4  -7  -3    9.33    2.38
  -4   7   3    5.65    2.17
   4  -7  -3    9.87    2.30
  -4   7   3   13.04    2.71
   4  -7  -2   95.68    6.77
   4  -7  -2   86.27    5.86
  -4   7   2   84.86    6.28
  -4   7   2   79.20    5.99
   4  -7  -1    8.33    2.53
   4  -7  -1    8.43    1.90
  -4   7   1    7.75    2.00
  -4   7   0  169.99    8.30
   4  -7   0  162.37    8.63
   4  -7   0  183.01    7.40
  -4   7   0  168.29    7.76
  -4   7  -1    2.95    1.77
   4  -7   1    3.39    2.45
  -4   7  -1    2.25    1.22
  -4   7  -2   67.27    5.51
   4  -7   2   73.28    6.04
  -4   7  -2   69.64    4.44
  -4   7  -3   55.62    5.28
  -4   7  -3   62.95    3.94
   4  -7   3   56.75    5.44
  -4   7  -3   54.38    3.87
  -4   7  -4   14.76    3.09
   4  -7   4   20.18    3.46
  -4   7  -4   20.17    2.80
  -4   7  -5    5.93    2.12
   4  -7   5    8.25    2.65
  -4   7  -5    6.99    1.79
  -4   7  -6  249.07   11.16
   4  -7   6  246.80   11.54
  -4   7  -6  254.49   10.80
  -4   7  -7    5.12    2.31
   4  -7   7    2.90    2.29
  -4   7  -7    7.33    2.28
  -4   7  -8    6.61    2.52
   4  -7   8    7.38    2.85
  -4   7  -8   12.08    2.98
  -4   7  -9   48.63    5.56
   4  -7   9   44.10    5.60
  -4   7  -9   55.90    6.40
  -4   7 -10    2.47    1.99
   4  -7  10    0.19    1.77
  -4   7 -10    2.00    2.24
  -4   7 -11   -0.50    1.62
   4  -7  11   -0.82    1.96
  -4   7 -11    3.40    2.56
  -4   7 -12    0.64    1.72
   4  -7  12    7.19    2.91
   4  -7  12    0.43    1.99
  -4   7 -12    2.55    2.87
   4  -6 -10    9.66    3.36
  -4   6  10   10.37    3.51
   4  -6  -9    1.20    1.78
  -4   6   9    2.65    2.39
   4  -6  -8   13.27    3.35
  -4   6   8   21.64    4.25
   4  -6  -7   -0.09    1.12
  -4   6   7    0.86    1.91
  -4   6   7    0.87    1.22
   4  -6  -7    1.44    1.84
   4  -6  -6   -0.71    1.27
  -4   6   6    1.35    1.49
   4  -6  -6   -3.22    1.82
  -4   6   6    0.39    1.77
   4  -6  -5   32.36    3.77
  -4   6   5   31.05    3.77
   4  -6  -5   28.70    4.01
  -4   6   5   31.66    4.37
   4  -6  -4  151.43    7.66
   4  -6  -4  160.89    8.26
  -4   6   4  146.77    8.36
  -4   6   4  153.61    7.89
   4  -6  -3   97.33    6.19
  -4   6   3  101.40    6.66
   4  -6  -3  102.40    6.12
  -4   6   3   92.54    6.13
   4  -6  -2   24.40    3.19
   4  -6  -2   26.25    3.65
   4  -6  -2   27.69    3.07
  -4   6   2   25.16    3.32
  -4   6   2   22.47    3.20
  -4   6   1    4.37    1.69
   4  -6  -1    2.97    1.90
   4  -6  -1    3.98    1.25
  -4   6   1    5.99    1.78
  -4   6   0   -0.48    1.59
   4  -6   0   -0.10    0.39
  -4   6   0    0.22    0.98
   4  -6   0    0.53    1.63
   4  -6   0    1.26    0.89
  -4   6  -1   35.01    3.13
   4  -6   1   40.06    4.29
  -4   6  -1   38.44    2.60
  -4   6  -1   38.49    3.97
  -4   6  -2   92.32    6.00
  -4   6  -2   92.05    4.53
   4  -6   2   84.53    5.94
  -4   6  -2   94.26    4.60
  -4   6  -3   11.82    1.99
  -4   6  -3   10.04    2.34
   4  -6   3    8.24    2.30
  -4   6  -3   12.38    1.61
  -4   6  -4   10.87    2.16
  -4   6  -4   11.12    2.43
   4  -6   4   13.26    2.82
  -4   6  -5  509.30   14.69
   4  -6   5  533.09   15.38
  -4   6  -5  530.41   14.34
  -4   6  -6   -1.49    1.92
   4  -6   6    1.18    1.64
  -4   6  -6   -0.11    1.47
  -4   6  -7  148.59    8.32
   4  -6   7  157.85    8.90
  -4   6  -7  160.87    9.19
  -4   6  -8   19.70    3.49
   4  -6   8   15.12    3.27
  -4   6  -8   18.83    3.64
  -4   6  -9   58.75    5.65
   4  -6   9   56.71    5.92
  -4   6  -9   61.68    6.61
  -4   6 -10   -0.22    1.70
   4  -6  10   -2.10    2.16
   4  -6  10   -2.61    2.01
  -4   6 -10    0.88    2.51
  -4   6 -11    0.50    1.41
   4  -6  11   -1.68    1.91
   4  -6  11    1.71    1.64
  -4   6 -11    3.71    2.80
   4  -6  12   -2.62    2.13
  -4   6 -12    3.32    2.89
  -4   5  11    4.03    2.48
   4  -5 -11    9.97    3.14
   4  -5 -10    2.51    2.65
  -4   5  10   -0.10    1.45
   4  -5  -9  113.20    9.10
  -4   5   9  126.24    9.37
  -4   5   8    3.87    1.66
   4  -5  -8    2.69    2.05
   4  -5  -8    6.66    2.06
  -4   5   8    3.78    2.11
   4  -5  -7   44.61    4.97
   4  -5  -7   51.26    4.58
   4  -5  -7   54.75    5.75
  -4   5   7   48.56    5.50
  -4   5   7   66.07    5.25
   4  -5  -6  133.98    7.06
   4  -5  -6  143.91    8.05
  -4   5   6  142.17    8.56
   4  -5  -6  141.94    8.40
  -4   5   6  137.98    7.32
   4  -5  -5  353.77   11.79
   4  -5  -5  365.87   11.38
   4  -5  -5  387.15   12.76
  -4   5   5  366.83   12.93
  -4   5   5  368.01   11.65
   4  -5  -4   14.36    2.54
   4  -5  -4   13.21    2.47
  -4   5   4   19.36    2.88
   4  -5  -4   18.45    2.92
  -4   5   4   16.08    3.03
   4  -5  -3   77.97    5.13
   4  -5  -3   82.22    4.74
   4  -5  -3   82.36    5.04
  -4   5   3   80.59    5.28
   4  -5  -2   26.33    2.67
   4  -5  -2   24.41    2.96
  -4   5   2   26.96    3.14
  -4   5   1    2.14    0.56
   4  -5  -1    2.29    1.57
   4  -5  -1    2.55    1.03
   4  -5  -1    1.16    0.44
  -4   5   1    2.01    1.40
  -4   5   0   43.92    3.32
   4  -5   0   38.75    2.40
   4  -5   0   41.32    3.98
   4  -5   0   39.22    2.55
  -4   5   0   38.98    2.55
  -4   5   0   45.43    3.88
   4  -5   1  178.47    5.84
  -4   5  -1  175.79    6.07
   4  -5   1  186.27    7.96
  -4   5  -1  175.35    5.87
  -4   5  -1  181.54    7.50
   4  -5   2   18.64    2.21
  -4   5  -2   20.22    1.97
  -4   5  -2   19.20    2.59
   4  -5   2   20.14    2.90
  -4   5  -2   22.15    2.44
  -4   5  -3  129.51    6.73
   4  -5   3  138.37    6.97
  -4   5  -3  133.80    4.23
  -4   5  -3  131.31    6.18
  -4   5  -4  156.06    7.56
  -4   5  -4  151.13    7.24
   4  -5   4  158.55    7.65
  -4   5  -4  153.66    3.51
  -4   5  -5   -0.31    1.33
  -4   5  -5    1.07    1.31
   4  -5   5    0.94    1.54
  -4   5  -6   30.99    4.00
  -4   5  -6   32.91    3.78
   4  -5   6   33.91    3.86
  -4   5  -7  121.47    7.16
  -4   5  -7  124.02    8.07
   4  -5   7  119.52    7.26
  -4   5  -8   55.67    5.06
   4  -5   8   62.78    6.13
   4  -5   8   63.25    5.54
  -4   5  -8   65.51    6.39
  -4   5  -9   -1.58    1.62
   4  -5   9    1.42    1.54
   4  -5   9    1.56    1.49
  -4   5  -9   -1.79    2.47
  -4   5 -10    3.56    1.70
   4  -5  10    3.66    1.76
   4  -5  10    1.17    1.68
   4  -5  11    2.44    2.16
  -4   5 -11    4.28    2.41
  -4   5 -12   -1.09    2.41
   4  -5  12    0.29    1.72
   4  -4 -12    3.08    2.35
  -4   4  12   -0.41    1.20
   4  -4 -11    1.26    2.01
  -4   4  11   -0.64    1.89
   4  -4 -10    1.11    1.87
   4  -4 -10    7.48    2.96
  -4   4  10    8.29    2.83
   4  -4  -9    0.87    1.83
   4  -4  -9    4.86    2.66
  -4   4   9    2.73    1.97
   4  -4  -8   40.94    5.00
   4  -4  -8   47.55    4.29
   4  -4  -8   42.03    5.26
  -4   4   8   47.90    5.36
  -4   4   8   40.30    4.05
  -4   4   7   45.06    4.21
   4  -4  -7   41.95    4.78
   4  -4  -7   47.71    5.15
   4  -4  -7   34.42    3.64
  -4   4   6  261.21    9.60
   4  -4  -6  247.83    9.09
   4  -4  -6  242.48    9.98
   4  -4  -6  238.62   10.25
   4  -4  -5   14.39    2.49
   4  -4  -5   16.27    2.76
  -4   4   5   14.45    2.42
   4  -4  -5   12.02    2.40
  -4   4   4   64.12    4.62
   4  -4  -4   53.99    4.07
   4  -4  -4   65.55    4.55
   4  -4  -4   68.59    4.68
   4  -4  -3    6.34    1.46
   4  -4  -3    8.77    1.82
  -4   4   3   10.51    2.11
   4  -4  -3    9.54    1.68
  -4   4   2   71.04    4.60
   4  -4  -2   56.71    1.64
   4  -4  -2   68.66    4.43
   4  -4  -2   70.75    3.71
   4  -4  -2   67.92    3.78
   4  -4  -1   80.54    4.65
   4  -4  -1   71.40    3.19
   4  -4  -1   80.89    5.00
   4  -4  -1   76.08    2.72
   4  -4  -1   76.81    3.40
  -4   4   1   81.62    4.80
   4  -4   0  154.33    6.27
   4  -4   0  144.77    3.65
   4  -4   0  156.31    4.73
   4  -4   0  164.09    6.82
   4  -4   0  154.55    3.92
  -4   4   0  158.51    6.48
   4  -4   1  257.88    6.97
   4  -4   1  250.52    8.32
   4  -4   1  244.07    3.85
  -4   4  -1  243.63    7.27
  -4   4  -1  250.36    7.95
   4  -4   2   84.96    4.47
   4  -4   2   85.57    5.04
  -4   4  -2   87.02    4.71
  -4   4  -2   79.72    4.49
   4  -4   3  188.57    7.21
   4  -4   3  192.76    7.51
  -4   4  -3  181.59    7.30
  -4   4  -3  188.26    6.76
  -4   4  -4  198.86    7.99
   4  -4   4  211.22    8.05
  -4   4  -4  194.55    2.84
   4  -4   4  228.65    8.67
  -4   4  -4  214.91    8.62
  -4   4  -5   89.61    5.51
   4  -4   5   84.78    5.71
   4  -4   5   89.01    5.49
  -4   4  -5   83.40    5.89
  -4   4  -6   13.04    2.84
  -4   4  -6   17.75    2.79
   4  -4   6   12.82    2.67
   4  -4   6   15.48    2.60
  -4   4  -7    0.43    1.76
  -4   4  -7   -0.69    1.27
   4  -4   7   -0.80    1.90
   4  -4   7    0.76    1.32
  -4   4  -8   36.69    3.92
  -4   4  -8   39.64    5.29
   4  -4   8   39.43    4.11
   4  -4   8   36.41    4.63
  -4   4  -9    3.41    1.51
   4  -4   9    6.79    2.55
   4  -4   9    4.58    2.00
  -4   4  -9    3.91    1.98
   4  -4  10   42.60    5.70
  -4   4 -10   44.05    6.09
   4  -4  11   59.41    6.91
  -4   4 -11   69.93    7.98
   4  -4  12    3.61    2.37
  -4   4 -12    2.58    2.77
   4  -4  13   -4.43    2.22
  -4   3  13    2.09    1.76
   4  -3 -12   -1.96    2.23
  -4   3  12    0.59    1.76
  -4   3  12    0.41    1.80
   4  -3 -11   22.49    4.37
  -4   3  11   17.01    3.58
  -4   3  11   20.42    4.35
   4  -3 -10    5.59    2.58
   4  -3 -10    4.31    2.50
  -4   3  10   12.59    2.90
  -4   3  10    7.81    2.99
   4  -3  -9   12.90    3.16
  -4   3   9   10.38    2.30
   4  -3  -9   11.94    3.09
  -4   3   9    8.01    3.04
   4  -3  -9    8.65    2.01
   4  -3  -8   25.60    3.89
  -4   3   8   29.72    3.41
   4  -3  -8   32.81    3.49
   4  -3  -8   26.90    4.05
  -4   3   8   23.51    3.89
   4  -3  -7   11.07    2.65
   4  -3  -7   12.47    2.24
  -4   3   7   14.80    2.52
   4  -3  -7   14.67    2.97
   4  -3  -6    9.55    2.22
  -4   3   6   10.79    2.13
   4  -3  -6    9.62    2.25
   4  -3  -6    8.79    1.91
  -4   3   5  106.55    5.72
   4  -3  -5  105.41    5.88
   4  -3  -5  109.74    5.67
   4  -3  -5  105.89    5.98
   4  -3  -4   -0.38    1.12
   4  -3  -4   -0.25    1.00
  -4   3   4    0.77    1.11
   4  -3  -4   -0.47    0.99
  -4   3   3  118.93    5.69
   4  -3  -3  114.65    5.09
   4  -3  -3  108.76    5.36
   4  -3  -3  111.44    4.94
  -4   3   2  187.27    6.87
   4  -3  -2  187.90    5.78
   4  -3  -2  192.87    6.89
   4  -3  -2  194.81    4.25
   4  -3  -2  193.67    5.59
  -4   3   1   51.30    3.56
   4  -3  -1   50.88    3.50
   4  -3  -1   47.12    2.59
   4  -3  -1   47.87    2.45
   4  -3  -1   46.49    2.25
   4  -3   0   12.30    1.85
   4  -3   0   11.56    1.14
   4  -3   0   11.30    1.38
  -4   3   0   11.44    1.83
   4  -3   0   12.44    2.05
  -4   3  -1  843.05   13.40
   4  -3   1  825.17   12.97
   4  -3   1  835.00    7.61
   4  -3   1  828.91   12.52
   4  -3   1  839.72   13.74
   4  -3   2  466.24    9.48
   4  -3   2  460.70    5.29
   4  -3   2  477.94   10.50
   4  -3   2  490.50   10.56
  -4   3  -2  467.58   11.13
  -4   3  -2  473.84    9.81
   4  -3   3   54.19    3.26
   4  -3   3   50.39    3.78
   4  -3   3   48.74    3.49
  -4   3  -3   50.75    4.04
  -4   3  -3   49.25    3.14
  -4   3  -4   -0.11    1.49
  -4   3  -4    1.37    1.15
  -4   3  -4    1.89    0.86
   4  -3   4    2.28    1.03
   4  -3   4    1.89    1.17
   4  -3   4    1.61    0.75
  -4   3  -5  173.61    7.01
   4  -3   5  172.29    5.38
   4  -3   5  169.31    7.99
   4  -3   5  169.55    6.81
  -4   3  -5  163.70    8.20
  -4   3  -6  298.13    9.40
   4  -3   6  333.37    7.13
   4  -3   6  313.36    9.61
   4  -3   6  336.15   11.93
  -4   3  -6  318.81   12.13
  -4   3  -7   55.70    4.23
   4  -3   7   59.64    5.57
   4  -3   7   63.10    4.53
  -4   3  -7   63.20    6.05
  -4   3  -8   16.61    3.55
  -4   3  -8   21.65    2.82
   4  -3   8   27.54    3.20
   4  -3   8   23.31    3.70
   4  -3   9   42.41    5.29
  -4   3  -9   55.20    6.32
   4  -3  10   16.12    3.72
  -4   3 -10   24.31    4.72
   4  -3  11  117.18    9.44
  -4   3 -11  139.03   10.91
   4  -3  12  155.56   11.28
  -4   3 -12  146.81   11.61
   4  -3  13    3.59    2.57
   4  -2 -13   28.13    5.47
  -4   2  13   35.05    6.19
   4  -2 -12   22.14    4.76
  -4   2  12   23.73    4.33
  -4   2  12   24.48    4.86
   4  -2 -11   -4.55    2.52
  -4   2  11    1.18    1.87
   4  -2 -10   17.72    3.79
  -4   2  10   21.46    4.10
  -4   2   9   37.47    3.85
   4  -2  -9   31.88    4.58
   4  -2  -9   36.27    3.70
  -4   2   9   36.82    4.71
   4  -2  -8    3.27    1.44
  -4   2   8    4.92    1.65
   4  -2  -8    3.70    1.90
  -4   2   8    2.89    1.95
   4  -2  -7   -0.65    1.41
   4  -2  -7    0.49    1.36
   4  -2  -7    0.43    1.22
  -4   2   7    0.43    0.94
  -4   2   7    0.84    1.78
   4  -2  -6    3.43    1.68
   4  -2  -6    2.11    1.21
   4  -2  -6    2.10    1.48
  -4   2   6    1.56    1.19
  -4   2   6    5.04    2.03
  -4   2   5  458.84   11.38
   4  -2  -5  477.85   12.09
   4  -2  -5  471.23   11.25
   4  -2  -5  491.99   12.27
  -4   2   4  293.38    8.74
   4  -2  -4  313.72    9.02
   4  -2  -4  314.66    8.90
  -4   2   3   60.26    3.87
   4  -2  -3   63.27    3.77
   4  -2  -3   59.82    2.86
   4  -2  -3   58.19    3.79
  -4   2   2   41.54    3.17
   4  -2  -2   46.33    2.98
   4  -2  -2   40.92    3.12
   4  -2  -2   44.36    2.47
  -4   2   1   18.54    2.13
   4  -2  -1   20.82    1.83
   4  -2  -1   18.73    2.13
   4  -2  -1   22.59    1.92
  -4   2   0   42.93    2.97
   4  -2   0   42.09    2.78
   4  -2   0   40.93    2.30
   4  -2   0   35.92    2.73
  -4   2  -1   56.49    3.25
   4  -2   1   55.42    3.20
   4  -2   1   48.58    2.42
   4  -2   1   53.04    3.40
   4  -2   1   57.02    3.30
  -4   2  -2  181.79    5.58
   4  -2   2  176.18    6.55
   4  -2   2  179.68    5.46
  -4   2  -2  162.66    2.86
   4  -2   2  177.96    5.63
  -4   2  -2  170.69    6.99
   4  -2   3  107.17    4.49
   4  -2   3  105.26    4.00
   4  -2   3   94.71    5.25
  -4   2  -3   94.67    3.14
  -4   2  -3  100.40    5.74
  -4   2  -3  109.27    4.16
   4  -2   4  131.11    4.27
   4  -2   4  125.43    6.44
  -4   2  -4  122.47    4.44
   4  -2   4  134.09    5.12
  -4   2  -4  125.19    6.84
  -4   2  -4  136.40    4.41
  -4   2  -5   43.20    3.29
  -4   2  -5   43.52    3.11
   4  -2   5   47.88    3.23
   4  -2   5   42.39    4.12
   4  -2   5   45.15    2.34
  -4   2  -5   47.68    4.65
  -4   2  -6  106.23    5.16
   4  -2   6   90.67    6.30
  -4   2  -6   99.09    5.19
   4  -2   6   97.16    4.75
  -4   2  -6  106.63    7.20
  -4   2  -7  311.40    8.95
   4  -2   7  280.20   11.58
  -4   2  -7  290.27    9.82
   4  -2   7  310.11    8.93
  -4   2  -7  296.03   12.65
  -4   2  -8    5.46    2.71
   4  -2   8    2.67    1.59
  -4   2  -8    3.75    1.61
  -4   2  -9   50.83    6.04
  -4   2  -9   50.32    4.95
   4  -2   9   37.02    4.83
  -4   2 -10   11.09    3.46
   4  -2  10    4.33    2.43
   4  -2  11   22.81    4.43
  -4   2 -11   21.50    4.66
   4  -2  12   12.93    3.62
  -4   2 -12   -0.35    2.77
   4  -2  13   66.20    7.72
   4  -1 -13    0.26    1.92
  -4   1  13    6.91    3.35
   4  -1 -12   22.58    4.49
  -4   1  12   24.08    4.70
   4  -1 -11   44.97    5.75
  -4   1  11   45.82    5.76
   4  -1 -10    0.20    2.10
  -4   1  10   -0.86    1.16
  -4   1  10    0.29    1.91
   4  -1  -9    0.44    1.69
   4  -1  -9    1.04    1.13
  -4   1   9    0.55    1.10
  -4   1   9    0.52    1.57
  -4   1   8   76.19    5.20
   4  -1  -8   70.39    5.82
   4  -1  -8   68.56    4.83
  -4   1   8   70.87    5.90
   4  -1  -7    5.71    1.60
  -4   1   7    5.28    1.61
   4  -1  -7    5.54    2.08
  -4   1   7    4.06    2.02
   4  -1  -6   -0.28    1.10
   4  -1  -6    1.03    1.47
  -4   1   6    1.56    1.14
  -4   1   6   -1.02    1.51
   4  -1  -5    1.98    1.05
   4  -1  -5    0.51    1.12
  -4   1   5    2.23    1.28
  -4   1   5    1.82    1.29
  -4   1   4 1439.14   19.14
   4  -1  -4 1397.38   19.07
   4  -1  -4 1399.45   18.56
   4  -1  -3   98.03    4.22
  -4   1   3  100.23    4.93
   4  -1  -3   95.61    4.69
   4  -1  -3   98.50    4.77
  -4   1   2  173.37    6.16
   4  -1  -2  167.78    5.72
   4  -1  -2  164.49    5.40
   4  -1  -2  175.78    6.08
  -4   1   1  571.68   10.68
   4  -1  -1  540.00    9.62
   4  -1  -1  540.66    9.98
   4  -1  -1  535.25   10.12
  -4   1   0  796.99   12.04
   4  -1   0  782.92   11.23
   4  -1   0  801.76   11.78
  -4   1  -1  966.70   12.62
   4  -1   1  969.45   14.80
   4  -1   1  985.27   12.48
  -4   1  -2  605.30    9.50
   4  -1   2  649.31    9.61
   4  -1   2  627.94    8.83
  -4   1  -2  612.96    8.47
   4  -1   2  632.11   12.80
  -4   1  -3  228.24    5.50
   4  -1   3  230.07    8.24
   4  -1   3  244.98    5.53
   4  -1   3  235.88    5.31
  -4   1  -3  226.82    6.00
  -4   1  -3  228.66    8.77
   4  -1   4  413.60    8.19
   4  -1   4  409.00   11.72
   4  -1   4  425.62    7.43
  -4   1  -4  400.57    9.08
   4  -1   4  435.00    6.70
  -4   1  -4  436.90   12.72
  -4   1  -4  421.75    6.79
  -4   1  -5  108.46    4.66
   4  -1   5  113.54    4.37
   4  -1   5  107.88    6.49
   4  -1   5  118.54    4.19
  -4   1  -5  106.65    5.29
  -4   1  -5  114.61    7.09
  -4   1  -6    3.27    1.97
  -4   1  -6    0.70    0.69
   4  -1   6    2.74    0.88
   4  -1   6    1.62    1.61
  -4   1  -6    2.36    1.39
  -4   1  -7   41.54    5.13
  -4   1  -7   43.93    4.20
   4  -1   7   38.61    4.51
  -4   1  -8    4.55    2.46
   4  -1   8    3.67    2.22
  -4   1  -8    8.17    2.25
  -4   1  -9   20.69    4.23
   4  -1   9   22.86    3.98
  -4   1  -9   24.29    3.66
  -4   1 -10   32.66    5.14
  -4   1 -10   31.47    4.57
   4  -1  10   23.83    4.18
  -4   1 -11   30.66    4.69
   4  -1  11   25.69    4.53
  -4   1 -11   30.47    5.40
   4  -1  12   -0.81    2.04
  -4   1 -12    7.36    2.61
   4  -1  13   -0.77    1.83
   4   0 -13    7.75    3.01
  -4   0  13    4.25    2.62
   4   0 -12    7.02    2.77
  -4   0  12    9.22    3.08
   4   0 -11   70.96    6.91
  -4   0  11   84.75    7.51
   4   0 -10    5.59    2.19
  -4   0  10    6.41    1.91
  -4   0  10    3.75    2.19
   4   0  -9    2.96    1.96
  -4   0   9    2.87    1.37
  -4   0   9    1.54    1.65
   4   0  -8   17.75    3.17
  -4   0   8   17.68    2.38
  -4   0   8   14.82    2.56
  -4   0   8   19.28    3.13
  -4   0   7  304.97    9.98
   4   0  -7  296.75   10.93
   4   0  -7  296.27    9.65
  -4   0   7  296.55   10.45
  -4   0   6  211.14    7.99
   4   0  -6  209.88    8.64
   4   0  -6  215.23    7.98
  -4   0   6  226.38    8.41
  -4   0   5  331.11    9.58
   4   0  -5  325.22   10.11
   4   0  -5  299.89    9.06
  -4   0   5  319.51    9.10
  -4   0   4   63.42    4.06
   4   0  -4   56.13    3.97
   4   0  -4   56.00    3.84
  -4   0   4   61.96    3.65
   4   0  -3   17.38    2.21
   4   0  -3   16.90    2.11
   4   0  -3   18.35    2.20
  -4   0   3   14.00    1.99
  -4   0   2  340.92    8.60
   4   0  -2  348.30    8.71
   4   0  -2  335.92    8.51
   4   0  -2  342.57    8.48
   4   0  -1    4.31    1.19
   4   0  -1    4.73    1.40
   4   0  -1    5.35    1.27
  -4   0   1    4.06    1.15
   4   0   0  213.52    7.14
  -4   0   0  219.84    6.33
   4   0   0  227.48    6.33
   4   0   1   50.21    3.65
  -4   0  -1   49.87    2.93
   4   0   1   50.66    2.89
  -4   0  -2 2103.40   17.53
   4   0   2 2070.03   20.62
   4   0   2 2115.89   24.38
   4   0   2 2124.10   17.25
  -4   0  -3   58.31    2.72
   4   0   3   59.82    3.62
  -4   0  -3   57.57    3.64
  -4   0  -3   55.26    3.28
   4   0   3   69.86    4.84
  -4   0  -3   61.22    4.78
  -4   0  -4  419.46    6.23
   4   0   4  418.41    9.63
   4   0   4  397.03   11.87
  -4   0  -4  415.02   10.47
  -4   0  -4  423.58    8.52
  -4   0  -4  440.10   13.06
  -4   0  -5  554.22    9.01
   4   0   5  576.93   11.58
   4   0   5  567.55   14.89
  -4   0  -5  564.24   13.29
  -4   0  -5  579.94    9.56
  -4   0  -5  542.59   15.36
   4   0   6  115.65    5.41
   4   0   6  114.04    7.15
  -4   0  -6  117.94    6.69
  -4   0  -6  107.64    7.38
  -4   0  -7   20.71    3.85
   4   0   7   28.93    3.91
  -4   0  -7   28.65    3.81
  -4   0  -8  146.53    8.70
   4   0   8  133.29    8.57
  -4   0  -8  146.52    9.62
  -4   0  -9   21.77    4.14
   4   0   9   18.18    3.62
  -4   0  -9   13.52    3.29
  -4   0 -10   12.47    3.53
   4   0  10    5.47    2.51
  -4   0 -10    4.42    2.35
   4   0  11    5.59    2.67
  -4   0 -11    3.14    2.17
   4   0  11    3.38    2.03
  -4   0 -11    7.42    3.02
   4   0  12   10.58    3.20
  -4   0 -12   14.04    3.62
   4   0  12   15.09    3.92
  -4   0 -12   13.35    4.16
  -4  -1  14    9.90    3.07
  -4  -1  13   -2.39    2.24
   4   1 -13    1.72    2.07
  -4  -1  13    0.97    1.92
   4   1 -12   10.60    3.05
  -4  -1  12    8.67    2.93
   4   1 -11   27.32    4.44
  -4  -1  11   26.69    3.53
  -4  -1  11   19.85    3.83
  -4  -1  10  137.11    7.71
   4   1 -10  137.35    8.93
  -4  -1  10  130.89    8.50
   4   1  -9  104.76    7.50
  -4  -1   9  120.82    6.91
  -4  -1   9  124.87    6.30
  -4  -1   9  112.07    7.42
   4   1  -8  152.52    8.48
  -4  -1   8  150.35    7.43
  -4  -1   8  138.20    6.62
  -4  -1   8  143.69    7.78
   4   1  -7   87.65    6.22
  -4  -1   7   86.77    5.51
  -4  -1   7   89.53    5.20
  -4  -1   7   91.86    5.71
   4   1  -6   23.71    3.24
  -4  -1   6   19.93    2.59
  -4  -1   6   23.62    2.74
   4   1  -5   11.88    2.22
  -4  -1   5   11.33    1.99
  -4  -1   5   10.80    1.75
   4   1  -4  336.58    9.90
  -4  -1   4  325.91    9.25
  -4  -1   4  345.79    7.85
   4   1  -3   42.15    3.52
   4   1  -3   48.73    3.71
  -4  -1   3   47.70    3.61
   4   1  -2  119.93    5.61
  -4  -1   2  129.49    5.64
   4   1  -2  126.38    5.84
   4   1  -1   42.86    3.47
  -4  -1   1   46.20    3.37
   4   1   0  276.75    8.38
  -4  -1   0  252.07    7.54
   4   1   0  262.80    8.49
   4   1   1  337.49    9.20
   4   1   1  334.25    9.91
  -4  -1  -1  344.23    8.74
   4   1   2  562.73   12.09
  -4  -1  -2  548.92    9.29
   4   1   2  580.07   13.42
  -4  -1  -2  539.60   10.76
  -4  -1  -3 1005.61   11.65
   4   1   3  978.53   16.26
   4   1   3 1015.62   18.60
  -4  -1  -3  998.23   16.68
  -4  -1  -3 1020.45   14.50
  -4  -1  -3 1036.03   19.44
   4   1   4  252.80    9.76
  -4  -1  -4  258.30    5.15
   4   1   4  262.75    8.64
  -4  -1  -4  272.81    7.36
  -4  -1  -4  261.05    9.29
  -4  -1  -4  276.81   10.61
   4   1   5   78.66    4.95
   4   1   5   74.46    5.63
  -4  -1  -5   69.84    3.65
  -4  -1  -5   75.93    5.49
  -4  -1  -5   63.46    5.57
  -4  -1  -6    8.02    2.43
   4   1   6    8.07    2.28
   4   1   6    7.97    1.83
  -4  -1  -6   12.34    2.61
  -4  -1  -7   25.47    4.10
   4   1   7   25.15    3.08
   4   1   7   31.68    4.23
  -4  -1  -7   33.22    4.21
  -4  -1  -8    5.65    2.53
   4   1   8    3.88    1.96
  -4  -1  -8    1.25    1.72
  -4  -1  -9   44.26    5.78
   4   1   9   38.86    5.16
  -4  -1  -9   56.63    6.04
   4   1   9   52.82    5.36
  -4  -1 -10    5.72    2.75
   4   1  10    1.86    2.13
  -4  -1 -10    5.34    2.64
   4   1  10    4.20    2.10
   4   1  11    0.07    0.24
  -4  -1 -11    2.40    1.75
  -4  -1 -11   -0.12    1.77
   4   1  12    0.42    0.93
  -4  -1 -12    1.61    2.13
  -4  -2  14    3.94    2.84
   4   2 -13   85.81    8.18
  -4  -2  13   90.57    8.59
  -4  -2  13   82.88    8.14
   4   2 -12   -0.20    1.97
  -4  -2  12    1.53    2.08
  -4  -2  12   -1.43    2.09
   4   2 -11   11.45    3.33
  -4  -2  11    8.79    2.71
  -4  -2  11   11.41    2.65
  -4  -2  10    0.41    1.03
   4   2 -10    0.01    1.85
  -4  -2  10    0.40    1.40
   4   2  -9  112.88    7.75
  -4  -2   9  116.93    6.45
  -4  -2   9  124.36    7.58
   4   2  -8  136.26    8.08
  -4  -2   8  141.57    6.97
  -4  -2   8  129.58    7.16
   4   2  -7 1819.47   27.53
  -4  -2   7 1785.63   24.09
  -4  -2   7 1804.85   24.30
   4   2  -6    5.35    1.92
  -4  -2   6    4.03    1.68
  -4  -2   6    7.10    1.62
   4   2  -5  124.38    6.65
  -4  -2   5  139.25    6.57
  -4  -2   5  142.30    5.53
   4   2  -4   -0.29    1.17
  -4  -2   4    0.16    1.25
  -4  -2   4   -0.04    0.60
   4   2  -3    0.50    1.33
   4   2  -3    0.72    1.24
  -4  -2   3    2.58    1.44
  -4  -2   3    0.67    0.45
   4   2  -2   55.87    4.32
  -4  -2   2   52.92    3.95
   4   2  -1   13.50    2.24
   4   2  -1   15.30    2.41
  -4  -2   1   17.20    2.36
  -4  -2   0   57.72    2.56
   4   2   0   57.48    4.26
   4   2   0   57.44    4.43
  -4  -2   0   62.25    4.13
   4   2   1    6.70    1.78
  -4  -2  -1    6.27    0.65
   4   2   1    6.70    1.93
  -4  -2  -1    6.85    1.65
   4   2   2    0.79    1.47
   4   2   2   -1.40    1.19
  -4  -2  -2   -0.52    1.02
   4   2   2    0.04    0.29
   4   2   3  534.80   14.14
   4   2   3  551.47   13.60
  -4  -2  -3  550.69   14.61
   4   2   3  534.02    8.82
   4   2   4  300.92   11.07
   4   2   4  319.92   10.64
  -4  -2  -4  320.73   11.32
  -4  -2  -4  305.30    8.61
  -4  -2  -4  319.84   11.72
   4   2   4  306.96    7.86
  -4  -2  -5   98.79    6.72
   4   2   5   95.57    6.07
   4   2   5   90.22    6.39
  -4  -2  -5   92.17    4.72
  -4  -2  -5   91.41    6.68
   4   2   5   85.10    4.72
  -4  -2  -6   41.63    4.75
   4   2   6   37.15    3.99
   4   2   6   38.07    4.51
  -4  -2  -6   41.66    4.82
   4   2   6   38.83    3.62
   4   2   7   10.13    2.50
  -4  -2  -7   10.64    2.80
   4   2   7    3.76    1.56
  -4  -2  -7    5.25    2.16
  -4  -2  -8   10.49    3.07
   4   2   8   10.11    2.77
  -4  -2  -8    9.37    2.95
  -4  -2  -9   16.79    4.01
  -4  -2  -9   22.35    4.42
   4   2   9   21.51    4.06
  -4  -2 -10   26.60    4.82
   4   2  10   19.37    4.01
  -4  -2 -10   19.77    4.19
  -4  -2 -11    7.90    3.08
  -4  -2 -11    8.10    3.15
  -4  -3  14   -0.16    2.33
   4   3 -13   11.51    3.61
  -4  -3  13   10.24    3.40
   4   3 -12   59.17    6.67
  -4  -3  12   68.09    7.32
  -4  -3  12   64.37    6.64
  -4  -3  11   42.13    4.75
   4   3 -11   35.42    4.99
  -4  -3  11   31.98    4.81
  -4  -3  11   31.61    4.61
   4   3 -10    6.36    2.52
  -4  -3  10    9.40    3.09
  -4  -3  10   10.09    2.63
   4   3  -9   71.09    6.31
  -4  -3   9   71.72    6.41
  -4  -3   9   72.71    5.42
  -4  -3   9   67.72    5.51
   4   3  -8    9.56    2.58
  -4  -3   8   10.77    2.60
  -4  -3   8    9.60    2.26
  -4  -3   8    9.79    2.22
   4   3  -7   99.57    6.78
  -4  -3   7  106.80    6.42
  -4  -3   7  103.15    6.83
  -4  -3   7  100.59    5.71
   4   3  -6 1078.79   21.01
  -4  -3   6 1049.65   19.96
  -4  -3   6 1075.72   19.71
   4   3  -5  194.25    8.66
  -4  -3   5  194.09    8.05
  -4  -3   5  195.07    8.39
  -4  -3   5  184.92    6.02
   4   3  -4  239.87    9.43
  -4  -3   4  248.34    8.48
  -4  -3   4  240.99    9.12
  -4  -3   4  258.98    5.93
   4   3  -3    5.22    1.91
   4   3  -3    4.12    1.70
  -4  -3   3    4.00    1.31
  -4  -3   3    3.24    1.47
  -4  -3   3    3.11    0.56
   4   3  -2   72.27    5.22
   4   3  -2   62.22    4.92
  -4  -3   2   75.29    4.06
  -4  -3   2   68.17    4.79
   4   3  -1   33.77    3.69
  -4  -3   1   34.32    2.58
  -4  -3   1   34.16    3.48
   4   3  -1   31.04    3.65
   4   3   0  504.96   13.56
  -4  -3   0  498.90    8.14
  -4  -3   0  470.89   12.06
   4   3   0  488.92   13.33
   4   3   1  254.79    9.74
   4   3   1  250.90    9.76
  -4  -3  -1  246.47    8.66
   4   3   2  140.22    7.47
   4   3   2  148.17    7.65
  -4  -3  -2  151.50    6.84
  -4  -3  -3   10.62    2.52
   4   3   3    7.35    2.25
   4   3   3    6.86    2.06
  -4  -3  -3    6.85    1.68
  -4  -3  -4    9.17    2.36
   4   3   4   13.15    2.81
   4   3   4   10.67    2.42
  -4  -3  -4   12.81    3.01
  -4  -3  -4   14.29    2.26
   4   3   5   73.86    5.84
   4   3   5   67.34    5.72
  -4  -3  -5   59.22    5.80
  -4  -3  -5   65.26    5.77
  -4  -3  -6    1.47    1.60
   4   3   6    2.60    1.74
   4   3   6    4.39    1.79
  -4  -3  -6    1.02    1.84
  -4  -3  -7    8.25    2.70
   4   3   7    2.44    1.76
   4   3   7    4.45    1.90
  -4  -3  -7   11.66    3.36
  -4  -3  -8    6.30    2.43
  -4  -3  -8    9.71    3.25
   4   3   8   11.98    3.05
  -4  -3  -9    7.81    2.89
   4   3   9    9.67    2.92
  -4  -3  -9   10.81    3.42
  -4  -3 -10   -0.52    1.59
  -4  -4  14   33.62    5.73
   4   4 -13    5.09    2.97
  -4  -4  13    8.02    2.89
  -4  -4  13    7.85    3.10
   4   4 -12   11.39    3.34
  -4  -4  12   14.27    3.78
  -4  -4  12   12.97    3.11
  -4  -4  11   23.50    4.41
   4   4 -11   18.87    4.01
  -4  -4  11   17.12    3.37
   4   4 -10    1.71    1.56
  -4  -4  10    3.22    2.33
  -4  -4  10    3.49    1.77
  -4  -4  10    2.66    1.58
   4   4  -9  119.50    8.31
  -4  -4   9  129.79    8.74
  -4  -4   9  133.96    7.87
  -4  -4   9  128.68    7.51
  -4  -4   8    3.41    2.05
  -4  -4   8    2.73    1.52
   4   4  -8    0.79    1.64
   4   4  -7    2.89    1.89
  -4  -4   7    1.82    1.57
  -4  -4   7    1.38    1.50
   4   4  -6   -1.68    2.12
  -4  -4   6    0.23    1.32
  -4  -4   6    0.60    1.47
   4   4  -5  208.81    9.43
  -4  -4   5  181.54    8.25
  -4  -4   5  186.82    8.68
  -4  -4   4  443.62   12.04
   4   4  -4  421.56   13.15
  -4  -4   4  414.31   12.80
   4   4  -3  243.82   10.03
  -4  -4   3  244.75    8.42
  -4  -4   3  239.37    9.72
   4   4  -3  237.37   10.12
   4   4  -2   99.83    6.54
  -4  -4   2   99.40    5.00
  -4  -4   2  101.44    6.41
   4   4  -2  102.92    6.70
   4   4  -1   63.59    5.33
   4   4  -1   50.25    4.84
  -4  -4   1   51.51    3.38
  -4  -4   1   50.67    4.46
   4   4   0  330.74   12.01
   4   4   0  302.28   11.19
  -4  -4   0  307.61   10.75
   4   4   1   15.28    2.85
   4   4   1   17.98    3.15
  -4  -4  -1   16.18    2.77
   4   4   2   62.05    5.39
   4   4   2   55.30    5.18
  -4  -4  -2   59.83    4.85
  -4  -4  -3   11.46    2.52
   4   4   3   11.28    2.70
   4   4   3    8.14    2.38
  -4  -4  -3    7.51    1.95
  -4  -4  -4    7.77    2.14
  -4  -4  -4   13.81    2.79
   4   4   4   12.36    2.70
   4   4   4   14.39    2.86
  -4  -4  -4   11.83    2.83
  -4  -4  -5   -0.66    1.53
   4   4   5    2.74    1.94
   4   4   5   -0.40    1.28
  -4  -4  -5    2.64    2.10
   4   4   6   78.72    6.84
   4   4   6   69.68    6.26
  -4  -4  -6   64.94    6.80
  -4  -4  -6   76.49    6.66
   4   4   7   59.29    6.00
   4   4   7   50.75    5.67
  -4  -4  -7   59.68    6.81
   4   4   8   41.44    5.23
  -4  -4  -8   46.79    6.35
  -4  -4  -9   11.62    3.66
   4   5 -13   35.40    5.64
   4   5 -12    3.28    2.00
  -4  -5  12   -1.71    2.39
   4   5 -11  107.04    8.61
  -4  -5  11  118.30    9.62
  -4  -5  10   10.11    2.68
  -4  -5  10    9.67    3.22
   4   5 -10   11.98    3.37
  -4  -5   9    8.95    2.77
   4   5  -9    6.54    2.55
  -4  -5   9    8.06    2.42
   4   5  -8   22.12    3.81
  -4  -5   8   21.56    3.78
  -4  -5   8   22.67    3.67
   4   5  -7   24.58    3.84
  -4  -5   7   21.07    3.58
  -4  -5   7   22.25    3.63
   4   5  -6  184.96    9.58
  -4  -5   6  176.97    9.16
  -4  -5   6  176.39    9.34
   4   5  -5    3.83    1.93
  -4  -5   5    2.26    1.52
  -4  -5   5   -0.55    1.99
   4   5  -4  233.75   10.43
  -4  -5   4  226.14    9.20
  -4  -5   4  215.90   10.09
   4   5  -3   79.11    6.24
  -4  -5   3   77.99    5.20
  -4  -5   3   73.01    5.96
   4   5  -2  105.82    7.18
   4   5  -2   99.73    7.05
  -4  -5   2   89.12    5.19
  -4  -5   2   96.54    6.75
   4   5  -1   67.87    5.82
   4   5  -1   68.49    5.94
  -4  -5   1   60.88    5.42
   4   5   0  225.37   10.67
   4   5   0  215.79   10.12
  -4  -5   0  196.44    9.45
   4   5   1   10.00    2.83
   4   5   1   11.77    2.88
  -4  -5  -1    5.71    2.28
  -4  -5  -2    2.75    1.79
   4   5   2    3.16    1.86
   4   5   2    1.03    1.50
  -4  -5  -3    3.26    1.60
   4   5   3    2.85    1.80
   4   5   3    6.26    2.28
  -4  -5  -3    4.60    1.92
   4   5   4    4.45    2.05
   4   5   4    4.93    2.22
  -4  -5  -4    7.45    2.75
  -4  -5  -4    2.23    1.68
   4   5   5    3.76    2.09
   4   5   5    5.16    2.33
  -4  -5  -5    0.80    1.94
   4   5   6   -0.15    1.25
  -4  -5  -6    2.01    2.20
   4   5   7   -4.56    2.50
  -4  -5  -7   -2.84    2.63
   4   5   8   -2.99    2.23
  -4  -5  -8   -5.69    3.26
   4   6 -13    3.42    2.12
   4   6 -12    9.60    3.38
  -4  -6  12    7.25    3.02
   4   6 -11    4.67    2.52
  -4  -6  11    3.65    2.48
   4   6 -10   -1.45    1.81
  -4  -6  10    3.87    2.55
  -4  -6  10    1.71    1.77
   4   6  -9   66.03    6.67
  -4  -6   9   78.71    7.51
  -4  -6   9   67.89    6.62
   4   6  -8   -1.59    1.62
  -4  -6   8    1.51    1.83
  -4  -6   8   -3.61    2.42
   4   6  -7    6.01    2.17
  -4  -6   7    4.62    2.16
  -4  -6   7    7.97    2.69
   4   6  -7    9.30    2.86
   4   6  -6   30.85    4.36
  -4  -6   6   28.30    4.09
  -4  -6   6   28.84    4.39
   4   6  -6   41.30    4.90
   4   6  -5  170.33    9.53
  -4  -6   5  166.55    8.89
  -4  -6   5  154.77    9.41
   4   6  -5  174.78    9.06
   4   6  -4    4.17    2.03
   4   6  -4    0.14    1.69
  -4  -6   4    0.49    1.16
  -4  -6   4    2.25    1.88
   4   6  -3    3.25    1.98
  -4  -6   3    4.87    1.64
  -4  -6   3    0.86    1.78
   4   6  -2   -1.06    1.62
  -4  -6   2   -0.72    1.87
   4   6  -1    4.23    2.06
   4   6  -1    6.13    2.54
  -4  -6   1    0.53    1.92
   4   6   0    3.18    2.14
   4   6   0    3.57    2.20
  -4  -6   0    2.68    2.10
   4   6   1  111.35    7.88
   4   6   1  112.63    8.36
  -4  -6  -1  101.82    7.49
   4   6   2   18.06    3.40
   4   6   2   27.45    4.59
  -4  -6  -2   24.03    3.79
   4   6   3   -2.72    1.86
   4   6   3   -0.32    1.83
  -4  -6  -3   -0.24    1.63
   4   6   4   28.68    4.41
   4   6   4   40.99    5.57
  -4  -6  -4   40.21    5.99
   4   6   5   70.95    7.37
  -4  -6  -5   66.37    7.43
   4   6   6    8.62    2.86
  -4  -6  -6    8.99    3.35
   4   6   7   -5.00    2.42
  -4  -6  -7   -3.48    2.99
   4   7 -12    2.28    2.25
   4   7 -11   -2.25    1.84
  -4  -7  11    2.66    2.67
   4   7 -10   19.29    4.03
  -4  -7  10   17.86    4.18
  -4  -7  10   15.51    3.64
   4   7  -9   12.87    3.52
  -4  -7   9   16.45    3.82
  -4  -7   9   11.17    3.28
   4   7  -8  146.88    9.73
   4   7  -8  153.73    9.91
  -4  -7   8  147.45   10.05
  -4  -7   8  160.82   10.55
   4   7  -7   62.82    6.27
   4   7  -7   56.66    6.00
  -4  -7   7   47.33    5.60
  -4  -7   7   56.43    6.30
   4   7  -6    9.14    2.72
  -4  -7   6    4.90    2.33
  -4  -7   6    5.06    2.40
   4   7  -6    8.01    2.92
   4   7  -5    2.59    2.10
  -4  -7   5    5.06    2.06
  -4  -7   5    1.26    2.16
   4   7  -5    3.87    1.98
   4   7  -4    7.71    2.61
   4   7  -4    6.08    2.36
  -4  -7   4    9.43    2.46
  -4  -7   4    7.60    3.02
   4   7  -3    0.06    1.70
  -4  -7   3   -0.90    2.03
   4   7  -2    0.36    1.58
  -4  -7   2   -0.19    2.15
   4   7  -1   17.00    3.80
  -4  -7   1   15.73    3.50
   4   7   0  161.67   10.61
   4   7   0  142.04    9.34
  -4  -7   0  151.40    9.78
   4   7   1    7.21    2.58
   4   7   1    9.99    3.39
  -4  -7  -1   10.61    2.92
   4   7   2   45.12    5.45
   4   7   2   44.98    6.02
  -4  -7  -2   32.99    4.87
   4   7   3   42.57    5.29
   4   7   3   43.08    6.04
  -4  -7  -3   52.31    7.02
  -4  -7  -3   40.47    5.23
   4   7   4   32.06    5.33
  -4  -7  -4   27.68    5.47
   4   7   5    1.82    2.06
  -4  -7  -5    1.78    2.69
   4   8 -11    6.11    2.36
   4   8 -10    3.60    2.54
  -4  -8  10    5.70    3.08
  -4  -8  10    6.25    2.88
   4   8  -9    0.02    1.40
  -4  -8   9    4.72    2.48
  -4  -8   9    0.38    2.03
   4   8  -8   51.45    6.16
  -4  -8   8   49.07    6.35
  -4  -8   8   49.53    6.46
   4   8  -7   99.86    8.30
  -4  -8   7   93.64    8.11
  -4  -8   7   92.25    8.65
   4   8  -7  110.59    8.56
   4   8  -6    8.88    2.75
  -4  -8   6    5.55    2.33
  -4  -8   6    6.28    2.93
   4   8  -5    0.42    1.70
  -4  -8   5   -2.67    2.52
   4   8  -4    3.61    1.96
  -4  -8   4   -0.01    2.02
   4   8  -3    1.09    1.57
  -4  -8   3   -0.12    2.11
   4   8  -2    7.17    2.73
  -4  -8   2    6.97    2.94
   4   8  -1   -0.50    1.53
  -4  -8   1    1.69    2.01
   4   8   0    1.54    2.21
  -4  -8   0    0.14    1.94
   4   8   1   21.50    4.69
  -4  -8  -1   19.23    4.03
   4   8   2    5.67    2.94
  -4  -8  -2    1.52    2.49
   4   8   3   32.82    5.72
  -4  -8  -3   39.72    6.56
   4   9  -9   -0.16    1.68
  -4  -9   9   10.09    3.74
   4   9  -8   27.86    4.96
  -4  -9   8   16.59    4.35
  -4  -9   8   20.59    4.43
   4   9  -7   43.53    5.82
  -4  -9   7   46.06    6.69
   4   9  -6   34.20    5.34
  -4  -9   6   37.97    6.13
   4   9  -5    9.56    3.06
  -4  -9   5   14.86    4.01
   4   9  -4    1.84    2.04
   4   9  -4    4.52    2.36
  -4  -9   4    7.00    3.18
  -4  -9   3   10.12    3.51
   4   9  -3    9.73    3.40
   4   9  -2   12.00    3.36
  -4  -9   2   15.24    4.17
   4   9  -1    1.24    1.97
  -4  -9   1    8.30    3.25
   4   9   0    4.93    2.71
  -4  -9   0    3.94    2.46
  -4  -9  -1    0.91    2.28
  -4  -9  -2    5.99    3.03
   4  10  -6   27.93    4.92
   4  10  -5    2.00    1.86
   4  10  -4   70.81    7.83
  -5  12   1    1.72    1.55
  -5  12  -1   -5.23    2.25
  -5  12  -2    8.93    2.83
  -5  12  -3    2.60    1.99
  -5  12  -4   -2.20    2.36
   5 -11  -4    5.50    2.81
  -5  11   3   28.58    5.29
   5 -11  -3   31.73    5.19
  -5  11   2   32.86    5.32
   5 -11  -2   33.01    5.15
  -5  11   1    5.91    2.57
   5 -11  -1    2.27    2.77
  -5  11   0    4.53    2.12
  -5  11   0    2.39    1.79
   5 -11   0    5.83    2.85
  -5  11  -1   11.89    3.04
   5 -11   1    4.67    2.54
  -5  11  -2    3.30    2.48
   5 -11   2   -0.53    2.76
  -5  11  -3    8.22    2.96
   5 -11   3    5.44    3.12
  -5  11  -4   26.28    4.88
   5 -11   4   15.86    4.20
  -5  11  -5    1.48    2.05
   5 -11   5   10.16    3.69
  -5  11  -6    8.98    3.12
   5 -11   6   17.65    4.25
  -5  11  -7   45.77    6.53
   5 -11   7   43.52    6.78
   5 -10  -5    6.74    2.46
  -5  10   5    0.34    2.39
  -5  10   4   -3.58    2.50
   5 -10  -4   -0.74    1.69
  -5  10   3    3.38    2.26
   5 -10  -3    3.86    2.17
   5 -10  -2   76.80    7.20
  -5  10   2   83.37    7.68
  -5  10   1    2.22    2.05
   5 -10  -1    3.83    2.61
  -5  10   1    1.73    1.66
  -5  10   0   35.25    4.89
   5 -10   0   34.14    5.27
  -5  10   0   35.64    4.73
  -5  10  -1   98.94    7.89
  -5  10  -1   88.02    6.85
   5 -10   1   86.08    8.02
  -5  10  -2   -2.49    2.05
   5 -10   2   -3.03    2.73
  -5  10  -3   -2.30    2.22
   5 -10   3   -1.46    2.37
  -5  10  -4   39.47    5.45
   5 -10   4   39.89    5.71
  -5  10  -5   -4.11    2.30
   5 -10   5    5.45    2.84
  -5  10  -6    6.47    2.95
   5 -10   6    9.25    3.49
  -5  10  -7    2.92    2.45
   5 -10   7    1.83    1.92
  -5  10  -8   56.33    6.83
   5 -10   8   39.72    6.15
  -5  10  -9   42.71    6.12
   5 -10   9   49.01    6.85
   5  -9  -8   -3.25    2.42
   5  -9  -7    2.82    2.24
   5  -9  -6   -1.15    1.64
  -5   9   6    0.67    1.93
   5  -9  -6    2.75    2.16
   5  -9  -5    0.87    1.88
  -5   9   5    3.63    2.24
  -5   9   4    1.26    1.89
   5  -9  -4   -1.09    1.49
  -5   9   3    9.37    2.77
   5  -9  -3   10.91    3.09
  -5   9   2   99.95    7.33
   5  -9  -2   90.84    7.39
  -5   9   2  107.05    8.04
  -5   9   1  107.35    7.80
   5  -9  -1  118.55    8.74
  -5   9   1  106.65    7.68
  -5   9   0    7.56    2.48
   5  -9   0    3.28    2.65
  -5   9   0    2.90    1.75
  -5   9  -1    0.29    1.35
  -5   9  -1   -2.36    1.91
   5  -9   1    1.83    2.37
  -5   9  -2   33.69    4.57
   5  -9   2   28.92    4.70
  -5   9  -3   17.26    3.41
   5  -9   3    7.42    2.92
  -5   9  -4   13.82    3.31
   5  -9   4   17.04    3.93
  -5   9  -5   34.46    4.67
   5  -9   5   25.94    4.53
  -5   9  -6    1.36    1.83
   5  -9   6   -0.56    1.91
  -5   9  -7   11.08    3.34
   5  -9   7    8.79    2.97
  -5   9  -8   27.52    4.91
   5  -9   8   25.50    4.96
  -5   9  -9   27.72    4.98
   5  -9   9   25.15    4.90
   5  -9  10   92.87    9.11
   5  -9  10  105.58    9.58
  -5   9 -10  103.92    8.90
   5  -9  11    1.21    2.67
  -5   9 -11   -1.42    1.20
   5  -8  -9    2.75    2.28
   5  -8  -8    5.17    2.77
  -5   8   8    3.80    2.09
   5  -8  -7    1.45    2.07
  -5   8   7   -0.58    1.83
   5  -8  -6    0.72    1.50
   5  -8  -6    3.22    2.15
  -5   8   6    2.52    2.13
   5  -8  -5   11.59    2.88
   5  -8  -5   14.27    3.30
  -5   8   5   12.95    3.26
   5  -8  -4    7.98    2.67
   5  -8  -4    7.37    2.24
  -5   8   4    5.92    2.32
   5  -8  -3    3.72    1.78
  -5   8   3    0.23    1.77
   5  -8  -3   -0.27    1.31
  -5   8   2    0.25    1.61
   5  -8  -2    2.04    1.63
  -5   8   1  501.21   15.24
  -5   8   1  514.71   15.82
   5  -8  -1  531.51   17.10
  -5   8   0  101.95    7.36
   5  -8   0   88.14    7.16
  -5   8   0  110.13    6.85
  -5   8  -1   38.40    4.66
   5  -8   1   37.85    4.83
  -5   8  -1   39.95    3.99
  -5   8  -2    4.75    2.06
   5  -8   2    7.95    2.80
  -5   8  -2    6.65    1.70
  -5   8  -3    6.26    2.34
   5  -8   3    5.80    2.73
  -5   8  -4   41.19    4.88
   5  -8   4   46.41    5.44
  -5   8  -5  115.22    8.26
   5  -8   5  125.99    8.86
  -5   8  -6   50.17    5.69
   5  -8   6   56.99    6.17
  -5   8  -6   51.13    5.15
  -5   8  -7   75.85    6.88
   5  -8   7   71.29    7.07
  -5   8  -7   88.44    7.24
  -5   8  -8   16.20    3.71
   5  -8   8   10.99    3.40
  -5   8  -9    8.36    2.74
   5  -8   9    5.79    2.67
   5  -8   9    9.45    3.16
  -5   8  -9    2.86    2.08
  -5   8 -10   17.65    3.73
   5  -8  10   22.31    4.54
   5  -8  10   18.02    4.22
  -5   8 -10   24.41    4.74
  -5   8 -11   17.87    3.89
   5  -8  11   17.38    4.50
   5  -8  11   15.35    4.06
  -5   8 -11   21.99    4.82
  -5   8 -12    7.34    2.65
   5  -7 -10   31.55    5.56
   5  -7  -9    7.41    2.91
  -5   7   9   16.17    4.05
   5  -7  -8   16.78    3.88
  -5   7   8   13.55    3.80
  -5   7   7   15.27    3.11
   5  -7  -7   14.95    3.16
   5  -7  -7   16.21    3.59
  -5   7   7   15.17    3.73
  -5   7   6    0.57    1.19
   5  -7  -6    2.40    1.72
   5  -7  -6    0.53    1.42
  -5   7   6    2.46    2.20
   5  -7  -5    5.59    2.24
  -5   7   5    3.99    1.88
   5  -7  -5    1.93    1.57
  -5   7   5    2.24    1.83
   5  -7  -4  109.59    7.30
  -5   7   4  104.18    7.72
   5  -7  -4  115.03    7.33
  -5   7   4  106.50    7.38
   5  -7  -3  201.11    9.62
   5  -7  -3  204.75    8.99
  -5   7   3  192.04    9.81
  -5   7   3  194.25    9.78
   5  -7  -2   62.04    5.40
   5  -7  -2   74.92    5.12
  -5   7   2   58.51    5.30
  -5   7   2   61.70    5.55
   5  -7  -1    1.14    1.40
  -5   7   1    1.03    1.52
   5  -7  -1    3.03    2.41
   5  -7  -1    1.01    1.12
  -5   7   1    1.63    1.62
   5  -7   0  118.31    7.69
  -5   7   0  102.83    6.95
  -5   7   0  111.42    6.41
  -5   7  -1  241.64   10.56
  -5   7  -1  252.72    8.96
   5  -7   1  238.03   10.75
  -5   7  -1  227.54   10.12
  -5   7  -2   40.12    4.53
  -5   7  -2   41.53    3.49
   5  -7   2   34.72    3.25
   5  -7   2   33.56    4.28
  -5   7  -3   56.19    5.44
   5  -7   3   50.99    4.31
   5  -7   3   48.31    5.18
  -5   7  -3   57.03    4.32
  -5   7  -4   69.47    6.04
   5  -7   4   73.84    5.47
   5  -7   4   63.22    5.92
  -5   7  -4   70.35    5.17
  -5   7  -5  495.44   15.86
   5  -7   5  484.63   15.88
   5  -7   5  467.05   14.54
  -5   7  -5  467.65   14.28
  -5   7  -6   42.13    5.00
   5  -7   6   40.83    4.80
   5  -7   6   39.58    4.91
  -5   7  -6   39.80    4.73
  -5   7  -7   91.02    7.25
   5  -7   7   88.91    7.22
   5  -7   7  102.27    7.84
  -5   7  -7  104.52    7.77
  -5   7  -8  232.10   11.57
   5  -7   8  254.79   12.80
   5  -7   8  241.68   12.15
  -5   7  -8  260.86   12.99
  -5   7  -9   16.32    3.30
   5  -7   9   18.70    3.85
   5  -7   9   20.31    3.91
  -5   7  -9   25.67    4.74
  -5   7 -10   -6.38    2.54
   5  -7  10    2.05    1.96
   5  -7  10   -1.92    2.01
  -5   7 -10   -8.61    3.34
  -5   7 -11    2.25    1.88
   5  -7  11    1.49    1.97
   5  -7  11    5.51    2.41
  -5   7 -11    2.02    2.28
  -5   7 -12    3.63    2.84
   5  -6 -10   12.91    3.77
  -5   6  10   26.42    5.17
   5  -6  -9   23.34    4.54
  -5   6   9   29.29    5.18
  -5   6   8   42.79    4.83
   5  -6  -8   42.28    4.60
   5  -6  -8   39.72    5.30
  -5   6   8   35.17    5.40
  -5   6   7   16.65    3.03
   5  -6  -7   15.05    3.04
   5  -6  -7   15.44    3.27
  -5   6   7   12.33    3.06
   5  -6  -6   52.77    5.02
   5  -6  -6   65.63    6.03
  -5   6   6   61.28    6.21
  -5   6   6   63.48    5.61
   5  -6  -5   50.59    4.83
  -5   6   5   51.69    5.42
   5  -6  -5   50.11    4.92
  -5   6   5   47.93    4.84
   5  -6  -4   35.51    4.06
  -5   6   4   32.47    3.98
   5  -6  -4   36.87    3.99
  -5   6   4   36.05    4.53
   5  -6  -3  121.75    7.19
   5  -6  -3  131.14    6.68
  -5   6   3  130.32    7.75
  -5   6   3  124.06    7.38
   5  -6  -2   40.22    4.25
  -5   6   2   44.23    4.28
   5  -6  -2   38.71    3.40
  -5   6   2   35.63    3.98
   5  -6  -1  146.40    7.50
  -5   6   1  160.90    7.50
   5  -6  -1  159.58    6.04
   5  -6  -1  160.32    8.37
  -5   6   1  153.45    7.90
  -5   6   0    0.41    0.69
  -5   6   0    1.68    1.48
   5  -6   0    0.28    0.49
   5  -6   0    0.61    1.81
   5  -6   0   -1.01    0.64
  -5   6   0    0.75    1.03
  -5   6  -1    2.36    0.98
   5  -6   1    4.01    2.05
   5  -6   1    3.78    1.10
  -5   6  -1    3.04    1.67
  -5   6  -1    3.41    1.24
   5  -6   2   80.07    4.77
  -5   6  -2   78.47    4.29
   5  -6   2   74.44    5.83
  -5   6  -2   84.11    4.96
  -5   6  -2   69.15    5.22
  -5   6  -3  140.50    7.87
   5  -6   3  147.02    7.03
  -5   6  -3  148.20    5.24
   5  -6   3  149.82    8.15
  -5   6  -3  147.80    7.07
  -5   6  -4  147.71    8.17
   5  -6   4  153.54    7.74
   5  -6   4  159.86    8.42
  -5   6  -4  158.12    7.90
  -5   6  -5   64.92    5.60
   5  -6   5   66.36    5.43
   5  -6   5   62.86    5.55
  -5   6  -5   62.93    5.38
  -5   6  -6  305.43   12.03
   5  -6   6  299.68   12.20
   5  -6   6  309.27   12.18
  -5   6  -6  300.39   12.31
  -5   6  -7   30.51    4.44
  -5   6  -7   28.17    4.05
   5  -6   7   28.54    4.25
   5  -6   7   25.64    3.96
  -5   6  -8   45.29    5.00
   5  -6   8   48.60    5.68
   5  -6   8   47.03    5.17
  -5   6  -8   48.48    5.87
  -5   6  -9   38.95    4.80
   5  -6   9   45.10    5.82
   5  -6   9   40.00    5.03
  -5   6  -9   56.83    6.59
  -5   6 -10   29.16    4.27
   5  -6  10   27.58    4.94
   5  -6  10   28.48    4.34
  -5   6 -10   41.05    6.12
  -5   6 -11   -3.99    1.85
   5  -6  11   -3.17    2.27
  -5   6 -11   -0.33    2.35
   5  -6  12    5.81    2.77
  -5   6 -12    7.21    3.69
   5  -5 -11   15.73    4.25
  -5   5  11    8.63    3.08
  -5   5  10   77.27    7.83
   5  -5 -10   67.80    7.61
   5  -5  -9   23.12    4.14
   5  -5  -9   22.25    4.23
  -5   5   9   24.54    4.53
   5  -5  -8   33.22    4.70
  -5   5   8   35.98    4.28
   5  -5  -8   38.43    5.11
  -5   5   8   38.00    5.16
   5  -5  -8   29.12    3.81
   5  -5  -7   10.34    2.60
   5  -5  -7    9.76    2.77
   5  -5  -7    6.67    2.00
  -5   5   7    8.79    2.32
  -5   5   7    9.22    2.53
   5  -5  -6   11.51    2.62
  -5   5   6   11.61    2.74
   5  -5  -6   12.97    2.64
   5  -5  -6   12.79    2.80
   5  -5  -5  175.68    8.26
   5  -5  -5  170.89    8.33
   5  -5  -5  182.14    8.68
  -5   5   5  179.48    8.73
   5  -5  -4 1048.48   18.41
   5  -5  -4 1079.89   20.13
   5  -5  -4 1114.23   19.47
  -5   5   4 1091.26   20.85
   5  -5  -3    2.95    1.74
   5  -5  -3    2.80    1.24
  -5   5   3    4.04    1.79
   5  -5  -3    3.85    1.32
   5  -5  -2    5.94    1.97
  -5   5   2   10.11    2.40
   5  -5  -2    5.38    1.36
   5  -5  -2    7.76    1.51
   5  -5  -1  132.82    6.73
   5  -5  -1  118.96    4.51
   5  -5  -1  139.23    4.15
   5  -5  -1  136.11    4.82
   5  -5  -1  129.47    7.08
  -5   5   1  142.43    7.19
   5  -5   0    1.33    0.69
  -5   5   0    2.85    1.12
   5  -5   0    0.33    0.40
  -5   5   0    0.78    1.28
   5  -5   0    1.15    0.51
   5  -5   0    0.66    1.73
   5  -5   0    0.61    1.18
  -5   5  -1   11.02    1.90
  -5   5  -1   12.54    2.26
   5  -5   1   11.63    1.75
   5  -5   1   12.39    2.69
   5  -5   1   11.53    2.16
   5  -5   2   15.01    2.38
  -5   5  -2   17.53    2.52
  -5   5  -2   16.67    2.56
   5  -5   2   17.92    2.32
   5  -5   2   18.85    2.91
  -5   5  -3   21.47    2.91
  -5   5  -3   19.70    2.67
   5  -5   3   20.02    2.73
  -5   5  -3   19.93    1.81
   5  -5   3   20.88    3.12
  -5   5  -4    5.89    2.12
  -5   5  -4    7.62    2.28
   5  -5   4    8.33    2.06
   5  -5   4    5.89    1.96
  -5   5  -5   22.45    3.46
  -5   5  -5   16.77    2.99
   5  -5   5   20.55    3.15
   5  -5   5   25.05    3.36
  -5   5  -6  373.11   12.64
   5  -5   6  383.75   13.63
   5  -5   6  404.74   12.93
  -5   5  -6  380.88   14.03
  -5   5  -7  125.96    7.50
   5  -5   7  127.96    8.44
   5  -5   7  129.18    7.62
  -5   5  -7  140.85    9.05
  -5   5  -8    5.92    2.84
  -5   5  -8    8.16    2.25
   5  -5   8    4.98    1.99
   5  -5   8    7.63    2.26
  -5   5  -9   -0.15    1.40
   5  -5   9   -2.95    2.11
   5  -5   9   -0.25    1.35
  -5   5 -10    7.31    2.28
   5  -5  10    0.30    1.96
  -5   5 -10    6.21    2.99
   5  -5  11   21.67    4.66
  -5   5 -11   23.08    5.23
   5  -5  12    6.65    2.91
  -5   5 -12   11.36    3.97
  -5   4  12    3.39    1.84
   5  -4 -11   13.61    3.92
  -5   4  11   16.67    4.07
   5  -4 -10   43.12    5.86
   5  -4 -10   50.63    6.39
  -5   4  10   48.70    5.96
  -5   4   9   57.11    5.22
   5  -4  -9   53.85    6.02
   5  -4  -9   50.00    5.91
   5  -4  -9   42.48    4.41
   5  -4  -8   18.77    2.89
   5  -4  -8   15.64    3.32
  -5   4   8   18.16    3.10
   5  -4  -8   16.51    3.51
  -5   4   7   -1.35    1.38
   5  -4  -7   -0.42    1.66
   5  -4  -7    1.15    1.70
   5  -4  -7    1.00    1.17
   5  -4  -6   18.74    3.10
  -5   4   6   22.43    3.24
   5  -4  -6   20.01    3.25
   5  -4  -6   15.24    2.78
  -5   4   5   78.47    5.55
   5  -4  -5   70.95    5.14
   5  -4  -5   71.36    5.22
   5  -4  -5   74.84    5.27
  -5   4   4   36.66    3.83
   5  -4  -4   35.83    3.49
   5  -4  -4   37.03    3.53
   5  -4  -4   38.70    3.80
  -5   4   3 1199.47   20.19
   5  -4  -3 1150.20   17.02
   5  -4  -3 1154.32   19.44
   5  -4  -3 1178.90   16.71
  -5   4   2  143.09    6.93
   5  -4  -2  134.75    5.27
   5  -4  -2  135.18    6.59
   5  -4  -2  139.96    4.00
   5  -4  -2  145.03    5.06
   5  -4  -1   21.22    2.69
   5  -4  -1   21.47    1.91
   5  -4  -1   21.96    1.89
   5  -4  -1   23.03    1.67
  -5   4   1   21.57    2.79
  -5   4   0  139.75    6.53
   5  -4   0  137.87    6.30
   5  -4   0  137.00    3.95
   5  -4   0  140.51    5.20
   5  -4   0  147.82    6.87
   5  -4   1   84.97    4.89
   5  -4   1   85.53    2.50
   5  -4   1   88.83    4.56
   5  -4   1   89.31    5.30
  -5   4  -1   88.19    5.09
  -5   4  -1   86.47    5.12
   5  -4   2   66.56    4.24
   5  -4   2   55.96    1.44
   5  -4   2   66.23    4.34
   5  -4   2   67.97    4.63
  -5   4  -2   63.43    4.56
  -5   4  -2   67.30    4.37
   5  -4   3  179.86    6.80
   5  -4   3  174.29    7.47
   5  -4   3  173.30    7.37
  -5   4  -3  150.52    7.33
  -5   4  -3  174.60    6.87
  -5   4  -4  119.77    6.56
   5  -4   4  125.76    5.61
   5  -4   4  126.16    6.89
   5  -4   4  132.34    6.56
  -5   4  -4  138.48    7.58
  -5   4  -4  120.76    5.66
  -5   4  -5    4.59    2.01
   5  -4   5    1.86    1.41
  -5   4  -5    3.64    1.76
   5  -4   5    3.21    1.54
   5  -4   5    2.78    1.05
  -5   4  -6    7.15    2.60
  -5   4  -6    4.45    1.73
   5  -4   6    4.23    1.97
   5  -4   6    5.49    1.85
   5  -4   6    5.57    1.27
  -5   4  -7   98.32    6.28
   5  -4   7   97.74    7.35
   5  -4   7   95.93    6.09
  -5   4  -7   88.68    7.35
  -5   4  -8   57.47    4.87
  -5   4  -8   48.81    5.86
   5  -4   8   55.85    5.88
   5  -4   8   50.89    4.69
  -5   4  -9    1.85    2.33
  -5   4  -9    2.90    1.49
   5  -4   9    3.37    2.20
  -5   4 -10   -0.05    2.47
   5  -4  10    3.39    2.00
   5  -4  11   31.69    5.26
  -5   4 -11   33.07    6.00
   5  -4  12   -0.45    1.79
  -5   4 -12    7.83    3.25
  -5   3  13   33.06    5.52
   5  -3 -12   21.23    4.69
  -5   3  12   32.13    4.93
   5  -3 -11   17.80    3.92
   5  -3 -10    2.11    2.29
   5  -3  -9   -0.38    1.13
   5  -3  -9   -0.14    1.73
  -5   3   9    1.10    1.34
   5  -3  -8   14.39    3.07
   5  -3  -8   15.19    2.71
  -5   3   8   14.61    2.88
   5  -3  -7   25.97    3.28
   5  -3  -7   21.12    3.34
  -5   3   7   28.06    3.53
  -5   3   6  133.10    7.10
   5  -3  -6  117.55    6.95
   5  -3  -6  127.16    6.78
   5  -3  -6  125.88    7.10
   5  -3  -5    1.18    1.24
   5  -3  -5   -2.46    1.38
  -5   3   5    1.00    1.27
   5  -3  -5    0.13    1.19
  -5   3   4  153.28    7.23
   5  -3  -4  148.08    6.64
   5  -3  -4  157.03    7.13
  -5   3   3   55.45    4.30
   5  -3  -3   59.06    3.91
   5  -3  -3   61.07    3.01
   5  -3  -3   63.61    4.52
  -5   3   2  560.52   12.82
   5  -3  -2  523.76   10.46
   5  -3  -2  549.31   12.53
   5  -3  -2  540.51    9.21
  -5   3   1  274.49    8.79
   5  -3  -1  281.82    6.94
   5  -3  -1  283.98    8.73
   5  -3  -1  285.04    7.16
  -5   3   0  102.64    5.30
   5  -3   0  105.74    3.87
   5  -3   0  114.30    5.43
   5  -3   0  108.27    4.78
  -5   3  -1   34.75    3.07
   5  -3   1   30.08    2.82
   5  -3   1   36.77    2.15
   5  -3   1   35.06    3.00
   5  -3   1   34.96    3.08
  -5   3  -2   44.15    3.33
   5  -3   2   42.72    3.23
   5  -3   2   38.01    2.14
   5  -3   2   41.11    3.51
   5  -3   2   37.37    3.20
  -5   3  -2   41.05    3.81
   5  -3   3  344.56    8.71
   5  -3   3  347.92   10.63
   5  -3   3  323.29    9.10
  -5   3  -3  361.29   11.61
  -5   3  -3  326.14    8.64
   5  -3   4   52.01    3.30
   5  -3   4   45.27    4.20
   5  -3   4   48.07    3.65
  -5   3  -4   48.14    4.60
  -5   3  -4   50.28    3.40
  -5   3  -5   98.92    5.64
   5  -3   5  110.66    4.60
   5  -3   5  110.69    6.91
   5  -3   5  110.73    5.55
  -5   3  -5  111.90    7.34
  -5   3  -5  102.83    4.62
  -5   3  -6   64.97    4.70
   5  -3   6   63.07    5.65
   5  -3   6   67.97    4.53
  -5   3  -6   72.91    6.39
  -5   3  -7   20.37    3.91
  -5   3  -7   23.74    2.96
   5  -3   7   22.56    3.71
  -5   3  -8   34.33    5.23
  -5   3  -8   26.89    3.18
   5  -3   8   25.21    4.04
   5  -3   9   75.40    7.20
  -5   3  -9   70.81    7.41
   5  -3  10   75.29    7.47
  -5   3 -10   64.32    7.36
   5  -3  11   62.64    7.37
  -5   3 -11   52.75    7.07
   5  -3  12   29.26    5.34
  -5   3 -12   18.93    4.95
  -5   2  13    9.81    3.01
   5  -2 -12  151.91   11.07
  -5   2  12  166.64   11.67
   5  -2 -11   22.39    4.52
  -5   2  11   20.97    4.50
  -5   2  10   37.10    4.26
   5  -2 -10   26.37    3.55
   5  -2 -10   26.25    4.39
  -5   2  10   31.97    4.88
   5  -2  -9   14.56    3.34
  -5   2   9   17.54    2.92
   5  -2  -9   14.02    2.55
  -5   2   9   16.45    3.56
  -5   2   8  118.42    6.99
   5  -2  -8  109.22    7.57
   5  -2  -8  114.23    6.76
  -5   2   8  127.06    8.14
   5  -2  -7   -0.59    1.80
  -5   2   7    1.48    1.24
   5  -2  -7    0.82    1.21
   5  -2  -6    2.70    1.60
   5  -2  -6    2.98    1.77
  -5   2   6    1.53    1.25
  -5   2   5   36.35    3.66
   5  -2  -5   36.41    3.73
   5  -2  -5   36.23    3.57
   5  -2  -4   16.55    2.44
  -5   2   4   10.79    2.09
   5  -2  -4   15.48    2.39
   5  -2  -3    6.20    1.31
   5  -2  -3    5.16    1.51
  -5   2   3    4.86    1.59
   5  -2  -3    5.40    1.64
  -5   2   2  185.53    7.19
   5  -2  -2  181.53    6.32
   5  -2  -2  174.87    5.90
   5  -2  -2  184.52    7.00
  -5   2   1  859.20   14.78
   5  -2  -1  820.23   12.45
   5  -2  -1  827.62   13.26
   5  -2  -1  834.95   14.47
   5  -2   0   12.07    1.63
   5  -2   0   12.34    1.99
   5  -2   0   11.99    1.94
  -5   2   0    9.11    1.68
  -5   2  -1   99.68    4.77
   5  -2   1   94.43    5.04
   5  -2   1   94.36    3.94
   5  -2   1  101.30    4.78
  -5   2  -2  112.56    4.90
   5  -2   2  112.70    5.85
   5  -2   2  110.99    4.78
  -5   2  -2  104.24    2.56
   5  -2   2  109.87    4.68
  -5   2  -3  263.21    7.24
   5  -2   3  267.36    7.13
   5  -2   3  270.97    9.55
  -5   2  -3  251.02    5.23
   5  -2   3  258.11    7.08
  -5   2  -3  252.56    9.96
  -5   2  -4    1.79    0.74
  -5   2  -4    0.79    1.66
  -5   2  -4    0.35    0.54
   5  -2   4    0.72    0.72
   5  -2   4    1.05    0.77
  -5   2  -5  111.49    5.59
   5  -2   5  101.23    6.68
  -5   2  -5  108.35    4.85
   5  -2   5  119.62    5.06
  -5   2  -5  119.73    7.67
  -5   2  -5  115.02    4.26
  -5   2  -6   10.43    2.88
   5  -2   6   10.57    2.73
  -5   2  -6   13.42    2.17
  -5   2  -6   12.70    1.99
  -5   2  -7    8.38    2.92
  -5   2  -7    5.00    1.52
   5  -2   7    4.66    1.92
  -5   2  -8   19.72    4.19
   5  -2   8   20.41    3.93
  -5   2  -9    2.93    2.26
   5  -2   9    6.94    2.50
  -5   2 -10   15.38    4.30
   5  -2  10   18.28    3.91
   5  -2  11    0.03    1.61
  -5   2 -11    5.70    2.99
   5  -2  12   72.86    8.14
  -5   2 -12   73.60    8.74
   5  -1 -13   18.94    4.42
  -5   1  13   22.22    4.70
   5  -1 -12   39.84    5.98
  -5   1  12   37.73    5.79
   5  -1 -11   22.54    4.26
  -5   1  11   21.17    4.09
   5  -1 -10   26.79    4.41
  -5   1  10   26.33    3.61
  -5   1  10   26.38    4.29
  -5   1   9   68.07    5.49
   5  -1  -9   69.27    6.43
   5  -1  -9   68.11    5.40
  -5   1   9   64.71    6.08
   5  -1  -8   -0.97    1.57
   5  -1  -8   -0.69    1.32
  -5   1   8   -0.40    1.51
  -5   1   8   -0.53    1.52
   5  -1  -7    1.30    1.62
   5  -1  -7   -0.57    1.28
  -5   1   7   -1.84    1.27
  -5   1   7   -0.38    1.37
   5  -1  -6    9.50    2.13
   5  -1  -6   13.70    2.66
  -5   1   6    8.42    2.11
  -5   1   6    9.51    2.26
  -5   1   5   27.26    3.22
   5  -1  -5   23.65    3.02
   5  -1  -5   24.51    2.97
  -5   1   4  173.06    7.43
   5  -1  -4  165.13    7.11
   5  -1  -4  155.98    6.84
  -5   1   3   48.18    3.88
   5  -1  -3   43.91    3.53
   5  -1  -3   43.69    3.30
   5  -1  -3   42.12    3.55
  -5   1   2   80.94    4.81
   5  -1  -2   77.83    4.37
   5  -1  -2   80.26    4.43
   5  -1  -2   87.88    4.84
   5  -1  -1   84.65    4.63
  -5   1   1   95.00    4.92
   5  -1  -1   89.99    4.53
   5  -1  -1   89.76    4.68
   5  -1   0    5.74    1.31
   5  -1   0    8.39    1.80
   5  -1   0    6.70    1.40
  -5   1   0    6.60    1.46
   5  -1   1   18.56    2.54
   5  -1   1   16.18    1.92
  -5   1  -1   14.94    1.92
  -5   1  -2   52.16    3.23
   5  -1   2   55.87    4.34
  -5   1  -2   50.77    2.75
   5  -1   2   49.76    3.13
  -5   1  -3    0.20    1.60
  -5   1  -3    1.81    0.87
   5  -1   3    0.95    1.39
  -5   1  -3    0.02    0.67
   5  -1   3    0.41    0.79
  -5   1  -4   76.18    3.44
   5  -1   4   82.67    5.83
  -5   1  -4   78.85    4.25
   5  -1   4   72.32    3.26
  -5   1  -4   83.87    6.29
  -5   1  -5   17.57    3.46
  -5   1  -5   16.20    2.14
   5  -1   5   18.69    2.10
   5  -1   5   14.92    2.87
  -5   1  -5   15.37    2.25
   5  -1   6   83.47    6.55
  -5   1  -6   78.57    5.21
  -5   1  -6   76.22    6.68
   5  -1   7   61.49    5.89
  -5   1  -7   70.52    5.36
  -5   1  -7   69.37    6.69
  -5   1  -8   57.47    6.47
   5  -1   8   45.97    5.45
  -5   1  -8   51.08    4.92
  -5   1  -9   -2.05    2.16
   5  -1   9    0.05    1.83
  -5   1 -10    0.93    2.41
   5  -1  10    1.40    1.89
  -5   1 -11    3.44    2.64
   5  -1  11    2.30    2.34
   5  -1  12    9.79    3.17
   5   0 -13    2.35    2.45
  -5   0  13   10.74    3.20
   5   0 -12    1.38    2.28
  -5   0  12    3.77    2.43
   5   0 -11   -2.52    2.38
  -5   0  11    2.61    1.59
  -5   0  11    1.22    1.83
   5   0 -10   -0.50    2.07
  -5   0  10    0.99    1.47
  -5   0  10    3.13    1.60
   5   0  -9   12.83    3.21
  -5   0   9   12.68    2.46
  -5   0   9   14.67    2.90
  -5   0   9   12.54    3.02
  -5   0   8   89.27    6.21
   5   0  -8   88.87    6.78
  -5   0   8   90.24    5.77
  -5   0   8   88.34    6.36
  -5   0   7   48.03    4.49
   5   0  -7   43.32    4.63
   5   0  -7   36.36    3.80
  -5   0   7   44.87    4.30
  -5   0   6   34.50    3.72
   5   0  -6   36.42    4.11
   5   0  -6   38.54    3.75
  -5   0   6   34.69    3.50
  -5   0   5   45.34    4.04
   5   0  -5   45.77    4.20
   5   0  -5   50.50    4.23
  -5   0   4   28.92    3.24
   5   0  -4   26.00    3.09
   5   0  -4   30.68    3.17
   5   0  -4   29.94    3.19
  -5   0   3  351.62   10.17
   5   0  -3  337.39    9.95
   5   0  -3  332.58    9.64
   5   0  -3  339.64    9.79
  -5   0   2  171.28    6.87
   5   0  -2  147.16    6.39
   5   0  -2  159.85    6.74
   5   0  -2  159.55    6.50
  -5   0   1   34.70    3.03
   5   0  -1   27.17    2.75
   5   0  -1   38.94    3.47
   5   0  -1   29.91    2.79
  -5   0   0  143.43    5.83
   5   0   0  139.94    5.64
   5   0   1    1.44    1.45
   5   0   1    3.44    1.16
  -5   0  -1    2.54    0.97
  -5   0  -2  308.71    7.77
   5   0   2  301.46   10.23
   5   0   2  288.35    7.41
  -5   0  -3 1742.44   17.27
   5   0   3 1715.78   21.33
   5   0   3 1681.98   25.33
  -5   0  -3 1699.54   20.47
  -5   0  -3 1714.69   20.14
  -5   0  -3 1772.59   27.31
  -5   0  -4    1.83    2.04
   5   0   4    2.20    1.74
   5   0   4    0.64    1.00
  -5   0  -4    0.46    0.51
  -5   0  -4    0.44    1.17
  -5   0  -4    0.55    0.95
   5   0   5   65.14    4.37
   5   0   5   59.92    5.46
  -5   0  -5   70.97    4.97
  -5   0  -5   67.79    3.89
  -5   0  -5   68.44    6.15
  -5   0  -6    3.08    2.39
   5   0   6    0.09    1.70
  -5   0  -6    1.51    1.28
  -5   0  -7   11.36    3.14
   5   0   7   15.22    3.29
  -5   0  -7   19.09    3.11
  -5   0  -8   17.44    4.01
   5   0   8   12.45    3.23
  -5   0  -8   14.63    3.01
  -5   0  -9   -0.22    1.85
  -5   0  -9    0.94    1.48
  -5   0 -10    0.45    1.79
   5   0  10    0.90    1.81
  -5   0 -11    2.82    3.12
   5   0  11   -1.05    1.81
   5   1 -13    0.06    2.15
  -5  -1  13   -1.73    2.05
   5   1 -12    9.45    3.16
  -5  -1  12    4.71    2.64
  -5  -1  11   48.82    5.17
   5   1 -11   40.70    5.54
  -5  -1  11   42.31    5.35
   5   1 -10    1.59    1.98
  -5  -1  10   -1.62    1.68
  -5  -1  10    0.67    1.51
   5   1  -9   17.72    3.44
  -5  -1   9   13.66    2.57
  -5  -1   9   17.72    3.18
  -5  -1   9   19.23    3.25
   5   1  -8  239.82   11.04
  -5  -1   8  249.35   10.37
  -5  -1   8  239.61    9.46
  -5  -1   8  243.34   10.09
  -5  -1   7   16.32    2.85
   5   1  -7   11.80    2.84
  -5  -1   7    8.89    2.24
  -5  -1   7   13.22    2.41
   5   1  -6   88.10    6.20
  -5  -1   6   81.80    5.64
  -5  -1   6   78.72    5.39
  -5  -1   6   81.86    4.98
   5   1  -5   62.33    5.00
  -5  -1   5   49.32    4.23
  -5  -1   5   51.67    3.61
   5   1  -4   88.39    5.68
   5   1  -4   89.66    5.58
  -5  -1   4   84.88    5.38
   5   1  -3   61.19    4.53
   5   1  -3   61.77    4.65
  -5  -1   3   62.44    4.56
   5   1  -2   13.92    2.36
   5   1  -2   19.80    2.79
  -5  -1   2   22.30    2.73
   5   1  -1   -0.08    1.35
  -5  -1   1    1.34    1.34
   5   1   0   24.20    3.14
  -5  -1   0   24.70    2.82
   5   1   1   28.15    3.16
  -5  -1  -1   25.38    2.51
  -5  -1  -1   28.85    2.96
   5   1   1   21.40    3.09
   5   1   2   -1.51    1.71
   5   1   2    1.89    1.23
  -5  -1  -2   -1.18    1.33
  -5  -1  -2   -0.54    0.77
   5   1   3   28.24    3.79
  -5  -1  -3   31.56    4.01
  -5  -1  -3   28.78    2.39
   5   1   3   28.50    3.18
  -5  -1  -3   28.76    2.96
  -5  -1  -3   27.64    3.10
   5   1   4  660.09   14.93
   5   1   4  637.44   16.76
  -5  -1  -4  642.96   15.21
  -5  -1  -4  659.85   13.09
  -5  -1  -4  607.42   17.26
   5   1   5   92.30    5.79
   5   1   5   92.47    6.82
  -5  -1  -5   93.81    6.32
  -5  -1  -5   91.54    7.11
   5   1   6  123.42    6.80
   5   1   6  120.19    8.03
  -5  -1  -6  132.09    7.85
  -5  -1  -6  134.51    8.98
  -5  -1  -7    0.06    1.53
   5   1   7    1.36    1.77
  -5  -1  -7    2.19    1.88
  -5  -1  -8    0.18    2.19
   5   1   8   -0.60    1.52
  -5  -1  -8    1.07    1.34
  -5  -1  -9    2.65    2.29
   5   1   9    2.44    1.88
  -5  -1  -9    3.29    1.96
  -5  -1 -10   22.14    4.43
   5   1  10   18.15    4.01
  -5  -1 -11   10.98    4.09
   5   1  11   12.27    3.45
  -5  -2  13    6.48    2.21
  -5  -2  13    2.89    2.16
   5   2 -12    7.25    3.13
  -5  -2  12   17.27    3.89
  -5  -2  12    7.77    2.50
  -5  -2  12   11.37    3.19
   5   2 -11    2.05    2.13
  -5  -2  11    0.91    1.49
  -5  -2  11    0.78    1.29
   5   2 -10  125.46    9.02
  -5  -2  10  128.04    8.13
  -5  -2  10  123.37    8.20
  -5  -2   9   35.95    4.32
   5   2  -9   39.72    5.03
  -5  -2   9   41.83    4.35
  -5  -2   9   48.41    4.67
   5   2  -8   68.60    6.20
  -5  -2   8   68.31    5.35
  -5  -2   8   71.57    5.37
   5   2  -7  152.07    8.59
  -5  -2   7  153.34    7.83
  -5  -2   7  153.55    7.14
   5   2  -6   19.86    3.30
  -5  -2   6   19.31    3.08
  -5  -2   6   19.14    2.39
   5   2  -5   22.54    3.43
  -5  -2   5   19.10    2.98
  -5  -2   5   24.12    2.37
   5   2  -4  133.35    7.32
   5   2  -4  133.44    7.34
  -5  -2   4  135.87    7.05
   5   2  -3   35.87    3.79
   5   2  -3   32.23    3.77
  -5  -2   3   34.56    3.68
   5   2  -2    1.60    1.66
  -5  -2   2    2.21    1.64
   5   2  -1  134.39    7.20
  -5  -2   1  126.55    6.50
   5   2   0  104.18    6.23
  -5  -2   0  102.41    3.65
  -5  -2   0  104.88    5.87
   5   2   0  110.99    6.67
   5   2   1  310.06   10.74
   5   2   1  292.91   10.96
  -5  -2  -1  299.33    9.80
   5   2   2  102.14    6.32
   5   2   2  105.63    6.88
  -5  -2  -2  105.34    5.78
   5   2   3   29.15    3.97
  -5  -2  -3   32.66    4.26
  -5  -2  -3   27.80    2.47
   5   2   3   27.94    3.50
  -5  -2  -3   24.59    3.01
  -5  -2  -4   40.16    4.77
   5   2   4   35.87    3.92
   5   2   4   37.50    4.46
  -5  -2  -4   38.72    4.25
  -5  -2  -4   33.14    3.25
  -5  -2  -5   14.45    3.42
   5   2   5   16.87    3.32
   5   2   5   15.33    2.77
  -5  -2  -5   11.92    2.82
   5   2   6   54.05    4.98
   5   2   6   45.94    5.30
  -5  -2  -6   44.53    5.10
  -5  -2  -6   52.57    5.85
  -5  -2  -7   23.94    4.51
   5   2   7   16.79    3.35
  -5  -2  -7   23.45    3.93
  -5  -2  -8    4.51    2.54
   5   2   8    5.95    2.72
  -5  -2  -8    6.16    2.59
  -5  -2  -9    3.93    2.35
  -5  -2  -9    8.39    2.81
   5   2   9   10.36    3.32
  -5  -2 -10    6.62    3.09
   5   2  10    6.59    2.86
  -5  -2 -10    3.61    2.30
   5   3 -13   11.44    3.72
  -5  -3  13    8.99    3.39
  -5  -3  13    5.69    2.70
   5   3 -12   10.68    3.44
  -5  -3  12    8.70    3.32
  -5  -3  12    6.47    2.60
  -5  -3  12    8.56    2.45
  -5  -3  11    5.59    2.33
   5   3 -11    8.35    2.97
  -5  -3  11    4.64    2.43
  -5  -3  11    7.73    2.45
   5   3 -10   53.54    6.00
  -5  -3  10   43.10    5.58
  -5  -3  10   44.63    4.72
  -5  -3  10   55.09    5.48
   5   3  -9   26.77    4.27
  -5  -3   9   29.37    4.42
  -5  -3   9   32.64    4.07
  -5  -3   9   34.73    3.99
  -5  -3   8   27.00    3.98
   5   3  -8   20.89    3.81
  -5  -3   8   15.68    3.00
  -5  -3   8   21.41    3.01
   5   3  -7   25.75    3.94
  -5  -3   7   27.95    3.73
  -5  -3   7   30.26    3.23
   5   3  -6    9.30    2.56
  -5  -3   6    7.12    2.35
   5   3  -5  589.73   16.16
  -5  -3   5  556.96   14.24
  -5  -3   5  541.33   14.98
   5   3  -4   51.80    4.92
  -5  -3   4   53.17    4.23
  -5  -3   4   49.87    4.73
   5   3  -3  288.84   11.25
   5   3  -3  284.28   10.98
  -5  -3   3  300.45    9.09
  -5  -3   3  294.42   10.85
  -5  -3   2   15.83    2.16
   5   3  -2   16.64    3.09
  -5  -3   2   12.15    2.64
   5   3  -1  566.48   15.67
   5   3  -1  602.64   15.92
  -5  -3   1  581.79   10.60
  -5  -3   1  592.21   14.91
   5   3   0   85.21    6.14
   5   3   0   89.30    6.42
  -5  -3   0   83.16    5.67
   5   3   1    0.50    1.97
   5   3   1    0.25    1.34
  -5  -3  -1    0.95    1.23
   5   3   2   39.42    4.39
   5   3   2   37.72    4.46
  -5  -3  -2   31.17    3.48
   5   3   3   48.61    4.89
   5   3   3   46.22    4.98
  -5  -3  -3   47.60    4.29
  -5  -3  -3   46.07    5.04
   5   3   4  119.57    7.64
   5   3   4  121.75    8.05
  -5  -3  -4  135.30    8.50
  -5  -3  -4  122.74    6.84
  -5  -3  -4  133.04    8.55
  -5  -3  -5   14.89    3.28
   5   3   5   16.03    3.47
   5   3   5   13.78    2.98
  -5  -3  -5   14.71    3.12
  -5  -3  -6   55.43    6.15
   5   3   6   54.08    5.50
   5   3   6   47.56    5.54
  -5  -3  -6   57.76    6.27
  -5  -3  -7   61.53    6.66
   5   3   7   71.10    6.40
   5   3   7   56.33    6.22
  -5  -3  -7   66.09    6.83
  -5  -3  -8    6.60    2.81
  -5  -3  -8    7.99    3.14
   5   3   8   13.42    3.45
   5   3   9   16.40    3.77
  -5  -3  -9   19.21    4.21
  -5  -3 -10   61.35    7.49
   5   4 -13   14.32    3.80
  -5  -4  12   47.60    5.76
   5   4 -12   41.54    5.95
  -5  -4  12   54.70    7.03
   5   4 -11   57.32    6.61
  -5  -4  11   65.19    7.28
   5   4 -10    2.44    2.14
  -5  -4  10   -2.35    2.23
  -5  -4  10    0.11    1.73
   5   4  -9   13.95    3.61
  -5  -4   9   16.98    3.61
  -5  -4   9   13.96    2.98
   5   4  -8   11.57    3.31
  -5  -4   8   11.98    2.95
  -5  -4   8    6.55    2.17
   5   4  -7   83.54    6.84
  -5  -4   7   85.01    6.64
  -5  -4   7   84.82    6.51
   5   4  -6  112.58    7.73
  -5  -4   6  109.52    7.07
  -5  -4   6  108.23    7.29
   5   4  -5  118.93    7.75
  -5  -4   5  108.22    6.64
  -5  -4   5   96.67    6.87
   5   4  -4   49.81    5.10
  -5  -4   4   48.25    4.25
  -5  -4   4   39.03    4.54
   5   4  -3   58.25    5.47
  -5  -4   3   65.33    4.54
  -5  -4   3   48.15    5.01
   5   4  -3   55.85    5.53
   5   4  -2  140.88    8.32
   5   4  -2  145.44    8.59
  -5  -4   2  146.10    6.22
  -5  -4   2  141.74    8.00
   5   4  -1  144.57    8.47
   5   4  -1  126.71    8.02
  -5  -4   1  118.06    7.24
   5   4   0  181.89    9.58
   5   4   0  175.85    9.39
  -5  -4   0  187.81    9.00
   5   4   1  108.49    7.52
   5   4   1   84.38    6.66
  -5  -4  -1  100.29    6.69
   5   4   2   -3.72    1.96
  -5  -4  -2    1.91    1.44
   5   4   2    0.45    1.88
  -5  -4  -3    1.20    1.65
   5   4   3   -1.88    1.98
   5   4   3    2.51    1.65
  -5  -4  -3    2.57    1.72
  -5  -4  -4   24.77    3.98
   5   4   4   25.25    3.96
  -5  -4  -4   22.87    4.19
   5   4   4   26.53    4.09
  -5  -4  -4   23.97    3.57
   5   4   5   89.73    7.48
   5   4   5   78.25    7.07
  -5  -4  -5   78.76    7.46
  -5  -4  -5   89.76    7.43
  -5  -4  -6    2.34    2.30
   5   4   6    1.97    1.86
   5   4   6   -0.28    1.48
  -5  -4  -6    1.77    2.29
   5   4   7    2.13    2.04
   5   4   7    0.06    1.43
  -5  -4  -7   -3.46    2.45
   5   4   8   -0.56    1.38
  -5  -4  -8   -2.93    2.57
  -5  -5  13   17.41    3.72
   5   5 -12   16.18    4.06
  -5  -5  12   20.57    4.67
   5   5 -11    2.76    2.33
  -5  -5  11    7.80    3.01
   5   5 -10  138.63    9.93
  -5  -5  10  133.68    9.99
  -5  -5  10  129.78    9.01
   5   5  -9    5.95    2.59
  -5  -5   9    4.35    2.46
  -5  -5   9    6.74    2.63
   5   5  -8    9.07    3.16
  -5  -5   8    5.33    2.39
  -5  -5   8    4.71    2.21
   5   5  -7   36.28    4.78
  -5  -5   7   22.59    3.88
  -5  -5   7   26.86    4.16
   5   5  -6  108.57    7.92
  -5  -5   6   97.92    7.02
  -5  -5   6  108.21    7.77
   5   5  -5  206.09   10.65
  -5  -5   5  209.83    9.67
  -5  -5   5  223.92   11.00
   5   5  -4   31.49    4.40
  -5  -5   4   28.30    3.49
   5   5  -3  106.98    7.73
  -5  -5   3  107.63    6.17
  -5  -5   3  100.34    7.43
   5   5  -2   59.18    5.87
   5   5  -2   49.91    5.53
  -5  -5   2   58.22    5.73
   5   5  -1    2.00    2.01
   5   5  -1    2.59    2.20
  -5  -5   1    4.61    2.36
   5   5   0   68.49    6.49
   5   5   0   59.44    5.99
  -5  -5   0   62.94    5.81
   5   5   1  112.81    8.30
   5   5   1  101.63    7.79
  -5  -5  -1  109.44    7.51
   5   5   2   76.18    6.94
   5   5   2   64.96    6.26
  -5  -5  -2   70.50    6.11
  -5  -5  -3   25.08    3.90
   5   5   3   20.35    3.74
   5   5   3   22.85    4.10
  -5  -5  -3   18.33    3.35
   5   5   4   11.04    3.10
   5   5   4    6.74    2.55
  -5  -5  -4    9.52    3.31
   5   5   5   32.85    4.86
   5   5   5   28.69    4.57
  -5  -5  -5   30.14    5.20
   5   5   6   21.68    4.06
   5   5   6   25.78    4.49
  -5  -5  -6   23.61    5.07
   5   5   7    6.07    2.66
  -5  -5  -7    4.96    2.81
   5   6 -12   12.16    3.65
   5   6 -11    5.74    2.71
  -5  -6  11    6.48    2.97
   5   6 -10    1.15    2.07
  -5  -6  10    2.25    2.64
  -5  -6  10   -0.97    1.97
   5   6  -9  139.02   10.03
  -5  -6   9  124.44    9.58
  -5  -6   9  144.74    9.96
   5   6  -8   84.39    7.58
  -5  -6   8   86.68    7.59
  -5  -6   8   87.98    7.85
   5   6  -7   78.75    7.21
  -5  -6   7   66.77    6.45
  -5  -6   7   66.54    6.74
   5   6  -6   10.74    3.10
  -5  -6   6   11.03    3.00
  -5  -6   6    7.48    3.05
   5   6  -5    7.05    2.57
  -5  -6   5    6.85    2.08
  -5  -6   5    4.63    2.28
   5   6  -4   51.84    5.75
  -5  -6   4   62.86    6.48
   5   6  -3   14.93    3.21
  -5  -6   3    9.94    3.01
   5   6  -2   20.66    3.82
  -5  -6   2   24.61    4.20
   5   6  -2   18.55    3.80
   5   6  -1    2.80    1.93
   5   6  -1    1.90    1.88
  -5  -6   1   -0.88    1.97
   5   6   0    9.05    2.94
   5   6   0   10.60    3.14
  -5  -6   0    7.45    2.83
   5   6   1    1.33    1.76
  -5  -6  -1    0.04    1.76
   5   6   1    1.30    2.05
   5   6   2  121.15    9.39
   5   6   2  112.66    8.64
  -5  -6  -2  103.61    7.96
   5   6   3   75.67    7.59
  -5  -6  -3   75.94    6.79
   5   6   3   81.69    7.49
   5   6   4   39.87    5.68
   5   6   4   28.32    4.68
  -5  -6  -4   38.94    5.88
   5   6   5    1.08    1.73
   5   6   5    1.28    1.44
  -5  -6  -5    1.40    2.07
   5   6   6   10.96    3.27
  -5  -6  -6    5.22    2.85
   5   7 -11   -1.29    2.21
   5   7 -10   12.90    3.61
  -5  -7  10   11.45    3.59
  -5  -7  10    9.47    3.21
   5   7  -9    2.22    1.83
  -5  -7   9   -2.32    2.29
  -5  -7   9    2.33    2.34
   5   7  -8   17.86    3.94
  -5  -7   8   12.05    3.38
  -5  -7   8    7.21    2.88
   5   7  -7   60.85    6.87
  -5  -7   7   44.68    5.57
  -5  -7   7   53.29    6.55
   5   7  -6   31.42    5.01
  -5  -7   6   29.74    4.45
  -5  -7   6   34.89    5.34
   5   7  -5   24.35    4.41
  -5  -7   5   30.96    5.15
   5   7  -4   49.06    5.87
  -5  -7   4   27.85    5.12
   5   7  -3    5.49    2.34
  -5  -7   3    9.11    3.27
   5   7  -2   18.30    3.93
  -5  -7   2   14.49    3.85
   5   7  -1   50.97    6.34
  -5  -7   1   32.67    5.05
   5   7   0   -1.69    2.08
   5   7   0   -0.03    1.95
  -5  -7   0   -1.21    2.04
   5   7   1   42.81    5.86
   5   7   1   49.30    6.51
  -5  -7  -1   33.31    5.03
   5   7   2   14.11    3.53
   5   7   2   18.36    4.22
  -5  -7  -2   18.86    4.25
   5   7   3   39.51    5.54
   5   7   3   59.51    7.36
  -5  -7  -3   49.16    6.98
   5   7   4   29.50    5.31
  -5  -7  -4   28.26    5.89
   5   8  -9  144.67   10.79
  -5  -8   9  133.84   10.65
  -5  -8   9  136.57   10.95
   5   8  -8   10.99    3.30
  -5  -8   8    4.22    2.30
  -5  -8   8    8.98    3.59
   5   8  -7    1.02    1.71
  -5  -8   7    1.75    2.42
   5   8  -6    1.99    2.06
  -5  -8   6    3.85    2.89
   5   8  -5    3.29    2.09
  -5  -8   5    4.47    2.51
   5   8  -4    0.35    1.85
  -5  -8   4    4.79    2.81
   5   8  -3    0.48    1.96
   5   8  -3    3.56    2.29
  -5  -8   3    1.70    1.97
   5   8  -2   -1.17    2.05
  -5  -8   2    0.75    1.92
   5   8  -1   -0.52    1.45
  -5  -8   1   -2.54    2.65
   5   8   0    8.88    3.14
  -5  -8   0    5.05    2.95
   5   8   1   19.38    4.18
  -5  -8  -1   28.57    4.99
   5   8   1   28.89    5.31
  -5  -8  -2   21.34    4.50
   5   9  -6    0.69    1.91
   5   9  -5    8.60    3.28
   5   9  -4   22.86    4.56
   5   9  -3    1.05    2.20
  -6  12  -1   -3.86    2.44
  -6  12  -2    1.68    2.09
  -6  11   3   19.03    4.34
  -6  11   2    8.76    2.82
   6 -11  -2    5.13    2.90
  -6  11   1    9.51    2.79
  -6  11   1   11.27    3.01
   6 -11  -1   15.68    3.93
   6 -11   0   24.38    4.55
  -6  11   0   24.62    4.44
   6 -11   0   30.55    5.47
  -6  11  -1    2.59    2.11
   6 -11   1    2.66    2.75
  -6  11  -2    7.56    2.51
   6 -11   2    6.31    3.50
  -6  11  -3   17.07    3.59
   6 -11   3   12.19    3.90
  -6  11  -4   13.92    3.63
   6 -11   4   11.48    3.71
  -6  11  -5    0.17    2.28
   6 -11   5    0.38    2.26
  -6  11  -6    1.43    2.37
   6 -11   6   -7.21    3.48
   6 -10  -6   -0.57    1.69
   6 -10  -5   -0.82    1.69
  -6  10   5   -2.18    2.61
   6 -10  -4   -3.43    2.24
  -6  10   4    3.44    2.42
   6 -10  -3    4.96    2.37
  -6  10   3    8.18    2.88
  -6  10   2   24.42    4.13
  -6  10   2   28.22    4.59
   6 -10  -2   20.04    4.02
  -6  10   1   52.94    6.11
   6 -10  -1   54.09    6.26
  -6  10   1   53.12    5.82
   6 -10   0    3.97    2.21
  -6  10   0    0.44    1.62
   6 -10   0   -2.44    2.32
  -6  10   0    0.83    1.39
  -6  10  -1    5.87    2.27
   6 -10   1   10.67    3.24
  -6  10  -2    5.72    2.69
   6 -10   2    9.03    3.52
  -6  10  -3   12.87    3.37
   6 -10   3   15.59    3.92
  -6  10  -4    4.26    2.46
   6 -10   4    8.26    3.09
  -6  10  -5    0.86    2.00
   6 -10   5    6.25    2.58
  -6  10  -6   -0.28    1.67
   6 -10   6   -3.90    2.61
  -6  10  -7   -0.89    2.09
   6 -10   7    7.01    3.15
  -6  10  -8   -4.98    3.10
   6 -10   8    4.47    2.00
   6 -10   8   -3.51    2.52
   6 -10   9   77.88    8.26
   6 -10   9   96.07    9.36
   6  -9  -6    7.43    2.55
  -6   9   6    9.38    3.32
   6  -9  -5    2.49    1.81
  -6   9   5    5.00    2.59
   6  -9  -4   -1.35    1.90
  -6   9   4    1.00    1.79
   6  -9  -3    2.17    1.91
  -6   9   3    5.29    2.50
  -6   9   2    2.22    1.99
  -6   9   2    2.01    1.65
   6  -9  -2    5.52    2.39
  -6   9   1    3.39    1.95
  -6   9   1    4.54    2.04
   6  -9  -1    4.04    2.27
   6  -9   0    9.47    2.87
  -6   9   0   12.42    3.25
   6  -9   0   12.93    3.54
  -6   9   0   15.48    2.95
  -6   9  -1   20.89    3.93
   6  -9   1   24.19    4.51
  -6   9  -1   27.41    3.60
  -6   9  -2   89.81    7.64
   6  -9   2   86.45    7.65
  -6   9  -3   -2.33    2.08
   6  -9   3    0.75    2.01
  -6   9  -4    4.75    2.38
   6  -9   4    6.78    2.91
  -6   9  -5    0.18    2.09
   6  -9   5   -2.45    2.15
  -6   9  -6    2.82    1.72
   6  -9   6    2.42    2.46
   6  -9   6    0.83    1.09
  -6   9  -7   25.02    4.66
   6  -9   7   20.50    3.92
   6  -9   7   18.24    4.10
  -6   9  -8    8.87    3.33
   6  -9   8    7.79    2.67
   6  -9   8   12.77    3.56
  -6   9  -9   -1.95    2.12
   6  -9   9    2.68    1.79
   6  -9   9    0.38    2.39
  -6   9 -10   16.69    4.05
   6  -9  10   17.37    4.21
   6  -9  10   26.66    4.99
  -6   8   7   -2.47    1.90
   6  -8  -7   -0.02    1.32
  -6   8   7    1.49    2.10
  -6   8   6   20.47    3.96
   6  -8  -6   10.53    3.03
  -6   8   6   16.20    3.85
   6  -8  -5    6.44    2.54
  -6   8   5    9.59    2.89
  -6   8   5   11.61    3.05
   6  -8  -4    4.06    2.10
  -6   8   4    2.88    2.03
  -6   8   4    2.45    1.81
   6  -8  -3    8.46    2.49
  -6   8   3   14.49    3.33
  -6   8   3   13.19    3.24
   6  -8  -2   41.45    4.94
  -6   8   2   36.33    4.75
  -6   8   2   38.35    4.62
  -6   8   1    6.49    2.54
   6  -8  -1   10.01    3.22
  -6   8   1    3.65    1.93
   6  -8  -1    6.78    2.58
   6  -8   0   44.75    5.03
  -6   8   0   45.43    4.54
   6  -8   0   36.45    4.97
  -6   8   0   53.20    5.59
   6  -8   1    1.48    1.82
  -6   8  -1    1.03    1.82
   6  -8   1    2.62    2.02
  -6   8  -1    1.37    1.13
  -6   8  -2   76.26    6.71
   6  -8   2   70.23    6.58
  -6   8  -3    6.38    2.46
   6  -8   3    9.48    3.03
  -6   8  -4   87.60    7.40
   6  -8   4   84.37    6.25
   6  -8   4   80.68    7.19
  -6   8  -5   13.15    3.29
   6  -8   5    9.78    2.63
   6  -8   5   12.92    3.23
  -6   8  -6    1.68    1.69
   6  -8   6    0.89    1.52
   6  -8   6   -1.90    1.92
  -6   8  -6    4.55    2.02
  -6   8  -7    5.03    2.25
   6  -8   7    6.91    2.51
   6  -8   7   12.15    3.36
  -6   8  -7    7.50    2.48
  -6   8  -8   22.07    4.24
   6  -8   8   17.38    3.66
   6  -8   8   22.23    4.19
  -6   8  -9   19.79    4.10
   6  -8   9   21.40    4.43
   6  -8   9   26.22    4.55
  -6   8  -9   27.83    5.08
  -6   8 -10    4.37    2.41
   6  -8  10    2.78    2.05
   6  -8  10   -0.71    1.83
  -6   8 -10    3.95    2.73
  -6   8 -11    0.82    1.63
  -6   8 -11    8.16    3.19
   6  -7 -10    1.47    2.02
   6  -7  -9    5.19    2.77
  -6   7   9    4.09    2.37
  -6   7   8   14.43    3.21
   6  -7  -8    9.82    3.10
   6  -7  -8   14.53    3.28
  -6   7   8   16.18    3.95
  -6   7   7    2.74    2.07
   6  -7  -7    1.90    1.76
   6  -7  -7    5.94    2.47
  -6   7   6   -2.10    1.75
   6  -7  -6    2.99    1.97
  -6   7   6    0.95    1.52
   6  -7  -5   66.50    6.08
  -6   7   5   72.47    6.76
  -6   7   5   78.55    6.76
   6  -7  -4    1.00    1.76
  -6   7   4    0.95    1.85
  -6   7   4   -0.21    1.63
   6  -7  -3   -1.18    1.87
  -6   7   3    1.95    1.86
  -6   7   3   -1.04    1.89
   6  -7  -2   25.14    3.89
  -6   7   2   26.90    4.08
  -6   7   2   21.90    3.47
  -6   7   1    7.81    2.51
  -6   7   1    3.20    1.45
   6  -7  -1    6.13    2.44
   6  -7   0  179.18    9.19
  -6   7   0  198.67    8.67
   6  -7   0  196.79   10.17
  -6   7   0  180.98    9.44
   6  -7   1   67.97    5.65
  -6   7  -1   63.21    4.67
   6  -7   1   65.42    6.00
  -6   7  -1   57.48    5.42
   6  -7   2   56.36    5.12
   6  -7   2   53.08    4.26
  -6   7  -2   54.46    4.05
   6  -7   2   55.14    5.54
  -6   7  -2   49.62    5.02
  -6   7  -3  145.19    8.82
   6  -7   3  140.61    7.32
   6  -7   3  133.44    8.39
  -6   7  -3  133.59    7.19
  -6   7  -4   -0.77    1.75
   6  -7   4    0.44    1.20
   6  -7   4    0.07    2.08
  -6   7  -5  138.96    8.95
   6  -7   5  143.99    8.44
   6  -7   5  140.00    8.90
  -6   7  -5  146.03    8.55
  -6   7  -6  471.17   16.39
   6  -7   6  453.30   15.75
   6  -7   6  480.77   16.41
  -6   7  -6  508.56   16.81
  -6   7  -7    0.89    1.91
  -6   7  -7    1.78    1.85
   6  -7   7   -2.32    1.97
   6  -7   7    0.91    1.96
  -6   7  -8   -1.56    1.46
   6  -7   8   -3.16    2.01
   6  -7   8    1.04    1.82
  -6   7  -8   -0.88    1.54
  -6   7  -9   30.48    4.58
   6  -7   9   26.96    4.59
   6  -7   9   25.26    4.33
  -6   7  -9   29.82    5.05
  -6   7 -10   -1.90    1.87
   6  -7  10   -0.99    2.19
   6  -7  11    8.90    2.93
  -6   7 -11   13.27    4.06
   6  -6 -10    0.32    1.54
  -6   6  10   -3.98    2.71
   6  -6  -9    1.40    2.00
  -6   6   9    2.14    2.18
   6  -6  -8    1.79    1.74
  -6   6   8    0.53    1.70
   6  -6  -8    2.70    1.81
  -6   6   8    2.91    1.84
   6  -6  -8    3.85    2.19
   6  -6  -7   10.29    2.73
  -6   6   7    9.99    2.87
   6  -6  -7   11.86    2.88
   6  -6  -7   11.40    2.72
  -6   6   7   15.95    3.52
  -6   6   6    7.75    2.37
   6  -6  -6   12.05    2.68
   6  -6  -6    9.40    2.68
   6  -6  -6    8.82    2.49
  -6   6   6   13.82    3.24
   6  -6  -5  103.00    6.67
   6  -6  -5  112.71    7.44
   6  -6  -5  115.61    7.13
  -6   6   5  115.38    7.79
   6  -6  -4   25.44    3.21
   6  -6  -4   28.45    3.87
   6  -6  -4   25.36    3.22
  -6   6   4   31.34    4.25
   6  -6  -3   28.42    3.83
   6  -6  -3   19.76    2.64
  -6   6   3   33.11    4.22
   6  -6  -2   12.57    2.70
  -6   6   2   14.78    2.98
   6  -6  -1   12.92    2.75
  -6   6   1   13.06    2.80
   6  -6   0  195.56    8.99
   6  -6   0  207.25    9.71
  -6   6   0  193.99    7.49
  -6   6   0  194.57    9.18
   6  -6   1  112.10    6.78
   6  -6   1  109.80    5.41
   6  -6   1  110.50    7.19
  -6   6  -1  120.90    6.23
  -6   6  -1  115.38    7.08
  -6   6  -2    1.83    1.16
  -6   6  -2    2.04    1.50
   6  -6   2    1.49    0.83
   6  -6   2    1.34    1.84
  -6   6  -2    0.55    0.98
   6  -6   2   -0.44    1.31
   6  -6   3   43.54    4.21
   6  -6   3   41.85    4.12
   6  -6   3   41.05    4.46
  -6   6  -3   40.33    4.12
  -6   6  -3   39.74    4.21
  -6   6  -4   -0.40    1.21
  -6   6  -4    1.18    1.79
   6  -6   4    2.89    1.34
   6  -6   4    2.26    1.93
   6  -6   4    0.76    1.20
  -6   6  -5   20.03    3.46
  -6   6  -5   15.42    2.94
   6  -6   5   21.24    3.33
   6  -6   5   20.46    3.45
   6  -6   5   18.68    2.59
  -6   6  -6   27.68    4.41
  -6   6  -6   23.01    3.69
   6  -6   6   25.20    3.91
   6  -6   6   21.43    3.65
   6  -6   6   21.37    2.94
  -6   6  -7  436.85   15.21
   6  -6   7  415.21   15.72
   6  -6   7  430.96   14.82
  -6   6  -7  405.65   16.04
  -6   6  -8   46.45    5.92
  -6   6  -8   42.93    5.02
   6  -6   8   36.49    5.25
   6  -6   8   40.56    4.89
  -6   6  -9   37.90    5.96
  -6   6  -9   41.80    5.11
   6  -6   9   31.72    5.10
  -6   6 -10   19.89    3.60
   6  -6  10   22.92    4.67
   6  -6  11    2.89    2.38
  -6   6 -11    2.67    2.55
   6  -5 -11   -0.14    2.07
  -6   5  11    1.92    1.94
   6  -5 -10   65.94    7.32
  -6   5  10   72.16    7.56
   6  -5  -9   47.69    5.97
   6  -5  -9   43.35    4.93
   6  -5  -9   51.02    6.08
  -6   5   9   58.00    6.69
  -6   5   9   49.88    5.47
   6  -5  -8   11.35    2.66
   6  -5  -8   12.11    3.23
  -6   5   8   14.50    2.87
   6  -5  -8    8.14    2.45
   6  -5  -7   29.51    4.18
   6  -5  -7   39.73    4.56
  -6   5   7   38.49    4.64
   6  -5  -7   34.35    4.37
   6  -5  -6    2.60    1.56
  -6   5   6    0.86    1.60
   6  -5  -6    1.11    1.33
   6  -5  -6    4.27    1.83
  -6   5   5  136.30    8.12
   6  -5  -5  141.45    7.52
   6  -5  -5  142.33    7.98
   6  -5  -5  152.46    7.70
  -6   5   4  310.82   11.89
   6  -5  -4  289.04    9.83
   6  -5  -4  307.03   11.40
   6  -5  -4  291.93    9.70
  -6   5   3   75.62    5.84
   6  -5  -3   73.90    4.60
   6  -5  -3   73.04    5.77
   6  -5  -3   77.70    4.49
  -6   5   2  217.59    9.51
   6  -5  -2  209.74    6.94
   6  -5  -2  211.50    9.16
   6  -5  -1   53.43    3.14
   6  -5  -1   59.51    4.96
   6  -5  -1   61.85    3.41
  -6   5   1   65.06    5.25
   6  -5   0   30.93    3.60
   6  -5   0   27.81    2.63
   6  -5   0   32.24    3.85
  -6   5   0   29.45    3.57
   6  -5   1  111.21    6.30
   6  -5   1  114.26    5.57
   6  -5   1  112.22    6.73
  -6   5  -1  115.60    6.36
  -6   5  -1  109.23    6.45
   6  -5   2  188.77    8.06
   6  -5   2  178.70    7.58
   6  -5   2  182.04    8.47
  -6   5  -2  176.67    8.13
  -6   5  -2  188.34    8.27
  -6   5  -3   29.87    3.67
   6  -5   3   29.84    3.34
   6  -5   3   28.26    3.40
   6  -5   3   34.13    3.86
  -6   5  -3   32.62    3.52
  -6   5  -4  101.56    6.76
   6  -5   4   97.23    5.65
   6  -5   4   92.58    6.26
   6  -5   4   90.00    6.06
  -6   5  -4   97.83    6.86
  -6   5  -4   98.93    5.90
   6  -5   5   24.80    2.90
  -6   5  -5   23.56    3.59
  -6   5  -5   23.35    3.55
   6  -5   5   21.81    3.43
   6  -5   5   32.07    3.83
  -6   5  -6   -0.08    1.98
  -6   5  -6    0.56    1.55
   6  -5   6   -0.51    1.48
   6  -5   6    0.52    1.35
  -6   5  -7   57.46    5.40
   6  -5   7   51.69    5.70
   6  -5   7   59.11    5.18
  -6   5  -7   60.52    6.48
  -6   5  -8   78.41    6.36
   6  -5   8   79.63    7.35
  -6   5  -8   91.51    8.25
  -6   5  -9   96.00    7.05
   6  -5   9   94.74    8.44
  -6   5  -9   93.72    8.78
  -6   5 -10   17.18    4.79
   6  -5  10   20.18    4.40
   6  -5  11    0.31    2.00
  -6   5 -11    0.42    1.73
   6  -4 -11   15.50    4.17
  -6   4  11   16.17    3.95
   6  -4 -10   -0.86    1.84
   6  -4  -9   16.92    3.80
  -6   4   9   14.33    3.04
   6  -4  -9   13.01    2.88
  -6   4   8   62.16    5.72
   6  -4  -8   62.46    6.11
   6  -4  -8   54.19    5.24
  -6   4   7   46.04    4.89
   6  -4  -7   42.43    4.84
   6  -4  -7   42.14    4.52
   6  -4  -6   10.51    2.43
  -6   4   6   12.69    2.77
   6  -4  -6    6.35    2.08
   6  -4  -5    1.69    1.48
  -6   4   5    0.01    1.34
   6  -4  -5   -0.34    1.79
  -6   4   4  193.85    8.94
   6  -4  -4  183.81    7.75
   6  -4  -4  189.71    8.69
   6  -4  -3    5.18    1.58
   6  -4  -3    5.51    2.04
  -6   4   3    4.87    2.09
  -6   4   2 1081.85   20.03
   6  -4  -2 1063.14   15.57
   6  -4  -2 1099.73   19.84
   6  -4  -2 1095.31   14.01
  -6   4   1  552.03   14.09
   6  -4  -1  566.05   10.33
   6  -4  -1  562.28   13.80
   6  -4  -1  573.29   11.06
  -6   4   0  297.10   10.11
   6  -4   0  291.14    6.65
   6  -4   0  284.26    9.70
   6  -4   0  307.34    8.74
  -6   4  -1   53.30    4.34
   6  -4   1   60.71    4.52
   6  -4   1   60.31    4.23
   6  -4   1   63.19    4.72
   6  -4   2  162.90    7.10
   6  -4   2  163.39    7.35
   6  -4   2  155.22    7.18
  -6   4  -2  157.54    7.90
  -6   4  -2  155.43    7.11
  -6   4  -3    5.64    1.93
   6  -4   3    3.72    1.53
   6  -4   3    3.92    1.66
  -6   4  -3    5.33    1.53
   6  -4   3    3.40    1.46
  -6   4  -4    2.43    2.17
   6  -4   4    3.54    1.29
  -6   4  -4    2.08    1.11
   6  -4   4    3.16    1.67
   6  -4   4    4.19    1.66
  -6   4  -5   40.67    4.25
  -6   4  -5   41.19    4.97
   6  -4   5   45.79    3.54
   6  -4   5   45.38    4.80
   6  -4   5   40.20    3.84
  -6   4  -5   44.39    3.67
  -6   4  -6   41.74    4.33
  -6   4  -6   39.67    5.15
   6  -4   6   40.09    4.82
   6  -4   6   43.59    4.10
  -6   4  -7  101.73    6.64
   6  -4   7   92.75    7.43
  -6   4  -7   93.34    7.99
  -6   4  -8   54.02    4.88
  -6   4  -8   48.69    6.06
   6  -4   8   52.81    6.09
   6  -4   9  118.05    9.38
  -6   4  -9  115.35    9.80
   6  -4  10  139.60   10.58
  -6   4 -10  134.80   11.06
   6  -4  11   12.48    3.70
  -6   4 -11   12.42    4.32
   6  -3 -12   12.68    3.86
   6  -3 -11   22.13    4.34
   6  -3 -10   20.45    4.24
  -6   3  10   18.71    3.42
   6  -3 -10   14.44    2.93
   6  -3  -9   19.70    3.41
   6  -3  -9   15.44    3.37
  -6   3   9   21.09    3.57
   6  -3  -8   -2.60    1.83
  -6   3   8   -0.02    1.39
   6  -3  -8   -0.87    1.46
   6  -3  -7    3.33    2.05
   6  -3  -7    0.02    1.46
  -6   3   7    0.34    1.24
  -6   3   6   62.10    5.35
   6  -3  -6   57.96    5.02
   6  -3  -6   63.79    5.22
   6  -3  -5   17.33    2.94
   6  -3  -5   15.77    2.62
  -6   3   5   18.59    2.96
  -6   3   4  305.13   11.01
   6  -3  -4  318.76   10.28
   6  -3  -4  315.63   10.80
  -6   3   3  372.29   11.65
   6  -3  -3  360.59   10.12
   6  -3  -3  367.43    8.80
   6  -3  -3  374.11   11.38
  -6   3   2   50.41    4.49
   6  -3  -2   51.70    3.68
   6  -3  -2   53.71    3.51
   6  -3  -2   46.91    4.18
  -6   3   1  518.75   12.99
   6  -3  -1  497.79   10.25
   6  -3  -1  513.15   11.19
   6  -3  -1  484.57   12.44
   6  -3   0  634.80   13.70
  -6   3   0  621.29   13.99
   6  -3   0  612.14   10.71
   6  -3   0  654.77   13.35
  -6   3  -1  244.78    8.58
   6  -3   1  230.79    6.29
   6  -3   1  234.40    8.45
   6  -3   1  234.84    8.18
  -6   3  -2   11.50    2.55
   6  -3   2   12.03    2.26
   6  -3   2   12.07    1.52
  -6   3  -2   11.31    2.01
   6  -3   2   11.56    1.97
   6  -3   2   11.25    2.03
   6  -3   3   98.51    6.24
   6  -3   3   99.61    5.08
   6  -3   3   95.74    5.19
  -6   3  -3   98.63    6.71
  -6   3  -3   98.42    5.22
   6  -3   4   67.51    5.49
   6  -3   4   65.46    4.05
   6  -3   4   66.38    4.35
  -6   3  -4   62.40    5.68
  -6   3  -4   63.17    4.08
  -6   3  -5    8.86    2.86
  -6   3  -5    5.43    1.70
  -6   3  -5    7.39    1.51
   6  -3   5    5.97    2.04
   6  -3   5    7.57    1.81
  -6   3  -6   16.47    3.70
  -6   3  -6   18.97    2.80
   6  -3   6   16.09    3.38
  -6   3  -7   36.76    3.82
  -6   3  -7   43.16    5.69
   6  -3   7   33.01    4.58
   6  -3   8  137.39    9.59
  -6   3  -8  158.18   10.85
  -6   3  -9    3.98    2.57
   6  -3   9   -1.22    1.68
  -6   3 -10    1.31    2.53
   6  -3  10   -0.67    2.05
  -6   3 -11   40.45    6.58
   6  -3  11   43.49    6.38
   6  -2 -12   -1.11    2.60
   6  -2 -11   10.85    3.06
   6  -2 -10    0.02    1.33
   6  -2 -10    3.21    2.46
  -6   2  10    5.96    2.02
  -6   2   9   51.51    5.10
   6  -2  -9   41.27    5.33
   6  -2  -9   45.11    4.83
   6  -2  -8    0.09    1.67
   6  -2  -8   -0.11    1.20
  -6   2   8    0.07    1.47
  -6   2   7   45.03    4.58
   6  -2  -7   42.76    4.77
   6  -2  -7   42.46    4.42
   6  -2  -6    0.06    1.40
   6  -2  -6    1.94    1.56
  -6   2   6    0.24    1.34
   6  -2  -5    1.73    1.62
   6  -2  -5    1.86    1.53
  -6   2   5    0.66    1.70
  -6   2   4   96.18    6.10
   6  -2  -4  106.29    6.07
   6  -2  -4  105.94    5.25
   6  -2  -4  109.84    6.31
  -6   2   3  926.01   17.95
   6  -2  -3  904.61   16.40
   6  -2  -3  943.97   15.47
   6  -2  -3  964.27   17.81
  -6   2   2  665.70   14.78
   6  -2  -2  656.85   13.13
   6  -2  -2  647.60   13.01
   6  -2  -2  660.05   14.39
   6  -2  -1    9.39    2.01
   6  -2  -1    7.27    1.67
   6  -2  -1    6.46    1.50
  -6   2   1    9.18    2.04
   6  -2   0    6.23    1.62
   6  -2   0    3.64    1.41
   6  -2   0    4.12    1.15
  -6   2   0    2.51    1.21
   6  -2   1    3.43    1.60
   6  -2   1    1.15    0.87
  -6   2  -1    1.56    1.08
   6  -2   1    2.13    1.12
   6  -2   2    0.80    0.94
   6  -2   2    0.50    1.10
  -6   2  -2    1.26    1.03
  -6   2  -3   57.42    3.81
   6  -2   3   53.28    3.56
   6  -2   3   53.21    4.76
  -6   2  -3   60.84    5.46
   6  -2   4  134.95    7.90
   6  -2   4  139.68    5.43
  -6   2  -4  153.15    8.93
  -6   2  -4  146.23    5.75
  -6   2  -5   85.11    5.27
   6  -2   5   73.14    6.09
  -6   2  -5   87.56    7.16
  -6   2  -6   11.52    3.27
  -6   2  -6   15.45    2.39
   6  -2   6    7.60    2.53
   6  -2   7   60.78    6.19
  -6   2  -7   58.45    6.61
   6  -2   8   65.34    6.73
  -6   2  -8   71.17    7.54
  -6   2  -9   38.60    6.07
   6  -2   9   46.10    5.96
  -6   2 -10    0.76    2.39
   6  -2  10    2.13    2.33
  -6   2 -11   -0.51    2.16
   6  -2  11    1.91    2.16
  -6   1  13    1.25    2.38
   6  -1 -12  119.69    9.91
  -6   1  12  116.93    9.71
   6  -1 -11   32.91    5.25
  -6   1  11   38.50    4.77
  -6   1  11   42.36    5.83
  -6   1  10    3.18    1.59
  -6   1  10   -0.53    1.77
   6  -1  -9    3.88    2.26
  -6   1   9    5.16    1.95
  -6   1   9    8.15    2.77
   6  -1  -9    5.50    1.99
  -6   1   8   71.36    5.87
   6  -1  -8   72.47    6.47
   6  -1  -8   66.08    5.61
   6  -1  -7   22.46    3.33
   6  -1  -7   25.73    3.79
  -6   1   7   21.97    3.37
  -6   1   6  282.99   10.95
   6  -1  -6  274.43   10.89
   6  -1  -6  275.57   10.52
  -6   1   5  338.18   11.64
   6  -1  -5  312.36   11.07
   6  -1  -5  337.95   11.26
  -6   1   4  101.39    6.23
   6  -1  -4  107.65    6.22
   6  -1  -4  105.19    5.72
   6  -1  -4  107.41    6.22
   6  -1  -3    0.05    1.19
  -6   1   3   -0.06    1.37
   6  -1  -3    2.71    1.52
   6  -1  -3    0.10    1.15
   6  -1  -2  325.87    9.82
   6  -1  -2  318.23    9.87
   6  -1  -2  336.57   10.27
  -6   1   1  387.56   10.95
   6  -1  -1  394.34   10.44
   6  -1  -1  379.74   10.98
   6  -1  -1  388.73   10.63
   6  -1   0    3.45    1.67
   6  -1   0    2.09    1.14
   6  -1   0    2.08    1.25
  -6   1   0    2.08    1.10
   6  -1   1   13.78    2.47
  -6   1  -1   15.86    2.16
   6  -1   1   16.86    2.21
  -6   1  -2  164.00    6.38
   6  -1   2  168.03    8.13
  -6   1  -2  166.28    5.35
   6  -1   2  174.14    6.46
  -6   1  -3   18.09    3.43
   6  -1   3   17.27    3.11
   6  -1   3   15.73    2.00
  -6   1  -3   18.03    2.14
  -6   1  -3   14.67    1.88
  -6   1  -4    8.92    2.86
   6  -1   4   13.75    3.00
   6  -1   5  261.73   11.53
  -6   1  -5  270.24    8.47
  -6   1  -5  267.12   12.42
   6  -1   6  195.97   10.61
  -6   1  -6  206.73   11.50
  -6   1  -7   33.70    5.18
   6  -1   7   27.86    4.41
  -6   1  -8    5.14    2.65
   6  -1   8    4.53    2.41
  -6   1  -9   -0.33    1.97
   6  -1   9   -0.17    1.69
  -6   1 -10    3.62    2.47
   6  -1  10    2.70    2.34
  -6   1 -11    5.99    3.13
   6  -1  11    6.90    2.76
  -6   0  13    3.37    2.45
   6   0 -12   -0.98    2.30
  -6   0  12    4.40    2.40
  -6   0  11  113.17    8.10
   6   0 -11   99.76    8.68
  -6   0  11  105.10    8.50
   6   0 -10   46.54    5.80
  -6   0  10   34.44    4.54
  -6   0  10   36.89    4.85
  -6   0   9   47.98    5.06
   6   0  -9   44.51    5.52
  -6   0   9   44.64    4.57
  -6   0   9   47.67    5.13
   6   0  -8    0.48    1.70
  -6   0   8   -2.80    1.69
  -6   0   8   -0.17    1.45
  -6   0   8    0.11    1.31
   6   0  -7   -0.81    1.97
  -6   0   7    0.56    1.66
   6   0  -6   29.91    3.93
   6   0  -6   32.06    3.79
  -6   0   6   31.95    3.96
  -6   0   5  185.11    8.65
   6   0  -5  187.75    8.86
   6   0  -5  180.46    8.42
  -6   0   4  200.33    8.74
   6   0  -4  202.34    8.76
   6   0  -4  191.81    8.34
   6   0  -4  193.22    8.42
  -6   0   3   75.73    5.28
   6   0  -3   77.70    5.29
   6   0  -3   69.98    5.09
   6   0  -3   70.88    5.04
   6   0  -2   15.50    2.46
   6   0  -2   20.14    2.90
   6   0  -2   22.58    3.01
  -6   0   2   20.85    2.76
   6   0  -1    1.02    1.42
   6   0  -1    1.74    1.25
   6   0  -1    2.38    1.30
  -6   0   1    3.25    1.51
  -6   0   0  165.03    6.93
   6   0   0  163.79    7.89
   6   0   0  163.25    6.76
   6   0   1   16.89    2.21
   6   0   1   21.22    3.27
  -6   0  -1   15.22    2.14
  -6   0  -2  177.34    6.68
   6   0   2  167.80    8.53
  -6   0  -2  168.74    7.26
  -6   0  -3   61.05    3.72
  -6   0  -3   66.00    4.33
  -6   0  -3   60.51    4.45
   6   0   3   66.22    5.68
  -6   0  -3   55.88    5.57
   6   0   4   51.79    5.20
  -6   0  -4   49.91    4.12
  -6   0  -4   50.75    3.94
  -6   0  -4   51.09    5.61
  -6   0  -5    4.49    2.50
   6   0   5    2.72    1.90
  -6   0  -5    4.57    1.59
   6   0   5    3.36    1.38
   6   0   6  166.90    9.93
  -6   0  -6  171.97   10.72
   6   0   7   76.26    7.15
  -6   0  -7   62.29    6.89
  -6   0  -8   10.45    3.49
   6   0   8    9.48    2.80
  -6   0  -9    6.04    3.19
   6   0   9   12.05    3.54
  -6   0 -10    4.45    2.95
   6   0  10    1.30    1.78
  -6  -1  13    3.51    2.13
   6   1 -12    7.66    3.15
  -6  -1  12   19.74    3.75
  -6  -1  12   19.40    4.19
   6   1 -11   13.31    3.63
  -6  -1  11   13.79    3.09
  -6  -1  11   10.80    2.90
  -6  -1  10  152.80    9.34
   6   1 -10  129.58    9.47
  -6  -1  10  133.82    8.70
  -6  -1   9   12.43    2.72
   6   1  -9   14.75    3.50
  -6  -1   9   11.24    2.76
  -6  -1   9   14.65    3.21
  -6  -1   8   53.42    5.44
   6   1  -8   49.56    5.58
  -6  -1   8   50.14    4.98
  -6  -1   8   56.59    5.00
  -6  -1   7   77.45    6.17
   6   1  -7   78.03    6.54
  -6  -1   7   82.07    6.04
  -6  -1   7   80.27    5.46
  -6  -1   6  384.26   13.01
   6   1  -6  365.90   13.17
  -6  -1   6  348.57   12.08
  -6  -1   5   21.62    3.20
   6   1  -5   22.74    3.51
  -6  -1   5   18.84    3.12
  -6  -1   4  123.94    7.05
   6   1  -4  117.78    7.06
   6   1  -4  119.56    7.06
  -6  -1   4  124.99    7.18
  -6  -1   3   39.07    3.91
   6   1  -3   39.02    4.07
   6   1  -3   36.37    3.96
  -6  -1   3   37.52    4.07
  -6  -1   2   15.43    2.53
   6   1  -2   16.20    2.81
   6   1  -2   16.07    2.69
  -6  -1   2   17.88    2.93
  -6  -1   1   52.14    4.26
   6   1  -1   56.43    4.99
  -6  -1   1   61.22    4.82
  -6  -1   0   49.37    4.01
   6   1   0   46.26    4.56
  -6  -1   0   45.50    4.15
  -6  -1  -1   79.27    4.79
   6   1   1   64.48    5.52
  -6  -1  -1   66.19    4.88
   6   1   2   12.28    2.91
  -6  -1  -2   17.84    2.72
  -6  -1  -2   16.14    2.20
   6   1   3   71.63    5.35
   6   1   3   64.49    5.84
  -6  -1  -3   63.47    4.81
  -6  -1  -3   66.33    4.82
  -6  -1  -3   69.27    6.35
  -6  -1  -4   44.70    5.38
   6   1   4   51.79    4.67
   6   1   4   43.48    5.01
  -6  -1  -4   51.73    4.64
  -6  -1  -4   46.75    4.07
  -6  -1  -5    1.95    1.82
   6   1   5    5.34    1.88
   6   1   5    5.28    2.43
  -6  -1  -5    3.11    1.94
   6   1   6    4.12    2.26
  -6  -1  -6   -0.20    1.92
  -6  -1  -6    4.39    1.84
  -6  -1  -7   26.61    4.70
   6   1   7   18.82    3.78
  -6  -1  -8    4.38    2.86
   6   1   8    2.47    1.98
  -6  -1  -9   31.27    5.52
   6   1   9   33.42    5.32
  -6  -1 -10   -1.01    2.21
   6   1  10    1.12    2.09
  -6  -2  13   17.10    4.02
   6   2 -12    6.98    3.24
  -6  -2  12    7.30    2.90
  -6  -2  12   11.00    2.20
  -6  -2  12    4.19    2.63
  -6  -2  11   48.21    5.61
  -6  -2  11   45.52    5.49
   6   2 -10    3.90    2.63
  -6  -2  10   -0.32    1.56
  -6  -2  10    1.31    1.56
  -6  -2  10    2.32    1.62
   6   2  -9   56.07    6.15
  -6  -2   9   51.82    5.50
  -6  -2   9   54.10    5.42
  -6  -2   9   56.99    5.20
  -6  -2   8    1.28    1.59
  -6  -2   8   -0.77    1.44
   6   2  -8    1.54    1.81
   6   2  -7   91.97    7.22
  -6  -2   7   77.75    6.28
  -6  -2   7   73.79    5.95
   6   2  -6   76.45    6.32
  -6  -2   6   66.21    5.63
   6   2  -5  323.52   12.34
  -6  -2   5  305.24   11.64
   6   2  -4    2.35    1.64
   6   2  -4   -1.20    1.78
  -6  -2   4    0.21    1.57
   6   2  -3    8.62    2.56
   6   2  -3   11.44    2.61
  -6  -2   3   12.36    2.71
   6   2  -2  182.02    8.94
   6   2  -2  178.84    9.14
  -6  -2   2  187.02    8.77
   6   2  -1   91.17    6.58
  -6  -2   1   84.99    5.94
   6   2   0    9.98    2.68
  -6  -2   0    9.14    2.16
  -6  -2  -1   -0.11    1.07
   6   2   1   -0.97    2.08
   6   2   1    1.13    1.45
  -6  -2  -1    1.46    1.32
   6   2   2   13.72    2.73
  -6  -2  -2   14.76    2.68
   6   2   2   14.13    3.18
  -6  -2  -2   12.45    2.02
  -6  -2  -3    3.24    2.01
   6   2   3    7.84    2.29
   6   2   3    4.51    2.25
  -6  -2  -3    8.23    2.15
  -6  -2  -3    7.47    2.00
  -6  -2  -4   33.79    4.77
   6   2   4   28.87    4.33
   6   2   4   27.28    3.74
  -6  -2  -4   31.46    4.05
  -6  -2  -4   29.89    3.43
  -6  -2  -5   24.23    4.37
   6   2   5   20.17    3.94
   6   2   5   23.86    3.57
  -6  -2  -5   28.78    4.11
  -6  -2  -6    1.37    1.83
   6   2   6   -1.97    2.00
  -6  -2  -6    3.94    2.21
  -6  -2  -7   18.17    4.05
   6   2   7   11.23    3.28
  -6  -2  -7   21.37    3.81
  -6  -2  -8   14.60    4.33
   6   2   8   17.32    4.03
  -6  -2  -9   21.03    4.57
   6   2   9   22.76    4.57
   6   3 -12    8.95    3.25
  -6  -3  12    1.68    2.26
  -6  -3  12    4.35    1.95
   6   3 -11    9.98    3.34
  -6  -3  11    2.96    2.34
  -6  -3  11    3.43    2.24
  -6  -3  10    0.28    1.52
   6   3 -10    4.46    2.53
  -6  -3  10    0.23    1.82
  -6  -3  10   -0.46    1.56
   6   3  -9    1.25    1.90
  -6  -3   9    1.26    1.89
  -6  -3   9    1.24    1.57
   6   3  -8    1.47    1.78
  -6  -3   8   -0.52    1.71
  -6  -3   8   -1.63    1.73
   6   3  -7    2.24    1.99
  -6  -3   7    4.49    1.92
  -6  -3   7    1.74    1.60
   6   3  -6  381.71   14.33
  -6  -3   6  391.75   13.23
  -6  -3   6  366.29   13.54
   6   3  -5    0.89    1.99
  -6  -3   5   -1.75    1.39
  -6  -3   5    0.33    2.06
   6   3  -4   65.43    5.95
   6   3  -4   65.83    6.07
  -6  -3   4   66.11    4.87
  -6  -3   4   68.03    5.88
   6   3  -3   24.91    3.92
   6   3  -3   17.78    3.44
  -6  -3   3   21.52    2.74
  -6  -3   3   23.38    3.64
   6   3  -2    2.33    2.15
  -6  -3   2    4.42    2.24
   6   3  -1   40.73    4.83
  -6  -3   1   38.80    4.47
   6   3   0  127.07    8.07
   6   3   0  130.52    8.32
  -6  -3   0  119.04    7.35
   6   3   1   17.03    3.23
   6   3   1   22.45    3.83
  -6  -3  -1   18.73    3.16
   6   3   2    3.20    1.90
   6   3   2    2.91    2.18
  -6  -3  -2    3.89    1.74
  -6  -3  -3    1.69    2.05
   6   3   3    1.72    1.89
   6   3   3    3.59    1.80
  -6  -3  -3    5.80    1.99
  -6  -3  -4   31.78    4.86
   6   3   4   29.38    4.55
   6   3   4   40.91    4.85
  -6  -3  -4   32.46    4.51
   6   3   5   56.13    5.75
   6   3   5   57.20    6.30
  -6  -3  -5   50.30    5.64
  -6  -3  -5   59.60    6.53
  -6  -3  -6    0.41    1.94
   6   3   6   -0.55    1.77
   6   3   6    2.76    1.87
  -6  -3  -6    4.44    2.22
  -6  -3  -7   18.32    4.07
   6   3   7   16.45    3.99
  -6  -3  -7   27.05    4.90
  -6  -3  -8   11.39    3.88
   6   3   8   12.30    3.44
   6   4 -12    0.05    2.32
  -6  -4  12   -0.29    1.02
  -6  -4  11   14.57    3.77
   6   4 -11   13.23    3.61
  -6  -4  11   10.35    3.34
   6   4 -10    0.24    1.77
  -6  -4  10   -1.84    2.00
  -6  -4  10   -5.37    2.42
   6   4  -9   -1.15    1.91
  -6  -4   9   -0.92    1.76
  -6  -4   9   -1.67    1.79
   6   4  -8   18.27    3.89
  -6  -4   8   12.05    3.06
  -6  -4   8   17.09    3.55
   6   4  -7    2.93    2.25
  -6  -4   7   -0.36    1.71
  -6  -4   7    1.55    2.04
   6   4  -6   44.97    5.38
  -6  -4   6   46.24    4.80
  -6  -4   6   41.66    4.98
   6   4  -5   58.68    5.92
  -6  -4   5   56.45    5.07
  -6  -4   5   50.30    5.42
   6   4  -4  117.66    8.23
  -6  -4   4  115.07    6.67
  -6  -4   4  112.65    7.89
   6   4  -3  119.96    8.29
   6   4  -3  126.58    8.79
  -6  -4   3  117.27    7.95
   6   4  -2  110.08    8.16
  -6  -4   2  106.98    7.51
   6   4  -1    2.87    2.02
   6   4  -1    2.68    2.08
  -6  -4   1    1.28    1.89
   6   4   0    2.04    1.91
   6   4   0    4.67    2.28
  -6  -4   0    7.71    2.38
   6   4   1   36.27    4.78
   6   4   1   32.85    4.77
  -6  -4  -1   34.49    4.32
   6   4   2   16.09    3.48
   6   4   2   21.00    3.83
  -6  -4  -2   12.80    2.88
  -6  -4  -3   25.29    4.19
   6   4   3   25.78    4.31
   6   4   3   30.30    4.61
  -6  -4  -3   22.07    3.60
  -6  -4  -4    0.28    1.28
   6   4   4   -4.10    2.28
   6   4   4   -1.51    1.66
  -6  -4  -4   -1.79    1.97
  -6  -4  -5   31.23    4.97
   6   4   5   34.30    5.01
  -6  -4  -5   30.82    4.83
   6   4   5   29.54    4.92
   6   4   6   27.19    4.74
   6   4   6   38.54    5.34
  -6  -4  -6   32.31    5.50
   6   4   7    2.17    2.08
  -6  -4  -7    5.35    2.67
   6   4   8   14.82    4.00
   6   5 -11    3.79    2.72
  -6  -5  11   10.30    3.85
   6   5 -10    9.05    3.36
  -6  -5  10   10.02    3.02
  -6  -5  10    8.07    2.90
   6   5  -9   27.61    4.97
  -6  -5   9   28.59    4.81
  -6  -5   9   27.60    4.50
   6   5  -8   26.14    4.55
  -6  -5   8   27.97    4.48
  -6  -5   8   29.98    4.61
   6   5  -7   13.46    3.42
  -6  -5   7   14.80    3.35
  -6  -5   7   19.73    3.73
   6   5  -6   10.89    2.92
  -6  -5   6    3.65    1.85
  -6  -5   6    7.25    2.58
   6   5  -5    9.73    3.02
  -6  -5   5   10.01    2.48
  -6  -5   5    4.62    2.26
   6   5  -4    0.01    1.93
  -6  -5   4    1.13    2.33
   6   5  -3   28.10    4.66
   6   5  -3   34.14    4.82
  -6  -5   3   28.71    4.35
   6   5  -2   92.63    7.92
  -6  -5   2   88.65    7.33
   6   5  -1   10.59    2.97
   6   5  -1    8.16    2.85
  -6  -5   1    7.38    2.64
   6   5   0    4.69    2.10
   6   5   0    4.95    2.87
  -6  -5   0    3.76    2.43
   6   5   1    4.53    2.50
   6   5   1    2.30    1.99
  -6  -5  -1    4.62    2.25
  -6  -5  -2    7.55    2.39
   6   5   2   13.33    3.60
   6   5   2   16.15    3.71
  -6  -5  -2   11.37    3.18
  -6  -5  -3   42.71    5.73
   6   5   3   52.04    6.19
   6   5   3   42.59    5.75
  -6  -5  -3   51.72    6.23
  -6  -5  -3   48.78    5.55
   6   5   4   26.19    4.63
   6   5   4   35.78    5.40
  -6  -5  -4   23.51    4.55
   6   5   5   16.67    3.87
  -6  -5  -5   13.21    3.68
   6   5   6   12.93    3.58
   6   5   6   15.81    3.89
  -6  -5  -6   12.88    4.26
   6   6 -10   14.61    4.05
  -6  -6  10   22.33    4.82
  -6  -6  10   20.76    4.23
   6   6  -9   24.52    4.68
  -6  -6   9   15.37    3.86
  -6  -6   9   21.25    4.31
   6   6  -8   57.39    6.81
  -6  -6   8   38.11    5.40
  -6  -6   8   50.38    6.46
   6   6  -7    1.64    1.95
  -6  -6   7    1.56    1.87
   6   6  -6   15.72    3.72
  -6  -6   6    7.05    2.69
   6   6  -5   35.65    5.18
  -6  -6   5   35.47    5.49
   6   6  -4    5.29    2.62
  -6  -6   4    2.06    2.41
   6   6  -3    7.71    2.87
  -6  -6   3    6.52    2.61
   6   6  -2   16.79    3.73
   6   6  -2   16.47    3.80
  -6  -6   2   10.69    3.11
   6   6  -1   53.72    6.54
   6   6  -1   42.92    5.93
  -6  -6   1   36.50    5.26
   6   6   0   58.84    6.81
   6   6   0   58.73    6.88
  -6  -6   0   46.74    5.73
   6   6   1  219.06   12.90
   6   6   1  227.98   12.98
  -6  -6  -1  206.77   11.77
   6   6   2    0.13    2.17
   6   6   2    1.57    1.97
  -6  -6  -2   -0.96    2.12
   6   6   3    8.27    3.17
   6   6   3   10.77    3.24
   6   6   4    8.11    3.18
   6   6   4    4.04    2.50
  -6  -6  -4    2.90    2.50
   6   6   5   -5.68    2.69
   6   7  -9   56.94    7.07
  -6  -7   9   46.60    6.35
  -6  -7   9   59.97    7.49
   6   7  -8   32.81    5.35
  -6  -7   8   32.34    5.19
  -6  -7   8   34.49    6.01
   6   7  -7    6.48    2.64
  -6  -7   7    1.94    2.50
   6   7  -6    7.49    2.92
  -6  -7   6   -2.27    2.66
  -6  -7   5    3.41    2.57
   6   7  -5   -0.09    2.10
   6   7  -4   30.21    5.28
  -6  -7   4   30.32    5.22
   6   7  -3   -2.60    2.18
  -6  -7   3    1.08    2.14
   6   7  -2    3.24    2.13
  -6  -7   2    4.23    2.87
   6   7  -1    2.12    2.17
  -6  -7   1    3.11    2.55
   6   7   0    6.36    3.04
   6   7   0   14.60    3.99
  -6  -7   0   10.76    3.36
   6   7   1   14.54    4.14
   6   7   1   12.25    3.64
  -6  -7  -1    7.29    3.38
   6   7   2  146.17   11.52
   6   7   2  142.93   10.84
  -6  -7  -2  114.67    9.45
   6   7   3   10.09    3.28
   6   8  -6   15.85    4.12
   6   8  -5    0.74    2.19
   6   8  -4    3.46    2.56
   6   8  -3   24.76    4.85
  -6  -8   3   19.94    4.93
  -6  -8   2   28.90    5.42
  -7  11   3    4.84    2.31
  -7  11   2   14.55    3.69
  -7  11   1   17.45    3.84
   7 -11  -1   27.83    4.76
  -7  11   0    7.25    2.84
   7 -11   0   10.37    3.39
  -7  11  -1   81.09    8.09
   7 -11   1   84.56    8.19
   7 -11   1   84.41    8.71
  -7  11  -2   35.91    5.86
   7 -11   2   35.16    5.71
   7 -11   2   31.45    5.38
   7 -11   3    5.51    2.66
  -7  11  -3   10.81    3.85
   7 -11   3    9.51    3.53
  -7  11  -4    7.05    3.04
   7 -11   4   16.00    4.71
  -7  11  -5   -8.08    3.26
   7 -11   5    1.39    2.36
   7 -10  -4    7.53    3.11
  -7  10   4    2.96    1.98
   7 -10  -3   30.00    5.02
  -7  10   3   31.76    4.90
  -7  10   3   19.52    4.11
   7 -10  -2    9.31    3.16
  -7  10   2    7.43    2.99
  -7  10   2    9.67    3.08
  -7  10   1    2.32    2.22
  -7  10   1    0.33    1.42
   7 -10  -1    2.98    2.33
  -7  10   0   10.28    3.21
   7 -10   0   14.44    3.56
  -7  10  -1    3.19    2.18
   7 -10   1   -1.80    2.46
   7 -10   1    0.35    1.99
  -7  10  -2   19.42    4.12
   7 -10   2   23.47    4.86
   7 -10   2   12.55    3.39
   7 -10   3   37.79    5.29
   7 -10   3   46.60    6.29
   7 -10   4   22.87    4.32
  -7  10  -4   25.94    4.78
   7 -10   4   23.28    4.88
  -7  10  -5    3.64    2.35
   7 -10   5   -2.28    2.37
  -7  10  -6   -3.63    2.51
   7 -10   6    1.06    3.06
  -7  10  -7    2.89    2.49
   7 -10   7   -7.31    3.14
   7 -10   8   33.60    5.68
   7  -9  -7   11.07    3.24
  -7   9   7   12.42    3.34
   7  -9  -6    8.45    2.84
  -7   9   6    3.71    2.61
  -7   9   5    2.00    2.00
   7  -9  -5    0.37    1.68
  -7   9   5    1.97    1.81
   7  -9  -4    1.03    2.49
  -7   9   4   -2.19    1.96
  -7   9   4   -2.84    2.20
   7  -9  -3    6.55    2.76
  -7   9   3    6.70    2.67
  -7   9   3    9.33    2.93
   7  -9  -2    7.94    2.46
  -7   9   2    5.40    2.18
  -7   9   2    8.33    2.93
   7  -9  -1    6.71    2.63
  -7   9   1    6.80    2.36
  -7   9   1    6.12    2.58
  -7   9   0   62.79    6.56
   7  -9   0   55.79    6.05
  -7   9   0   57.25    5.45
   7  -9   0   72.69    7.35
  -7   9  -1   21.50    4.25
   7  -9   1   32.46    5.26
   7  -9   1   19.99    3.88
  -7   9  -2    2.71    2.25
   7  -9   2    3.76    2.86
   7  -9   2   -0.24    1.58
  -7   9  -3    0.43    1.78
   7  -9   3    0.71    2.03
   7  -9   3   -3.29    2.18
  -7   9  -4    6.63    2.80
   7  -9   4    2.39    2.14
   7  -9   4    1.87    1.63
   7  -9   5   25.66    4.12
  -7   9  -5   37.30    5.53
   7  -9   5   28.92    5.10
   7  -9   6   12.36    3.01
  -7   9  -6   21.93    4.32
   7  -9   6   13.98    3.57
  -7   9  -7    3.83    2.40
   7  -9   7    3.07    1.79
   7  -9   7    4.18    2.46
  -7   9  -8    5.50    2.88
   7  -9   8    8.23    2.75
   7  -9   8   14.99    3.92
  -7   9  -9   -2.75    2.30
   7  -9   9   -4.29    2.59
   7  -9   9    1.97    2.02
   7  -8  -8    8.76    2.66
  -7   8   7    0.70    2.25
   7  -8  -7   -0.58    1.61
  -7   8   7   -4.67    2.56
  -7   8   6   23.79    4.36
   7  -8  -6   20.20    3.98
  -7   8   6   23.52    4.70
  -7   8   5   37.58    5.39
   7  -8  -5   27.83    4.44
  -7   8   5   36.26    5.47
   7  -8  -4    1.87    1.92
  -7   8   4    1.76    2.04
  -7   8   4    6.23    2.34
   7  -8  -3    5.62    2.37
  -7   8   3    9.08    2.77
  -7   8   3    2.55    1.98
   7  -8  -2   14.35    3.40
  -7   8   2   17.23    3.69
  -7   8   2   14.82    3.17
   7  -8  -1   13.73    3.04
  -7   8   1   12.13    3.16
  -7   8   1   16.97    3.06
   7  -8   0    0.70    1.48
  -7   8   0    3.22    2.36
  -7   8   0    0.78    1.02
   7  -8   1   41.26    4.93
  -7   8  -1   39.28    5.03
   7  -8   1   43.67    5.43
  -7   8  -2   23.61    4.34
   7  -8   2   23.24    4.18
   7  -8   2   24.31    3.81
  -7   8  -3    9.80    3.03
   7  -8   3    7.57    2.71
   7  -8   3    6.86    2.38
  -7   8  -4    0.84    2.19
   7  -8   4   -1.26    2.25
   7  -8   4   -0.04    1.49
  -7   8  -5  142.70    9.82
   7  -8   5  124.48    8.07
   7  -8   5  122.86    8.26
   7  -8   5  132.81    9.36
  -7   8  -6    5.00    2.40
   7  -8   6    8.98    2.66
   7  -8   6    5.21    2.75
   7  -8   6    6.99    2.29
  -7   8  -7   13.90    3.34
  -7   8  -7   12.43    3.35
   7  -8   7   14.26    3.55
   7  -8   7   14.27    3.66
  -7   8  -8    9.58    3.18
   7  -8   8    7.96    2.78
  -7   8  -8    4.91    2.49
  -7   8  -9   -1.21    1.91
   7  -8   9   -3.24    2.13
  -7   8 -10    1.70    1.74
  -7   8 -10   -2.56    2.45
  -7   7   8   23.47    4.31
   7  -7  -8   26.41    4.44
  -7   7   7    6.16    2.46
   7  -7  -7   10.75    3.00
  -7   7   7   10.89    3.31
  -7   7   6   15.86    3.64
   7  -7  -6   10.93    2.97
  -7   7   6   13.64    3.50
  -7   7   5   11.25    3.09
   7  -7  -5    6.56    2.26
  -7   7   5   13.45    3.19
   7  -7  -4   19.88    3.63
  -7   7   4   22.44    3.86
  -7   7   4   22.71    3.92
   7  -7  -3    8.77    2.44
  -7   7   3    9.37    2.80
  -7   7   3    6.27    2.35
   7  -7  -2   19.46    3.43
  -7   7   2   22.66    3.74
   7  -7  -1    3.73    1.87
  -7   7   1    5.83    2.36
   7  -7   0   11.40    2.89
  -7   7   0   11.52    2.81
   7  -7   0   12.35    3.08
  -7   7   0   13.77    2.46
   7  -7   1   16.86    3.23
  -7   7  -1   29.44    4.11
   7  -7   1   17.30    3.71
  -7   7  -1   27.50    3.24
  -7   7  -2    0.45    1.61
   7  -7   2    0.53    1.78
   7  -7   2    3.15    1.86
  -7   7  -3   47.80    5.56
   7  -7   3   54.94    5.18
   7  -7   3   50.63    4.70
   7  -7   3   55.29    5.73
  -7   7  -3   61.91    5.43
  -7   7  -3   58.74    5.66
  -7   7  -4   19.77    3.38
  -7   7  -4   16.30    3.54
   7  -7   4   15.35    2.90
   7  -7   4   12.41    3.00
   7  -7   4   15.10    2.92
  -7   7  -5   78.79    7.08
   7  -7   5   73.50    5.85
   7  -7   5   69.05    6.17
   7  -7   5   77.25    6.79
  -7   7  -5   68.81    6.43
  -7   7  -6  206.89   11.33
   7  -7   6  198.87    9.32
   7  -7   6  194.61   10.79
   7  -7   6  200.76   10.87
  -7   7  -6  206.90   11.47
  -7   7  -7   12.94    3.29
  -7   7  -7   12.81    3.54
   7  -7   7    9.75    2.75
   7  -7   7    9.10    2.76
  -7   7  -8    9.04    3.23
  -7   7  -8   17.41    3.56
   7  -7   8    7.93    2.56
   7  -7   8   17.54    3.61
  -7   7  -9   14.94    3.89
  -7   7  -9    7.52    2.77
   7  -7   9    5.76    2.63
  -7   7 -10    1.69    1.66
   7  -7  10    1.29    1.75
  -7   7 -10    3.05    2.21
   7  -6 -10   -0.79    1.61
   7  -6  -9    5.12    2.31
   7  -6  -9    3.06    2.37
  -7   6   9    8.27    2.54
  -7   6   9    8.72    3.12
   7  -6  -8   19.40    3.65
   7  -6  -8   10.25    3.21
  -7   6   8    9.82    2.91
  -7   6   8   22.51    4.53
   7  -6  -7   71.32    6.65
   7  -6  -7   69.66    6.50
  -7   6   7   80.86    7.17
   7  -6  -6    9.92    2.41
  -7   6   6   10.81    3.14
   7  -6  -6    6.83    2.46
  -7   6   5    1.20    1.60
   7  -6  -5    1.15    1.58
   7  -6  -4    2.75    1.65
  -7   6   4    4.93    2.20
   7  -6  -3   16.60    3.18
  -7   6   3   12.74    3.03
   7  -6  -2    0.35    1.72
  -7   6   2    4.02    2.20
   7  -6  -1   72.74    5.99
  -7   6   1   80.14    6.43
  -7   6   0    6.22    1.77
   7  -6   0    2.41    1.63
  -7   6   0    4.18    2.27
   7  -6   1    1.08    1.30
  -7   6  -1    1.51    1.37
  -7   6  -1    0.57    1.36
   7  -6   1    0.37    0.90
   7  -6   1    0.33    1.75
   7  -6   2   56.10    5.00
   7  -6   2   52.97    4.46
   7  -6   2   63.89    5.60
  -7   6  -2   67.24    5.59
  -7   6  -2   61.20    5.38
  -7   6  -3   38.17    4.42
   7  -6   3   38.37    4.18
   7  -6   3   43.12    4.35
   7  -6   3   40.92    4.58
  -7   6  -3   34.06    4.06
  -7   6  -4   60.82    5.97
   7  -6   4   69.67    5.39
   7  -6   4   77.20    6.12
   7  -6   4   68.12    5.98
  -7   6  -4   78.96    6.57
  -7   6  -4   71.19    5.72
  -7   6  -5   15.54    3.29
   7  -6   5   20.20    2.95
  -7   6  -5   15.63    3.33
   7  -6   5   15.64    3.10
   7  -6   5   17.59    3.24
  -7   6  -6   34.09    5.16
  -7   6  -6   38.77    4.95
   7  -6   6   36.57    4.81
   7  -6   6   47.41    5.09
  -7   6  -7    8.92    3.05
  -7   6  -7    6.18    2.61
   7  -6   7    3.79    2.15
   7  -6   7    3.65    1.63
  -7   6  -8   49.81    6.50
  -7   6  -8   44.08    5.27
   7  -6   8   46.05    5.85
  -7   6  -9   21.01    4.81
  -7   6  -9   20.39    3.81
   7  -6   9   24.93    4.62
  -7   6 -10   11.05    3.94
   7  -6  10   11.51    3.59
   7  -5 -10   13.09    3.66
   7  -5  -9    3.63    2.26
  -7   5   9    2.52    2.30
   7  -5  -9   -2.07    1.62
   7  -5  -8    5.05    2.11
   7  -5  -8    6.88    2.38
  -7   5   8   11.13    2.79
   7  -5  -7    9.35    2.64
   7  -5  -7   10.50    2.72
  -7   5   7   10.02    2.89
  -7   5   6   58.66    5.82
   7  -5  -6   53.94    5.23
   7  -5  -6   60.80    5.79
   7  -5  -5    2.69    1.50
  -7   5   5    2.16    1.81
   7  -5  -5    2.86    1.71
  -7   5   4   60.98    5.71
   7  -5  -4   49.67    4.33
   7  -5  -4   48.11    5.05
  -7   5   3  155.11    8.71
   7  -5  -3  142.38    6.59
   7  -5  -3  146.32    8.19
   7  -5  -2   30.73    3.94
  -7   5   2   32.78    4.14
  -7   5   1   37.17    4.25
   7  -5  -1   40.69    4.34
   7  -5   0    7.74    2.17
   7  -5   0   10.98    2.03
  -7   5   0   10.51    2.44
   7  -5   1   71.30    5.44
   7  -5   1   80.29    5.20
  -7   5  -1   81.63    6.04
  -7   5  -1   67.54    5.46
  -7   5  -2   15.27    2.90
   7  -5   2   14.91    2.59
   7  -5   2   14.47    2.56
  -7   5  -2   19.13    3.03
   7  -5   2   14.94    2.91
  -7   5  -3    1.66    1.66
   7  -5   3    0.76    1.06
  -7   5  -3    2.29    1.36
   7  -5   3    2.95    1.58
   7  -5   3    2.78    1.75
  -7   5  -4   44.97    5.08
   7  -5   4   47.88    4.23
   7  -5   4   44.56    4.73
   7  -5   4   48.26    4.98
  -7   5  -4   52.92    4.60
  -7   5  -5   14.65    3.13
  -7   5  -5   11.43    2.74
   7  -5   5   15.87    2.47
   7  -5   5   12.83    2.88
   7  -5   5   13.51    2.65
  -7   5  -5    9.38    2.30
  -7   5  -6   66.05    5.94
   7  -5   6   57.43    5.95
  -7   5  -6   66.20    6.82
  -7   5  -7   26.59    4.84
  -7   5  -7   23.58    3.76
   7  -5   7   24.31    4.18
  -7   5  -8    1.24    2.12
  -7   5  -8    0.98    1.32
   7  -5   8   -2.16    1.82
  -7   5  -9   37.09    5.98
   7  -5   9   28.62    4.99
  -7   5 -10   36.39    6.29
   7  -5  10   40.63    5.91
   7  -4 -11    2.68    2.56
   7  -4 -10   -0.72    1.52
   7  -4 -10    2.97    2.32
  -7   4  10    2.46    1.72
   7  -4  -9   15.05    3.55
  -7   4   9   20.25    3.62
   7  -4  -9   15.91    3.23
   7  -4  -8   -0.13    1.56
   7  -4  -8   -0.34    1.28
  -7   4   8    1.40    1.63
   7  -4  -7   26.04    3.91
   7  -4  -7   33.57    4.45
  -7   4   7   25.47    3.97
   7  -4  -6    2.64    1.66
   7  -4  -6    4.80    1.94
  -7   4   6    1.29    1.57
   7  -4  -5   11.45    2.43
  -7   4   5   10.92    2.78
   7  -4  -5   12.35    2.68
   7  -4  -4    2.71    1.45
  -7   4   4    4.81    2.22
   7  -4  -4    4.75    2.19
  -7   4   3  761.97   18.39
   7  -4  -3  748.90   15.16
   7  -4  -3  756.26   17.83
   7  -4  -2   34.00    3.11
   7  -4  -2   36.80    3.06
   7  -4  -2   35.34    4.08
  -7   4   2   29.88    3.89
   7  -4  -1    4.90    1.34
   7  -4  -1    4.82    1.56
  -7   4   1    4.55    1.86
   7  -4  -1    3.04    1.74
  -7   4   0   41.67    4.19
   7  -4   0   36.23    3.81
   7  -4   0   32.86    3.27
   7  -4   1   15.12    2.43
   7  -4   1   13.61    2.50
  -7   4  -1   14.12    2.58
  -7   4  -2   75.71    5.33
   7  -4   2   67.11    5.16
   7  -4   2   58.91    4.58
  -7   4  -2   71.16    5.99
   7  -4   3  105.46    6.81
   7  -4   3   99.54    5.79
   7  -4   3  103.83    6.11
  -7   4  -3   96.99    7.20
  -7   4  -3   95.02    5.81
  -7   4  -4   31.60    4.50
   7  -4   4   33.02    3.27
   7  -4   4   30.65    4.08
   7  -4   4   32.93    3.60
  -7   4  -4   36.08    3.60
  -7   4  -5   -0.58    1.65
  -7   4  -5    1.00    1.44
  -7   4  -6    6.03    2.46
  -7   4  -6    5.77    1.82
   7  -4   6    6.71    2.23
  -7   4  -7  157.55    8.55
   7  -4   7  146.23    9.92
  -7   4  -7  161.47   11.09
   7  -4   8  102.85    8.68
  -7   4  -8   99.49    9.28
  -7   4  -9    0.20    2.44
   7  -4   9   -4.05    2.58
  -7   4 -10    2.90    3.09
   7  -4  10   -3.53    2.23
   7  -3 -11   13.98    3.96
   7  -3 -10    4.38    2.15
   7  -3 -10   -1.99    2.24
  -7   3  10    1.12    1.50
   7  -3  -9   13.05    3.47
   7  -3  -9   14.49    3.14
  -7   3   9   12.03    2.94
  -7   3   8   72.32    6.39
   7  -3  -8   66.83    6.43
   7  -3  -8   60.90    5.73
   7  -3  -7    7.28    2.46
  -7   3   7    7.00    2.49
   7  -3  -7    4.12    1.87
   7  -3  -6    8.01    2.47
   7  -3  -6   11.26    2.76
  -7   3   6    9.76    2.64
  -7   3   5   55.66    5.23
   7  -3  -5   67.39    5.42
   7  -3  -5   65.64    5.55
   7  -3  -4   11.22    2.51
   7  -3  -4   13.17    2.42
  -7   3   4    7.06    2.28
  -7   3   3  118.97    7.13
   7  -3  -3  116.16    6.20
   7  -3  -3  123.69    5.93
   7  -3  -3  116.05    6.86
  -7   3   2  386.67   12.39
   7  -3  -2  387.45   10.63
   7  -3  -2  384.56   10.56
   7  -3  -2  382.98   12.07
  -7   3   1  204.58    8.90
   7  -3  -1  211.79    7.41
   7  -3  -1  216.38    8.23
   7  -3  -1  212.92    8.85
  -7   3   0   81.41    5.61
   7  -3   0   92.05    4.67
   7  -3   0   84.41    5.43
   7  -3   0   92.33    5.78
   7  -3   1   -0.12    1.24
   7  -3   1    1.34    0.87
  -7   3  -1    0.02    1.05
   7  -3   1    0.57    1.40
  -7   3  -2   40.71    3.83
  -7   3  -2   34.50    4.42
   7  -3   2   36.21    4.01
   7  -3   2   33.34    3.33
  -7   3  -3    2.44    2.08
   7  -3   3    3.48    1.73
  -7   3  -3    3.46    1.41
   7  -3   3    2.28    1.14
   7  -3   4   64.55    5.79
   7  -3   4   73.82    4.57
  -7   3  -4   65.41    6.41
  -7   3  -4   65.35    4.49
  -7   3  -5   19.62    3.98
   7  -3   5   22.44    3.80
  -7   3  -6    5.62    2.39
  -7   3  -6   12.73    2.55
   7  -3   6    9.73    3.07
  -7   3  -7    0.40    2.06
   7  -3   7    4.95    2.46
   7  -3   8  107.77    8.99
  -7   3  -8  119.95   10.13
   7  -3   9  109.23    9.36
  -7   3  -9   83.81    8.80
  -7   3 -10    8.60    3.61
   7  -3  10    9.17    3.25
   7  -2 -11    9.65    3.33
  -7   2  11    4.71    2.18
   7  -2 -10   37.74    4.87
   7  -2 -10   30.64    5.11
  -7   2  10   33.93    4.76
   7  -2  -9    3.39    2.54
   7  -2  -9    4.47    2.09
  -7   2   9    1.44    1.71
   7  -2  -8    0.69    1.60
  -7   2   8   -0.30    1.88
   7  -2  -8   -1.72    1.75
  -7   2   7   70.25    6.13
   7  -2  -7   71.78    6.33
   7  -2  -7   77.11    6.27
   7  -2  -6    9.06    2.39
   7  -2  -6   12.94    2.75
  -7   2   6   11.73    2.73
  -7   2   5  101.90    6.87
   7  -2  -5   93.73    6.47
   7  -2  -5  103.44    6.85
   7  -2  -4   23.79    3.21
   7  -2  -4   27.12    3.09
   7  -2  -4   24.47    3.44
  -7   2   4   19.77    3.25
   7  -2  -3    8.83    1.96
   7  -2  -3    8.42    2.05
   7  -2  -3   12.81    2.58
  -7   2   3    7.09    2.07
  -7   2   2  204.50    8.93
   7  -2  -2  211.02    8.16
   7  -2  -2  197.63    8.14
   7  -2  -2  194.49    8.59
  -7   2   1  237.75    9.40
   7  -2  -1  234.05    8.29
   7  -2  -1  220.88    8.80
   7  -2  -1  230.23    9.01
  -7   2   0  256.78    9.51
   7  -2   0  229.60    8.03
   7  -2   0  232.88    9.34
   7  -2   0  231.17    8.80
  -7   2  -1  136.84    6.74
   7  -2   1  134.22    6.12
   7  -2   1  128.26    7.24
   7  -2   1  136.60    6.62
   7  -2   2    7.93    1.87
   7  -2   2    7.30    2.14
  -7   2  -2    7.50    1.81
  -7   2  -3    7.55    2.73
   7  -2   3    3.92    1.91
  -7   2  -3    5.60    1.59
   7  -2   3    3.52    1.23
  -7   2  -4   26.09    4.36
   7  -2   4   19.66    3.40
   7  -2   5   57.84    5.91
  -7   2  -5   66.70    6.75
   7  -2   6  143.88    9.49
  -7   2  -6  133.20    9.79
  -7   2  -7   47.55    6.33
   7  -2   7   47.71    5.84
  -7   2  -8    1.94    2.64
   7  -2   8    4.38    3.02
  -7   2  -9   -0.14    2.41
   7  -2   9    4.09    2.35
  -7   2 -10   14.15    4.44
   7  -2  10   16.43    4.16
   7  -1 -12    2.01    2.37
  -7   1  11  154.23    9.95
   7  -1 -11  154.52   11.18
  -7   1  10   60.28    6.13
   7  -1 -10   58.44    6.72
   7  -1  -9   19.16    3.91
  -7   1   9   27.36    4.26
   7  -1  -8    1.06    1.83
   7  -1  -8    1.82    1.87
  -7   1   8   -0.87    1.55
   7  -1  -7    3.26    2.05
   7  -1  -7    2.87    1.80
  -7   1   7    7.88    2.60
   7  -1  -6   15.99    3.07
   7  -1  -6   13.67    3.02
  -7   1   6    7.92    2.48
  -7   1   5   59.97    5.44
   7  -1  -5   62.06    5.36
   7  -1  -5   57.49    5.17
  -7   1   4   34.56    4.06
   7  -1  -4   38.14    4.10
   7  -1  -4   35.75    3.77
   7  -1  -4   40.70    4.23
  -7   1   3   75.54    5.74
   7  -1  -3   79.03    5.50
   7  -1  -3   67.64    5.14
   7  -1  -3   77.43    5.58
  -7   1   2  224.91    9.35
   7  -1  -2  226.74    8.94
   7  -1  -2  212.56    8.97
   7  -1  -2  219.77    8.99
  -7   1   1  112.25    6.45
   7  -1  -1  115.15    6.26
   7  -1  -1  105.23    6.47
   7  -1  -1  107.28    6.23
  -7   1   0  327.67   10.60
   7  -1   0  328.82   10.37
   7  -1   0  306.94   11.25
   7  -1   0  324.50   10.37
  -7   1  -1  324.93   10.22
   7  -1   1  314.68   11.72
   7  -1   1  320.57    9.96
  -7   1  -2   54.54    4.10
   7  -1   2   48.41    4.93
   7  -1   2   56.52    4.12
  -7   1  -3   46.91    3.69
  -7   1  -3   38.73    5.11
   7  -1   3   43.80    5.03
   7  -1   3   43.25    3.48
   7  -1   4  367.42   14.19
  -7   1  -4  378.38   11.43
  -7   1  -4  376.83   15.26
  -7   1  -5   -6.64    3.11
   7  -1   5    1.45    1.92
  -7   1  -6   51.67    6.24
   7  -1   6   51.89    5.95
   7  -1   7   69.08    7.08
  -7   1  -7   68.96    7.54
  -7   1  -8   16.43    4.29
   7  -1   8   19.92    4.26
  -7   1  -9    4.15    2.72
   7  -1   9    5.72    2.63
  -7   1 -10   -3.33    2.71
   7   0 -12    8.09    3.31
  -7   0  12    9.76    2.83
   7   0 -11    4.27    2.78
  -7   0  11    1.92    1.83
  -7   0  10   51.86    5.68
   7   0 -10   50.06    6.41
  -7   0   9   98.65    7.67
   7   0  -9   89.13    7.86
  -7   0   9   87.53    6.84
  -7   0   8  103.52    7.69
   7   0  -8  106.17    8.22
  -7   0   8  101.45    7.21
  -7   0   7   92.27    7.10
   7   0  -7  107.62    7.84
  -7   0   7   98.38    6.98
  -7   0   6  122.21    7.92
   7   0  -6  113.05    7.72
  -7   0   5  127.41    7.84
   7   0  -5  125.58    7.78
   7   0  -5  123.72    7.52
   7   0  -4   -0.66    1.25
   7   0  -4   -0.28    1.67
   7   0  -4   -0.08    1.32
  -7   0   4    1.89    1.49
  -7   0   3   58.05    5.09
   7   0  -3   52.43    4.76
   7   0  -3   53.65    4.87
   7   0  -3   46.37    4.47
  -7   0   2  106.99    6.61
   7   0  -2  115.34    6.82
   7   0  -2  100.16    6.60
   7   0  -2  116.33    6.72
  -7   0   1  203.27    8.77
   7   0  -1  189.24    8.56
   7   0  -1  189.77    9.18
   7   0  -1  191.70    8.28
  -7   0   0   40.88    3.96
   7   0   0   38.29    4.50
  -7   0  -1  192.63    8.01
   7   0   1  188.68    9.53
  -7   0  -1  203.77    8.93
  -7   0  -2  107.66    5.75
   7   0   2   91.72    6.96
  -7   0  -2  110.98    6.57
  -7   0  -3   37.65    5.01
   7   0   3   38.70    4.80
  -7   0  -3   48.74    4.41
  -7   0  -4    9.42    2.97
   7   0   4    3.10    2.17
  -7   0  -4    9.93    2.35
   7   0   5  411.51   15.99
  -7   0  -5  419.25   17.00
  -7   0  -6   30.14    5.16
   7   0   6   37.97    5.35
  -7   0  -7   -0.14    2.25
   7   0   7    4.70    2.77
  -7   0  -8   19.32    4.78
   7   0   8   25.15    5.00
  -7   0  -9   20.59    5.03
   7   0   9   23.73    4.66
  -7  -1  12   82.14    7.62
   7   1 -12   79.04    8.46
  -7  -1  11   60.22    6.60
   7   1 -11   67.78    7.56
   7   1 -10   -0.19    2.30
  -7  -1  10    2.81    2.10
  -7  -1  10    2.67    1.92
   7   1  -9    5.01    2.44
  -7  -1   9    6.75    2.29
  -7  -1   9    5.84    2.37
   7   1  -8    0.09    1.96
  -7  -1   8   -4.20    2.07
  -7  -1   8   -1.27    1.61
   7   1  -7    3.62    2.18
  -7  -1   7    6.43    2.48
  -7  -1   7    3.57    1.94
  -7  -1   6   97.47    7.13
   7   1  -6   95.39    7.34
  -7  -1   6   98.56    7.07
  -7  -1   5  166.85    9.07
   7   1  -5  166.68    9.30
  -7  -1   5  168.10    9.09
  -7  -1   4  150.74    8.34
   7   1  -4  132.10    8.05
   7   1  -4  150.38    8.62
  -7  -1   4  149.84    8.39
   7   1  -3   13.41    2.99
   7   1  -3   20.94    3.52
  -7  -1   3   24.45    3.70
  -7  -1   3   20.70    3.21
   7   1  -2   21.20    3.50
   7   1  -2   26.31    3.72
  -7  -1   2   25.95    3.70
  -7  -1   2   27.64    3.63
  -7  -1   1  256.93   10.04
   7   1  -1  239.90   10.26
   7   1  -1  245.25   11.00
  -7  -1   1  241.09   10.28
  -7  -1   0   91.07    5.88
   7   1   0   83.04    6.59
  -7  -1   0   94.88    6.45
  -7  -1  -1   32.69    3.44
   7   1   1   31.35    4.37
  -7  -1  -1   35.76    3.98
   7   1   2   15.07    3.16
  -7  -1  -2   11.79    2.58
  -7  -1  -2    9.00    1.93
  -7  -1  -3    7.05    2.50
   7   1   3   11.48    3.17
  -7  -1  -3   10.84    2.49
  -7  -1  -4   49.19    6.06
   7   1   4   35.26    4.93
  -7  -1  -4   42.64    4.28
  -7  -1  -5    3.61    2.42
   7   1   5    5.32    2.46
   7   1   6   62.46    6.69
  -7  -1  -6   70.48    7.62
  -7  -1  -7   17.03    4.24
   7   1   7   11.05    3.48
  -7  -1  -8   -0.30    2.52
   7   1   8    2.69    2.11
  -7  -1  -9   19.60    4.69
  -7  -2  12    4.00    1.78
   7   2 -11   10.38    3.72
  -7  -2  11   16.81    3.57
  -7  -2  10   97.08    8.13
   7   2 -10  106.14    9.13
  -7  -2  10   97.96    7.71
   7   2  -9    9.59    3.18
  -7  -2   9    8.19    2.68
  -7  -2   9    9.31    2.81
   7   2  -8    4.50    2.20
  -7  -2   8    4.83    1.99
  -7  -2   8    9.12    2.85
   7   2  -7    5.24    2.67
  -7  -2   7    7.33    2.68
  -7  -2   7    2.39    1.84
  -7  -2   6    3.41    2.03
   7   2  -6    6.92    2.48
  -7  -2   6    7.42    2.31
  -7  -2   5    8.18    2.52
   7   2  -5    4.39    2.39
  -7  -2   5    9.24    2.81
  -7  -2   4  608.65   17.12
   7   2  -4  630.27   18.11
   7   2  -4  558.21   17.40
  -7  -2   4  603.17   17.35
  -7  -2   3  277.20   11.32
   7   2  -3  282.81   12.02
   7   2  -3  271.42   12.05
  -7  -2   3  271.28   11.56
  -7  -2   2   55.72    4.99
   7   2  -2   49.86    5.18
   7   2  -2   48.88    5.41
  -7  -2   2   54.70    5.37
  -7  -2   1   40.07    4.17
   7   2  -1   35.98    4.75
  -7  -2   1   48.95    5.02
   7   2   0    1.12    1.78
  -7  -2   0   -0.20    1.68
  -7  -2   0   -0.05    0.92
   7   2   1    3.48    2.27
  -7  -2  -1    6.23    2.29
  -7  -2  -1    3.36    1.38
   7   2   2   -0.31    1.80
  -7  -2  -2    4.04    2.06
  -7  -2  -3   21.01    4.17
   7   2   3   18.27    3.27
   7   2   3   17.97    3.63
  -7  -2  -3   16.93    3.04
  -7  -2  -3   16.92    3.11
  -7  -2  -4   -3.13    2.44
   7   2   4   -0.31    1.31
   7   2   4    1.03    2.05
  -7  -2  -5   -0.73    1.99
   7   2   5   -2.11    1.65
   7   2   5    2.46    2.53
  -7  -2  -6   20.44    4.36
   7   2   6   12.82    3.66
  -7  -2  -7   45.28    6.35
   7   2   7   53.41    6.54
  -7  -2  -8   48.28    7.41
   7   2   8   52.51    6.85
  -7  -3  12   25.36    4.52
   7   3 -11   -3.60    2.28
  -7  -3  11    0.19    1.96
  -7  -3  11   -0.72    1.72
  -7  -3  10    2.24    2.22
  -7  -3  10    4.11    2.43
   7   3 -10    6.15    2.90
  -7  -3  10    3.97    1.86
  -7  -3   9    4.19    2.33
  -7  -3   9    3.00    2.39
   7   3  -9    9.85    3.30
  -7  -3   9    5.51    2.46
  -7  -3   8    8.27    2.76
   7   3  -8   10.91    3.26
  -7  -3   8    7.95    2.53
  -7  -3   8    9.05    2.67
   7   3  -7    3.24    2.23
  -7  -3   7    4.96    2.05
  -7  -3   7    5.35    2.35
   7   3  -6    2.77    2.16
  -7  -3   6    6.69    2.15
  -7  -3   6    1.56    2.01
   7   3  -5    1.71    1.79
  -7  -3   5    1.20    1.64
  -7  -3   5   -1.08    2.17
   7   3  -4   47.01    5.36
   7   3  -4   48.23    5.78
  -7  -3   4   51.08    4.60
  -7  -3   4   47.95    5.43
   7   3  -3  498.15   16.73
   7   3  -3  472.20   16.88
  -7  -3   3  488.48   16.23
   7   3  -2  231.78   11.52
   7   3  -2  210.61   11.32
  -7  -3   2  212.64   10.68
   7   3  -1  176.01   10.38
  -7  -3   1  168.63    9.49
   7   3   0    1.38    1.99
  -7  -3   0    0.76    1.52
  -7  -3  -1    7.95    1.89
   7   3   1    5.71    2.24
  -7  -3  -1    7.24    2.39
   7   3   2   -0.13    1.41
   7   3   2    2.74    2.35
  -7  -3  -2    2.07    1.41
  -7  -3  -3    3.14    2.18
   7   3   3    5.64    2.27
   7   3   3    7.21    2.89
  -7  -3  -3    9.69    2.70
  -7  -3  -3   10.96    2.75
  -7  -3  -4    7.39    2.89
   7   3   4    1.35    1.63
   7   3   4    1.01    2.08
  -7  -3  -4    4.75    2.42
  -7  -3  -5    1.64    2.20
   7   3   5    3.26    2.08
   7   3   5    3.59    2.54
  -7  -3  -6    8.86    3.56
   7   3   6    3.44    2.45
  -7  -3  -7    0.62    1.33
   7   3   7    7.17    3.48
  -7  -4  11   21.81    4.60
  -7  -4  11   11.95    3.54
  -7  -4  10    1.14    1.83
   7   4 -10    0.15    1.94
  -7  -4  10    4.62    2.64
  -7  -4  10    6.23    2.75
   7   4  -9   -0.53    2.18
  -7  -4   9    0.63    2.01
  -7  -4   9   -0.53    2.40
   7   4  -8    4.29    2.51
  -7  -4   8    6.88    2.64
  -7  -4   8    5.93    2.61
   7   4  -7    3.17    2.25
  -7  -4   7    1.84    1.82
  -7  -4   7    4.00    2.11
   7   4  -6   28.31    4.79
  -7  -4   6   33.37    4.37
  -7  -4   6   28.64    4.57
   7   4  -5   82.67    7.45
  -7  -4   5   79.57    7.31
   7   4  -4   20.77    3.98
  -7  -4   4   23.90    4.14
   7   4  -3    1.56    2.11
   7   4  -3   -3.23    2.29
  -7  -4   3    1.22    1.87
   7   4  -2   39.37    5.45
   7   4  -2   54.29    6.00
  -7  -4   2   40.14    5.06
   7   4  -1    3.61    2.46
  -7  -4   1    3.57    2.19
   7   4   0    9.19    3.03
  -7  -4   0    8.78    2.81
   7   4   1    1.52    1.61
   7   4   1    4.43    2.34
  -7  -4  -1    7.53    2.47
   7   4   2    1.07    1.90
   7   4   2   -4.10    2.55
  -7  -4  -2    1.53    1.73
  -7  -4  -3    4.76    2.49
   7   4   3    0.15    1.71
   7   4   3    3.38    2.31
  -7  -4  -3    4.40    2.47
  -7  -4  -4    0.74    1.85
   7   4   4    3.78    2.17
   7   4   4    4.16    2.58
  -7  -4  -4    5.58    2.65
  -7  -4  -5   24.79    4.81
   7   4   5   23.21    4.49
   7   4   5   11.03    3.51
   7   4   6   17.23    4.18
   7   5 -10   33.28    5.87
  -7  -5  10   33.85    5.52
  -7  -5  10   43.88    5.98
   7   5  -9    4.68    2.71
  -7  -5   9    3.94    2.10
  -7  -5   9    5.71    2.50
   7   5  -8   17.15    4.11
  -7  -5   8   16.34    3.60
  -7  -5   8   19.79    4.15
   7   5  -7   12.72    3.69
  -7  -5   7    8.29    2.70
  -7  -5   7    9.88    3.17
   7   5  -6   19.41    4.28
  -7  -5   6   15.41    3.95
   7   5  -5   17.28    3.76
  -7  -5   5   15.04    3.85
   7   5  -4   24.81    4.43
  -7  -5   4   15.99    3.84
   7   5  -3   38.32    5.64
   7   5  -3   47.25    6.03
  -7  -5   3   42.32    5.76
   7   5  -2    8.38    3.25
  -7  -5   2    1.94    2.39
   7   5  -1   22.16    4.37
  -7  -5   1   27.58    4.54
   7   5   0   66.84    7.23
   7   5   0   61.26    7.00
  -7  -5   0   51.83    6.01
   7   5   1   43.78    5.87
   7   5   1   42.24    5.97
  -7  -5  -1   35.74    5.18
  -7  -5  -2    3.93    2.17
   7   5   2    4.76    2.96
   7   5   2   -0.33    2.55
  -7  -5  -2    7.11    2.74
   7   5   3    0.18    1.34
   7   5   3    2.24    2.04
  -7  -5  -3    5.58    2.83
   7   5   4    9.95    2.80
   7   5   4   10.59    3.55
  -7  -5  -4    5.05    2.74
   7   5   5    3.40    2.00
  -7  -6   9   42.09    6.02
  -7  -6   9   44.76    6.47
   7   6  -8    3.53    2.32
  -7  -6   8    0.27    3.00
   7   6  -7    7.72    3.08
  -7  -6   7   16.28    4.31
   7   6  -6   45.58    6.21
  -7  -6   6   32.48    5.32
   7   6  -5    0.13    2.18
  -7  -6   5    1.39    1.98
   7   6  -4    6.24    2.96
  -7  -6   4    8.11    3.37
   7   6  -3   -0.89    1.90
  -7  -6   3    3.16    2.52
   7   6  -2   -1.27    2.00
  -7  -6   2    9.82    3.22
   7   6  -1    2.09    2.23
  -7  -6   1    2.90    2.60
   7   6   0   -3.52    2.83
   7   6   0   -1.03    2.14
  -7  -6   0    1.05    2.23
   7   6   1   48.51    6.71
   7   6   1   46.31    6.52
  -7  -6  -1   36.53    5.54
   7   6   2   24.20    4.90
   7   6   2   36.38    5.75
  -7  -6  -3    2.29    2.14
   7   7  -5   13.42    4.01
   7   7  -4   -3.96    2.61
  -7  -7   4   -0.21    2.24
   7   7  -3   17.77    4.45
  -7  -7   3   18.40    4.92
  -7  -7   2   16.20    4.52
  -7  -7   1   31.08    5.95
  -7  -7   0    8.28    2.95
  -8  11   1    4.88    3.06
  -8  11   0  133.23   10.68
  -8  11  -1   19.17    4.30
  -8  10   4    0.52    1.83
   8 -10  -3   -1.01    1.70
  -8  10   3    3.20    2.18
   8 -10  -2   15.63    3.90
  -8  10   2   17.66    3.98
  -8  10   2   13.09    3.25
   8 -10  -1   12.53    3.77
  -8  10   1    9.92    3.20
   8 -10   0   24.17    4.64
  -8  10   0   29.78    5.01
  -8  10  -1   79.96    8.11
   8 -10   1   85.75    8.05
   8 -10   1   79.54    8.30
  -8  10  -2    3.43    2.27
   8 -10   2   10.04    3.67
   8 -10   2    8.47    3.16
  -8  10  -3   -0.03    1.83
   8 -10   3    0.58    2.21
   8 -10   3   -1.87    1.21
  -8  10  -4   22.44    4.72
   8 -10   4   24.18    4.85
   8 -10   4   22.80    4.27
  -8  10  -5   14.58    3.69
   8 -10   5   13.50    3.99
   8 -10   5    4.95    1.97
  -8  10  -6   -1.40    1.97
   8 -10   6   -2.32    2.44
   8 -10   6    1.57    1.45
   8 -10   7   -3.86    2.88
  -8   9   5    1.45    1.96
   8  -9  -5    1.09    1.83
  -8   9   5    2.15    2.48
  -8   9   4   18.00    4.20
   8  -9  -4   14.54    3.54
  -8   9   4   13.79    3.50
   8  -9  -3    2.14    2.33
  -8   9   3    2.63    2.36
  -8   9   3    0.98    1.52
   8  -9  -2   16.96    3.90
  -8   9   2    9.60    3.03
  -8   9   2   10.81    2.94
   8  -9  -1    0.88    1.83
  -8   9   1   -2.61    2.32
  -8   9   1    1.00    1.23
   8  -9   0   14.82    3.55
  -8   9   0   17.84    4.06
  -8   9  -1   91.63    8.30
   8  -9   1   77.79    7.31
   8  -9   1   77.90    7.74
  -8   9  -2   68.51    7.31
   8  -9   2   53.47    6.03
   8  -9   2   60.93    6.95
   8  -9   3   12.71    3.35
  -8   9  -3   18.54    4.19
   8  -9   3    7.67    3.12
   8  -9   4    3.34    2.74
   8  -9   4    6.72    2.44
  -8   9  -5    6.88    2.68
   8  -9   5    3.71    2.41
   8  -9   5    2.90    1.97
  -8   9  -6   -0.22    1.79
   8  -9   6   -0.20    2.58
   8  -9   6    1.73    1.49
  -8   9  -7    8.36    2.82
   8  -9   7    3.20    2.54
  -8   9  -8   19.66    4.38
   8  -9   8   19.97    4.22
   8  -9   8   17.52    4.05
  -8   8   7   37.30    5.59
   8  -8  -7   27.08    4.72
  -8   8   6    3.70    2.37
   8  -8  -6    3.62    2.53
  -8   8   6    1.15    1.74
  -8   8   5   22.46    4.32
   8  -8  -5   22.13    4.29
  -8   8   5   21.62    4.32
  -8   8   4    5.56    2.39
   8  -8  -4    1.73    1.83
  -8   8   4    4.17    2.48
   8  -8  -3    3.76    2.23
  -8   8   3    3.35    2.12
  -8   8   3    1.85    1.77
   8  -8  -2   41.57    5.38
  -8   8   2   44.77    5.73
  -8   8   2   41.82    5.05
   8  -8  -1   14.42    3.55
  -8   8   1   19.59    4.01
  -8   8   1    9.75    2.66
   8  -8   0   -1.45    1.86
  -8   8   0   -0.42    1.91
   8  -8   1   13.46    3.24
  -8   8  -1   12.09    3.12
   8  -8   1   14.95    3.67
   8  -8   2   79.23    6.82
   8  -8   2   92.04    7.89
  -8   8  -2   77.38    7.11
  -8   8  -3   81.21    7.68
   8  -8   3   80.68    6.87
   8  -8   3   80.30    7.45
  -8   8  -4   96.76    8.51
   8  -8   4   91.70    7.18
   8  -8   4  100.18    8.27
   8  -8   5    0.65    1.32
  -8   8  -5    5.88    2.63
   8  -8   5   -0.68    1.29
   8  -8   5    3.68    2.47
  -8   8  -6    7.70    2.91
   8  -8   6    5.94    2.26
   8  -8   6    5.17    2.44
  -8   8  -7   42.57    5.79
  -8   8  -7   37.99    5.84
   8  -8   7   42.05    5.59
   8  -8   7   38.05    5.63
  -8   8  -8   11.14    3.73
   8  -8   8    8.12    2.89
  -8   8  -9   19.49    4.21
  -8   8  -9   15.40    4.12
   8  -7  -9    6.29    2.55
   8  -7  -8   -3.24    1.99
  -8   7   8   -1.48    2.14
  -8   7   7   41.24    5.90
   8  -7  -7   33.72    5.07
  -8   7   7   46.75    6.37
  -8   7   6   53.09    6.26
   8  -7  -6   68.85    6.88
  -8   7   5   47.79    5.97
   8  -7  -5   49.52    5.81
  -8   7   4    4.57    2.38
   8  -7  -4   -4.18    2.19
  -8   7   3   15.88    3.58
   8  -7  -3   15.36    3.37
   8  -7  -2    0.69    1.76
  -8   7   2    1.08    1.88
   8  -7  -1    5.00    2.01
  -8   7   1    6.09    2.15
   8  -7   0   31.05    4.33
  -8   7   0   34.29    4.68
   8  -7   1   -3.68    2.12
  -8   7  -1   -2.22    1.92
   8  -7   2   38.13    4.74
  -8   7  -2   40.29    4.99
   8  -7   2   43.83    5.30
  -8   7  -3   28.03    4.21
   8  -7   3   28.13    4.05
  -8   7  -3   28.46    4.26
   8  -7   3   24.60    4.00
  -8   7  -4   42.03    5.23
  -8   7  -4   35.29    5.13
   8  -7   4   39.69    4.64
   8  -7   4   44.24    4.97
   8  -7   4   38.18    5.03
  -8   7  -4   32.35    4.45
  -8   7  -5  106.47    8.52
   8  -7   5  106.27    7.21
   8  -7   5  103.32    7.87
   8  -7   5  103.09    7.85
  -8   7  -5   96.80    8.15
  -8   7  -6   49.08    6.18
  -8   7  -6   38.20    5.33
   8  -7   6   29.17    4.50
   8  -7   6   39.11    5.19
  -8   7  -7    0.36    1.88
  -8   7  -7    3.64    2.38
  -8   7  -8   67.24    7.77
  -8   7  -8   70.21    7.18
   8  -7   8   68.04    7.37
  -8   7  -9    5.85    2.83
  -8   7  -9    3.64    1.60
   8  -7   9    4.29    1.85
  -8   6   9   62.36    7.08
   8  -6  -9   55.94    6.39
   8  -6  -8   36.54    5.16
  -8   6   8   48.81    5.81
   8  -6  -7   10.77    2.94
  -8   6   7    7.95    2.58
  -8   6   6   19.55    4.06
   8  -6  -6   11.11    3.06
  -8   6   5   25.46    4.14
   8  -6  -5   24.28    3.98
  -8   6   4   10.25    2.87
   8  -6  -4   10.01    2.95
   8  -6  -3   55.34    5.70
  -8   6   3   59.95    6.13
  -8   6   2   18.67    3.63
   8  -6  -2   22.82    3.78
   8  -6  -1    4.23    2.30
  -8   6   1   10.41    2.74
  -8   6   0    0.43    1.56
   8  -6   0   -0.25    1.71
  -8   6   0    1.40    1.33
  -8   6  -1   16.36    3.03
   8  -6   1   15.54    3.09
  -8   6  -1   16.94    3.38
   8  -6   2   57.65    5.29
   8  -6   2   56.04    4.92
   8  -6   2   51.94    5.28
  -8   6  -2   49.73    5.28
  -8   6  -2   50.45    5.28
  -8   6  -3   11.38    3.09
   8  -6   3    7.35    2.10
  -8   6  -3    3.23    1.70
   8  -6   3    8.10    2.24
   8  -6   3    7.09    2.69
  -8   6  -4    7.57    2.93
  -8   6  -4    4.61    2.06
   8  -6   4    4.88    1.86
   8  -6   4    3.59    1.97
   8  -6   4    5.25    2.36
  -8   6  -5   -0.69    1.83
  -8   6  -5   -0.82    1.68
   8  -6   5   -0.03    1.35
   8  -6   5   -0.29    1.87
  -8   6  -6   13.71    3.78
  -8   6  -6   14.66    3.46
   8  -6   6   11.90    2.93
  -8   6  -7  133.87    9.23
   8  -6   7  109.10    8.95
  -8   6  -7  127.40   10.27
  -8   6  -8   -3.14    2.28
  -8   6  -8   -1.33    1.57
   8  -6   8   -3.15    2.34
  -8   6  -9    4.31    2.49
   8  -6   9    8.74    3.10
   8  -5 -10    2.67    2.14
   8  -5 -10   -2.09    1.81
  -8   5  10   -3.48    2.32
   8  -5  -9    2.51    2.12
  -8   5   9    1.88    1.91
   8  -5  -8   16.53    3.70
   8  -5  -8   19.08    3.74
  -8   5   8   25.66    4.29
  -8   5   7  116.88    8.74
   8  -5  -7  108.99    8.15
   8  -5  -7  117.04    8.45
   8  -5  -6    2.07    1.86
   8  -5  -6   -2.80    1.75
  -8   5   6   -1.41    1.86
  -8   5   5    0.61    1.62
   8  -5  -5   -2.65    1.92
  -8   5   4  170.85    9.92
   8  -5  -4  175.07    9.71
  -8   5   3    2.27    1.96
   8  -5  -3    3.40    2.15
  -8   5   2   13.47    2.97
   8  -5  -2    7.33    2.48
  -8   5   1  160.25    9.02
   8  -5  -1  153.19    8.58
  -8   5   0  101.91    7.16
   8  -5   0  100.38    5.96
   8  -5   0   93.36    6.60
  -8   5  -1    3.88    1.98
   8  -5   1    4.66    1.69
  -8   5  -1    4.53    1.97
   8  -5   1    3.97    1.84
  -8   5  -2   31.79    4.38
   8  -5   2   38.47    4.24
   8  -5   2   36.18    4.08
  -8   5  -2   33.18    4.04
  -8   5  -3    2.57    2.03
  -8   5  -3    3.15    1.56
   8  -5   3    1.28    1.53
   8  -5   3    2.87    1.55
   8  -5   3    4.03    1.88
  -8   5  -4    0.44    1.83
  -8   5  -4   -0.69    1.10
   8  -5   4    0.50    1.45
   8  -5   4   -0.79    1.26
   8  -5   4    0.55    1.48
  -8   5  -5   -0.21    1.81
  -8   5  -5    0.24    1.51
   8  -5   5    2.93    2.02
  -8   5  -6    1.64    1.67
  -8   5  -6   -1.10    1.59
   8  -5   6   -0.40    1.52
  -8   5  -7   33.22    5.59
  -8   5  -7   44.38    5.14
   8  -5   7   37.42    5.35
  -8   5  -8   29.71    5.49
   8  -5   8   29.72    5.01
  -8   5  -9   27.27    5.53
   8  -5   9   29.89    5.52
   8  -4 -10   22.51    4.71
  -8   4  10   19.75    4.08
   8  -4 -10   17.52    3.87
   8  -4  -9    6.94    2.46
   8  -4  -9    6.92    2.70
  -8   4   9    6.39    2.63
   8  -4  -8    2.41    2.07
  -8   4   8    4.86    2.31
   8  -4  -8    0.48    1.52
   8  -4  -7    2.76    1.75
   8  -4  -7    5.87    2.38
  -8   4   7    3.20    2.28
   8  -4  -6   29.09    4.27
   8  -4  -6   31.98    4.26
  -8   4   6   27.12    4.32
   8  -4  -5   12.42    2.84
   8  -4  -5   15.83    2.92
  -8   4   5   13.26    3.04
   8  -4  -4    0.74    1.63
   8  -4  -4    1.08    1.54
  -8   4   4   -0.07    1.51
  -8   4   3   64.46    5.94
   8  -4  -3   64.41    4.89
   8  -4  -3   67.69    5.85
  -8   4   2   29.80    4.12
   8  -4  -2   28.91    3.89
   8  -4  -1   30.33    3.39
   8  -4  -1   33.70    4.02
  -8   4   1   31.66    4.12
  -8   4   0  261.22   10.84
   8  -4   0  274.14   10.18
   8  -4   0  260.50   10.60
  -8   4  -1   71.86    5.66
   8  -4   1   70.44    5.56
   8  -4   1   67.29    5.33
  -8   4  -2   99.01    6.51
   8  -4   2   99.98    6.84
   8  -4   2   94.00    6.14
  -8   4  -2  106.57    7.89
  -8   4  -3   19.42    3.56
   8  -4   3   17.46    3.19
  -8   4  -3   22.70    3.22
   8  -4   3   18.59    2.80
  -8   4  -4    1.48    2.14
  -8   4  -4    0.34    1.04
   8  -4   4   -1.35    1.26
  -8   4  -5   13.58    3.61
   8  -4   5   10.31    2.55
  -8   4  -6   22.72    4.52
  -8   4  -6   22.36    3.68
   8  -4   6   23.64    4.19
  -8   4  -7   -3.92    3.06
   8  -4   7    0.10    1.95
  -8   4  -8   65.09    8.12
   8  -4   8   62.46    7.34
  -8   4  -9    6.84    3.24
   8  -4   9    6.97    2.92
   8  -3 -11    0.44    2.06
  -8   3  11    2.35    1.81
   8  -3 -10   19.47    4.26
  -8   3  10   25.41    4.46
   8  -3 -10   23.79    4.30
   8  -3  -9   19.30    4.16
  -8   3   9   21.37    3.99
   8  -3  -9   15.99    3.62
   8  -3  -8    5.61    2.69
   8  -3  -8    1.48    2.02
  -8   3   8    4.37    2.34
   8  -3  -7    5.13    2.22
  -8   3   7    1.15    1.68
   8  -3  -6   30.36    4.10
  -8   3   6   34.02    4.59
   8  -3  -6   30.69    4.35
   8  -3  -5   32.66    3.98
   8  -3  -5   23.40    3.72
  -8   3   5   24.91    3.91
   8  -3  -4    9.45    2.53
   8  -3  -4    8.83    2.24
  -8   3   4    6.61    2.35
   8  -3  -3    2.48    1.84
   8  -3  -3   -1.17    1.40
   8  -3  -3    0.22    0.91
  -8   3   3    1.24    1.70
   8  -3  -2   17.42    3.06
   8  -3  -2   23.22    3.01
   8  -3  -2   19.15    2.78
  -8   3   2   18.89    3.33
   8  -3  -1    9.99    2.37
   8  -3  -1   15.04    2.51
   8  -3  -1   11.66    2.40
  -8   3   1    9.33    2.31
   8  -3   0   12.79    2.52
   8  -3   0   15.65    2.79
  -8   3   0   10.03    2.55
  -8   3  -1   73.64    5.60
   8  -3   1   73.97    5.83
   8  -3   1   74.07    5.42
  -8   3  -2    4.34    2.28
   8  -3   2    3.29    1.39
   8  -3   2    4.62    2.01
  -8   3  -2    1.58    1.25
  -8   3  -3   37.77    3.87
  -8   3  -3   35.97    4.95
   8  -3   3   30.92    4.22
   8  -3   3   33.35    3.49
  -8   3  -4   -4.54    2.48
   8  -3   4    2.75    1.87
  -8   3  -5   26.77    4.76
   8  -3   5   30.69    4.75
  -8   3  -6   27.57    5.10
   8  -3   6   18.75    3.89
  -8   3  -7   21.55    4.76
   8  -3   7   32.06    5.12
  -8   3  -8   16.28    4.09
   8  -3   8   17.82    4.11
  -8   3  -9    4.38    2.87
   8  -3   9    5.47    2.93
   8  -2 -11   33.61    5.68
  -8   2  11   32.41    4.94
   8  -2 -10    5.20    2.79
  -8   2  10    6.02    2.54
   8  -2  -9   37.06    5.05
   8  -2  -9   34.41    5.29
  -8   2   9   36.42    5.00
   8  -2  -8   23.06    4.14
   8  -2  -8   29.23    4.60
  -8   2   8   29.59    4.56
  -8   2   7   72.31    6.59
   8  -2  -7   67.20    6.41
   8  -2  -7   62.21    6.07
  -8   2   6   58.88    5.80
   8  -2  -6   63.31    5.98
   8  -2  -6   56.81    5.64
   8  -2  -5    4.14    1.96
   8  -2  -5    6.43    2.21
  -8   2   5    6.21    2.37
   8  -2  -4    7.47    2.37
   8  -2  -4    6.12    2.00
   8  -2  -4    4.76    1.69
  -8   2   4    3.94    1.74
   8  -2  -3    5.04    1.80
   8  -2  -3    1.37    1.33
  -8   2   3    3.59    1.73
   8  -2  -3    3.94    1.82
   8  -2  -2   12.80    2.50
   8  -2  -2   12.74    2.59
  -8   2   2   11.73    2.64
   8  -2  -2   11.26    2.49
   8  -2  -1    0.76    1.30
   8  -2  -1    1.12    1.06
  -8   2   1   -0.30    1.94
   8  -2  -1    2.36    1.61
   8  -2   0    2.06    1.66
   8  -2   0    2.67    1.26
  -8   2   0    0.61    1.22
   8  -2   0   -0.28    1.10
  -8   2  -1   78.79    5.63
   8  -2   1   73.21    5.01
   8  -2   1   75.89    6.12
   8  -2   1   70.31    5.15
  -8   2  -2   85.98    5.69
   8  -2   2   87.21    6.87
   8  -2   2   92.56    5.79
  -8   2  -3  145.75    7.18
   8  -2   3  137.76    8.83
  -8   2  -3  151.07   10.02
   8  -2   4   95.67    7.69
  -8   2  -4  115.90    9.19
  -8   2  -5    5.18    2.39
   8  -2   5    4.50    2.48
  -8   2  -6   -4.25    2.68
   8  -2   6    1.91    2.19
  -8   2  -7    4.04    2.45
   8  -2   7    5.47    2.70
  -8   2  -8    3.95    2.71
   8  -2   8    7.36    2.96
  -8   2  -9    8.00    3.45
   8  -2   9    7.99    3.27
  -8   1  12   24.03    4.41
   8  -1 -11   -0.50    2.10
  -8   1  11   -2.56    2.00
   8  -1 -10    3.53    2.45
  -8   1  10    1.75    2.22
   8  -1  -9    4.46    2.63
  -8   1   9    7.15    2.45
  -8   1   9    7.75    2.26
   8  -1  -8   27.38    4.49
   8  -1  -8   28.11    4.31
  -8   1   8   31.65    4.65
  -8   1   7   48.48    5.56
   8  -1  -7   47.69    5.67
   8  -1  -7   48.13    5.45
  -8   1   6  157.85    9.41
   8  -1  -6  142.51    8.99
   8  -1  -6  139.43    8.75
   8  -1  -5   24.26    3.74
   8  -1  -5   22.48    3.59
  -8   1   5   19.08    3.48
   8  -1  -4   -1.07    1.74
   8  -1  -4   -0.37    1.43
   8  -1  -4    0.90    1.37
  -8   1   4   -0.36    1.48
   8  -1  -3    5.16    1.98
   8  -1  -3    4.49    2.00
  -8   1   3    1.41    1.73
   8  -1  -3    1.97    1.52
  -8   1   2   37.38    4.34
   8  -1  -2   43.26    4.32
   8  -1  -2   34.07    4.12
   8  -1  -2   34.39    4.05
  -8   1   1   81.71    6.01
   8  -1  -1   96.29    6.25
   8  -1  -1   79.80    6.20
   8  -1  -1   90.79    6.19
   8  -1   0   12.25    2.51
   8  -1   0   10.62    2.74
   8  -1   0    9.37    2.06
  -8   1   0    7.19    1.90
   8  -1   1    1.04    1.85
   8  -1   1    0.44    1.28
   8  -1   1   -0.34    1.15
  -8   1  -1   -0.65    1.18
   8  -1   2   13.05    2.27
   8  -1   2   10.98    2.92
  -8   1  -2    9.56    2.13
  -8   1  -3    5.41    2.91
   8  -1   3    8.76    2.61
  -8   1  -3    6.51    2.14
   8  -1   4  202.80   11.36
  -8   1  -4  233.42    9.92
  -8   1  -4  207.27   12.36
   8  -1   5  135.72    9.61
  -8   1  -5  132.97   10.31
  -8   1  -6    6.40    3.03
   8  -1   6    7.60    2.73
  -8   1  -7   14.82    4.37
   8  -1   7   15.75    3.86
  -8   1  -8    8.21    3.58
   8  -1   8    5.75    2.76
   8   0 -11   29.21    5.46
  -8   0  11   19.15    3.79
   8   0 -10   11.75    3.55
  -8   0  10   15.58    3.40
  -8   0  10   15.74    3.71
  -8   0   9   57.04    6.30
   8   0  -9   44.81    5.99
  -8   0   9   45.21    5.49
   8   0  -8    1.04    1.97
  -8   0   8    1.92    2.18
  -8   0   8    4.52    2.63
   8   0  -7   10.02    3.06
  -8   0   7   20.17    3.77
  -8   0   7   17.13    3.58
   8   0  -6   17.89    3.47
  -8   0   6   18.31    3.53
  -8   0   6   14.41    3.23
   8   0  -5    5.25    2.27
  -8   0   5    9.06    2.67
  -8   0   5    5.48    2.27
   8   0  -4    2.90    1.82
   8   0  -4    3.91    2.05
  -8   0   4    2.13    1.99
  -8   0   4    1.78    1.72
   8   0  -3   16.04    3.04
   8   0  -3   11.85    2.88
  -8   0   3   15.80    3.21
  -8   0   3   11.29    2.73
   8   0  -2    0.07    1.50
   8   0  -2    0.51    1.40
  -8   0   2   -0.48    1.92
  -8   0   2   -0.35    1.53
  -8   0   1   52.35    4.91
   8   0  -1   62.99    5.40
   8   0  -1   48.62    5.21
  -8   0   1   57.05    5.45
  -8   0   0  242.04   10.04
   8   0   0  253.76   10.68
   8   0   0  232.40   11.26
  -8   0   0  230.92   10.52
  -8   0  -1   52.74    4.69
   8   0   1   46.25    5.25
  -8   0  -1   46.22    4.86
  -8   0  -2   75.46    5.28
   8   0   2   73.40    6.81
  -8   0  -2   81.93    6.27
  -8   0  -3   -3.39    2.44
   8   0   3    1.58    2.17
  -8   0  -3    0.20    1.51
  -8   0  -4    6.53    3.02
   8   0   4    1.87    1.83
  -8   0  -5   26.32    5.12
   8   0   5   27.58    4.74
   8   0   6  101.47    9.02
  -8   0  -6   78.78    8.39
  -8   0  -7   15.98    4.45
   8   0   7   11.47    3.55
  -8   0  -8    4.46    3.08
   8   0   8    2.94    2.51
   8   1 -11   10.54    3.25
  -8  -1  11   13.31    3.42
   8   1 -10   14.50    4.00
  -8  -1  10   12.63    3.28
  -8  -1  10    7.33    2.86
   8   1  -9   32.97    5.32
  -8  -1   9   36.64    5.14
  -8  -1   9   39.32    5.37
  -8  -1   8   92.11    7.88
   8   1  -8  104.10    8.61
  -8  -1   8  102.74    8.05
   8   1  -7   -0.28    1.80
  -8  -1   7    1.02    2.18
  -8  -1   7    0.94    1.42
   8   1  -6    2.66    2.01
  -8  -1   6    2.79    2.12
  -8  -1   6    5.72    2.60
  -8  -1   5   72.68    6.49
   8   1  -5   81.24    7.02
  -8  -1   5   77.86    6.79
  -8  -1   4   49.02    5.33
   8   1  -4   46.90    5.29
   8   1  -4   34.00    4.57
  -8  -1   4   39.92    4.93
  -8  -1   3   85.73    6.66
   8   1  -3   81.06    6.62
   8   1  -3   78.52    6.78
  -8  -1   3   78.77    6.72
  -8  -1   2   73.15    6.14
   8   1  -2   74.48    6.26
   8   1  -2   68.22    6.36
  -8  -1   2   68.55    6.17
   8   1  -1    8.40    2.58
   8   1  -1   12.94    2.95
  -8  -1   1    9.46    2.73
  -8  -1   1   11.01    2.55
   8   1   0    2.50    2.21
  -8  -1   0    1.03    1.75
  -8  -1   0   -0.17    1.36
   8   1   1   15.59    3.56
  -8  -1  -1   21.18    3.55
  -8  -1  -1   19.08    2.97
   8   1   2   30.91    4.68
  -8  -1  -2   31.09    4.26
  -8  -1  -3   30.85    5.20
   8   1   3   24.97    4.48
  -8  -1  -3   30.82    4.03
  -8  -1  -4    0.54    2.19
   8   1   4   -5.13    2.68
  -8  -1  -5    6.70    3.00
   8   1   5    7.78    3.35
  -8  -1  -6    2.22    2.38
   8   1   6    2.99    2.33
  -8  -1  -7   85.42    9.16
   8   1   7   84.47    8.59
  -8  -2  11   25.51    4.70
   8   2 -10    3.42    2.58
  -8  -2  10    2.94    2.21
  -8  -2  10    4.09    2.19
   8   2  -9   34.42    5.57
  -8  -2   9   29.40    4.78
  -8  -2   9   34.33    5.19
   8   2  -8   26.14    4.75
  -8  -2   8   25.77    4.42
  -8  -2   8   29.99    4.89
   8   2  -7   20.03    4.05
  -8  -2   7   19.82    4.03
  -8  -2   7   20.81    4.02
   8   2  -6    1.76    2.14
  -8  -2   6    1.27    2.22
  -8  -2   6    4.79    2.46
  -8  -2   5  220.63   11.48
   8   2  -5  230.60   11.96
  -8  -2   5  219.33   11.50
   8   2  -4   15.11    3.49
   8   2  -4   12.97    3.29
  -8  -2   4   16.55    3.79
  -8  -2   4   14.22    3.35
  -8  -2   3   72.86    6.41
   8   2  -3   81.86    7.03
   8   2  -3   74.57    7.03
  -8  -2   3   73.86    6.75
  -8  -2   2  117.52    7.72
   8   2  -2  123.09    8.49
   8   2  -2  122.65    8.94
  -8  -2   2  136.61    8.91
  -8  -2   1   85.25    6.56
   8   2  -1   93.03    7.46
   8   2  -1   77.52    7.23
  -8  -2   1   78.97    6.81
  -8  -2   0   65.00    5.54
   8   2   0   72.29    7.05
  -8  -2   0   68.28    6.37
   8   2   1   32.21    4.98
  -8  -2  -1   26.33    4.03
   8   2   2    2.25    1.83
  -8  -2  -2    4.18    2.15
  -8  -2  -3   19.35    4.50
   8   2   3   27.07    4.94
  -8  -2  -3   23.15    3.69
  -8  -2  -4   -2.14    2.41
   8   2   4    5.02    2.58
  -8  -2  -5   22.80    4.93
   8   2   5   15.94    4.12
  -8  -2  -6   26.97    5.11
   8   2   6   23.87    4.70
  -8  -2  -7    4.79    2.81
   8   3 -10   31.78    5.72
  -8  -3  10   36.13    5.71
  -8  -3  10   32.87    5.16
  -8  -3  10   34.01    5.43
   8   3  -9   -3.04    2.62
  -8  -3   9   -0.59    1.64
  -8  -3   9    1.48    2.14
  -8  -3   9    3.94    2.28
   8   3  -8   38.76    5.81
  -8  -3   8   43.44    5.60
  -8  -3   8   41.67    5.79
  -8  -3   8   30.85    4.95
  -8  -3   7   30.12    4.85
   8   3  -7   31.14    5.09
  -8  -3   7   40.05    5.06
  -8  -3   7   37.67    5.37
  -8  -3   6   71.86    6.96
   8   3  -6   69.33    7.14
  -8  -3   6   69.18    6.19
  -8  -3   6   66.45    6.85
  -8  -3   5   25.12    4.10
   8   3  -5   28.31    4.60
  -8  -3   5   26.58    4.60
  -8  -3   4  272.71   12.75
   8   3  -4  292.48   13.93
   8   3  -4  271.70   13.85
  -8  -3   4  290.68   13.64
  -8  -3   3   53.09    5.56
   8   3  -3   50.87    6.14
   8   3  -3   48.83    5.88
  -8  -3   3   51.12    5.97
  -8  -3   2    7.53    2.31
   8   3  -2    3.86    2.54
   8   3  -2    2.39    2.03
  -8  -3   2    4.70    2.24
   8   3  -1    5.48    2.54
   8   3  -1    5.45    2.64
  -8  -3   1    8.53    2.86
  -8  -3   1    5.44    2.03
   8   3   0   38.43    5.47
  -8  -3   0   39.85    5.17
  -8  -3   0   35.49    4.33
   8   3   1    3.68    1.93
  -8  -3  -1    0.29    1.70
   8   3   2   15.06    3.67
  -8  -3  -2   13.23    3.05
  -8  -3  -3   -4.02    2.56
   8   3   3    4.52    2.67
  -8  -3  -4   -2.95    2.37
   8   3   4   -3.79    2.47
  -8  -3  -5    1.98    2.10
   8   3   5    8.34    3.40
  -8  -3  -6   57.11    7.76
  -8  -4  10    9.72    3.48
  -8  -4  10    8.43    3.10
  -8  -4   9   25.56    4.75
   8   4  -9   21.29    4.72
  -8  -4   9   23.72    4.62
  -8  -4   9   18.41    4.18
  -8  -4   8   19.82    4.02
   8   4  -8   11.98    3.99
  -8  -4   8   12.17    3.44
  -8  -4   8   12.95    3.66
  -8  -4   7   29.42    4.79
   8   4  -7   26.50    5.07
  -8  -4   7   23.88    4.70
   8   4  -6    2.90    2.27
  -8  -4   6    1.67    2.22
   8   4  -5   10.61    3.41
  -8  -4   5    2.43    2.57
   8   4  -4   70.88    7.29
  -8  -4   4   66.10    6.98
   8   4  -3   72.86    7.34
   8   4  -3   77.13    7.94
  -8  -4   3   72.46    7.28
   8   4  -2   72.98    7.36
   8   4  -2   62.18    7.07
  -8  -4   2   73.20    7.27
  -8  -4   1    1.89    1.53
   8   4  -1    0.78    2.08
  -8  -4   1    2.40    2.08
   8   4   0    6.41    3.17
  -8  -4   0   10.39    3.02
   8   4   1   56.30    7.01
  -8  -4  -1   55.83    6.21
  -8  -4  -2   -3.72    2.72
   8   4   2    5.18    2.84
  -8  -4  -2    2.40    2.21
  -8  -4  -3   11.91    3.59
   8   4   3   17.79    4.08
  -8  -4  -4   20.06    4.64
   8   4   4   25.93    4.91
  -8  -5   8   -2.49    2.68
   8   5  -7   35.90    5.60
  -8  -5   7   39.84    5.81
   8   5  -6   41.97    6.21
  -8  -5   6   22.59    4.71
   8   5  -5   14.15    3.98
  -8  -5   5   13.66    3.80
   8   5  -4    6.12    2.84
  -8  -5   4    9.74    3.44
   8   5  -3    1.81    2.19
   8   5  -3    4.92    2.27
  -8  -5   3    7.49    3.11
   8   5  -2   53.56    6.93
   8   5  -2   51.96    6.50
  -8  -5   2   60.17    6.96
   8   5  -1   25.12    5.01
  -8  -5   1   31.88    5.32
   8   5   0    4.84    2.40
  -8  -5   0    5.41    2.94
   8   5   1   -1.96    2.40
  -8  -5  -1    0.14    2.02
  -8  -5  -2    5.34    2.50
  -8  -6   2    3.39    2.84
  -9  10   3    3.06    2.18
  -9  10   1   -5.35    2.78
  -9  10   0    0.83    1.92
   9 -10   0    4.89    2.87
   9 -10   1    5.57    2.93
  -9  10  -1    6.02    3.10
   9 -10   2   55.05    6.78
  -9  10  -2   55.70    7.30
   9 -10   3   23.01    4.38
   9 -10   3   27.12    5.44
   9 -10   4    1.76    1.35
   9 -10   4    2.92    2.49
   9 -10   5   10.18    2.92
  -9   9   4   -0.09    1.72
  -9   9   3    8.31    2.95
   9  -9  -3    9.25    3.25
  -9   9   3    9.82    2.93
  -9   9   2    4.12    2.25
   9  -9  -2    1.22    1.83
  -9   9   2    0.86    1.57
  -9   9   1    6.86    2.78
   9  -9  -1    5.32    2.81
   9  -9   0   18.33    4.00
  -9   9   0   16.48    4.12
   9  -9   1    2.27    2.12
  -9   9  -1    4.96    2.27
  -9   9  -2   13.97    3.69
   9  -9   2   13.61    3.28
  -9   9  -3   51.48    6.76
   9  -9   3   39.62    5.50
   9  -9   3   51.81    6.56
  -9   9  -4   48.72    6.67
   9  -9   4   44.15    5.54
   9  -9   4   42.80    6.11
  -9   9  -5    5.30    2.95
   9  -9   5    4.78    2.18
   9  -9   5    3.41    2.85
  -9   9  -6    2.19    2.21
   9  -9   6    6.55    2.96
  -9   8   6    3.60    2.40
  -9   8   5    1.75    1.80
   9  -8  -5    2.09    2.00
  -9   8   5   -0.63    2.27
  -9   8   4    0.90    1.95
   9  -8  -4    0.22    1.72
  -9   8   4    3.23    2.30
  -9   8   3   39.29    5.62
   9  -8  -3   24.88    4.61
  -9   8   3   30.19    4.51
  -9   8   2    2.86    2.30
   9  -8  -2    8.50    2.89
  -9   8   2    6.87    2.26
  -9   8   1    3.34    2.13
   9  -8  -1    1.33    1.75
  -9   8   1    5.04    2.06
   9  -8   0    5.76    2.55
  -9   8   0    4.57    2.39
   9  -8   1  125.96    9.04
  -9   8  -1  116.78    9.02
   9  -8   2   32.06    4.69
  -9   8  -2   27.67    4.62
  -9   8  -3   43.96    5.96
   9  -8   3   33.30    4.76
   9  -8   3   46.52    5.89
  -9   8  -3   31.10    4.94
  -9   8  -4   61.54    7.03
   9  -8   4   40.36    5.07
   9  -8   4   57.91    6.47
  -9   8  -5   15.41    4.10
   9  -8   5   25.05    4.70
  -9   8  -6    3.01    2.28
  -9   8  -7   47.35    6.46
   9  -8   7   41.04    5.88
  -9   8  -8   41.58    6.53
  -9   8  -8   30.85    5.07
   9  -8   8   44.68    6.26
   9  -7  -7   -0.26    1.77
  -9   7   7   -5.43    2.69
  -9   7   6   -2.51    1.98
   9  -7  -6    1.98    2.51
  -9   7   5   21.86    4.40
   9  -7  -5   23.92    4.38
  -9   7   4   10.95    3.23
   9  -7  -4   15.90    3.59
  -9   7   3    1.74    2.07
   9  -7  -3    2.58    2.15
  -9   7   2   20.53    3.93
   9  -7  -2   23.64    4.17
  -9   7   1    3.29    2.15
   9  -7  -1    5.54    2.51
  -9   7   0   -0.75    1.93
   9  -7   0   -3.33    2.09
  -9   7  -1   47.00    5.55
   9  -7   1   37.02    4.82
   9  -7   2   97.93    7.51
  -9   7  -2  106.77    8.14
   9  -7   3   94.94    7.35
  -9   7  -3   95.04    7.66
  -9   7  -4    4.44    2.11
  -9   7  -4   -0.22    2.27
  -9   7  -4    1.36    1.60
   9  -7   4    1.15    1.42
   9  -7   4    4.00    2.34
  -9   7  -5    6.18    2.61
   9  -7   5    2.19    1.86
  -9   7  -6   28.56    5.14
  -9   7  -6   30.97    5.24
   9  -7   6   31.61    4.95
  -9   7  -7   13.63    3.57
   9  -7   7    9.36    3.01
  -9   7  -8   11.48    3.31
   9  -7   8   20.22    4.56
   9  -6  -8   53.62    6.34
  -9   6   8   63.11    7.23
   9  -6  -7   14.36    3.43
  -9   6   7   21.37    4.35
   9  -6  -6    5.19    2.41
  -9   6   6    7.05    2.59
  -9   6   5   14.11    3.49
   9  -6  -5   14.47    3.35
  -9   6   4    4.55    2.29
   9  -6  -4    1.64    1.67
  -9   6   3    5.57    2.64
   9  -6  -3    1.68    1.81
   9  -6  -2   49.89    5.61
  -9   6   2   51.69    5.90
   9  -6  -1   96.38    7.53
  -9   6   1  103.59    8.07
   9  -6   0   70.26    6.38
  -9   6   0   62.18    5.93
  -9   6   0   65.03    6.34
  -9   6  -1    8.20    2.34
  -9   6  -1   12.43    3.12
   9  -6   1   11.64    2.87
  -9   6  -2   44.74    5.44
  -9   6  -2   34.23    4.50
   9  -6   2   32.70    4.30
  -9   6  -3   13.23    3.38
  -9   6  -3   14.49    3.04
   9  -6   3   18.18    3.40
   9  -6   3   13.29    2.90
  -9   6  -4   23.51    4.29
  -9   6  -4   22.84    3.59
   9  -6   4   22.95    4.00
   9  -6   4   23.28    3.58
  -9   6  -5    7.24    2.54
  -9   6  -5    7.88    2.85
   9  -6   5    5.86    2.54
  -9   6  -6   14.13    3.78
  -9   6  -6   14.63    3.65
   9  -6   6   12.26    3.40
  -9   6  -7    4.67    3.01
  -9   6  -7    2.13    1.95
   9  -6   7    0.42    1.87
  -9   6  -8   -5.19    3.20
   9  -6   8   -0.64    2.03
   9  -5  -9   -5.83    2.42
  -9   5   9    4.96    2.85
  -9   5   8   12.28    3.44
   9  -5  -8   15.14    3.69
   9  -5  -7   44.67    5.62
  -9   5   7   40.50    5.53
  -9   5   6  107.20    8.72
   9  -5  -6   86.83    7.61
   9  -5  -5   22.47    3.79
  -9   5   5   32.15    4.81
   9  -5  -4    7.69    2.62
  -9   5   4    6.62    2.58
  -9   5   3    1.36    2.44
   9  -5  -3    7.51    2.47
  -9   5   2  195.18   10.80
   9  -5  -2  189.90   10.30
  -9   5   1   68.16    6.36
   9  -5  -1   72.38    6.34
  -9   5   0  155.25    9.28
   9  -5   0  137.75    8.54
   9  -5   1  160.28    8.72
   9  -5   1  162.93    8.95
  -9   5  -1  172.67   10.35
  -9   5  -1  167.22    9.48
  -9   5  -2    6.93    2.72
   9  -5   2    6.36    2.27
  -9   5  -2    5.65    2.06
   9  -5   2    4.80    1.95
  -9   5  -3    1.11    1.74
  -9   5  -3   -0.17    1.29
   9  -5   3   -0.75    1.49
   9  -5   3   -3.50    1.77
  -9   5  -4   -1.18    1.93
   9  -5   4   -1.41    1.60
  -9   5  -5    8.42    3.03
  -9   5  -5    5.39    2.51
   9  -5   5    6.22    2.52
  -9   5  -6   20.82    4.42
  -9   5  -6   26.10    4.32
   9  -5   6   19.28    3.99
  -9   5  -7    7.06    3.38
   9  -5   7    5.66    2.83
  -9   5  -8   17.52    4.98
   9  -5   8   15.81    4.24
   9  -4 -10    3.68    2.18
   9  -4  -9   12.53    3.22
  -9   4   9    5.87    2.49
   9  -4  -9    8.76    3.03
   9  -4  -8   18.75    3.85
   9  -4  -8   24.84    4.19
  -9   4   8   23.67    4.51
   9  -4  -7   20.61    3.83
  -9   4   7   23.22    4.34
   9  -4  -7   23.07    4.26
   9  -4  -6    1.65    1.54
  -9   4   6    2.90    2.32
   9  -4  -6    4.01    2.28
  -9   4   5  118.20    8.76
   9  -4  -5  114.25    8.33
  -9   4   4   68.19    6.50
   9  -4  -4   62.38    6.14
  -9   4   3   95.42    7.54
   9  -4  -3   94.77    7.31
   9  -4  -2   -0.07    1.50
  -9   4   2    2.14    1.90
  -9   4   1  251.12   11.62
   9  -4  -1  260.10   10.51
   9  -4  -1  242.09   11.07
   9  -4   0    0.23    1.65
   9  -4   0   -1.02    1.27
  -9   4   0    1.02    1.75
   9  -4   1   32.01    4.09
   9  -4   1   31.41    4.10
  -9   4  -1   31.49    4.17
  -9   4  -2   52.07    5.11
   9  -4   2   55.56    5.62
   9  -4   2   52.91    4.96
  -9   4  -2   60.61    6.61
  -9   4  -3   33.40    5.14
   9  -4   3   35.05    3.99
   9  -4   3   30.36    4.36
  -9   4  -3   37.04    4.35
  -9   4  -4    2.26    2.33
   9  -4   4    0.08    1.51
  -9   4  -5    0.56    1.90
   9  -4   5    3.08    2.22
  -9   4  -6   -4.39    2.97
   9  -4   6    1.16    1.97
  -9   4  -7   11.20    4.01
   9  -4   7   10.09    3.42
  -9   4  -8   12.15    3.81
   9  -4   8   10.68    3.20
   9  -3 -10   -1.73    2.08
   9  -3 -10   -1.29    1.99
  -9   3  10    0.41    1.96
   9  -3  -9    3.27    2.12
   9  -3  -9    1.94    1.91
  -9   3   9    1.00    2.06
   9  -3  -8   18.16    3.81
  -9   3   8   18.03    3.82
   9  -3  -8   20.19    3.78
   9  -3  -7   46.96    5.58
   9  -3  -7   43.71    5.49
  -9   3   7   44.35    5.70
   9  -3  -6   27.76    4.41
   9  -3  -6   30.03    4.34
  -9   3   6   29.34    4.65
   9  -3  -5    0.02    1.44
  -9   3   5   -0.52    1.67
   9  -3  -5    0.89    1.59
   9  -3  -4    4.14    1.77
  -9   3   4    0.94    1.76
   9  -3  -4    0.96    1.58
   9  -3  -3    7.29    1.87
  -9   3   3   10.60    2.79
   9  -3  -3   11.17    2.67
  -9   3   2   49.08    5.22
   9  -3  -2   54.95    5.00
   9  -3  -2   48.72    5.14
  -9   3   1   67.97    6.05
   9  -3  -1   68.45    5.78
   9  -3  -1   64.74    5.78
  -9   3   0   44.83    4.84
   9  -3   0   44.43    4.81
   9  -3   0   37.14    4.33
   9  -3   1   17.96    3.38
  -9   3  -1   24.78    3.66
   9  -3   1   18.00    2.97
  -9   3  -2    2.78    2.26
   9  -3   2    0.08    1.71
  -9   3  -2    1.67    1.53
   9  -3   2   -1.54    1.15
  -9   3  -3   42.56    5.72
   9  -3   3   32.65    4.81
   9  -3   4   97.30    8.10
  -9   3  -4  105.92    9.21
  -9   3  -5    2.95    2.83
   9  -3   5    4.44    2.35
  -9   3  -6   10.72    3.52
   9  -3   6   11.90    3.39
  -9   3  -7   12.26    4.05
   9  -3   7    9.20    3.20
  -9   2  10  170.44   11.39
   9  -2 -10  163.44   11.64
   9  -2  -9   38.39    5.73
   9  -2  -9   39.51    5.42
  -9   2   9   46.62    5.97
   9  -2  -8    7.66    2.64
   9  -2  -8    5.38    2.84
  -9   2   8    5.11    2.44
  -9   2   7   59.67    6.46
   9  -2  -7   63.13    6.54
   9  -2  -7   77.58    7.16
   9  -2  -6   29.63    4.50
   9  -2  -6   38.79    5.02
  -9   2   6   39.30    5.18
   9  -2  -5    2.75    1.71
   9  -2  -5    2.63    1.81
  -9   2   5    3.30    1.63
   9  -2  -4   13.35    2.88
   9  -2  -4   13.12    2.91
   9  -2  -4    9.41    2.87
  -9   2   4   10.11    2.73
   9  -2  -3    7.10    2.16
   9  -2  -3    4.71    2.12
   9  -2  -3    7.72    2.49
  -9   2   3    3.86    1.94
   9  -2  -2    4.72    2.08
   9  -2  -2    6.87    2.00
   9  -2  -2    6.90    2.08
  -9   2   2    6.37    2.19
   9  -2  -1   -2.69    1.81
   9  -2  -1   -0.23    1.73
   9  -2  -1    0.09    1.10
  -9   2   1   -5.23    2.20
   9  -2   0   34.70    4.63
   9  -2   0   35.26    4.09
  -9   2   0   29.00    3.89
  -9   2  -1   81.61    6.18
   9  -2   1   78.23    6.77
   9  -2   1   70.53    5.64
  -9   2  -2   35.38    4.03
  -9   2  -2   37.62    5.44
   9  -2   2   42.67    5.24
   9  -2   2   33.36    3.85
  -9   2  -3   -4.63    2.82
   9  -2   3    1.51    2.09
  -9   2  -4   22.71    5.01
   9  -2   4   22.98    4.29
  -9   2  -5   -1.26    2.27
   9  -2   5    1.58    2.16
  -9   2  -6    6.09    3.15
   9  -2   6   11.19    3.47
  -9   2  -7   30.27    5.89
   9  -2   7   32.45    5.80
   9  -1 -10   14.43    4.03
  -9   1  10    6.66    3.02
  -9   1  10    9.57    3.12
  -9   1   9  133.21    9.85
   9  -1  -9  128.16   10.09
  -9   1   9  116.65    8.99
  -9   1   8  120.15    9.20
   9  -1  -8  111.75    9.04
  -9   1   8   98.34    8.19
   9  -1  -7   36.56    5.18
  -9   1   7   32.13    4.97
   9  -1  -6    0.04    2.03
  -9   1   6    0.10    1.46
   9  -1  -6    1.84    1.90
   9  -1  -5    7.71    2.38
   9  -1  -5    6.47    2.43
  -9   1   5    5.00    2.47
   9  -1  -4   19.36    3.68
   9  -1  -4   15.35    3.07
   9  -1  -4   14.97    3.18
  -9   1   4   11.11    3.03
   9  -1  -3   19.80    3.44
   9  -1  -3   16.49    3.25
  -9   1   3   13.76    3.04
   9  -1  -3   13.70    3.09
   9  -1  -2   -1.15    1.37
   9  -1  -2    2.83    1.64
   9  -1  -2    0.51    1.57
   9  -1  -1    9.42    2.33
   9  -1  -1   14.22    3.18
   9  -1  -1   11.53    2.65
  -9   1   1   10.76    2.51
   9  -1   0   -0.89    1.70
   9  -1   0   -0.81    1.12
  -9   1   0   -0.22    1.58
   9  -1   0   -2.71    1.59
   9  -1   1   41.20    5.28
   9  -1   1   33.24    3.96
  -9   1  -1   35.25    4.10
   9  -1   2  148.97    9.80
  -9   1  -2  166.59    9.44
   9  -1   3   62.23    6.69
  -9   1  -3   72.39    6.21
  -9   1  -3   76.01    7.94
  -9   1  -4   18.03    4.12
   9  -1   4   14.26    3.77
  -9   1  -5   16.18    4.55
   9  -1   5   23.59    4.77
  -9   1  -6    5.97    3.10
   9  -1   6   -2.02    2.41
  -9   1  -7    9.63    3.90
   9  -1   7   -1.23    2.38
   9   0 -10    9.71    3.87
  -9   0  10    0.18    1.75
  -9   0  10    5.74    2.51
   9   0  -9    9.98    3.50
  -9   0   9    4.79    2.43
  -9   0   9    8.55    2.97
  -9   0   8   92.74    8.31
   9   0  -8   79.31    7.90
  -9   0   8   91.40    7.97
   9   0  -7   19.24    3.92
  -9   0   7   30.35    4.85
  -9   0   7   24.84    4.34
   9   0  -6   12.47    3.24
  -9   0   6   16.08    3.65
  -9   0   6    9.59    2.92
   9   0  -5    1.10    1.94
  -9   0   5   -4.55    2.54
  -9   0   5   -1.46    1.67
   9   0  -4   13.33    3.05
   9   0  -4   13.07    3.10
  -9   0   4   10.83    3.19
  -9   0   4   10.46    2.96
   9   0  -3   -0.33    1.58
   9   0  -3   -1.98    2.06
  -9   0   3    1.46    1.84
  -9   0   3    0.19    1.61
   9   0  -2    2.39    1.71
   9   0  -2    1.78    1.69
  -9   0   2    4.33    2.58
  -9   0   2    2.97    1.84
   9   0  -1   16.39    3.41
   9   0  -1   21.58    3.58
  -9   0   1   18.95    3.70
  -9   0   1   15.17    3.16
   9   0   0    6.95    2.54
   9   0   0    9.59    2.35
  -9   0   0    9.08    2.85
  -9   0   0   10.42    2.59
   9   0   1   -1.38    2.18
   9   0   1    2.05    1.36
  -9   0  -1   -5.29    2.04
  -9   0  -1   -0.50    1.86
   9   0   2    5.69    2.54
  -9   0  -2   10.53    2.92
  -9   0  -3   19.62    4.36
   9   0   3   18.20    4.06
  -9   0  -3   16.97    3.46
  -9   0  -4    1.58    2.61
   9   0   4   10.26    3.25
  -9   0  -5   56.29    7.71
   9   0   5   69.79    7.72
  -9   0  -6   12.28    3.96
   9   0   6    6.16    2.95
  -9  -1  10    6.36    2.36
   9   1  -9   25.59    4.93
  -9  -1   9   21.86    4.33
  -9  -1   9   22.85    4.73
   9   1  -8    4.77    2.59
  -9  -1   8    7.28    3.07
  -9  -1   8    0.88    2.03
  -9  -1   7   61.12    6.70
   9   1  -7   56.36    6.55
  -9  -1   7   47.30    5.99
  -9  -1   6   58.23    6.44
   9   1  -6   52.53    6.16
  -9  -1   6   41.60    5.57
   9   1  -5   20.18    3.94
  -9  -1   5   19.27    4.12
  -9  -1   5   22.72    4.23
   9   1  -4    1.66    1.82
   9   1  -4    0.58    1.73
  -9  -1   4    5.59    2.36
  -9  -1   4   -0.25    1.53
   9   1  -3    4.40    2.12
   9   1  -3    3.67    1.99
  -9  -1   3    6.67    2.60
  -9  -1   3    3.80    2.04
   9   1  -2    2.02    2.04
   9   1  -2    2.57    1.96
  -9  -1   2    5.47    2.70
  -9  -1   2   -1.06    1.45
   9   1  -1    4.04    2.15
   9   1  -1    4.62    1.94
  -9  -1   1    6.29    2.67
  -9  -1   1   -0.91    1.33
  -9  -1   0   58.13    5.47
   9   1   0   55.03    5.82
   9   1   0   60.40    6.62
  -9  -1   0   58.04    6.13
   9   1   1   29.07    4.82
  -9  -1  -1   26.75    4.28
   9   1   2    5.96    2.84
  -9  -1  -2    0.25    1.81
  -9  -1  -3    4.07    2.86
   9   1   3    8.62    3.01
  -9  -1  -4   13.82    4.13
   9   1   4   10.81    3.53
  -9  -1  -5    2.31    3.26
   9   1   5   15.10    4.04
  -9  -2  10   21.07    4.42
   9   2  -9   -0.67    1.95
  -9  -2   9    1.08    1.97
  -9  -2   9   -0.12    1.82
   9   2  -8    6.30    2.78
  -9  -2   8    2.06    2.18
  -9  -2   8    2.50    2.02
   9   2  -7    5.20    2.89
  -9  -2   7    7.71    2.99
  -9  -2   7    5.86    2.69
   9   2  -6   39.21    5.58
  -9  -2   6   38.67    5.54
  -9  -2   6   38.98    5.37
  -9  -2   5  134.65    9.60
   9   2  -5  149.86   10.24
  -9  -2   5  137.97    9.93
  -9  -2   4   99.22    8.13
   9   2  -4   95.40    8.20
   9   2  -4   96.08    8.57
  -9  -2   4  102.27    8.62
   9   2  -3    7.98    2.59
   9   2  -3   11.04    3.40
  -9  -2   3    9.25    3.29
  -9  -2   3    9.01    2.74
  -9  -2   2   47.90    5.45
   9   2  -2   39.41    5.67
   9   2  -2   50.71    5.86
  -9  -2   2   46.51    5.81
   9   2  -1   18.98    4.19
   9   2  -1   25.07    4.38
  -9  -2   1   27.09    4.65
  -9  -2   1   27.56    4.20
   9   2   0    1.39    2.23
   9   2   0    2.03    2.03
  -9  -2   0    4.76    2.62
  -9  -2   0    0.21    1.40
   9   2   1   21.97    4.55
  -9  -2  -1   15.08    3.61
  -9  -2  -2   10.14    3.27
   9   2   2   12.26    3.90
  -9  -2  -2   10.31    3.31
  -9  -2  -3   -5.54    3.05
   9   2   3   -4.13    2.99
  -9  -2  -4   -0.44    3.64
   9   2   4    1.06    2.74
  -9  -3   9   20.02    4.55
   9   3  -8   14.52    4.37
  -9  -3   8   10.95    3.17
  -9  -3   8    8.80    3.36
  -9  -3   8   15.16    3.90
   9   3  -7   19.13    4.14
  -9  -3   7   10.12    3.44
  -9  -3   7   16.05    4.13
   9   3  -6   -0.03    1.90
  -9  -3   6    1.11    2.58
  -9  -3   6    0.66    2.17
   9   3  -5    6.17    2.62
  -9  -3   5   10.88    3.54
  -9  -3   5    8.01    2.93
   9   3  -4    5.43    2.72
   9   3  -4    6.71    2.80
  -9  -3   4   14.26    3.92
  -9  -3   4    5.91    2.20
  -9  -3   3  109.26    8.55
   9   3  -3  109.59    9.05
   9   3  -3  118.73    9.83
  -9  -3   3  115.97    9.26
   9   3  -2    8.08    3.11
   9   3  -2    0.76    1.90
  -9  -3   2    5.49    2.77
  -9  -3   2    5.22    2.63
   9   3  -1   47.07    6.62
   9   3  -1   48.61    6.16
  -9  -3   1   29.60    4.95
  -9  -3   1   37.42    4.88
   9   3   0   -0.90    2.24
  -9  -3   0   -1.15    1.67
   9   3   1    5.85    2.79
  -9  -3  -1    4.78    2.47
  -9  -3  -2    5.97    3.10
   9   3   2    4.77    2.84
  -9  -3  -2    9.20    2.86
  -9  -3  -3   34.84    5.98
   9   4  -6   17.76    4.23
  -9  -4   6   10.76    3.51
  -9  -4   6   17.26    4.08
  -9  -4   5   -1.97    1.74
  -9  -4   5   -0.47    2.11
  -9  -4   4   -4.15    2.45
   9   4  -4    2.25    2.28
  -9  -4   4    2.31    2.66
   9   4  -3    1.74    2.24
  -9  -4   3   -0.94    2.04
  -9  -4   3   -1.37    1.53
   9   4  -2   25.31    5.00
   9   4  -2   25.23    4.84
  -9  -4   2   18.98    4.25
  -9  -4   2   16.57    3.40
   9   4  -1   41.08    6.37
   9   4  -1   38.39    5.90
  -9  -4   1   44.08    5.87
   9   4   0   39.02    6.29
  -9  -4   0   37.67    5.47
  -9  -4  -1   10.70    3.40
  -9  -4  -2   15.18    4.46
  -9  -5   4    5.86    2.93
  -9  -5   3   15.21    3.75
 -10   9   3   -0.75    1.46
 -10   9   0    1.56    1.69
  10  -9   0   -2.34    2.08
 -10   9  -1   16.28    4.06
  10  -9   1   19.91    4.15
 -10   9  -2   12.05    3.43
  10  -9   2    4.44    2.19
 -10   9  -2    8.83    3.07
  10  -9   3   11.17    3.23
  10  -9   4   -0.32    1.77
 -10   8   3    1.15    1.77
  10  -8  -3    3.65    2.50
 -10   8   2    0.73    1.78
  10  -8  -2    3.14    2.43
 -10   8   1    3.51    2.12
  10  -8  -1    1.51    2.11
 -10   8   0   13.61    3.80
  10  -8   0    9.09    3.27
 -10   8  -1   -1.71    1.89
  10  -8   1    2.84    2.19
  10  -8   2   59.93    6.49
 -10   8  -2   71.61    7.39
 -10   8  -3   12.47    3.46
 -10   8  -3    9.29    2.98
  10  -8   3   12.37    3.18
 -10   8  -4   17.66    4.35
 -10   8  -5    1.83    1.85
  10  -7  -5    9.02    2.77
 -10   7   5    6.86    3.00
 -10   7   4    2.25    1.98
  10  -7  -4    2.76    1.84
 -10   7   3    2.68    2.38
  10  -7  -3    3.30    2.29
 -10   7   2    1.03    2.18
  10  -7  -2   -1.38    2.12
 -10   7   1    8.05    2.84
  10  -7  -1    2.00    2.07
 -10   7   0   13.23    3.57
  10  -7   0   12.55    3.27
 -10   7  -1    7.92    2.73
  10  -7   1    9.33    2.89
 -10   7  -2    5.11    2.37
  10  -7   2    0.83    1.44
 -10   7  -3   42.35    5.43
  10  -7   3   30.77    4.55
 -10   7  -4   44.17    6.13
 -10   7  -4   38.88    5.77
 -10   7  -5   20.01    4.81
 -10   7  -5   20.18    4.45
 -10   7  -6   -0.01    1.23
 -10   7  -6    0.33    1.59
  10  -7   6   -2.39    2.13
 -10   7  -7    1.34    1.79
  10  -6  -6    3.43    2.19
 -10   6   6    0.59    1.84
  10  -6  -5    6.93    2.91
 -10   6   5    8.09    3.11
  10  -6  -4   12.93    3.21
 -10   6   4    2.56    2.10
 -10   6   3   12.02    3.36
  10  -6  -3   12.51    3.13
 -10   6   2   12.45    3.32
  10  -6  -2   17.54    3.79
 -10   6   1   -0.81    2.28
  10  -6  -1   -2.99    2.53
 -10   6   0    4.76    2.44
  10  -6   0    2.84    1.78
 -10   6  -1   23.33    4.15
 -10   6  -1   17.27    3.64
  10  -6   1   15.62    3.43
 -10   6  -2   32.10    4.63
  10  -6   2   26.34    3.99
 -10   6  -3    7.65    2.98
 -10   6  -3    9.80    2.69
  10  -6   3    6.59    2.37
 -10   6  -4   11.38    3.70
  10  -6   4    7.56    2.50
 -10   6  -5   59.41    7.57
 -10   6  -5   49.84    6.32
  10  -6   5   60.86    6.83
 -10   6  -6   13.80    3.86
 -10   6  -6   11.65    3.31
  10  -6   6   11.45    3.45
 -10   5   7   16.81    3.87
  10  -5  -7   12.18    3.47
 -10   5   6   41.98    5.96
  10  -5  -6   43.27    5.91
  10  -5  -5   12.53    3.40
 -10   5   5   10.84    3.21
  10  -5  -4   16.69    3.62
 -10   5   4   18.37    4.09
  10  -5  -3   -0.34    1.59
 -10   5   3    1.79    2.14
 -10   5   2  126.38    9.24
  10  -5  -2  136.00    9.18
 -10   5   1  127.80    9.11
  10  -5  -1  138.69    9.17
  10  -5   0    1.70    1.82
 -10   5   0    1.05    1.93
 -10   5   0   -2.22    2.14
  10  -5   1   -0.46    1.54
 -10   5  -1   -2.43    2.20
 -10   5  -1    0.03    1.54
  10  -5   2   25.94    3.91
 -10   5  -2   24.02    4.59
  10  -5   2   21.88    3.85
 -10   5  -2   24.57    4.13
 -10   5  -3   19.20    4.19
  10  -5   3   13.33    3.13
 -10   5  -4    8.41    3.13
  10  -5   4    5.49    2.22
 -10   5  -5    3.50    2.70
 -10   5  -5    2.84    2.15
  10  -5   5   -3.62    2.27
 -10   5  -6    3.27    2.66
  10  -5   6   11.35    3.46
 -10   4   8   10.54    3.31
  10  -4  -8   10.40    3.38
  10  -4  -7   21.70    4.50
 -10   4   7   15.30    3.83
 -10   4   6   37.44    5.57
  10  -4  -6   31.29    5.05
 -10   4   5    2.74    2.46
  10  -4  -5   -0.15    1.61
 -10   4   4   -0.83    2.26
  10  -4  -4   -1.22    2.20
  10  -4  -3    0.91    1.74
 -10   4   3    3.77    2.27
  10  -4  -2    3.66    2.27
 -10   4   2    3.59    2.32
  10  -4  -1   22.70    3.73
 -10   4   1   25.17    4.31
 -10   4   0  298.57   13.22
  10  -4   0  314.83   13.08
  10  -4   0  289.25   12.56
 -10   4  -1   24.91    4.74
  10  -4   1   20.22    3.74
  10  -4   1   20.16    3.62
 -10   4  -1   28.04    4.21
  10  -4   2   -0.03    1.58
 -10   4  -2    3.06    1.70
  10  -4   2    3.16    1.80
  10  -4   3   92.43    7.91
 -10   4  -3  106.58    9.46
 -10   4  -4    5.52    3.14
  10  -4   4   15.50    3.66
 -10   4  -5    4.88    2.91
  10  -4   5    5.10    2.69
 -10   4  -6    4.49    3.20
  10  -4   6    6.45    2.87
  10  -3  -9    6.37    2.80
  10  -3  -8   -2.23    1.81
  10  -3  -8   -0.04    2.10
 -10   3   8   -0.32    1.85
  10  -3  -7    0.60    1.95
  10  -3  -7    4.17    2.07
 -10   3   7    1.09    2.08
  10  -3  -6    3.33    2.04
  10  -3  -6    8.04    2.71
 -10   3   6    5.23    2.82
  10  -3  -5   21.02    3.98
 -10   3   5   20.19    4.08
  10  -3  -4   28.05    4.48
 -10   3   4   37.30    5.21
  10  -3  -3   22.41    3.93
 -10   3   3   10.34    2.88
  10  -3  -2   -2.77    1.88
 -10   3   2    0.29    1.40
  10  -3  -1    3.03    1.87
  10  -3  -1    3.09    2.01
 -10   3   1    5.55    2.43
  10  -3   0   22.03    3.77
  10  -3   0   17.98    3.59
 -10   3   0   21.62    3.73
 -10   3  -1  188.56   10.18
  10  -3   1  196.82   10.98
  10  -3   1  187.02    9.80
  10  -3   2   99.52    8.24
 -10   3  -2  110.69    9.64
 -10   3  -3   17.07    4.29
  10  -3   3   15.24    3.79
 -10   3  -4    9.01    3.73
  10  -3   4    1.83    2.19
 -10   3  -5    2.45    2.39
  10  -3   5    5.07    2.53
 -10   3  -6   -5.84    3.15
  10  -3   6    1.57    2.44
  10  -2  -9   81.09    8.28
 -10   2   9   85.81    8.07
  10  -2  -8   19.49    4.01
  10  -2  -8   22.58    4.48
 -10   2   8   26.51    4.73
  10  -2  -7   24.11    4.37
  10  -2  -7   20.61    4.17
 -10   2   7   12.39    3.56
  10  -2  -6    1.81    2.01
 -10   2   6    1.58    2.04
  10  -2  -6    1.22    1.81
  10  -2  -5   32.37    4.63
  10  -2  -5   37.43    5.18
 -10   2   5   27.80    4.63
  10  -2  -4   10.99    3.09
  10  -2  -4    9.26    2.71
 -10   2   4    9.78    2.77
  10  -2  -3   19.47    3.71
  10  -2  -3   16.03    3.14
  10  -2  -3   13.38    3.13
 -10   2   3   22.88    4.03
  10  -2  -2   23.39    3.88
  10  -2  -2   26.80    4.09
 -10   2   2   24.26    3.99
  10  -2  -1   21.00    3.67
  10  -2  -1   22.20    3.84
 -10   2   1   16.25    3.50
  10  -2   0   21.68    3.71
  10  -2   0   23.02    4.10
 -10   2   0   19.27    3.47
 -10   2  -1   79.46    6.60
  10  -2   1   72.58    7.06
  10  -2   1   78.69    6.39
  10  -2   2  144.02   10.11
 -10   2  -2  157.32   11.67
  10  -2   3   82.37    7.94
 -10   2  -3   75.18    6.76
 -10   2  -3   91.42    9.14
 -10   2  -4    2.64    2.75
  10  -2   4    5.23    2.70
 -10   2  -5    9.86    3.97
  10  -2   5   13.20    3.68
  10  -1  -9    1.10    2.11
 -10   1   9    4.90    2.82
  10  -1  -8   42.44    5.95
 -10   1   8   54.31    6.67
 -10   1   8   50.56    6.39
  10  -1  -7   26.92    4.92
 -10   1   7   34.72    5.51
 -10   1   7   30.34    4.93
 -10   1   6   63.61    6.87
  10  -1  -6   61.19    6.65
 -10   1   6   70.85    7.23
  10  -1  -5    2.16    2.03
 -10   1   5    1.34    2.31
 -10   1   5   -4.03    2.14
  10  -1  -4   13.72    3.34
  10  -1  -4   14.35    3.24
 -10   1   4   19.75    3.74
  10  -1  -3    2.41    1.92
  10  -1  -3    1.74    1.98
  10  -1  -2    8.67    2.54
  10  -1  -2    5.94    2.45
 -10   1   2    8.33    2.99
 -10   1   2    6.56    2.40
  10  -1  -1   23.30    4.16
  10  -1  -1   21.08    3.47
 -10   1   1   22.02    4.12
 -10   1   1   24.92    4.10
 -10   1   0   59.35    5.81
  10  -1   0   55.14    6.30
 -10   1   0   64.97    6.67
  10  -1   1   75.58    7.48
 -10   1  -1   74.19    6.96
 -10   1  -2    7.26    3.22
  10  -1   2    8.75    3.21
 -10   1  -2    4.40    2.61
 -10   1  -3   15.42    4.35
  10  -1   3   12.75    3.60
 -10   1  -3   11.21    3.19
 -10   1  -4   18.26    4.92
  10  -1   4   19.26    4.36
 -10   1  -5    1.73    2.57
  10  -1   5    3.02    2.60
 -10   0   9   19.10    4.45
  10   0  -8   13.93    3.85
 -10   0   8    9.38    3.53
 -10   0   8   13.49    3.72
  10   0  -7    1.42    1.99
 -10   0   7    1.49    2.00
 -10   0   7    0.36    1.57
  10   0  -6   10.64    3.37
 -10   0   6   20.15    4.14
 -10   0   6   21.43    4.34
  10   0  -5   67.30    6.91
 -10   0   5   56.16    6.62
 -10   0   5   55.19    6.40
  10   0  -4   20.59    3.95
  10   0  -4   25.13    4.46
 -10   0   4   22.31    4.27
 -10   0   4   27.12    4.69
  10   0  -3   32.61    4.77
  10   0  -3   19.11    3.93
 -10   0   3   25.14    4.56
 -10   0   3   26.75    4.42
 -10   0   2   52.64    5.94
  10   0  -2   53.48    5.81
  10   0  -2   47.24    6.03
 -10   0   2   42.52    5.68
  10   0  -1   -5.85    2.68
  10   0  -1   -1.85    1.91
 -10   0   1   -1.86    2.36
 -10   0   1   -4.74    2.28
  10   0   0   36.75    5.43
  10   0   0   35.57    4.86
 -10   0   0   30.43    4.27
 -10   0   0   28.84    4.74
  10   0   1   15.56    3.81
  10   0   1   11.36    3.01
 -10   0  -1   19.20    3.94
 -10   0  -2   15.46    4.05
  10   0   2   17.47    4.46
 -10   0  -2   11.52    3.20
 -10   0  -3    5.28    3.04
  10   0   3   -4.52    2.61
 -10   0  -4   -5.41    3.70
  10   0   4   -1.06    2.28
 -10  -1   8   51.82    6.66
  10   1  -7   11.38    3.46
 -10  -1   7    0.87    2.48
 -10  -1   7   10.37    3.13
  10   1  -6   -1.89    2.13
 -10  -1   6    2.29    2.85
 -10  -1   6    0.61    1.90
  10   1  -5   25.53    4.62
 -10  -1   5   27.27    4.94
 -10  -1   5   21.70    4.40
  10   1  -4    4.48    2.46
  10   1  -4   -1.91    2.20
 -10  -1   4    0.63    2.06
 -10  -1   4    1.18    1.90
  10   1  -3   10.90    3.06
  10   1  -3    9.51    3.09
 -10  -1   3   12.35    3.64
 -10  -1   3    9.13    2.76
 -10  -1   2   93.07    7.81
  10   1  -2   81.31    7.56
  10   1  -2   93.57    8.74
 -10  -1   2   87.62    8.06
 -10  -1   1   61.40    6.19
  10   1  -1   78.00    7.38
  10   1  -1   79.39    8.08
 -10  -1   1   81.07    7.70
  10   1   0    2.50    2.27
  10   1   0    8.07    2.82
 -10  -1   0    7.94    3.08
  10   1   1   -5.51    2.33
 -10  -1  -1   -1.75    2.13
  10   1   2    1.90    2.27
 -10  -1  -2    2.97    2.18
 -10  -1  -3   -2.54    2.89
  10   2  -6   29.87    5.43
 -10  -2   6   31.14    5.72
 -10  -2   6   28.51    4.87
  10   2  -5    8.04    3.01
 -10  -2   5    5.03    3.05
 -10  -2   5   11.36    3.29
  10   2  -4   17.23    4.14
  10   2  -4   11.95    3.78
 -10  -2   4   15.29    4.07
 -10  -2   4   10.48    3.11
  10   2  -3   15.98    3.60
  10   2  -3    8.65    3.57
 -10  -2   3   10.91    3.76
 -10  -2   3    8.37    2.86
  10   2  -2    0.25    2.23
  10   2  -2   -5.10    2.46
 -10  -2   2    0.61    2.74
 -10  -2   2   -3.06    1.85
  10   2  -1   41.17    6.23
  10   2  -1   36.56    5.50
 -10  -2   1   41.35    5.80
 -10  -2   1   37.28    5.00
  10   2   0   19.32    4.42
  10   2   0   18.41    4.17
 -10  -2   0   14.15    3.87
  10   2   1    7.28    3.17
  10   2   1    2.58    2.22
 -10  -2  -1    8.49    3.09
 -10  -3   5   -2.02    1.95
  10   3  -4   23.61    4.70
 -10  -3   4   11.33    3.26
  10   3  -3    0.41    1.62
 -10  -3   3    5.27    2.37
  10   3  -2    1.46    2.30
 -10  -3   2   -4.28    2.82
 -10  -3   2    1.94    1.83
  10   3  -1   -2.66    2.13
 -10  -3   1    0.47    2.08
 -10  -3   0   16.53    4.02
 -10  -3  -1   25.51    4.71
 -11   8  -1    0.15    1.83
  11  -8   1    2.47    2.11
 -11   8  -2   -2.52    1.92
  11  -8   2    1.52    1.53
 -11   8  -3    5.67    2.58
  11  -8   3   14.34    3.67
 -11   7   2    9.95    3.30
  11  -7  -2   17.24    3.82
 -11   7   1    3.23    2.73
  11  -7  -1    3.06    1.86
 -11   7   0    1.41    2.39
  11  -7   0    0.19    1.84
 -11   7  -1   15.17    3.70
  11  -7   1    9.65    2.94
 -11   7  -2   -0.12    2.17
  11  -7   2   -1.06    1.58
  11  -6  -3   15.08    3.74
 -11   6   3   10.41    3.23
  11  -6  -2   38.21    5.38
 -11   6   2   27.42    4.81
  11  -6  -1    0.81    1.54
 -11   6   1   -1.08    1.80
  11  -6   0    3.34    2.15
 -11   6   0   -0.20    2.15
 -11   6  -1   33.32    5.49
  11  -6   1   38.10    5.08
 -11   6  -1   25.97    4.57
 -11   6  -2    8.71    3.35
  11  -6   2   16.65    3.44
 -11   6  -2   19.25    3.79
 -11   6  -3    4.60    2.66
 -11   6  -4   21.19    4.88
 -11   6  -5   -4.50    2.18
  11  -6   5    4.34    2.49
 -11   5   4   28.81    4.94
  11  -5  -4   29.49    4.99
 -11   5   3   -0.40    1.84
  11  -5  -3    1.46    1.92
  11  -5  -2   -1.69    2.06
 -11   5   2    2.99    2.11
  11  -5  -1   38.20    5.30
 -11   5   1   53.74    6.23
 -11   5   0    0.30    1.41
  11  -5   0    0.17    0.92
 -11   5   0    2.81    1.99
 -11   5  -1   -0.05    2.02
  11  -5   1    5.23    2.51
 -11   5  -1    4.80    2.44
 -11   5  -2   12.92    4.11
 -11   5  -3    4.60    2.67
  11  -5   3    3.10    2.23
 -11   5  -4    8.28    3.50
  11  -5   4    1.17    1.17
  11  -5   5    8.85    3.28
  11  -4  -5   13.92    3.76
 -11   4   5   19.83    4.62
  11  -4  -4   11.51    3.32
 -11   4   4    5.68    2.81
  11  -4  -3    7.08    2.35
 -11   4   3    0.62    2.01
 -11   4   2    2.59    1.93
  11  -4  -2    3.04    1.94
 -11   4   1   36.52    5.21
  11  -4  -1   39.68    5.22
 -11   4   0    6.76    2.65
  11  -4   0   10.24    2.82
  11  -4   1   19.33    3.63
 -11   4  -1   27.40    5.03
  11  -4   1   15.92    3.68
 -11   4  -1   20.75    3.96
 -11   4  -2   30.31    5.52
  11  -4   2   26.31    4.67
 -11   4  -3   22.71    4.90
  11  -4   3   17.68    3.98
 -11   4  -4    3.91    3.32
  11  -4   4    0.07    1.46
  11  -3  -5   -2.16    2.18
 -11   3   5   -0.21    1.87
 -11   3   4   17.11    3.86
  11  -3  -4   13.22    3.50
 -11   3   3   14.92    3.75
  11  -3  -3   11.81    3.43
 -11   3   2   -2.22    1.89
  11  -3  -2   -1.56    1.79
 -11   3   1    8.33    2.67
  11  -3  -1    8.47    2.82
  11  -3   0   37.59    5.28
 -11   3   0   32.76    4.75
  11  -3   0   27.81    4.34
 -11   3  -1   -5.82    3.07
  11  -3   1    1.09    1.88
 -11   3  -2   34.40    5.94
  11  -3   2   31.76    5.10
 -11   3  -3   29.58    5.89
  11  -3   3   26.14    5.16
  11  -3   4   32.05    5.50
  11  -2  -7    1.07    1.97
  11  -2  -6    1.50    2.25
 -11   2   6    0.04    1.64
 -11   2   5   10.02    3.11
  11  -2  -5   12.58    3.16
  11  -2  -4   -0.33    1.67
 -11   2   4   -0.33    1.88
 -11   2   3    7.77    2.89
  11  -2  -3    4.40    2.12
  11  -2  -2    0.34    1.44
 -11   2   2    0.00    1.97
  11  -2  -2   -0.76    1.48
  11  -2  -1    4.12    2.35
  11  -2  -1    1.67    1.66
 -11   2   0   83.65    7.42
  11  -2   0   85.07    7.95
  11  -2   0   70.19    6.57
  11  -2   1   47.99    6.19
 -11   2  -1   49.91    6.14
 -11   2  -2   -1.87    2.24
  11  -2   2   -1.23    2.33
 -11   2  -2    4.67    2.43
  11  -2   3   -1.22    2.03
  11  -1  -7    2.43    2.26
  11  -1  -6    6.61    2.63
  11  -1  -5   10.94    3.37
 -11   1   5   13.45    3.75
 -11   1   5    9.33    3.33
  11  -1  -4    0.24    1.76
 -11   1   4    1.31    1.85
 -11   1   4    1.49    2.49
  11  -1  -3   32.81    5.16
 -11   1   3   35.34    5.26
 -11   1   3   38.35    5.83
  11  -1  -2    9.63    3.17
 -11   1   2   15.35    3.38
 -11   1   2   11.47    3.50
  11  -1  -1    1.30    1.90
 -11   1   1   -2.68    2.09
 -11   1   1   -0.09    2.11
  11  -1   0    6.43    2.75
 -11   1   0    5.99    2.96
  11  -1   1   47.49    6.31
 -11   1  -1   42.68    5.80
  11  -1   2   39.33    5.99
 -11   1  -2   56.51    6.64
  11   0  -6    5.10    2.69
  11   0  -5   -1.47    2.12
 -11   0   5   -0.74    2.13
  11   0  -4   -2.87    1.92
  11   0  -4    2.73    2.13
 -11   0   4   -0.60    1.68
 -11   0   4   -1.23    1.82
  11   0  -3    6.26    2.49
  11   0  -3    2.36    2.21
 -11   0   3    5.30    2.87
 -11   0   3   -0.96    2.07
 -11   0   2   61.05    6.53
  11   0  -2   48.91    6.01
  11   0  -2   45.48    6.41
 -11   0   2   52.39    6.71
  11   0  -1   44.60    6.38
 -11   0   1   38.89    5.43
 -11   0   1   44.73    6.16
  11   0   0   11.81    3.75
 -11   0   0   11.27    3.37
 -11   0  -1    1.76    2.15
 -11   0  -2    7.22    2.63
  11   1  -4   31.68    5.37
  11   1  -4   22.89    4.71
 -11  -1   4   36.47    5.64
  11   1  -3   52.32    6.68
  11   1  -3   49.12    6.68
 -11  -1   3   45.29    5.95
  11   1  -2    8.07    2.83
  11   1  -2    9.05    3.51
 -11  -1   2    4.14    1.98
  11   1  -1   14.96    3.53
 -12   6  -1   -4.71    2.13
 -12   5   1   -0.33    1.58
  12  -5  -1    0.53    1.62
 -12   5   0    2.19    2.18
 -12   5   0    7.85    2.88
  12  -5   0    3.09    1.68
 -12   4   1   15.41    3.84
  12  -4  -1   15.66    3.73
 -12   4   0   15.90    3.80
  12  -4   0   17.06    3.82
 -12   3   2    2.25    2.19
  12  -3  -2    2.93    2.17
  12  -3  -1    0.61    1.39
 -12   3   1    2.50    2.00
  12  -3   1    8.73    3.04
 -12   2   2    1.50    1.72
  12  -2  -1   -2.12    2.14
 -12   2   1   -2.03    2.00
   0   0   0    0.00    0.00
;
_shelx_hkl_checksum              97892
_shelx_res_file
;
TITL SIR97 run in space group P -1
CELL  0.71073   8.1800   8.4006   9.9661  102.173   94.897  107.504
ZERR     2.00   0.0004   0.0006   0.0004    0.005    0.004    0.005
LATT   1
SFAC  C    H    O    P    N
UNIT 20 28 12 2 2
LIST 4 ! automatically inserted. Change 6 to 4 for CHECKCIF!!
MERG   2
OMIT -2 0 5
OMIT 0 -3 1
OMIT -1   1   5
OMIT 0 0 5
OMIT -5 1 3
OMIT -3 2 4
OMIT -4 3 0
OMIT -2 -2 2
OMIT -6 1 7
OMIT -1 -6 6
OMIT -3 1 3
OMIT 0 -6 7
OMIT -5 1 6
SHEL 1000 0.70
FMAP   2
PLAN   25
ACTA
BOND   $H
SIZE 0.40 0.35 0.20
CONF
L.S.  40
TEMP  -100.00
WGHT    0.055500    0.172900
FVAR       0.94116
P1    4    0.259930    0.158874    0.410732    11.00000    0.01850    0.02768 =
         0.02616    0.01212    0.00364    0.00507
O4    3   -0.015624    0.246909    0.426623    11.00000    0.03014    0.02684 =
         0.02990    0.01001    0.01505    0.01099
C3    1    0.129074    0.328493    0.240365    11.00000    0.02005    0.02435 =
         0.02133    0.00723    0.00272    0.00876
O2    3    0.371409    0.127996    0.294296    11.00000    0.02540    0.05180 =
         0.03528    0.02076    0.01079    0.02112
C5    1    0.072013    0.188857    0.318532    11.00000    0.01903    0.02207 =
         0.02253    0.00649    0.00581    0.00752
O1    3    0.210300    0.022565    0.485514    11.00000    0.02458    0.03509 =
         0.04057    0.02254    0.00676    0.00874
O3    3    0.373748    0.338814    0.505499    11.00000    0.03154    0.03636 =
         0.03005    0.01046   -0.00122   -0.00651
C8    1    0.225968    0.577050    0.093846    11.00000    0.02899    0.03005 =
         0.02750    0.01375    0.00648    0.01099
C9    1    0.109465    0.488794    0.287551    11.00000    0.03401    0.02802 =
         0.02763    0.00969    0.01305    0.01475
AFIX  44
H9    2    0.065662    0.511468    0.366705    11.00000   -1.20000
AFIX   0
C10   1   -0.043461    0.017910    0.220953    11.00000    0.02362    0.02525 =
         0.02929    0.00508    0.00220    0.00479
AFIX 138
H10A  2   -0.081106   -0.065463    0.273522    11.00000   -1.50000
H10B  2    0.020835   -0.021885    0.153442    11.00000   -1.50000
H10C  2   -0.142243    0.034298    0.174944    11.00000   -1.50000
AFIX   0
C11   1    0.201480    0.296516    0.119989    11.00000    0.03112    0.02525 =
         0.02308    0.00575    0.00635    0.01191
AFIX  44
H11   2    0.217640    0.184725    0.087229    11.00000   -1.20000
AFIX   0
N1    5    0.276227    0.707807    0.013585    11.00000    0.04435    0.03643 =
         0.03463    0.01885    0.01265    0.01652
C13   1    0.250768    0.420786    0.046272    11.00000    0.03447    0.03334 =
         0.02156    0.00903    0.00955    0.01495
AFIX  44
H13   2    0.296807    0.400676   -0.029112    11.00000   -1.20000
AFIX   0
O6    3    0.229883    0.833599    0.041399    11.00000    0.07561    0.04128 =
         0.05326    0.02665    0.02455    0.03212
C15   1    0.156842    0.614438    0.213686    11.00000    0.04004    0.02791 =
         0.03331    0.01203    0.01336    0.01699
AFIX  44
H15   2    0.142093    0.722684    0.244735    11.00000   -1.20000
AFIX   0
O5    3    0.361552    0.683525   -0.077744    11.00000    0.12339    0.06847 =
         0.08122    0.05274    0.07532    0.05513
C17   1    0.529883    0.090274    0.321483    11.00000    0.03440    0.09068 =
         0.06522    0.04477    0.02102    0.03942
AFIX 138
H17A  2    0.607755    0.180681    0.388398    11.00000   -1.50000
H17B  2    0.576957    0.074909    0.240822    11.00000   -1.50000
H17C  2    0.506309   -0.008897    0.352621    11.00000   -1.50000
AFIX   0
C18   1    0.356188    0.399036    0.646696    11.00000    0.04939    0.04932 =
         0.03265   -0.00087    0.00251   -0.00509
AFIX 138
H18A  2    0.256519    0.429465    0.649491    11.00000   -1.50000
H18B  2    0.451841    0.494163    0.689800    11.00000   -1.50000
H18C  2    0.348807    0.312565    0.692434    11.00000   -1.50000
AFIX   0
H1A   2   -0.068574    0.158864    0.456209    11.00000   -1.20000
HKLF 4
REM  SIR97 run in space group P -1
REM R1 =  0.0412 for    3070 Fo > 4sig(Fo)  and  0.0562 for all    3827 data
REM    176 parameters refined using      0 restraints
END
WGHT      0.0555      0.1729
REM Highest difference peak  0.342,  deepest hole -0.281,  1-sigma level  0.054
Q1    1   0.3738  0.6611 -0.1023  11.00000  0.05    0.34
Q2    1   0.2351  0.0802  0.4461  11.00000  0.05    0.34
Q3    1   0.2643  0.6680 -0.0974  11.00000  0.05    0.34
Q4    1   0.1662  0.1844  0.3598  11.00000  0.05    0.34
Q5    1   0.1022  0.2524  0.2805  11.00000  0.05    0.33
Q6    1   0.1402  0.3046  0.1638  11.00000  0.05    0.32
Q7    1   0.0233  0.1048  0.2640  11.00000  0.05    0.30
Q8    1   0.1968  0.5940  0.1563  11.00000  0.05    0.30
Q9    1   0.2869  0.2670  0.4647  11.00000  0.05    0.30
Q10   1   0.5545  0.0788  0.4025  11.00000  0.05    0.29
Q11   1   0.4301  0.7326 -0.0004  11.00000  0.05    0.29
Q12   1   0.3266  0.8677  0.0781  11.00000  0.05    0.29
Q13   1   0.1317  0.5454  0.2449  11.00000  0.05    0.28
Q14   1   0.2169  0.3569  0.0854  11.00000  0.05    0.27
Q15   1   0.6182  0.1652  0.2788  11.00000  0.05    0.25
Q16   1   0.2557  0.6418  0.0655  11.00000  0.05    0.24
Q17   1   0.2390  0.5045  0.0837  11.00000  0.05    0.23
Q18   1   0.2822  0.3558  0.6828  11.00000  0.05    0.23
Q19   1   0.0374  0.2183  0.3636  11.00000  0.05    0.22
Q20   1   0.4203  0.2085  0.3553  11.00000  0.05    0.21
Q21   1   0.1105  0.3997  0.2601  11.00000  0.05    0.20
Q22   1   0.3140  0.1037  0.3328  11.00000  0.05    0.20
Q23   1   0.3323  0.1548  0.3653  11.00000  0.05    0.20
Q24   1  -0.1198 -0.0601  0.3994  11.00000  0.05    0.19
Q25   1   0.1585  0.4122  0.2796  11.00000  0.05    0.19
;
_shelx_res_checksum              44036
_shelxl_version_number           2.014
loop_
_space_group_symop_operation_xyz
'x, y, z'
'-x, -y, -z'
loop_
_atom_site_type_symbol
_atom_site_label
_atom_site_fract_x
_atom_site_fract_y
_atom_site_fract_z
_atom_site_U_iso_or_equiv
_atom_site_adp_type
_atom_site_calc_flag
_atom_site_occupancy
P P1 0.25993(4) 0.15887(5) 0.41073(4) 0.02383(11) Uani d 1
O O4 -0.01562(13) 0.24691(13) 0.42662(11) 0.0275(2) Uani d 1
C C3 0.12907(16) 0.32849(17) 0.24037(13) 0.0214(2) Uani d 1
O O2 0.37141(13) 0.12800(15) 0.29430(11) 0.0336(3) Uani d 1
C C5 0.07201(16) 0.18886(17) 0.31853(13) 0.0207(2) Uani d 1
O O1 0.21030(13) 0.02257(14) 0.48551(11) 0.0315(2) Uani d 1
O O3 0.37375(14) 0.33881(14) 0.50550(11) 0.0367(3) Uani d 1
C C8 0.22597(19) 0.57705(19) 0.09385(15) 0.0274(3) Uani d 1
C C9 0.10946(19) 0.48879(18) 0.28755(15) 0.0279(3) Uani d 1
H H9 0.0657(9) 0.5115(5) 0.3667(17) 0.033 Uiso calc 1
C C10 -0.04346(18) 0.01791(18) 0.22095(15) 0.0272(3) Uani d 1
H H10A -0.0811(12) -0.0655(10) 0.2735(6) 0.041 Uiso calc 1
H H10B 0.0208(8) -0.0219(9) 0.1534(10) 0.041 Uiso calc 1
H H10C -0.1422(13) 0.0343(4) 0.1749(10) 0.041 Uiso calc 1
C C11 0.20148(18) 0.29652(18) 0.11999(14) 0.0258(3) Uani d 1
H H11 0.2176(3) 0.185(2) 0.0872(6) 0.031 Uiso calc 1
N N1 0.27623(19) 0.70781(18) 0.01358(14) 0.0357(3) Uani d 1
C C13 0.25077(19) 0.42079(19) 0.04627(15) 0.0282(3) Uani d 1
H H13 0.2968(10) 0.4007(5) -0.0291(16) 0.034 Uiso calc 1
O O6 0.2299(2) 0.83360(17) 0.04140(15) 0.0505(3) Uani d 1
C C15 0.1568(2) 0.6144(2) 0.21369(16) 0.0312(3) Uani d 1
H H15 0.1421(4) 0.723(2) 0.2447(7) 0.037 Uiso calc 1
O O5 0.3616(3) 0.6835(2) -0.07774(19) 0.0765(6) Uani d 1
C C17 0.5299(2) 0.0903(3) 0.3215(2) 0.0542(6) Uani d 1
H H17A 0.6078(14) 0.1807(16) 0.3884(15) 0.081 Uiso calc 1
H H17B 0.5770(13) 0.075(2) 0.2408(12) 0.081 Uiso calc 1
H H17C 0.5063(5) -0.0089(18) 0.3526(17) 0.081 Uiso calc 1
C C18 0.3562(3) 0.3990(3) 0.64670(19) 0.0507(5) Uani d 1
H H18A 0.2565(18) 0.429(2) 0.64949(19) 0.076 Uiso calc 1
H H18B 0.4518(17) 0.4942(18) 0.6898(8) 0.076 Uiso calc 1
H H18C 0.349(2) 0.3126(14) 0.6924(8) 0.076 Uiso calc 1
H H1A -0.069(3) 0.159(3) 0.456(3) 0.061 Uiso d 1
loop_
_atom_site_aniso_label
_atom_site_aniso_U_11
_atom_site_aniso_U_22
_atom_site_aniso_U_33
_atom_site_aniso_U_12
_atom_site_aniso_U_13
_atom_site_aniso_U_23
P1 0.01850(16) 0.02768(19) 0.02616(18) 0.00507(13) 0.00364(12) 0.01212(14)
O4 0.0301(5) 0.0268(5) 0.0299(5) 0.0110(4) 0.0150(4) 0.0100(4)
C3 0.0201(6) 0.0243(6) 0.0213(6) 0.0088(5) 0.0027(4) 0.0072(5)
O2 0.0254(5) 0.0518(7) 0.0353(6) 0.0211(5) 0.0108(4) 0.0208(5)
C5 0.0190(5) 0.0221(6) 0.0225(6) 0.0075(5) 0.0058(4) 0.0065(5)
O1 0.0246(5) 0.0351(6) 0.0406(6) 0.0087(4) 0.0068(4) 0.0225(5)
O3 0.0315(6) 0.0364(6) 0.0300(5) -0.0065(5) -0.0012(4) 0.0105(5)
C8 0.0290(7) 0.0301(7) 0.0275(7) 0.0110(6) 0.0065(5) 0.0137(6)
C9 0.0340(7) 0.0280(7) 0.0276(7) 0.0147(6) 0.0130(6) 0.0097(5)
C10 0.0236(6) 0.0252(7) 0.0293(7) 0.0048(5) 0.0022(5) 0.0051(5)
C11 0.0311(7) 0.0252(6) 0.0231(6) 0.0119(5) 0.0063(5) 0.0058(5)
N1 0.0443(8) 0.0364(7) 0.0346(7) 0.0165(6) 0.0127(6) 0.0189(6)
C13 0.0345(7) 0.0333(7) 0.0216(6) 0.0149(6) 0.0096(5) 0.0090(5)
O6 0.0756(10) 0.0413(7) 0.0533(8) 0.0321(7) 0.0246(7) 0.0267(6)
C15 0.0400(8) 0.0279(7) 0.0333(7) 0.0170(6) 0.0134(6) 0.0120(6)
O5 0.1234(15) 0.0685(10) 0.0812(11) 0.0551(11) 0.0753(11) 0.0527(9)
C17 0.0344(9) 0.0907(16) 0.0652(13) 0.0394(10) 0.0210(9) 0.0448(12)
C18 0.0494(11) 0.0493(11) 0.0326(9) -0.0051(8) 0.0025(8) -0.0009(8)
loop_
_atom_type_symbol
_atom_type_description
_atom_type_scat_dispersion_real
_atom_type_scat_dispersion_imag
_atom_type_scat_source
C C 0.0033 0.0016 'International Tables Vol C Tables 4.2.6.8 and 6.1.1.4'
H H 0.0000 0.0000 'International Tables Vol C Tables 4.2.6.8 and 6.1.1.4'
O O 0.0106 0.0060 'International Tables Vol C Tables 4.2.6.8 and 6.1.1.4'
P P 0.1023 0.0942 'International Tables Vol C Tables 4.2.6.8 and 6.1.1.4'
N N 0.0061 0.0033 'International Tables Vol C Tables 4.2.6.8 and 6.1.1.4'
loop_
_geom_angle_atom_site_label_1
_geom_angle_atom_site_label_2
_geom_angle_atom_site_label_3
_geom_angle
O1 P1 O2 115.61(6)
O1 P1 O3 114.01(6)
O2 P1 O3 102.79(6)
O1 P1 C5 112.77(6)
O2 P1 C5 103.31(6)
O3 P1 C5 107.26(6)
C5 O4 H1A 107.4(16)
C9 C3 C11 119.21(12)
C9 C3 C5 120.69(12)
C11 C3 C5 120.10(12)
C17 O2 P1 121.67(11)
O4 C5 C3 108.65(10)
O4 C5 C10 111.20(10)
C3 C5 C10 111.47(11)
O4 C5 P1 104.11(8)
C3 C5 P1 111.08(8)
C10 C5 P1 110.10(9)
C18 O3 P1 123.59(11)
C13 C8 C15 122.26(13)
C13 C8 N1 118.35(13)
C15 C8 N1 119.39(13)
C3 C9 C15 120.60(13)
C3 C9 H9 119.7
C15 C9 H9 119.7
C5 C10 H10A 109.5
C5 C10 H10B 109.5
H10A C10 H10B 109.5
C5 C10 H10C 109.5
H10A C10 H10C 109.5
H10B C10 H10C 109.5
C13 C11 C3 120.80(13)
C13 C11 H11 119.6
C3 C11 H11 119.6
O6 N1 O5 123.31(14)
O6 N1 C8 118.61(13)
O5 N1 C8 118.08(13)
C8 C13 C11 118.65(13)
C8 C13 H13 120.7
C11 C13 H13 120.7
C8 C15 C9 118.46(13)
C8 C15 H15 120.8
C9 C15 H15 120.8
O2 C17 H17A 109.5
O2 C17 H17B 109.5
H17A C17 H17B 109.5
O2 C17 H17C 109.5
H17A C17 H17C 109.5
H17B C17 H17C 109.5
O3 C18 H18A 109.5
O3 C18 H18B 109.5
H18A C18 H18B 109.5
O3 C18 H18C 109.5
H18A C18 H18C 109.5
H18B C18 H18C 109.5
loop_
_geom_bond_atom_site_label_1
_geom_bond_atom_site_label_2
_geom_bond_distance
P1 O1 1.4708(10)
P1 O2 1.5625(11)
P1 O3 1.5636(11)
P1 C5 1.8330(13)
O4 C5 1.4258(15)
O4 H1A 0.86(3)
C3 C9 1.3914(19)
C3 C11 1.3940(18)
C3 C5 1.5228(18)
O2 C17 1.4414(18)
C5 C10 1.5292(19)
O3 C18 1.426(2)
C8 C13 1.380(2)
C8 C15 1.382(2)
C8 N1 1.4732(18)
C9 C15 1.3916(19)
C9 H9 0.902(18)
C10 H10A 0.955(10)
C10 H10B 0.955(10)
C10 H10C 0.955(10)
C11 C13 1.3831(19)
C11 H11 0.979(17)
N1 O6 1.2135(18)
N1 O5 1.2137(19)
C13 H13 0.876(19)
C15 H15 0.944(19)
C17 H17A 0.922(13)
C17 H17B 0.922(13)
C17 H17C 0.922(13)
C18 H18A 0.926(13)
C18 H18B 0.926(13)
C18 H18C 0.926(13)
loop_
_geom_torsion_atom_site_label_1
_geom_torsion_atom_site_label_2
_geom_torsion_atom_site_label_3
_geom_torsion_atom_site_label_4
_geom_torsion
O1 P1 O2 C17 -53.42(16)
O3 P1 O2 C17 71.43(15)
C5 P1 O2 C17 -177.09(14)
C9 C3 C5 O4 6.74(17)
C11 C3 C5 O4 -173.11(11)
C9 C3 C5 C10 129.61(13)
C11 C3 C5 C10 -50.23(16)
C9 C3 C5 P1 -107.20(13)
C11 C3 C5 P1 72.95(14)
O1 P1 C5 O4 64.33(10)
O2 P1 C5 O4 -170.16(8)
O3 P1 C5 O4 -62.00(10)
O1 P1 C5 C3 -178.91(9)
O2 P1 C5 C3 -53.40(10)
O3 P1 C5 C3 54.76(10)
O1 P1 C5 C10 -54.94(11)
O2 P1 C5 C10 70.57(10)
O3 P1 C5 C10 178.73(9)
O1 P1 O3 C18 -33.54(16)
O2 P1 O3 C18 -159.44(14)
C5 P1 O3 C18 92.04(15)
C11 C3 C9 C15 1.8(2)
C5 C3 C9 C15 -178.05(13)
C9 C3 C11 C13 -1.1(2)
C5 C3 C11 C13 178.70(12)
C13 C8 N1 O6 168.34(15)
C15 C8 N1 O6 -12.0(2)
C13 C8 N1 O5 -11.3(2)
C15 C8 N1 O5 168.37(18)
C15 C8 C13 C11 1.3(2)
N1 C8 C13 C11 -179.05(13)
C3 C11 C13 C8 -0.4(2)
C13 C8 C15 C9 -0.6(2)
N1 C8 C15 C9 179.69(13)
C3 C9 C15 C8 -0.9(2)

_cod_database_fobs_code 2021480
