#------------------------------------------------------------------------------
#$Date: 2019-09-07 06:47:23 +0300 (Sat, 07 Sep 2019) $
#$Revision: 218064 $
#$URL: file:///home/coder/svn-repositories/cod/cif/2/02/17/2021763.cif $
#------------------------------------------------------------------------------
#
# This file is available in the Crystallography Open Database (COD),
# http://www.crystallography.net/. The original data for this entry
# were provided by IUCr Journals, http://journals.iucr.org/.
#
# The file may be used within the scientific community so long as
# proper attribution is given to the journal article from which the
# data were obtained.
#
data_2021763
loop_
_publ_author_name
'Jin, Guoxia'
'Ji, Yuqi'
'Wang, Teng'
'Sun, Yanyan'
'Li, Yulong'
'Zhu, Guiying'
'Ma, Jianping'
_publ_section_title
;
 Syntheses and characterization of dinuclear and tetranuclear AgI
 supramolecular complexes generated from symmetric and asymmetric
 molecular clips containing oxadiazole rings
;
_journal_coeditor_code           YF3187
_journal_issue                   10
_journal_name_full
'Acta Crystallographica Section C Structural Chemistry'
_journal_paper_doi               10.1107/S2053229619011744
_journal_volume                  75
_journal_year                    2019
_chemical_formula_iupac          '[Ag2 (C2 F3 O2)2 (C12 H8 N4 O1)2]'
_chemical_formula_moiety         'C28 H16 Ag2 F6 N8 O6'
_chemical_formula_sum            'C28 H16 Ag2 F6 N8 O6'
_chemical_formula_weight         890.23
_chemical_name_systematic
;
<i>catena</i>-Poly[[di-\m-trifluoroacetato-disilver(I)]-bis[\m-2,5-\
bis(pyridin-3-yl)-1,3,4-oxadiazole]]
;
_space_group_crystal_system      triclinic
_space_group_IT_number           2
_space_group_name_Hall           '-P 1'
_space_group_name_H-M_alt        'P -1'
_symmetry_space_group_name_Hall  '-P 1'
_symmetry_space_group_name_H-M   'P -1'
_atom_sites_solution_hydrogens   geom
_atom_sites_solution_primary     direct
_atom_sites_solution_secondary   difmap
_cell_angle_alpha                78.970(16)
_cell_angle_beta                 82.579(14)
_cell_angle_gamma                72.591(16)
_cell_formula_units_Z            1
_cell_length_a                   7.4159(12)
_cell_length_b                   9.5352(18)
_cell_length_c                   11.158(2)
_cell_measurement_reflns_used    2345
_cell_measurement_temperature    293(2)
_cell_measurement_theta_max      70.7620
_cell_measurement_theta_min      9.7910
_cell_volume                     736.8(2)
_computing_cell_refinement
;
CrysAlis PRO (Rigaku OD, 2015)
;
_computing_data_collection
;
CrysAlis PRO (Rigaku OD, 2015)
;
_computing_data_reduction
;
CrysAlis PRO (Rigaku OD, 2015)
;
_computing_molecular_graphics
;
OLEX2 (Dolomanov <i>et al.</i>,  2009)
;
_computing_publication_material
;
OLEX2 (Dolomanov <i>et al.</i>,  2009)
;
_computing_structure_refinement
;
SHELXL97 (Sheldrick, 2008)
;
_computing_structure_solution
;
SHELXS97 (Sheldrick, 2008)
;
_diffrn_ambient_temperature      293(2)
_diffrn_detector                 'CCD plate'
_diffrn_detector_area_resol_mean 16.0793
_diffrn_measured_fraction_theta_full 0.9931
_diffrn_measured_fraction_theta_max 0.5662
_diffrn_measurement_device       'four-circle diffractometer'
_diffrn_measurement_device_type
'Rigaku OD SuperNova Dual source diffractometer with an Eos detector'
_diffrn_measurement_method       '\w scans'
_diffrn_radiation_monochromator  mirror
_diffrn_radiation_probe          x-ray
_diffrn_radiation_type           'Cu K\a'
_diffrn_radiation_wavelength     1.54184
_diffrn_reflns_av_R_equivalents  0.0375
_diffrn_reflns_av_unetI/netI     0.0390
_diffrn_reflns_limit_h_max       8
_diffrn_reflns_limit_h_min       -7
_diffrn_reflns_limit_k_max       11
_diffrn_reflns_limit_k_min       -11
_diffrn_reflns_limit_l_max       11
_diffrn_reflns_limit_l_min       -13
_diffrn_reflns_number            4467
_diffrn_reflns_theta_full        67.06
_diffrn_reflns_theta_max         67.07
_diffrn_reflns_theta_min         4.05
_diffrn_source                   'micro-focus sealed X-ray tube'
_exptl_absorpt_coefficient_mu    11.553
_exptl_absorpt_correction_T_max  1.00000
_exptl_absorpt_correction_T_min  0.16274
_exptl_absorpt_correction_type   multi-scan
_exptl_absorpt_process_details
;
(CrysAlis PRO; Rigaku OD, 2015)
;
_exptl_crystal_colour            colourless
_exptl_crystal_density_diffrn    2.006
_exptl_crystal_density_method    'not measured'
_exptl_crystal_description       block
_exptl_crystal_F_000             436
_exptl_crystal_size_max          0.16
_exptl_crystal_size_mid          0.07
_exptl_crystal_size_min          0.05
_refine_diff_density_max         1.565
_refine_diff_density_min         -1.328
_refine_ls_extinction_coef       0.0077(11)
_refine_ls_extinction_expression Fc^*^=kFc[1+0.001xFc^2^\l^3^/sin(2\q)]^-1/4^
_refine_ls_extinction_method
;
SHELXL (Sheldrick, 2008)
;
_refine_ls_goodness_of_fit_ref   1.033
_refine_ls_hydrogen_treatment    mixed
_refine_ls_matrix_type           full
_refine_ls_number_parameters     246
_refine_ls_number_reflns         2606
_refine_ls_number_restraints     26
_refine_ls_restrained_S_all      1.042
_refine_ls_R_factor_all          0.0632
_refine_ls_R_factor_gt           0.0613
_refine_ls_shift/su_max          0.001
_refine_ls_shift/su_mean         0.000
_refine_ls_structure_factor_coef Fsqd
_refine_ls_weighting_details
'calc w=1/[\s^2^(Fo^2^)+(0.1341P)^2^+0.9025P] where P=(Fo^2^+2Fc^2^)/3'
_refine_ls_weighting_scheme      calc
_refine_ls_wR_factor_gt          0.1690
_refine_ls_wR_factor_ref         0.1735
_reflns_number_gt                2460
_reflns_number_total             2606
_reflns_threshold_expression     >2sigma(I)
_cod_data_source_file            yf3187sup1.cif
_cod_data_source_block           exp_3343
_cod_database_code               2021763
_shelx_res_file
;
TITL exp_3343 in P-1
CELL 1.54178 7.4159 9.5352 11.1583 78.97 82.579 72.591
ZERR 1 0.0012 0.0018 0.0021 0.016 0.014 0.016
LATT 1
SFAC C H N O F Ag
UNIT 28 16 8 6 6 2
SADI 0.01 O2 C13 O2' C13
SADI 0.01 O3 C13 O3' C13
ISOR 0.002 0.004 O2 O3 O2' O3'
L.S. 4
PLAN  20
BIND O3' Ag1
BIND O3 Ag1
FREE F3 F2
BOND $H
conf
htab 2
fmap 2
acta
SHEL 999 0.837
REM <HKL>D:/data/20190501/3343-wangteng/olex2_exp_3343/exp_3343.hkl</HKL>
WGHT    0.134100    0.902500
EXTI    0.007686
FVAR       0.19612   0.53849
N4    3   -0.024984    0.810121    0.763997    11.00000    0.05573    0.03731 =
         0.03415   -0.00675   -0.01314   -0.01191
C11   1    0.059470    0.803112    0.963926    11.00000    0.10424    0.05266 =
         0.04532   -0.01991   -0.02619   -0.01547
AFIX  43
H11   2    0.053694    0.852526    1.029166    11.00000   -1.20000
AFIX   0
C9    1    0.067631    0.667030    0.769496    11.00000    0.05231    0.04009 =
         0.02634   -0.00914   -0.01169   -0.01224
AFIX  43
H9    2    0.070201    0.620438    0.703042    11.00000   -1.20000
AFIX   0
AG1   6    0.147955    0.055708    0.407731    11.00000    0.06145    0.04674 =
         0.03169   -0.00503   -0.01757   -0.00547
O1    4    0.241936    0.354856    0.785553    11.00000    0.05060    0.03462 =
         0.03018   -0.00474   -0.01598   -0.00710
N1    3    0.290682    0.013715    0.581073    11.00000    0.04329    0.04173 =
         0.03217   -0.00570   -0.01565   -0.00547
C1    1    0.386324   -0.126314    0.626977    11.00000    0.05107    0.03736 =
         0.04138   -0.00733   -0.01445   -0.00581
AFIX  43
H1    2    0.393454   -0.202877    0.584377    11.00000   -1.20000
AFIX   0
N3    3    0.356841    0.342921    0.961829    11.00000    0.10244    0.04611 =
         0.03832   -0.00971   -0.02884   -0.00663
N2    3    0.416207    0.199388    0.925534    11.00000    0.09684    0.03680 =
         0.04055   -0.00344   -0.04046   -0.00230
C7    1    0.258249    0.426831    0.876593    11.00000    0.05499    0.04409 =
         0.02789   -0.00643   -0.01870   -0.01389
C6    1    0.344814    0.213332    0.823914    11.00000    0.04642    0.03777 =
         0.03560   -0.00420   -0.01248   -0.00651
C5    1    0.279831    0.121114    0.644472    11.00000    0.04410    0.03231 =
         0.03176   -0.00181   -0.01158   -0.00439
AFIX  43
H5    2    0.213641    0.218211    0.613911    11.00000   -1.20000
AFIX   0
C4    1    0.362499    0.094866    0.753696    11.00000    0.04134    0.04571 =
         0.02716   -0.00484   -0.00739   -0.01213
C8    1    0.160792    0.584680    0.871270    11.00000    0.05342    0.04046 =
         0.03150   -0.00397   -0.01302   -0.01432
C3    1    0.458628   -0.048579    0.800310    11.00000    0.05344    0.04756 =
         0.03850   -0.00522   -0.02067   -0.00338
AFIX  43
H3    2    0.512606   -0.070193    0.874816    11.00000   -1.20000
AFIX   0
C10   1   -0.030233    0.875048    0.861661    11.00000    0.07304    0.04292 =
         0.04682   -0.01608   -0.01315   -0.00983
AFIX  43
H10   2   -0.099008    0.974562    0.858984    11.00000   -1.20000
AFIX   0
C12   1    0.159860    0.654395    0.968967    11.00000    0.08939    0.04432 =
         0.03372   -0.00525   -0.03101   -0.01212
AFIX  43
H12   2    0.225452    0.602459    1.036962    11.00000   -1.20000
AFIX   0
C2    1    0.472817   -0.159969    0.733203    11.00000    0.05150    0.03449 =
         0.04895   -0.00588   -0.01684    0.00368
AFIX  43
H2    2    0.541286   -0.257464    0.760718    11.00000   -1.20000
AFIX   0
C14   1   -0.267569    0.434950    0.635375    11.00000    0.05626    0.06070 =
         0.05517   -0.01770    0.00013   -0.02278
F1    5   -0.447523    0.485112    0.661312    11.00000    0.08770    0.07324 =
         0.30646   -0.06881    0.04915   -0.00867
C13   1   -0.202626    0.281008    0.616062    11.00000    0.04842    0.04949 =
         0.09589   -0.01379   -0.00638   -0.01138
F3    5   -0.229849    0.524461    0.542014    11.00000    0.23781    0.09094 =
         0.18467    0.02859    0.05976   -0.04378
F2    5   -0.180882    0.467491    0.709575    11.00000    0.21097    0.18426 =
         0.26049   -0.12001   -0.11260   -0.04501
PART 1
O2    4   -0.249902    0.177557    0.681604    21.00000    0.08404    0.08130 =
         0.08532   -0.01258   -0.00478   -0.02470
O3    4   -0.117902    0.270201    0.508749    21.00000    0.06056    0.05727 =
         0.05589   -0.01344   -0.00469   -0.01220
PART 0
PART 2
O3'   4   -0.161068    0.204980    0.534696   -21.00000    0.09467    0.09303 =
         0.09535   -0.01639   -0.00998   -0.02747
O2'   4   -0.187169    0.212976    0.723808   -21.00000    0.14223    0.13738 =
         0.14457   -0.01995   -0.00892   -0.03847
HKLF 4
REM  exp_3343 in P-1
REM R1 =  0.0613 for   2460 Fo > 4sig(Fo)  and  0.0632 for all   2606 data
REM    246 parameters refined using     26 restraints
END
WGHT      0.1340      0.9001
REM Highest difference peak  1.565,  deepest hole -1.328,  1-sigma level  0.171
Q1    1   0.1343  0.1692  0.4161  11.00000  0.05    1.57
Q2    1   0.1652 -0.0610  0.4083  11.00000  0.05    1.47
Q3    1  -0.2098  0.2063  0.5818  11.00000  0.05    1.36
Q4    1  -0.1386  0.2113  0.7597  11.00000  0.05    1.11
Q5    1  -0.3332  0.4559  0.7456  11.00000  0.05    1.08
Q6    1  -0.3835  0.5156  0.5602  11.00000  0.05    0.94
Q7    1   0.1367  0.0523  0.5231  11.00000  0.05    0.87
Q8    1  -0.0668  0.2987  0.4823  11.00000  0.05    0.73
Q9    1   0.1693  0.0588  0.2952  11.00000  0.05    0.73
Q10   1  -0.1285  0.4871  0.6081  11.00000  0.05    0.72
Q11   1   0.3890  0.3238  0.9439  11.00000  0.05    0.58
Q12   1   0.1484 -0.0574  0.5836  11.00000  0.05    0.45
Q13   1   0.0092  0.1974  0.5803  11.00000  0.05    0.42
Q14   1  -0.0323  0.8324  0.7370  11.00000  0.05    0.42
Q15   1   0.3356  0.1230  0.7934  11.00000  0.05    0.41
Q16   1  -0.0069  0.8808  0.7015  11.00000  0.05    0.41
Q17   1   0.3386  0.0055  0.4551  11.00000  0.05    0.41
Q18   1   0.0910  0.2089  0.6033  11.00000  0.05    0.40
Q19   1  -0.1086  0.6966  0.5976  11.00000  0.05    0.38
Q20   1  -0.0352  0.0941  0.3991  11.00000  0.05    0.36
REM The information below was added by Olex2.
REM
REM R1 = 0.0613 for 2460 Fo > 4sig(Fo) and 0.0632 for all 4644 data
REM n/a parameters refined using n/a restraints
REM Highest difference peak 1.57, deepest hole -1.33
REM Mean Shift 0, Max Shift 0.
REM +++ Tabular Listing of Refinement Information +++
REM R1_all = 0.0632
REM R1_gt = 0.0613
REM wR_ref = 0.1735
REM GOOF = 1.033
REM Shift_max = 0
REM Shift_mean = 0
REM Reflections_all = 4644
REM Reflections_gt = 2460
REM Parameters = n/a
REM Hole = 1.57
REM Peak = -1.33
REM Flack = n/a
;
loop_
_space_group_symop_id
_space_group_symop_operation_xyz
1 'x, y, z'
2 '-x, -y, -z'
loop_
_atom_site_type_symbol
_atom_site_label
_atom_site_fract_x
_atom_site_fract_y
_atom_site_fract_z
_atom_site_U_iso_or_equiv
_atom_site_adp_type
_atom_site_calc_flag
_atom_site_refinement_flags
_atom_site_occupancy
_atom_site_symmetry_multiplicity
_atom_site_disorder_group
N N4 -0.0250(7) 0.8101(6) 0.7640(5) 0.0416(11) Uani d . 1 1 .
C C11 0.0595(14) 0.8031(9) 0.9639(7) 0.065(2) Uani d . 1 1 .
H H11 0.0537 0.8525 1.0292 0.078 Uiso calc R 1 1 .
C C9 0.0676(8) 0.6670(6) 0.7695(5) 0.0384(12) Uani d . 1 1 .
H H9 0.0702 0.6204 0.7030 0.046 Uiso calc R 1 1 .
Ag Ag1 0.14795(6) 0.05571(5) 0.40773(3) 0.0477(3) Uani d . 1 1 .
O O1 0.2419(6) 0.3549(5) 0.7856(4) 0.0384(9) Uani d . 1 1 .
N N1 0.2907(7) 0.0137(6) 0.5811(5) 0.0394(11) Uani d . 1 1 .
C C1 0.3863(9) -0.1263(7) 0.6270(6) 0.0436(13) Uani d . 1 1 .
H H1 0.3935 -0.2029 0.5844 0.052 Uiso calc R 1 1 .
N N3 0.3568(11) 0.3429(7) 0.9618(6) 0.0629(17) Uani d . 1 1 .
N N2 0.4162(11) 0.1994(6) 0.9255(5) 0.0589(16) Uani d . 1 1 .
C C7 0.2582(9) 0.4268(7) 0.8766(5) 0.0408(13) Uani d . 1 1 .
C C6 0.3448(8) 0.2133(7) 0.8239(5) 0.0405(12) Uani d . 1 1 .
C C5 0.2798(8) 0.1211(6) 0.6445(5) 0.0371(11) Uani d . 1 1 .
H H5 0.2136 0.2182 0.6139 0.045 Uiso calc R 1 1 .
C C4 0.3625(8) 0.0949(7) 0.7537(5) 0.0378(12) Uani d . 1 1 .
C C8 0.1608(9) 0.5847(7) 0.8713(6) 0.0409(12) Uani d . 1 1 .
C C3 0.4586(9) -0.0486(7) 0.8003(6) 0.0476(14) Uani d . 1 1 .
H H3 0.5126 -0.0702 0.8748 0.057 Uiso calc R 1 1 .
C C10 -0.0302(11) 0.8750(8) 0.8617(7) 0.0537(16) Uani d . 1 1 .
H H10 -0.0990 0.9746 0.8590 0.064 Uiso calc R 1 1 .
C C12 0.1599(12) 0.6544(8) 0.9690(6) 0.0550(17) Uani d . 1 1 .
H H12 0.2255 0.6025 1.0370 0.066 Uiso calc R 1 1 .
C C2 0.4728(9) -0.1600(7) 0.7332(6) 0.0474(14) Uani d . 1 1 .
H H2 0.5413 -0.2575 0.7607 0.057 Uiso calc R 1 1 .
C C14 -0.2676(10) 0.4350(9) 0.6354(7) 0.0552(16) Uani d . 1 1 .
F F1 -0.4475(11) 0.4851(9) 0.6613(13) 0.160(5) Uani d . 1 1 .
C C13 -0.2026(10) 0.2810(9) 0.6161(9) 0.065(2) Uani d D 1 1 .
F F3 -0.2298(19) 0.5245(10) 0.5420(12) 0.186(5) Uani d . 1 1 .
F F2 -0.1809(19) 0.4675(15) 0.7096(14) 0.201(6) Uani d . 1 1 .
O O2 -0.250(2) 0.1776(14) 0.6816(13) 0.084(5) Uani d PDU 0.54(2) 1 1
O O3 -0.1179(14) 0.2702(13) 0.5087(8) 0.058(4) Uani d PDU 0.54(2) 1 1
O O3' -0.161(3) 0.205(2) 0.5347(16) 0.094(6) Uani d PDU 0.46(2) 1 2
O O2' -0.187(4) 0.213(3) 0.7238(16) 0.142(10) Uani d PDU 0.46(2) 1 2
loop_
_atom_site_aniso_label
_atom_site_aniso_U_11
_atom_site_aniso_U_22
_atom_site_aniso_U_33
_atom_site_aniso_U_12
_atom_site_aniso_U_13
_atom_site_aniso_U_23
N4 0.056(3) 0.037(3) 0.034(3) -0.012(2) -0.013(2) -0.007(2)
C11 0.104(6) 0.053(4) 0.045(4) -0.015(4) -0.026(4) -0.020(3)
C9 0.052(3) 0.040(3) 0.026(3) -0.012(2) -0.012(2) -0.009(2)
Ag1 0.0614(4) 0.0467(4) 0.0317(4) -0.0055(2) -0.0176(2) -0.0050(2)
O1 0.051(2) 0.035(2) 0.030(2) -0.0071(17) -0.0160(16) -0.0047(16)
N1 0.043(2) 0.042(3) 0.032(2) -0.005(2) -0.0156(19) -0.006(2)
C1 0.051(3) 0.037(3) 0.041(3) -0.006(2) -0.014(3) -0.007(3)
N3 0.102(5) 0.046(3) 0.038(3) -0.007(3) -0.029(3) -0.010(2)
N2 0.097(5) 0.037(3) 0.041(3) -0.002(3) -0.040(3) -0.003(2)
C7 0.055(3) 0.044(3) 0.028(3) -0.014(3) -0.019(2) -0.006(2)
C6 0.046(3) 0.038(3) 0.036(3) -0.007(2) -0.012(2) -0.004(2)
C5 0.044(3) 0.032(3) 0.032(3) -0.004(2) -0.012(2) -0.002(2)
C4 0.041(3) 0.046(3) 0.027(3) -0.012(2) -0.007(2) -0.005(2)
C8 0.053(3) 0.040(3) 0.031(3) -0.014(3) -0.013(2) -0.004(2)
C3 0.053(3) 0.048(4) 0.038(3) -0.003(3) -0.021(3) -0.005(3)
C10 0.073(4) 0.043(4) 0.047(4) -0.010(3) -0.013(3) -0.016(3)
C12 0.089(5) 0.044(4) 0.034(3) -0.012(3) -0.031(3) -0.005(3)
C2 0.052(3) 0.034(3) 0.049(4) 0.004(2) -0.017(3) -0.006(3)
C14 0.056(4) 0.061(4) 0.055(4) -0.023(3) 0.000(3) -0.018(3)
F1 0.088(4) 0.073(4) 0.306(15) -0.009(3) 0.049(7) -0.069(6)
C13 0.048(4) 0.049(4) 0.096(6) -0.011(3) -0.006(4) -0.014(4)
F3 0.238(13) 0.091(6) 0.185(11) -0.044(7) 0.060(9) 0.029(6)
F2 0.211(11) 0.184(10) 0.260(14) -0.045(9) -0.113(11) -0.120(10)
O2 0.084(5) 0.081(5) 0.085(5) -0.025(2) -0.005(2) -0.013(2)
O3 0.061(4) 0.057(4) 0.056(4) -0.012(2) -0.0047(19) -0.013(2)
O3' 0.095(6) 0.093(6) 0.095(6) -0.027(3) -0.010(2) -0.016(2)
O2' 0.142(10) 0.137(10) 0.145(10) -0.038(5) -0.009(4) -0.020(4)
loop_
_atom_type_symbol
_atom_type_description
_atom_type_scat_dispersion_real
_atom_type_scat_dispersion_imag
_atom_type_scat_source
C C 0.0181 0.0091 'International Tables Vol C Tables 4.2.6.8 and 6.1.1.4'
H H 0.0000 0.0000 'International Tables Vol C Tables 4.2.6.8 and 6.1.1.4'
N N 0.0311 0.0180 'International Tables Vol C Tables 4.2.6.8 and 6.1.1.4'
O O 0.0492 0.0322 'International Tables Vol C Tables 4.2.6.8 and 6.1.1.4'
F F 0.0727 0.0534 'International Tables Vol C Tables 4.2.6.8 and 6.1.1.4'
Ag Ag 0.1306 4.2820 'International Tables Vol C Tables 4.2.6.8 and 6.1.1.4'
loop_
_geom_angle_atom_site_label_1
_geom_angle_atom_site_label_2
_geom_angle_atom_site_label_3
_geom_angle_site_symmetry_1
_geom_angle_site_symmetry_3
_geom_angle
_geom_angle_publ_flag
C9 N4 Ag1 . 2_566 120.9(4) ?
C9 N4 C10 . . 118.2(6) ?
C10 N4 Ag1 . 2_566 120.6(5) ?
C10 C11 H11 . . 120.8 ?
C10 C11 C12 . . 118.5(6) ?
C12 C11 H11 . . 120.8 ?
N4 C9 H9 . . 119.0 ?
N4 C9 C8 . . 122.0(5) ?
C8 C9 H9 . . 119.0 ?
N4 Ag1 Ag1 2_566 2_556 112.71(14) ?
N4 Ag1 N1 2_566 . 155.8(2) y
N4 Ag1 O2 2_566 2_556 92.4(4) y
N4 Ag1 O3 2_566 . 82.1(3) y
N4 Ag1 O3' 2_566 . 88.5(4) ?
N4 Ag1 O3' 2_566 2_556 121.5(4) ?
N1 Ag1 Ag1 . 2_556 80.06(13) ?
N1 Ag1 O2 . 2_556 108.1(4) y
N1 Ag1 O3 . . 85.3(3) y
N1 Ag1 O3' . . 85.2(4) ?
N1 Ag1 O3' . 2_556 82.7(4) ?
O2 Ag1 Ag1 2_556 2_556 92.4(3) ?
O2 Ag1 O3 2_556 . 152.0(4) y
O2 Ag1 O3' 2_556 . 137.1(5) ?
O3 Ag1 Ag1 . 2_556 65.2(3) ?
O3 Ag1 O3' . . 16.5(4) ?
O3' Ag1 Ag1 2_556 2_556 57.0(4) ?
O3' Ag1 Ag1 . 2_556 48.8(5) ?
O3' Ag1 O2 2_556 2_556 40.3(4) ?
O3' Ag1 O3 2_556 . 122.1(3) ?
O3' Ag1 O3' 2_556 . 105.8(4) ?
C6 O1 C7 . . 102.2(5) ?
C1 N1 Ag1 . . 119.5(5) ?
C5 N1 Ag1 . . 122.7(4) ?
C5 N1 C1 . . 117.7(6) ?
N1 C1 H1 . . 118.8 ?
N1 C1 C2 . . 122.5(6) ?
C2 C1 H1 . . 118.8 ?
C7 N3 N2 . . 104.5(5) ?
C6 N2 N3 . . 106.8(5) ?
O1 C7 C8 . . 119.6(5) ?
N3 C7 O1 . . 114.0(6) ?
N3 C7 C8 . . 126.4(6) ?
O1 C6 C4 . . 121.0(5) ?
N2 C6 O1 . . 112.4(5) ?
N2 C6 C4 . . 126.5(6) ?
N1 C5 H5 . . 118.5 ?
N1 C5 C4 . . 122.9(5) ?
C4 C5 H5 . . 118.5 ?
C5 C4 C6 . . 122.3(5) ?
C3 C4 C6 . . 118.8(5) ?
C3 C4 C5 . . 118.9(5) ?
C9 C8 C7 . . 121.2(5) ?
C12 C8 C9 . . 119.0(6) ?
C12 C8 C7 . . 119.8(6) ?
C4 C3 H3 . . 120.9 ?
C4 C3 C2 . . 118.1(6) ?
C2 C3 H3 . . 120.9 ?
N4 C10 C11 . . 123.5(7) ?
N4 C10 H10 . . 118.3 ?
C11 C10 H10 . . 118.3 ?
C11 C12 H12 . . 120.6 ?
C8 C12 C11 . . 118.8(6) ?
C8 C12 H12 . . 120.6 ?
C1 C2 C3 . . 119.8(6) ?
C1 C2 H2 . . 120.1 ?
C3 C2 H2 . . 120.1 ?
F1 C14 C13 . . 115.2(7) ?
F3 C14 F1 . . 105.0(10) ?
F3 C14 C13 . . 112.6(8) ?
F2 C14 F1 . . 109.2(10) ?
F2 C14 C13 . . 115.4(9) ?
F2 C14 F3 . . 97.7(11) ?
O2 C13 C14 . . 125.3(10) ?
O2 C13 O3 . . 122.5(11) ?
O2 C13 O2' . . 41.3(14) ?
O3 C13 C14 . . 111.0(8) ?
O3' C13 C14 . . 141.6(14) ?
O3' C13 O2 . . 87.4(13) ?
O3' C13 O3 . . 35.9(9) ?
O3' C13 O2' . . 116.8(18) ?
O2' C13 C14 . . 101.6(17) ?
O2' C13 O3 . . 139.3(16) ?
C13 O2 Ag1 . 2_556 113.4(10) ?
C13 O3 Ag1 . . 135.1(8) ?
Ag1 O3' Ag1 2_556 . 74.2(4) ?
C13 O3' Ag1 . . 139.8(13) ?
C13 O3' Ag1 . 2_556 117.3(14) ?
loop_
_geom_bond_atom_site_label_1
_geom_bond_atom_site_label_2
_geom_bond_site_symmetry_2
_geom_bond_distance
_geom_bond_publ_flag
N4 C9 . 1.325(8) ?
N4 Ag1 2_566 2.226(5) ?
N4 C10 . 1.344(9) ?
C11 H11 . 0.9300 ?
C11 C10 . 1.356(11) ?
C11 C12 . 1.384(11) ?
C9 H9 . 0.9300 ?
C9 C8 . 1.386(9) ?
Ag1 N4 2_566 2.226(5) y
Ag1 Ag1 2_556 3.0943(10) y
Ag1 N1 . 2.236(5) y
Ag1 O2 2_556 2.482(14) y
Ag1 O3 . 2.690(9) y
Ag1 O3' . 2.696(15) ?
Ag1 O3' 2_556 2.42(2) ?
O1 C7 . 1.366(7) ?
O1 C6 . 1.354(7) ?
N1 C1 . 1.347(10) ?
N1 C5 . 1.330(8) ?
C1 H1 . 0.9300 ?
C1 C2 . 1.359(10) ?
N3 N2 . 1.427(9) ?
N3 C7 . 1.272(9) ?
N2 C6 . 1.280(8) ?
C7 C8 . 1.455(9) ?
C6 C4 . 1.460(8) ?
C5 H5 . 0.9300 ?
C5 C4 . 1.381(8) ?
C4 C3 . 1.375(9) ?
C8 C12 . 1.379(9) ?
C3 H3 . 0.9300 ?
C3 C2 . 1.385(10) ?
C10 H10 . 0.9300 ?
C12 H12 . 0.9300 ?
C2 H2 . 0.9300 ?
C14 F1 . 1.290(10) ?
C14 C13 . 1.451(11) ?
C14 F3 . 1.273(11) ?
C14 F2 . 1.245(11) ?
C13 O2 . 1.223(13) ?
C13 O3 . 1.286(12) ?
C13 O3' . 1.221(14) ?
C13 O2' . 1.254(15) ?
O2 Ag1 2_556 2.482(14) ?
O3' Ag1 2_556 2.42(2) ?
loop_
_geom_torsion_atom_site_label_1
_geom_torsion_atom_site_label_2
_geom_torsion_atom_site_label_3
_geom_torsion_atom_site_label_4
_geom_torsion_site_symmetry_1
_geom_torsion_site_symmetry_4
_geom_torsion
N4 C9 C8 C7 . . 178.6(6)
N4 C9 C8 C12 . . -1.1(10)
N4 Ag1 N1 C1 2_566 . -155.7(5)
N4 Ag1 N1 C5 2_566 . 26.9(8)
N4 Ag1 O3 C13 2_566 . 158.8(11)
N4 Ag1 O3' Ag1 2_566 2_556 122.4(3)
N4 Ag1 O3' C13 2_566 . -124(2)
C9 N4 C10 C11 . . 2.3(11)
C9 C8 C12 C11 . . 2.5(11)
Ag1 N4 C9 C8 2_566 . 173.7(4)
Ag1 N4 C10 C11 2_566 . -172.7(7)
Ag1 Ag1 N1 C1 2_556 . 79.9(5)
Ag1 Ag1 N1 C5 2_556 . -97.5(5)
Ag1 Ag1 O3 C13 2_556 . 39.2(10)
Ag1 Ag1 O3' C13 2_556 . 114(2)
Ag1 N1 C1 C2 . . -178.6(5)
Ag1 N1 C5 C4 . . 177.8(4)
O1 C7 C8 C9 . . -6.7(9)
O1 C7 C8 C12 . . 173.1(6)
O1 C6 C4 C5 . . 1.5(9)
O1 C6 C4 C3 . . -176.0(5)
N1 Ag1 O3 C13 . . -42.0(11)
N1 Ag1 O3' Ag1 . 2_556 -81.0(3)
N1 Ag1 O3' C13 . . 33(2)
N1 C1 C2 C3 . . 2.2(11)
N1 C5 C4 C6 . . -178.2(5)
N1 C5 C4 C3 . . -0.8(9)
C1 N1 C5 C4 . . 0.3(9)
N3 N2 C6 O1 . . 0.6(9)
N3 N2 C6 C4 . . -178.1(6)
N3 C7 C8 C9 . . 175.7(7)
N3 C7 C8 C12 . . -4.5(11)
N2 N3 C7 O1 . . 0.7(9)
N2 N3 C7 C8 . . 178.4(7)
N2 C6 C4 C5 . . 180.0(7)
N2 C6 C4 C3 . . 2.5(10)
C7 O1 C6 N2 . . -0.2(7)
C7 O1 C6 C4 . . 178.6(5)
C7 N3 N2 C6 . . -0.8(9)
C7 C8 C12 C11 . . -177.3(7)
C6 O1 C7 N3 . . -0.4(8)
C6 O1 C7 C8 . . -178.3(5)
C6 C4 C3 C2 . . 179.4(6)
C5 N1 C1 C2 . . -1.0(10)
C5 C4 C3 C2 . . 1.9(9)
C4 C3 C2 C1 . . -2.6(10)
C10 N4 C9 C8 . . -1.2(9)
C10 C11 C12 C8 . . -1.5(13)
C12 C11 C10 N4 . . -0.9(14)
C14 C13 O2 Ag1 . 2_556 169.7(7)
C14 C13 O3 Ag1 . . 154.3(8)
C14 C13 O3' Ag1 . . 99(2)
C14 C13 O3' Ag1 . 2_556 -163.0(10)
F1 C14 C13 O2 . . -45.8(16)
F1 C14 C13 O3 . . 121.6(11)
F1 C14 C13 O3' . . 98(2)
F1 C14 C13 O2' . . -83.2(18)
F3 C14 C13 O2 . . -166.2(14)
F3 C14 C13 O3 . . 1.2(13)
F3 C14 C13 O3' . . -23(2)
F3 C14 C13 O2' . . 156.4(18)
F2 C14 C13 O2 . . 82.9(16)
F2 C14 C13 O3 . . -109.7(13)
F2 C14 C13 O3' . . -134(2)
F2 C14 C13 O2' . . 45.5(19)
O2 Ag1 N1 C1 2_556 . -9.4(6)
O2 Ag1 N1 C5 2_556 . 173.2(5)
O2 Ag1 O3 C13 2_556 . 78.7(14)
O2 Ag1 O3' Ag1 2_556 2_556 30.5(8)
O2 Ag1 O3' C13 2_556 . 144(2)
O2 C13 O3 Ag1 . . -37.9(17)
O2 C13 O3' Ag1 . 2_556 -12.2(13)
O2 C13 O3' Ag1 . . -110(2)
O3 Ag1 N1 C1 . . 145.5(6)
O3 Ag1 N1 C5 . . -31.9(5)
O3 Ag1 O3' Ag1 . 2_556 -170.9(17)
O3 Ag1 O3' C13 . . -57.1(19)
O3 C13 O2 Ag1 . 2_556 3.7(15)
O3 C13 O3' Ag1 . 2_556 156(2)
O3 C13 O3' Ag1 . . 59(2)
O3' Ag1 N1 C1 2_556 . 22.3(7)
O3' Ag1 N1 C1 . . 128.9(7)
O3' Ag1 N1 C5 2_556 . -155.2(6)
O3' Ag1 N1 C5 . . -48.5(6)
O3' Ag1 O3 C13 . . 46.7(14)
O3' Ag1 O3 C13 2_556 . 36.4(13)
O3' Ag1 O3' Ag1 2_556 2_556 0.0
O3' Ag1 O3' C13 2_556 . 114(2)
O3' C13 O2 Ag1 . 2_556 11.5(12)
O3' C13 O3 Ag1 . . -51.3(18)
O2' C13 O2 Ag1 . 2_556 -126(3)
O2' C13 O3 Ag1 . . 13(3)
O2' C13 O3' Ag1 . 2_556 18(2)
O2' C13 O3' Ag1 . . -80(3)
loop_
_refln_index_h
_refln_index_k
_refln_index_l
_refln_F_squared_meas
_refln_F_squared_sigma
-7 -5 -9 11.38 0.67
-7 -4 -9 7.7 0.59
-7 -4 -8 16.78 0.93
-7 -3 -9 5.83 0.51
-7 -3 -8 11.88 0.81
-7 -3 -7 16.94 0.98
-7 -2 -9 0.18 0.07
-7 -2 -8 13.77 0.87
-7 -2 -7 16.46 1
-7 -2 -6 3.98 0.48
-7 -1 -9 0.03 0.04
-7 -1 -8 12.14 0.78
-7 -1 -7 7.32 0.66
-7 -1 -6 17.16 1.02
-7 -1 -5 8.91 0.71
-7 0 -8 0.1 0.06
-7 0 -7 11.15 0.78
-7 0 -6 12.06 0.85
-7 0 -5 7.08 0.65
-7 0 -4 6.37 0.6
-7 1 -8 -0.07 0.05
-7 1 -7 3.27 0.38
-7 1 -6 5.61 0.55
-7 1 -5 14.72 0.92
-7 1 -4 12.13 0.83
-7 1 -3 0.13 0.08
-7 2 -6 2.52 0.33
-7 2 -5 17.5 0.94
-7 2 -4 21.5 1.06
-7 2 -3 0.15 0.09
-7 2 -2 -0.05 0.05
-7 3 -5 6.3 0.5
-7 3 -4 7.68 0.58
-7 3 -3 7.27 0.57
-7 3 -2 0.04 0.02
-7 3 -1 0.75 0.17
-7 4 -2 1.36 0.21
-7 4 -1 0.52 0.13
-6 -6 -10 2.04 0.31
-6 -6 -9 7.15 0.66
-6 -6 -8 11.92 0.88
-6 -5 -11 2.91 0.31
-6 -5 -10 1.42 0.27
-6 -5 -9 2.37 0.4
-6 -5 -8 8.47 0.78
-6 -5 -7 47.88 1.81
-6 -5 -4 3.29 0.64
-6 -5 -3 19.33 1.56
-6 -5 -2 16.18 1.36
-6 -5 -1 12.08 1.06
-6 -5 0 2.75 0.46
-6 -4 -11 6.96 0.49
-6 -4 -10 2.97 0.39
-6 -4 -9 8.39 0.75
-6 -4 -8 11.81 0.96
-6 -4 -7 6.54 0.7
-6 -4 -6 32.66 1.46
-6 -4 -5 5.81 0.75
-6 -4 -4 0.7 0.3
-6 -4 -3 5.67 0.82
-6 -4 -2 10.72 1.11
-6 -4 -1 22.63 1.5
-6 -4 0 15.07 1.1
-6 -3 -11 12.51 0.64
-6 -3 -10 3.46 0.42
-6 -3 -9 1.02 0.27
-6 -3 -8 6.57 0.72
-6 -3 -7 11.6 0.96
-6 -3 -6 17.42 1.12
-6 -3 -5 26.68 1.56
-6 -3 -4 4.57 0.69
-6 -3 -3 2.48 0.52
-6 -3 -2 42.97 2.19
-6 -3 -1 35.38 1.86
-6 -3 0 10.74 0.94
-6 -2 -11 7.51 0.47
-6 -2 -10 14 0.81
-6 -2 -9 1.16 0.26
-6 -2 -8 1.52 0.36
-6 -2 -7 1.49 0.36
-6 -2 -6 16.57 1.13
-6 -2 -5 13.79 1.11
-6 -2 -5 14.45 0.98
-6 -2 -4 20.64 1.45
-6 -2 -3 6.41 0.83
-6 -2 -2 13.41 1.18
-6 -2 -1 14.49 1.17
-6 -2 0 18.08 1.22
-6 -1 -10 10.26 0.65
-6 -1 -9 3.78 0.48
-6 -1 -8 5.03 0.62
-6 -1 -7 1.73 0.39
-6 -1 -6 20.68 1.31
-6 -1 -5 33.24 1.71
-6 -1 -5 35.35 1.62
-6 -1 -4 33.81 1.8
-6 -1 -4 30.61 1.41
-6 -1 -3 6.92 0.84
-6 -1 -2 0.06 0.09
-6 -1 -1 34.69 1.78
-6 -1 0 21.69 1.31
-6 -1 1 11.61 0.87
-6 0 -10 6.44 0.47
-6 0 -9 13.39 0.83
-6 0 -8 5.41 0.61
-6 0 -7 3.14 0.52
-6 0 -6 1.61 0.37
-6 0 -5 20.8 1.28
-6 0 -4 13.06 1.1
-6 0 -4 13.45 0.98
-6 0 -3 9.85 0.98
-6 0 -3 9.71 0.78
-6 0 -2 1.74 0.41
-6 0 -1 0.96 0.26
-6 0 0 8.22 0.79
-6 0 1 10.38 0.82
-6 1 -9 7.54 0.56
-6 1 -8 10.11 0.78
-6 1 -7 6.15 0.68
-6 1 -6 3.46 0.55
-6 1 -5 9.32 0.88
-6 1 -4 3.64 0.53
-6 1 -3 6.71 0.69
-6 1 -2 11.6 1.07
-6 1 -2 12.56 0.89
-6 1 -1 -0.02 0.06
-6 1 0 12.69 1
-6 1 1 6.63 0.68
-6 2 -8 10.9 0.71
-6 2 -7 9.4 0.77
-6 2 -6 0.22 0.13
-6 2 -5 1.58 0.36
-6 2 -4 0.98 0.28
-6 2 -3 6.2 0.67
-6 2 -2 34.64 1.54
-6 2 -1 4.62 0.53
-6 2 0 0.27 0.12
-6 3 -7 7.81 0.6
-6 3 -6 1.7 0.32
-6 3 -5 0.08 0.06
-6 3 -4 7.24 0.72
-6 3 -3 17.18 1.11
-6 3 -2 2.81 0.44
-6 3 -1 14.68 0.97
-6 3 0 0.29 0.14
-6 3 1 2.68 0.38
-6 4 -6 6.97 0.54
-6 4 -5 1.09 0.24
-6 4 -4 0.56 0.18
-6 4 -3 3.37 0.47
-6 4 -2 11.53 0.86
-6 4 -1 5.46 0.57
-6 4 0 3.44 0.44
-6 4 1 0.93 0.23
-6 4 2 1.52 0.26
-6 5 -4 0.18 0.08
-6 5 -3 3.11 0.39
-6 5 -2 8.21 0.65
-6 5 -1 2.8 0.38
-6 5 0 3.18 0.4
-6 5 1 0.97 0.21
-6 5 2 0.28 0.1
-6 6 -1 4.08 0.39
-6 6 0 3.89 0.37
-5 -8 -10 0.08 0.06
-5 -8 -9 3.56 0.45
-5 -7 -11 6.57 0.49
-5 -7 -10 0.08 0.05
-5 -7 -9 2.28 0.41
-5 -7 -8 1.52 0.34
-5 -6 -11 10.1 0.66
-5 -6 -10 3.29 0.44
-5 -6 -9 0.26 0.14
-5 -6 -8 16.98 1.23
-5 -6 -7 11.96 0.99
-5 -6 -6 2.47 0.46
-5 -5 -12 7.1 0.46
-5 -5 -11 7.1 0.57
-5 -5 -10 13.12 0.89
-5 -5 -9 0.15 0.12
-5 -5 -8 0.77 0.26
-5 -5 -7 1.13 0.3
-5 -5 -6 17.86 1.14
-5 -5 -6 13.55 1.05
-5 -5 -5 38.7 1.88
-5 -4 -12 2.11 0.25
-5 -4 -11 12.38 0.75
-5 -4 -10 25.24 1.25
-5 -4 -9 0.48 0.2
-5 -4 -8 5.53 0.68
-5 -4 -7 2.68 0.48
-5 -4 -6 42.11 1.77
-5 -4 -6 32.1 1.6
-5 -4 -5 17.44 1.23
-5 -4 -4 24.9 1.57
-5 -4 -3 7.33 0.87
-5 -4 -2 0.17 0.2
-5 -4 -1 9.16 0.93
-5 -4 0 32.17 1.59
-5 -4 1 19.79 1.15
-5 -3 -12 0.16 0.07
-5 -3 -11 5.56 0.5
-5 -3 -10 24.32 1.24
-5 -3 -9 43.04 1.81
-5 -3 -8 0.54 0.21
-5 -3 -7 3.78 0.58
-5 -3 -6 12.04 0.97
-5 -3 -6 11.35 0.94
-5 -3 -5 44.96 1.97
-5 -3 -4 60.61 2.39
-5 -3 -3 3.33 0.59
-5 -3 -2 0.06 0.13
-5 -3 -1 2.83 0.51
-5 -3 0 8.55 0.83
-5 -3 1 59.63 2.03
-5 -2 -12 0.03 0.02
-5 -2 -11 3.67 0.4
-5 -2 -10 25.49 1.25
-5 -2 -9 38.89 1.74
-5 -2 -8 36.31 1.79
-5 -2 -7 0.09 0.03
-5 -2 -6 4.17 0.59
-5 -2 -6 3.18 0.49
-5 -2 -5 19.68 1.28
-5 -2 -4 19.75 1.35
-5 -2 -3 15.77 1.24
-5 -2 -2 10.81 1.01
-5 -2 -1 0.64 0.24
-5 -2 0 15.18 1.08
-5 -2 1 10.97 0.84
-5 -1 -11 0.03 0.02
-5 -1 -11 0.05 0.04
-5 -1 -10 5 0.54
-5 -1 -9 49.54 1.94
-5 -1 -8 36.84 1.8
-5 -1 -7 8.3 0.87
-5 -1 -6 2.77 0.49
-5 -1 -6 3.21 0.49
-5 -1 -5 24.42 1.45
-5 -1 -5 23.32 1.33
-5 -1 -4 20.99 1.39
-5 -1 -3 105 3.13
-5 -1 -2 53.18 2.17
-5 -1 -1 7.42 0.78
-5 -1 0 0.6 0.19
-5 -1 1 18.94 1.09
-5 0 -11 0.62 0.12
-5 0 -11 0.65 0.15
-5 0 -10 3.23 0.41
-5 0 -10 2.57 0.32
-5 0 -9 35.95 1.61
-5 0 -8 16.4 1.18
-5 0 -7 33 1.75
-5 0 -6 2.54 0.49
-5 0 -5 4.99 0.63
-5 0 -5 5.72 0.69
-5 0 -4 39.14 1.87
-5 0 -3 40.79 1.95
-5 0 -2 42.03 1.96
-5 0 -1 24.74 1.44
-5 0 0 -0.04 0.07
-5 0 1 2.98 0.41
-5 1 -10 -0.02 0.02
-5 1 -10 -0.06 0.05
-5 1 -9 2.44 0.39
-5 1 -9 2.18 0.32
-5 1 -8 44.02 1.88
-5 1 -7 29.09 1.62
-5 1 -6 20.68 1.38
-5 1 -5 13.02 1.04
-5 1 -5 13.48 1.08
-5 1 -4 9.85 0.94
-5 1 -4 9.45 0.87
-5 1 -3 43.5 2.03
-5 1 -3 44.26 1.74
-5 1 -2 59.83 2.39
-5 1 -1 29.5 1.59
-5 1 0 8.42 0.78
-5 1 1 0.21 0.12
-5 2 -10 2.11 0.25
-5 2 -9 3.9 0.45
-5 2 -9 3.43 0.36
-5 2 -8 14.98 0.86
-5 2 -8 17.44 1.1
-5 2 -7 23.44 1.4
-5 2 -6 42.48 1.96
-5 2 -5 24.27 1.48
-5 2 -4 2.33 0.45
-5 2 -4 3.42 0.58
-5 2 -3 21.79 1.54
-5 2 -3 22.06 1.29
-5 2 -2 24.69 1.65
-5 2 -2 25.74 1.33
-5 2 -1 35.77 1.89
-5 2 -1 33.38 1.46
-5 2 0 38.31 1.82
-5 2 0 35.78 1.43
-5 2 1 0.15 0.1
-5 2 2 5.88 0.57
-5 3 -9 0.14 0.05
-5 3 -9 0.21 0.08
-5 3 -8 1.98 0.33
-5 3 -8 1.9 0.28
-5 3 -7 13.28 0.8
-5 3 -7 15.04 1.05
-5 3 -6 46.54 1.98
-5 3 -5 31.44 1.66
-5 3 -4 2.63 0.47
-5 3 -3 3.76 0.55
-5 3 -2 22.96 1.33
-5 3 -2 23.98 1.67
-5 3 -1 78.09 2.35
-5 3 -1 77.84 2.92
-5 3 0 27.88 1.62
-5 3 0 26.59 1.32
-5 3 1 2.08 0.4
-5 3 1 1.8 0.32
-5 3 2 1.78 0.32
-5 4 -8 1.03 0.18
-5 4 -8 1.24 0.18
-5 4 -7 5.04 0.44
-5 4 -7 5.69 0.56
-5 4 -6 15.67 0.84
-5 4 -6 16.51 1.07
-5 4 -5 8.35 0.81
-5 4 -4 10.94 0.95
-5 4 -3 5.9 0.69
-5 4 -2 3.84 0.54
-5 4 -1 5.48 0.64
-5 4 0 29.55 1.44
-5 4 1 14.87 1
-5 4 2 3.28 0.45
-5 4 3 0.32 0.14
-5 5 -6 4.15 0.45
-5 5 -6 3.48 0.34
-5 5 -5 15.22 0.97
-5 5 -4 15.47 1.05
-5 5 -3 1.99 0.38
-5 5 -2 0.04 0.06
-5 5 -1 10.9 0.89
-5 5 0 20.41 1.19
-5 5 1 15.18 1
-5 5 2 3.08 0.44
-5 5 3 0.07 0.08
-5 5 4 3.59 0.42
-5 6 -5 6.05 0.48
-5 6 -4 7.9 0.64
-5 6 -3 9.88 0.77
-5 6 -2 0.55 0.19
-5 6 -1 2.43 0.39
-5 6 0 10.18 0.79
-5 6 1 8.62 0.72
-5 6 2 6.79 0.62
-5 6 3 5.72 0.53
-5 6 4 2.37 0.31
-5 7 -2 1.38 0.25
-5 7 -1 -0.02 0.05
-5 7 0 7.83 0.61
-5 7 1 7.98 0.6
-5 7 2 4.61 0.44
-5 7 3 2.58 0.3
-4 -9 -9 0.88 0.21
-4 -8 -11 10.96 0.63
-4 -8 -10 3.62 0.46
-4 -7 -11 14.04 0.8
-4 -7 -10 5.93 0.61
-4 -6 -12 1.23 0.21
-4 -6 -11 11.02 0.74
-4 -6 -10 40.22 1.65
-4 -5 -12 0.58 0.14
-4 -5 -11 10.08 0.73
-4 -5 -10 18.13 1.09
-4 -5 -9 24.64 1.39
-4 -4 -12 0.44 0.12
-4 -4 -11 4.06 0.46
-4 -4 -10 11.11 0.87
-4 -4 -9 40.92 1.78
-4 -4 -8 78.64 2.55
-4 -4 -6 3.41 0.48
-4 -3 -12 6.15 0.49
-4 -3 -12 6.25 0.47
-4 -3 -11 0.31 0.12
-4 -3 -10 21.33 1.22
-4 -3 -9 21.72 1.28
-4 -3 -8 16.46 1.15
-4 -3 -7 92.72 2.77
-4 -3 -6 4.05 0.52
-4 -3 -5 24.74 1.33
-4 -3 -4 69.53 2.24
-4 -2 -12 13.35 0.68
-4 -2 -12 12.84 0.7
-4 -2 -11 0.44 0.17
-4 -2 -10 0.08 0.05
-4 -2 -9 51.27 2.01
-4 -2 -8 42.14 1.7
-4 -2 -8 43.5 1.91
-4 -2 -7 41.07 1.84
-4 -2 -7 41.69 1.62
-4 -2 -6 33.78 1.51
-4 -2 -5 4.24 0.56
-4 -2 -4 9.09 0.82
-4 -2 -3 129.9 3.19
-4 -2 -2 66.59 2.31
-4 -2 -1 30.97 1.5
-4 -2 0 6.59 0.65
-4 -2 1 5.86 0.57
-4 -2 2 240.84 3.3
-4 -1 -12 9.01 0.54
-4 -1 -12 8.91 0.54
-4 -1 -11 13.38 0.84
-4 -1 -11 12.3 0.76
-4 -1 -10 0.66 0.21
-4 -1 -10 0.62 0.2
-4 -1 -9 7.07 0.75
-4 -1 -8 16.15 1.07
-4 -1 -8 17.26 1.22
-4 -1 -7 63.54 2.04
-4 -1 -7 65.38 2.37
-4 -1 -6 57.3 1.77
-4 -1 -5 58.19 2.02
-4 -1 -4 1.99 0.4
-4 -1 -3 131.31 3.23
-4 -1 -2 102.08 2.81
-4 -1 -1 72.96 2.27
-4 -1 0 76.98 2.16
-4 -1 1 11.92 0.78
-4 -1 2 54.16 1.48
-4 0 -12 15.4 0.65
-4 0 -11 13 0.78
-4 0 -11 11.4 0.71
-4 0 -10 2.21 0.36
-4 0 -10 2.15 0.38
-4 0 -9 1.99 0.38
-4 0 -9 2.48 0.45
-4 0 -8 30.13 1.64
-4 0 -8 29.41 1.49
-4 0 -8 28.37 1.44
-4 0 -7 44.02 1.74
-4 0 -7 46.26 2.05
-4 0 -7 43.97 1.79
-4 0 -6 61.47 1.88
-4 0 -5 20.76 0.96
-4 0 -5 20.08 1.16
-4 0 -4 0.05 0.09
-4 0 -3 18.58 1.24
-4 0 -2 249.7 4.56
-4 0 -1 98.22 2.73
-4 0 0 32.83 1.46
-4 0 1 0.33 0.13
-4 0 2 4.15 0.41
-4 1 -11 8.74 0.58
-4 1 -10 20.14 1.05
-4 1 -10 22.92 1.15
-4 1 -9 2.02 0.38
-4 1 -9 2.15 0.41
-4 1 -8 10.33 0.96
-4 1 -8 9.06 0.83
-4 1 -7 8.46 0.89
-4 1 -7 7.78 0.74
-4 1 -7 8.36 0.79
-4 1 -6 52.31 1.8
-4 1 -6 53.51 1.88
-4 1 -6 47.33 2.06
-4 1 -5 22.21 1.06
-4 1 -5 22.49 1.21
-4 1 -4 11.8 0.68
-4 1 -4 12.77 0.97
-4 1 -3 1.59 0.36
-4 1 -2 17.26 1.23
-4 1 -1 45.04 1.95
-4 1 0 40.47 1.66
-4 1 1 51.46 1.65
-4 1 2 12.2 0.72
-4 2 -11 11.79 0.58
-4 2 -10 9.88 0.67
-4 2 -9 8.57 0.75
-4 2 -9 7.47 0.67
-4 2 -8 0.45 0.16
-4 2 -8 0.51 0.2
-4 2 -7 37.19 1.87
-4 2 -7 33.3 1.58
-4 2 -6 29.38 1.43
-4 2 -6 27.64 1.33
-4 2 -6 25.76 1.56
-4 2 -5 19.43 1.03
-4 2 -5 21.19 1.22
-4 2 -5 19.07 1.29
-4 2 -5 20.81 1.11
-4 2 -4 28.09 1.51
-4 2 -4 25.63 1.08
-4 2 -3 33.76 1.78
-4 2 -2 2.86 0.55
-4 2 -1 58.4 2.4
-4 2 0 25.56 1.46
-4 2 1 4.2 0.52
-4 2 2 29.14 1.23
-4 3 -10 8.19 0.53
-4 3 -9 13.8 0.83
-4 3 -8 5.43 0.63
-4 3 -8 4.44 0.53
-4 3 -7 9.51 0.92
-4 3 -7 7.98 0.75
-4 3 -6 8.39 0.76
-4 3 -6 6.33 0.78
-4 3 -5 10.44 0.81
-4 3 -5 9.12 0.92
-4 3 -4 26.32 1.21
-4 3 -4 26.39 1.49
-4 3 -4 24.58 1.46
-4 3 -3 46.31 2.18
-4 3 -3 45.3 1.87
-4 3 -2 0.12 0.12
-4 3 -1 12.4 1.22
-4 3 0 32.01 1.79
-4 3 1 68.15 2.29
-4 3 2 28.26 1.31
-4 4 -9 11.83 0.66
-4 4 -8 5.84 0.54
-4 4 -7 0.31 0.17
-4 4 -7 0.18 0.11
-4 4 -6 0.28 0.14
-4 4 -6 0.44 0.2
-4 4 -5 16.83 1.28
-4 4 -5 20.3 1.14
-4 4 -4 26.81 1.54
-4 4 -4 22.75 1.45
-4 4 -4 24.27 1.2
-4 4 -3 1.88 0.46
-4 4 -3 1.01 0.23
-4 4 -3 1.23 0.34
-4 4 -2 19.36 1.24
-4 4 -2 18.59 1.58
-4 4 -2 17.43 0.93
-4 4 -1 4.15 0.55
-4 4 -1 3.67 0.7
-4 4 0 22.21 1.65
-4 4 0 20.42 1.16
-4 4 1 24.48 1.53
-4 4 1 22.03 1.18
-4 4 2 5.03 0.59
-4 4 2 5.47 0.57
-4 4 3 11.09 0.8
-4 4 4 1.82 0.32
-4 5 -8 9.43 0.58
-4 5 -7 8.94 0.66
-4 5 -6 0.05 0.08
-4 5 -6 0.08 0.13
-4 5 -5 3.24 0.44
-4 5 -5 2.68 0.49
-4 5 -4 15.44 0.97
-4 5 -4 12.48 1.07
-4 5 -3 31.99 1.7
-4 5 -3 34.14 1.41
-4 5 -2 6.3 0.59
-4 5 -2 5.86 0.7
-4 5 -1 5.02 0.51
-4 5 -1 5.59 0.66
-4 5 0 0.46 0.18
-4 5 0 1.12 0.37
-4 5 1 16.76 1.08
-4 5 2 36.49 1.57
-4 5 3 14.05 0.97
-4 5 4 0.44 0.17
-4 5 5 0.17 0.1
-4 6 -7 8.65 0.52
-4 6 -6 0.61 0.16
-4 6 -5 1.52 0.28
-4 6 -5 1.75 0.34
-4 6 -4 21.13 1.07
-4 6 -4 16.76 1.16
-4 6 -3 20.17 1.06
-4 6 -3 16.36 1.18
-4 6 -2 4.03 0.48
-4 6 -2 3.57 0.55
-4 6 -1 4.69 0.62
-4 6 -1 4.81 0.52
-4 6 0 -0.05 0.05
-4 6 0 0.08 0.07
-4 6 1 0.89 0.27
-4 6 1 1.23 0.25
-4 6 2 17.77 1.12
-4 6 3 1.62 0.33
-4 6 4 0.67 0.19
-4 6 5 3.28 0.43
-4 6 6 0.01 0.07
-4 7 -5 0.03 0.03
-4 7 -4 4.09 0.42
-4 7 -4 3.84 0.45
-4 7 -3 5.33 0.5
-4 7 -3 4.89 0.57
-4 7 -2 13.19 0.81
-4 7 -2 10.89 0.9
-4 7 -1 6.73 0.59
-4 7 -1 6.11 0.67
-4 7 0 2.65 0.44
-4 7 0 2.83 0.37
-4 7 1 1.1 0.28
-4 7 2 4.44 0.53
-4 7 3 9.11 0.73
-4 7 4 7.2 0.62
-4 7 5 1.12 0.22
-4 8 -1 4.12 0.48
-4 8 0 4.73 0.51
-4 8 1 0.29 0.13
-4 8 2 0.5 0.16
-4 8 3 5.87 0.51
-4 8 4 7.43 0.53
-3 -10 -7 4.65 0.52
-3 -10 -6 10.82 0.89
-3 -10 -5 17.22 1.23
-3 -10 -4 2.5 0.5
-3 -10 -3 0.8 0.33
-3 -9 -9 6.27 0.53
-3 -9 -8 1.23 0.27
-3 -9 -7 0.31 0.13
-3 -9 -6 2.33 0.45
-3 -9 -5 52.27 2.21
-3 -9 -4 12.89 1.15
-3 -8 -11 1.26 0.23
-3 -8 -10 12.76 0.73
-3 -8 -9 23.07 1.12
-3 -8 -8 4.15 0.52
-3 -8 -7 -0.26 0.14
-3 -8 -6 23.66 1.38
-3 -7 -12 0.42 0.13
-3 -7 -11 1.05 0.24
-3 -7 -11 1.29 0.21
-3 -7 -10 7.76 0.61
-3 -7 -9 11.94 0.83
-3 -7 -8 10.13 0.81
-3 -7 -7 0.81 0.2
-3 -6 -12 5.68 0.4
-3 -6 -12 5.79 0.48
-3 -6 -11 1.59 0.25
-3 -6 -11 1.73 0.31
-3 -6 -10 8.66 0.66
-3 -6 -9 17.94 1.01
-3 -6 -8 40.65 1.56
-3 -5 -12 5 0.4
-3 -5 -12 5.37 0.47
-3 -5 -11 0.13 0.09
-3 -5 -11 0.07 0.06
-3 -5 -10 4.28 0.47
-3 -5 -9 35.14 1.39
-3 -5 -8 9.42 0.73
-3 -4 -13 14.69 0.61
-3 -4 -12 6.18 0.53
-3 -4 -12 7.25 0.5
-3 -4 -11 11.89 0.73
-3 -4 -11 13.72 0.9
-3 -4 -10 4.56 0.57
-3 -4 -10 3.67 0.43
-3 -4 -9 5.25 0.53
-3 -4 -9 6.52 0.64
-3 -4 -8 13.86 0.89
-3 -4 -7 59.47 1.73
-3 -3 -13 8.93 0.47
-3 -3 -12 22.51 1.01
-3 -3 -11 23.36 1.17
-3 -3 -11 19.58 0.97
-3 -3 -10 0.29 0.14
-3 -3 -10 0.26 0.11
-3 -3 -9 3.7 0.52
-3 -3 -9 3.55 0.48
-3 -3 -8 8.95 0.74
-3 -3 -7 83.69 2.09
-3 -3 -6 54.59 1.6
-3 -3 -5 58.21 1.52
-3 -2 -13 3.07 0.31
-3 -2 -12 14.79 0.74
-3 -2 -12 12.03 0.73
-3 -2 -11 40.43 1.56
-3 -2 -11 33.64 1.27
-3 -2 -10 44.79 1.8
-3 -2 -10 42.2 1.53
-3 -2 -9 4.58 0.6
-3 -2 -9 5.24 0.6
-3 -2 -8 3.31 0.46
-3 -2 -8 3.2 0.49
-3 -2 -7 70.09 2.03
-3 -2 -6 102.45 2.32
-3 -2 -5 57.73 1.81
-3 -2 -5 65.08 1.66
-3 -2 -4 1.76 0.31
-3 -2 -4 1.98 0.25
-3 -2 -3 0.79 0.13
-3 -2 0 185.43 2.81
-3 -2 1 9.11 0.59
-3 -2 2 31.08 1.03
-3 -1 -13 0.52 0.12
-3 -1 -12 10.04 0.68
-3 -1 -11 30.87 1.35
-3 -1 -10 37.04 1.63
-3 -1 -9 18.24 1.15
-3 -1 -9 17.95 1.19
-3 -1 -8 13.5 0.97
-3 -1 -8 12.76 1
-3 -1 -7 16.01 1.01
-3 -1 -6 133.94 2.73
-3 -1 -5 90.06 2.03
-3 -1 -5 91.19 2.2
-3 -1 -4 109.79 1.93
-3 -1 -4 108.45 2.53
-3 -1 -3 21.29 1.17
-3 -1 -3 22.1 0.71
-3 -1 -2 2.13 0.3
-3 -1 -2 4.91 0.55
-3 -1 -1 82.04 1.78
-3 -1 -1 79.94 2.14
-3 -1 0 20.01 0.99
-3 -1 1 27.57 1.06
-3 -1 2 75.16 1.53
-3 0 -12 2.49 0.33
-3 0 -11 17.68 1.02
-3 0 -10 91.94 2.55
-3 0 -9 32.03 1.55
-3 0 -9 33.38 1.64
-3 0 -8 2.57 0.44
-3 0 -8 2.2 0.43
-3 0 -7 7.93 0.73
-3 0 -6 79.77 2.16
-3 0 -5 29.76 1.19
-3 0 -5 28.59 1.15
-3 0 -4 172.87 2.45
-3 0 -4 170.96 3.11
-3 0 -3 36.81 0.95
-3 0 -3 38.66 1.57
-3 0 -2 2.6 0.42
-3 0 -2 2.62 0.21
-3 0 -1 101.7 2.58
-3 0 0 139.3 2.74
-3 0 1 141.45 2.4
-3 0 2 54.74 1.32
-3 1 -12 0.35 0.1
-3 1 -11 15.16 0.9
-3 1 -10 42.02 1.72
-3 1 -9 26.71 1.46
-3 1 -9 24.41 1.39
-3 1 -8 41.88 1.86
-3 1 -8 39.85 1.77
-3 1 -8 45.05 2
-3 1 -7 0.15 0.07
-3 1 -6 10.87 0.82
-3 1 -5 104.05 2.27
-3 1 -5 99.41 2.09
-3 1 -4 42.97 1.51
-3 1 -4 41.9 1.27
-3 1 -3 81.9 2.28
-3 1 -3 76.03 1.49
-3 1 -2 10.49 0.88
-3 1 -2 9.39 0.45
-3 1 -1 23.95 1.35
-3 1 0 37.98 1.54
-3 1 1 88.97 2.02
-3 1 2 71.71 1.55
-3 2 -12 0.97 0.16
-3 2 -11 3.17 0.38
-3 2 -10 10.82 0.83
-3 2 -9 80.66 2.52
-3 2 -8 30.22 1.61
-3 2 -8 25.54 1.47
-3 2 -7 15.87 1.15
-3 2 -7 16.08 1.11
-3 2 -6 0.29 0.1
-3 2 -5 61.8 1.74
-3 2 -5 59.92 1.81
-3 2 -4 114.26 2.24
-3 2 -4 116.49 2.57
-3 2 -3 160.26 3.3
-3 2 -3 151.84 2.26
-3 2 -2 63.79 1.32
-3 2 -2 59.62 2.22
-3 2 -1 12.27 1.05
-3 2 0 17.56 1.15
-3 2 1 123.73 2.65
-3 2 2 147.51 2.49
-3 2 3 11.47 0.6
-3 3 -11 0.09 0.07
-3 3 -10 12.49 0.8
-3 3 -9 19.28 1.16
-3 3 -8 30.84 1.58
-3 3 -7 41.73 1.86
-3 3 -7 42.03 1.8
-3 3 -6 5.87 0.64
-3 3 -6 4.26 0.65
-3 3 -6 5.19 0.63
-3 3 -5 45.26 1.65
-3 3 -4 83.46 2.27
-3 3 -4 84.01 2.05
-3 3 -3 74.41 2.38
-3 3 -3 69.84 1.71
-3 3 -2 94.71 3.05
-3 3 -1 42.47 2.18
-3 3 0 23.36 1.52
-3 3 1 49 1.88
-3 3 2 43.59 1.51
-3 3 3 83.43 1.87
-3 4 -10 3.46 0.31
-3 4 -10 3.57 0.36
-3 4 -9 7.36 0.64
-3 4 -8 33.11 1.54
-3 4 -7 51.93 2.02
-3 4 -6 12.84 0.99
-3 4 -6 13.59 1.15
-3 4 -5 14.67 1.01
-3 4 -5 10.72 1.05
-3 4 -4 11.42 0.84
-3 4 -4 12.64 0.94
-3 4 -4 10.6 1
-3 4 -3 54.88 2.19
-3 4 -2 126.4 3.77
-3 4 -1 14.48 1.38
-3 4 0 2.49 0.51
-3 4 1 27.91 1.61
-3 4 2 41 1.66
-3 4 3 36.33 1.37
-3 4 5 11.46 0.79
-3 5 -9 5.09 0.45
-3 5 -8 13.17 0.86
-3 5 -7 19.94 1.16
-3 5 -6 11.98 0.94
-3 5 -5 13.84 1.18
-3 5 -5 15.13 1.04
-3 5 -4 23.27 1.25
-3 5 -4 18.54 1.39
-3 5 -3 6.56 0.8
-3 5 -3 7.54 0.67
-3 5 -3 8.82 0.9
-3 5 -2 21.81 1.61
-3 5 -2 19.53 1.05
-3 5 -2 18.35 1.26
-3 5 -1 52.7 1.64
-3 5 -1 52.83 2
-3 5 0 17.25 0.92
-3 5 0 18.72 1.13
-3 5 1 0.69 0.22
-3 5 1 0.07 0.07
-3 5 2 14.35 0.94
-3 5 2 13.54 0.81
-3 5 3 29.52 1.36
-3 5 4 64.93 2.01
-3 5 5 26.58 1.28
-3 5 6 1.5 0.31
-3 6 -8 7.64 0.54
-3 6 -7 7.97 0.65
-3 6 -6 19.07 1.11
-3 6 -5 8.27 0.75
-3 6 -4 0 0.09
-3 6 -4 0.11 0.1
-3 6 -3 10.39 0.82
-3 6 -3 8.08 0.92
-3 6 -2 37 1.91
-3 6 -2 40.86 1.59
-3 6 -1 41.65 1.57
-3 6 -1 37.61 1.85
-3 6 0 26.15 1.24
-3 6 0 26.4 1.47
-3 6 1 1.64 0.35
-3 6 1 1.4 0.28
-3 6 2 0.61 0.18
-3 6 2 0.65 0.21
-3 6 3 21.69 1.23
-3 6 4 41.3 1.68
-3 6 5 2.63 0.4
-3 6 6 1.02 0.25
-3 7 -7 2.16 0.27
-3 7 -6 8.24 0.62
-3 7 -5 6.97 0.63
-3 7 -4 8.82 0.74
-3 7 -3 0.83 0.22
-3 7 -3 0.93 0.32
-3 7 -2 6.43 0.81
-3 7 -2 8.46 0.74
-3 7 -1 21.97 1.47
-3 7 -1 24.01 1.24
-3 7 0 15.68 0.99
-3 7 0 14.43 1.14
-3 7 1 13.95 1.08
-3 7 1 13.85 0.93
-3 7 2 5.69 0.67
-3 7 3 17.87 1.13
-3 7 4 21.61 1.2
-3 7 5 12.75 0.88
-3 7 6 5.52 0.54
-3 8 -5 10.72 0.63
-3 8 -4 4.95 0.49
-3 8 -3 0.43 0.14
-3 8 -2 1.38 0.34
-3 8 -2 1.57 0.3
-3 8 -1 17.98 1.29
-3 8 -1 21.38 1.11
-3 8 0 14.84 0.92
-3 8 0 14.66 1.14
-3 8 1 5.49 0.67
-3 8 2 0.26 0.14
-3 8 3 0.82 0.23
-3 8 4 8.72 0.71
-3 8 5 11.46 0.76
-3 9 0 8.55 0.73
-3 9 1 6.81 0.66
-3 9 2 3.36 0.44
-3 9 3 0.7 0.18
-2 -11 -6 1.92 0.32
-2 -11 -5 2.04 0.38
-2 -11 -4 6.53 0.74
-2 -11 -3 2.27 0.47
-2 -11 -2 -0.06 0.14
-2 -11 -1 1 0.39
-2 -10 -8 6.9 0.59
-2 -10 -7 0.75 0.22
-2 -10 -6 1.24 0.32
-2 -10 -5 11.62 1.05
-2 -10 -4 5.07 0.73
-2 -10 -3 5.82 0.84
-2 -9 -10 12.17 0.67
-2 -9 -9 7.77 0.65
-2 -9 -8 9.09 0.8
-2 -9 -7 3.8 0.57
-2 -9 -6 0.92 0.3
-2 -9 -5 5.55 0.76
-2 -9 -4 8.77 1
-2 -8 -11 0.13 0.07
-2 -8 -10 6.27 0.56
-2 -8 -9 17.13 1.07
-2 -8 -8 20.48 1.27
-2 -8 -7 2.23 0.45
-2 -8 -6 14.73 1.19
-2 -8 -5 0.24 0.16
-2 -8 -5 -0.04 0.06
-2 -8 -4 59.37 2.37
-2 -8 -3 9.82 0.98
-2 -8 -2 8.45 0.94
-2 -8 -1 2.84 0.57
-2 -8 0 8.57 0.99
-2 -8 1 10.77 1.11
-2 -8 2 9.1 0.99
-2 -7 -12 7.36 0.52
-2 -7 -12 13.15 0.61
-2 -7 -11 0.9 0.2
-2 -7 -10 0.42 0.16
-2 -7 -9 13.71 0.98
-2 -7 -8 6.67 0.73
-2 -7 -7 16.65 1.18
-2 -7 -7 17.93 1.19
-2 -7 -6 8.68 0.86
-2 -7 -6 8.87 0.82
-2 -7 -5 3.1 0.48
-2 -7 -5 3.43 0.54
-2 -7 -4 0.15 0.09
-2 -7 -3 51.82 1.99
-2 -7 -2 24.24 1.37
-2 -7 -1 41.63 1.83
-2 -7 0 13.04 1
-2 -7 1 0.85 0.23
-2 -7 2 10.38 0.88
-2 -7 3 31.81 1.55
-2 -6 -12 11.71 0.7
-2 -6 -12 15.79 0.75
-2 -6 -11 10.99 0.75
-2 -6 -10 17.68 1.05
-2 -6 -9 0.11 0.04
-2 -6 -8 29.89 1.32
-2 -6 -8 28.46 1.47
-2 -6 -7 48.9 1.7
-2 -6 -7 52.62 1.92
-2 -6 -7 52.08 1.97
-2 -6 -6 22.88 1.21
-2 -6 -5 31.06 1.34
-2 -6 -4 0.29 0.11
-2 -6 -3 34.21 1.38
-2 -6 -2 73.94 2.02
-2 -6 -1 94.99 2.26
-2 -6 0 4.16 0.45
-2 -6 1 15.98 0.88
-2 -6 2 7.76 0.62
-2 -6 3 15.48 0.91
-2 -6 4 6.57 0.63
-2 -5 -13 4.54 0.35
-2 -5 -12 12.78 0.77
-2 -5 -12 16.26 0.82
-2 -5 -11 34.47 1.37
-2 -5 -10 3.97 0.5
-2 -5 -9 1.62 0.29
-2 -5 -9 1.45 0.32
-2 -5 -8 15.5 0.9
-2 -5 -8 15.27 1.03
-2 -5 -7 54.75 1.67
-2 -5 -6 51.41 1.69
-2 -5 -5 61.71 1.71
-2 -5 -4 21.59 0.97
-2 -5 -3 0.22 0.11
-2 -5 -2 68.52 1.62
-2 -5 -1 85.36 1.76
-2 -5 0 81.63 1.61
-2 -5 1 0.69 0.15
-2 -5 2 1.07 0.19
-2 -4 -13 2.26 0.27
-2 -4 -12 12.66 0.77
-2 -4 -12 13.7 0.79
-2 -4 -11 16.39 0.95
-2 -4 -11 16.64 1.03
-2 -4 -10 33.72 1.47
-2 -4 -9 56.97 1.95
-2 -4 -9 57.08 1.9
-2 -4 -8 16.65 0.9
-2 -4 -7 105.92 2.19
-2 -4 -6 69.11 1.69
-2 -4 -5 44.85 1.37
-2 -4 -4 138.49 2.19
-2 -4 -3 1.19 0.19
-2 -4 -2 79.73 1.46
-2 -4 -1 131.08 1.76
-2 -4 0 109.95 1.49
-2 -4 1 55.56 1.27
-2 -4 1 52.9 1.04
-2 -3 -13 1.61 0.22
-2 -3 -12 11.98 0.76
-2 -3 -11 26.06 1.28
-2 -3 -11 24.09 1.18
-2 -3 -10 54.61 1.86
-2 -3 -9 46.32 1.75
-2 -3 -9 43.08 1.66
-2 -3 -8 0.32 0.14
-2 -3 -7 4.53 0.43
-2 -3 -6 82.36 1.76
-2 -3 -5 113.57 1.93
-2 -3 -4 63.51 1.44
-2 -3 -3 37.36 0.95
-2 -3 -2 25.53 0.69
-2 -3 -2 26.99 0.88
-2 -3 -1 64.44 1.29
-2 -3 -1 61.65 0.97
-2 -3 0 258.1 1.74
-2 -2 -13 0.88 0.16
-2 -2 -12 1.69 0.29
-2 -2 -11 43.94 1.65
-2 -2 -11 44.2 1.64
-2 -2 -10 44.05 1.67
-2 -2 -10 47.21 1.84
-2 -2 -9 36.11 1.58
-2 -2 -9 32.35 1.43
-2 -2 -8 94.19 2.41
-2 -2 -7 8.98 0.69
-2 -2 -6 100.95 2.12
-2 -2 -6 100.67 1.94
-2 -2 -5 106.13 1.82
-2 -2 -4 108.48 1.67
-2 -2 -3 51.02 1.01
-2 -2 -3 49.82 1.14
-2 -2 -2 3.41 0.3
-2 -2 -1 9.08 0.48
-2 -2 0 282.17 2.53
-2 -2 1 149.92 1.6
-2 -1 -13 7.25 0.51
-2 -1 -13 7.31 0.45
-2 -1 -12 0.73 0.18
-2 -1 -11 2.89 0.41
-2 -1 -10 66.47 2.14
-2 -1 -9 25.03 1.35
-2 -1 -9 27.61 1.43
-2 -1 -8 24.58 1.29
-2 -1 -7 22.15 1.15
-2 -1 -6 0.22 0.08
-2 -1 -5 135.56 2.34
-2 -1 -4 441.93 4.26
-2 -1 -4 414.03 3.68
-2 -1 -3 165.02 2.54
-2 -1 -3 165.72 2
-2 -1 -2 131.04 1.4
-2 -1 -2 107.39 1.97
-2 -1 2 132.42 1.7
-2 -1 2 141.84 1.41
-2 -1 3 1.21 0.15
-2 0 -13 7.42 0.49
-2 0 -12 5.46 0.53
-2 0 -12 5.09 0.44
-2 0 -11 5.96 0.55
-2 0 -9 47.25 1.86
-2 0 -9 57.43 2.12
-2 0 -8 83.72 2.49
-2 0 -7 41.27 1.66
-2 0 -6 7.11 0.64
-2 0 -5 85.13 2
-2 0 -4 279.64 3.1
-2 0 -4 262.56 3.05
-2 0 -3 268.31 2.58
-2 0 -3 263.99 3.45
-2 0 -2 115.55 1.35
-2 0 -2 120.95 2.54
-2 0 -1 28.6 0.91
-2 0 0 112.02 1.34
-2 0 0 124.24 2.4
-2 0 1 428.69 3.77
-2 0 2 277.27 2.46
-2 0 2 283.74 2.24
-2 0 3 131.12 2.12
-2 1 -12 2.23 0.32
-2 1 -11 0.05 0.09
-2 1 -10 1.07 0.29
-2 1 -9 66.72 2.32
-2 1 -8 50.43 2
-2 1 -7 76.43 2.37
-2 1 -6 5.77 0.6
-2 1 -5 0.67 0.2
-2 1 -4 52.49 1.29
-2 1 -4 54.15 1.42
-2 1 -3 367.59 3.84
-2 1 -3 379.63 3.17
-2 1 -2 60.08 1.75
-2 1 -2 58 1.04
-2 1 -1 8.72 0.7
-2 1 -1 11.87 0.39
-2 1 0 3.93 0.44
-2 1 1 8.47 0.56
-2 1 2 177.72 1.66
-2 1 2 188.2 2.12
-2 1 3 118.13 1.3
-2 1 3 117.83 1.47
-2 2 -12 6.91 0.49
-2 2 -11 14.24 0.89
-2 2 -10 1.07 0.29
-2 2 -9 25.07 1.46
-2 2 -8 40.73 1.92
-2 2 -8 40.03 1.84
-2 2 -7 70.74 2.37
-2 2 -6 21.62 1.21
-2 2 -5 5.94 0.57
-2 2 -4 14.69 0.73
-2 2 -4 14.73 0.78
-2 2 -3 47.22 1.4
-2 2 -3 46.59 1.2
-2 2 -2 119.11 2.49
-2 2 -2 122.78 1.69
-2 2 -1 31.81 0.76
-2 2 -1 25.47 1.25
-2 2 0 31.02 1.33
-2 2 1 0.29 0.11
-2 2 2 59.02 1.15
-2 2 2 64.07 1.46
-2 2 3 104.74 1.49
-2 2 3 105.47 1.65
-2 3 -11 4.57 0.44
-2 3 -10 2.3 0.38
-2 3 -9 1.67 0.37
-2 3 -8 57.22 2.28
-2 3 -7 18.8 1.27
-2 3 -7 17.87 1.28
-2 3 -6 13.5 1.01
-2 3 -5 5.76 0.59
-2 3 -4 0.33 0.11
-2 3 -4 0.37 0.13
-2 3 -3 78.21 1.95
-2 3 -3 76.36 1.67
-2 3 -2 172.32 2.26
-2 3 -2 180.79 3.3
-2 3 -1 63.6 2.15
-2 3 0 38.69 1.67
-2 3 1 97.55 2.38
-2 3 2 22.5 1.01
-2 3 3 63.57 1.5
-2 4 -11 7.56 0.47
-2 4 -11 7.58 0.45
-2 4 -10 7.92 0.62
-2 4 -9 -0.03 0.11
-2 4 -8 24.14 1.44
-2 4 -7 13.89 1.12
-2 4 -7 12.78 1.05
-2 4 -6 14.06 1.1
-2 4 -6 13.95 1.05
-2 4 -5 26.77 1.35
-2 4 -5 28.01 1.44
-2 4 -4 18.38 0.97
-2 4 -4 16.55 0.96
-2 4 -3 8.05 0.69
-2 4 -3 7.56 0.59
-2 4 -2 33.71 1.58
-2 4 -1 37.66 1.84
-2 4 0 55.93 2.29
-2 4 1 0.94 0.28
-2 4 2 0.17 0.1
-2 5 -10 8.12 0.48
-2 5 -10 8.09 0.51
-2 5 -9 0.86 0.19
-2 5 -9 0.95 0.21
-2 5 -8 0.35 0.17
-2 5 -8 0.3 0.13
-2 5 -7 2.96 0.51
-2 5 -6 24.18 1.45
-2 5 -5 23.72 1.38
-2 5 -4 1.41 0.31
-2 5 -1 36.98 1.94
-2 5 0 37.39 2.05
-2 5 5 61.77 1.99
-2 5 6 29.32 1.38
-2 5 7 2.46 0.41
-2 6 -9 5.48 0.38
-2 6 -9 5.53 0.42
-2 6 -8 2.89 0.39
-2 6 -8 3.44 0.38
-2 6 -7 4.05 0.47
-2 6 -7 3.96 0.53
-2 6 -6 8.62 0.72
-2 6 -6 8.52 0.84
-2 6 -5 30.49 1.59
-2 6 -4 38.39 1.71
-2 6 -3 0.13 0.1
-2 6 -2 0.61 0.2
-2 6 -2 0.49 0.22
-2 6 -1 15.85 0.93
-2 6 -1 14.67 1.15
-2 6 0 36.83 1.39
-2 6 0 34.7 1.65
-2 6 1 61.49 2.11
-2 6 1 61.21 1.78
-2 6 2 5.91 0.65
-2 6 2 5.5 0.53
-2 6 3 3.9 0.53
-2 6 3 3.6 0.44
-2 6 4 1.21 0.29
-2 6 5 3.65 0.5
-2 6 6 34.98 1.56
-2 7 -8 3.73 0.34
-2 7 -7 0.21 0.1
-2 7 -6 3.84 0.51
-2 7 -5 16.48 1.12
-2 7 -4 10.32 0.89
-2 7 -3 0.83 0.25
-2 7 -2 0.67 0.22
-2 7 -2 0.29 0.18
-2 7 -1 1.86 0.34
-2 7 -1 1.12 0.35
-2 7 0 11.57 1.08
-2 7 0 12.39 0.88
-2 7 1 41.32 1.59
-2 7 1 41.69 1.95
-2 7 2 1.18 0.27
-2 7 2 1.67 0.37
-2 7 3 4.38 0.59
-2 7 4 3.74 0.53
-2 7 5 0.9 0.25
-2 7 6 12.24 0.91
-2 8 -6 1.42 0.24
-2 8 -5 7.07 0.65
-2 8 -4 8.88 0.78
-2 8 -3 13.9 0.99
-2 8 -2 4.12 0.54
-2 8 -1 0.51 0.19
-2 8 -1 0.52 0.24
-2 8 0 9.48 0.8
-2 8 0 8.9 1.02
-2 8 1 8.23 0.92
-2 8 1 8.54 0.74
-2 8 2 19.25 1.34
-2 8 3 8.34 0.83
-2 8 4 0.03 0.03
-2 8 5 0.65 0.19
-2 9 -4 11.1 0.72
-2 9 -3 5.19 0.54
-2 9 -2 5.92 0.6
-2 9 -1 2.43 0.38
-2 9 0 0.39 0.15
-2 9 1 3.11 0.56
-2 9 2 10.7 0.99
-2 9 3 8.79 0.82
-2 9 4 2.02 0.37
-1 -11 -6 1.59 0.27
-1 -11 -5 5.11 0.55
-1 -11 -4 3.76 0.51
-1 -11 -3 6.54 0.73
-1 -11 -2 7.02 0.82
-1 -11 -2 1.12 0.32
-1 -11 -1 0.1 0.11
-1 -11 -1 0.61 0.3
-1 -11 0 -0.24 0.08
-1 -10 -8 9.59 0.67
-1 -10 -7 12.8 0.9
-1 -10 -6 2.42 0.43
-1 -10 -5 0.12 0.11
-1 -10 -4 -0.27 0.17
-1 -10 -4 0.08 0.11
-1 -10 -3 11.73 1.17
-1 -10 -3 7.45 0.95
-1 -10 -2 11.9 1.29
-1 -10 -1 1.61 0.46
-1 -10 0 0.09 0.16
-1 -9 -10 -0.05 0.06
-1 -9 -9 1.01 0.23
-1 -9 -8 10.56 0.86
-1 -9 -7 12.8 1.05
-1 -9 -6 27.27 1.64
-1 -9 -5 2.32 0.51
-1 -9 -5 1.87 0.45
-1 -9 -4 -0.07 0.17
-1 -9 -4 -0.4 0.23
-1 -9 -3 10.88 1.27
-1 -9 -2 22.44 1.92
-1 -8 -11 6.92 0.49
-1 -8 -10 2.58 0.36
-1 -8 -9 0.11 0.07
-1 -8 -8 3.54 0.53
-1 -8 -7 24.05 1.5
-1 -8 -6 65.97 2.58
-1 -8 -5 8.93 1.04
-1 -8 -5 7.71 0.89
-1 -8 -5 7.85 0.89
-1 -8 -4 0.55 0.21
-1 -8 -4 0.69 0.33
-1 -8 -3 0.78 0.36
-1 -8 -3 0.73 0.25
-1 -8 -2 54.67 2.46
-1 -8 -1 95.37 3.27
-1 -8 0 12.2 1.15
-1 -8 1 0.37 0.2
-1 -7 -12 3.94 0.33
-1 -7 -11 14.79 0.82
-1 -7 -10 11.46 0.83
-1 -7 -9 0.49 0.15
-1 -7 -8 2.21 0.42
-1 -7 -7 29.31 1.62
-1 -7 -7 32.65 1.7
-1 -7 -6 7.41 0.83
-1 -7 -6 6.87 0.77
-1 -7 -5 82.46 2.65
-1 -7 -5 89.96 2.89
-1 -7 -4 2.16 0.44
-1 -7 -3 1.48 0.35
-1 -7 -2 53.59 2.16
-1 -7 -1 50.83 2.05
-1 -7 0 41.63 1.78
-1 -7 1 41.64 1.75
-1 -7 2 3.34 0.5
-1 -7 3 6.44 0.71
-1 -7 4 12.76 1.02
-1 -6 -12 3.79 0.37
-1 -6 -12 6.49 0.49
-1 -6 -11 15.66 0.92
-1 -6 -10 26.45 1.34
-1 -6 -9 21.51 1.3
-1 -6 -8 0.09 0.06
-1 -6 -8 0.15 0.11
-1 -6 -7 6.38 0.71
-1 -6 -7 5.87 0.7
-1 -6 -6 57.57 2.06
-1 -6 -5 37.63 1.62
-1 -6 -4 36.01 1.56
-1 -6 -3 11.77 0.88
-1 -6 -2 16.54 1.02
-1 -6 -1 52.49 1.75
-1 -6 0 93.47 2.19
-1 -6 1 64.91 1.77
-1 -6 2 12.15 0.78
-1 -6 3 0.12 0.06
-1 -6 4 29.54 1.38
-1 -6 5 17.44 1.13
-1 -5 -13 0.53 0.11
-1 -5 -13 0.59 0.13
-1 -5 -12 6.82 0.54
-1 -5 -12 11.72 0.71
-1 -5 -11 19.32 1.07
-1 -5 -10 25.06 1.33
-1 -5 -9 20.78 1.26
-1 -5 -9 20.26 1.14
-1 -5 -8 0.1 0.13
-1 -5 -8 0.16 0.1
-1 -5 -7 6.92 0.7
-1 -5 -6 29.12 1.37
-1 -5 -5 40.82 1.52
-1 -5 -4 71.3 1.93
-1 -5 -3 0.56 0.17
-1 -5 -2 1.39 0.26
-1 -5 -1 41.33 1.26
-1 -5 0 32.77 1.05
-1 -5 1 55.42 1.34
-1 -5 2 153.21 2.37
-1 -4 -13 2.2 0.27
-1 -4 -13 1.99 0.23
-1 -4 -12 0.01 0.04
-1 -4 -11 10.9 0.83
-1 -4 -10 34.09 1.57
-1 -4 -9 6.46 0.63
-1 -4 -9 7.36 0.76
-1 -4 -8 17.06 1.01
-1 -4 -7 0.45 0.15
-1 -4 -6 12.1 0.84
-1 -4 -5 106.97 2.29
-1 -4 -4 97.6 2.02
-1 -4 -3 79.99 1.72
-1 -4 -2 171.15 2.34
-1 -4 -1 10.93 0.53
-1 -4 0 135.58 1.7
-1 -4 1 184.15 2.04
-1 -3 -13 4.62 0.41
-1 -3 -13 4.45 0.37
-1 -3 -12 3.12 0.4
-1 -3 -11 21.05 1.17
-1 -3 -10 10.22 0.85
-1 -3 -9 18.28 1.11
-1 -3 -9 18.49 1.16
-1 -3 -8 60.98 1.83
-1 -3 -7 34.45 1.32
-1 -3 -6 16.21 0.85
-1 -3 -5 5.53 0.5
-1 -3 -4 63.43 1.5
-1 -3 -3 113.9 1.83
-1 -3 -2 25.43 0.77
-1 -3 -1 14.5 0.49
-1 -3 0 40.95 0.75
-1 -3 0 42.49 0.91
-1 -3 1 45.87 0.92
-1 -2 -13 14.92 0.71
-1 -2 -12 4.48 0.5
-1 -2 -11 2.1 0.37
-1 -2 -10 1.2 0.29
-1 -2 -10 1.27 0.3
-1 -2 -9 48.93 1.84
-1 -2 -9 51.37 1.9
-1 -2 -8 139.73 2.93
-1 -2 -7 50.27 1.54
-1 -2 -6 19.93 0.9
-1 -2 -5 33.54 1.09
-1 -2 -4 48.63 1.27
-1 -2 -4 46.1 1.4
-1 -2 -3 202.46 1.98
-1 -2 -3 198.94 2.23
-1 -2 -2 126.95 1.53
-1 -2 -2 119.48 1.41
-1 -2 -1 14.39 0.45
-1 -2 1 134.12 1.21
-1 -2 2 67.6 0.8
-1 -2 3 109.6 1.57
-1 -1 -13 12.44 0.64
-1 -1 -13 11.54 0.65
-1 -1 -12 27.53 1.15
-1 -1 -11 14.08 0.99
-1 -1 -10 29.79 1.47
-1 -1 -10 32.12 1.57
-1 -1 -9 14.54 1.03
-1 -1 -9 13.39 0.95
-1 -1 -8 70.48 2.18
-1 -1 -7 115.56 2.51
-1 -1 -6 45.88 1.36
-1 -1 -6 46.89 1.47
-1 -1 -5 12.46 0.52
-1 -1 -5 12.1 0.64
-1 -1 -4 12.7 0.49
-1 -1 -4 12.04 0.64
-1 -1 -4 12.5 0.6
-1 -1 -3 63.21 1.02
-1 -1 -3 62.93 1.18
-1 -1 -2 4.02 0.24
-1 -1 -1 158.65 1.41
-1 -1 0 9.39 0.3
-1 -1 1 0.26 0.04
-1 -1 3 254.76 2.38
-1 -1 4 76.19 1.63
-1 0 -13 14.2 0.64
-1 0 -13 13.3 0.65
-1 0 -12 22.58 1.01
-1 0 -12 23.42 1.12
-1 0 -11 30.12 1.3
-1 0 -10 6.21 0.69
-1 0 -9 28.15 1.47
-1 0 -9 25.96 1.39
-1 0 -8 31.57 1.51
-1 0 -7 164.26 3.23
-1 0 -6 20 1.04
-1 0 -5 29.3 1.16
-1 0 -4 19.62 0.83
-1 0 -4 22.64 0.92
-1 0 -2 401 3.5
-1 0 -1 84.34 1.27
-1 0 1 15.21 0.3
-1 0 2 256.53 2.51
-1 0 2 235.74 1.03
-1 0 3 55.39 1.53
-1 0 4 77.57 2.13
-1 1 -12 18.6 0.86
-1 1 -12 19.03 0.94
-1 1 -11 48.05 1.77
-1 1 -11 45.69 1.55
-1 1 -10 4.47 0.51
-1 1 -9 3.33 0.45
-1 1 -9 2.54 0.44
-1 1 -8 49.54 1.95
-1 1 -7 94.18 2.59
-1 1 -6 48.76 1.74
-1 1 -5 127.66 2.58
-1 1 -4 9.44 0.6
-1 1 -3 22.46 0.64
-1 1 -3 24.03 0.79
-1 1 -2 93.34 1.46
-1 1 1 77.78 1
-1 1 2 6.35 0.27
-1 2 -12 16.64 0.78
-1 2 -11 21.28 0.99
-1 2 -11 22.87 1.14
-1 2 -10 20.67 1.23
-1 2 -10 17.48 1
-1 2 -9 15.81 1.12
-1 2 -9 16.7 1.19
-1 2 -9 14.62 0.97
-1 2 -8 5.56 0.67
-1 2 -7 32.41 1.61
-1 2 -6 129.02 3.03
-1 2 -5 31.7 1.35
-1 2 -4 131.08 2.33
-1 2 -3 2.57 0.32
-1 2 -3 2.45 0.24
-1 2 -3 2.74 0.28
-1 2 -2 93.89 1.65
-1 2 -2 98.15 1.39
-1 2 -1 148.99 2.29
-1 2 -1 159.61 1.5
-1 2 1 31.14 0.94
-1 2 1 27.98 0.76
-1 2 2 4.65 0.34
-1 2 2 4.53 0.29
-1 2 3 30.99 0.8
-1 2 4 123.03 1.53
-1 3 -12 6.27 0.4
-1 3 -11 14.52 0.81
-1 3 -10 53.26 1.86
-1 3 -9 5.99 0.71
-1 3 -8 3.67 0.59
-1 3 -8 4.05 0.6
-1 3 -8 4.05 0.51
-1 3 -7 10.89 1.02
-1 3 -7 10.48 0.96
-1 3 -6 76.59 2.47
-1 3 -5 106.6 2.62
-1 3 -4 78.8 1.95
-1 3 -3 13.58 0.67
-1 3 -3 12.52 0.65
-1 3 -2 0.28 0.1
-1 3 -2 0.25 0.08
-1 3 -1 91.09 1.34
-1 3 -1 82.8 1.88
-1 3 0 237.37 3.28
-1 3 1 359.5 3.87
-1 3 2 82.24 1.71
-1 4 -11 14.56 0.67
-1 4 -11 14.26 0.68
-1 4 -10 13.43 0.82
-1 4 -9 32.85 1.53
-1 4 -8 28.5 1.61
-1 4 -7 0.37 0.21
-1 4 -7 0.37 0.19
-1 4 -6 48.88 2.16
-1 4 -6 45.39 2
-1 4 -5 55.48 2.02
-1 4 -4 39.14 1.46
-1 4 -3 70.92 1.71
-1 4 -2 7.86 0.51
-1 4 -2 8.06 0.62
-1 4 -1 168.81 3.05
-1 4 0 117.28 2.64
-1 4 1 47.81 1.63
-1 5 -10 7.05 0.5
-1 5 -10 6.54 0.47
-1 5 -9 26.54 1.21
-1 5 -9 26.35 1.17
-1 5 -8 28.96 1.49
-1 5 -7 0.07 0.08
-1 5 -6 16.76 1.29
-1 5 -6 16.03 1.23
-1 5 -5 18.25 1.28
-1 5 -5 16.73 1.18
-1 6 -9 15.48 0.77
-1 6 -9 15.31 0.75
-1 6 -8 17.33 0.98
-1 6 -8 16.62 0.98
-1 6 -7 7.27 0.76
-1 6 -7 7.51 0.74
-1 6 -6 2.89 0.53
-1 6 -6 2.73 0.48
-1 6 -5 39.86 1.83
-1 6 -5 41.11 1.98
-1 6 -4 18.73 1.24
-1 6 -4 19.48 1.16
-1 6 -3 42.28 1.7
-1 6 5 0.11 0.06
-1 6 6 70.15 2.34
-1 7 -8 6.44 0.48
-1 7 -8 6.78 0.5
-1 7 -7 13.08 0.87
-1 7 -7 13.11 0.84
-1 7 -6 0.55 0.21
-1 7 -6 0.4 0.14
-1 7 -5 0.75 0.25
-1 7 -5 0.35 0.17
-1 7 -4 20.2 1.17
-1 7 -4 16.99 1.25
-1 7 -3 22.91 1.36
-1 7 -2 18.8 1.14
-1 7 -1 9.2 0.76
-1 7 0 0.69 0.19
-1 7 0 0.55 0.24
-1 7 1 7.37 0.83
-1 7 1 8.48 0.69
-1 7 2 77.19 2.63
-1 7 2 81.83 2.16
-1 7 3 80.91 2.19
-1 7 3 80.22 2.61
-1 7 4 2.73 0.47
-1 7 5 2.06 0.41
-1 7 6 0.15 0.1
-1 8 -6 4.83 0.46
-1 8 -6 4.82 0.51
-1 8 -5 2.75 0.45
-1 8 -4 5.68 0.7
-1 8 -3 13.84 1.09
-1 8 -2 30.77 1.57
-1 8 -1 10.31 0.87
-1 8 0 10.33 0.84
-1 8 1 0.08 0.07
-1 8 1 -0.09 0.11
-1 8 2 45.24 1.72
-1 8 2 42.49 2.15
-1 8 3 32.7 1.79
-1 8 4 20.5 1.35
-1 8 5 4.18 0.58
-1 9 -5 1.54 0.26
-1 9 -4 0.04 0.04
-1 9 -3 5.53 0.65
-1 9 -2 18.93 1.23
-1 9 -1 12.72 0.99
-1 9 0 1.95 0.37
-1 9 1 0.12 0.1
-1 9 2 2.87 0.58
-1 9 3 20.73 1.47
-1 9 4 15.35 1.17
0 -11 -4 1.48 0.27
0 -11 -3 1.76 0.32
0 -11 -2 1.48 0.36
0 -11 -2 6.85 0.68
0 -11 -1 0.62 0.26
0 -11 -1 7.32 0.74
0 -11 0 2.53 0.45
0 -10 -7 2.39 0.35
0 -10 -6 6.94 0.66
0 -10 -5 7.78 0.76
0 -10 -4 0.37 0.21
0 -10 -3 0.25 0.17
0 -10 -3 0.41 0.2
0 -10 -2 1.71 0.46
0 -10 -1 2.83 0.61
0 -10 0 2 0.57
0 -10 1 0.57 0.34
0 -9 -9 3.52 0.39
0 -9 -8 0.27 0.12
0 -9 -8 0.16 0.07
0 -9 -7 3.59 0.51
0 -9 -6 14.29 1.12
0 -9 -5 5.57 0.73
0 -9 -4 6.17 0.9
0 -9 -4 5.54 0.76
0 -9 -3 2.13 0.56
0 -9 -2 3 0.7
0 -9 -1 11.64 1.4
0 -8 -10 4.86 0.45
0 -8 -9 6.1 0.54
0 -8 -9 5.43 0.56
0 -8 -8 0.32 0.14
0 -8 -7 1.06 0.3
0 -8 -6 20.43 1.39
0 -8 -5 28.59 1.89
0 -8 -5 23.37 1.54
0 -8 -4 15.07 1.47
0 -8 -3 0.84 0.3
0 -8 -3 0.56 0.31
0 -8 -2 1.29 0.46
0 -8 -2 0.97 0.33
0 -8 -1 0.73 0.33
0 -8 0 35.29 1.98
0 -7 -11 7.44 0.53
0 -7 -10 16.37 0.86
0 -7 -10 16.15 0.92
0 -7 -9 6.85 0.64
0 -7 -9 7.54 0.71
0 -7 -8 0.46 0.15
0 -7 -7 3.99 0.58
0 -7 -6 3.59 0.56
0 -7 -6 3.56 0.56
0 -7 -5 72.57 2.59
0 -7 -5 71.97 2.5
0 -7 -4 15.05 1.16
0 -7 -4 18.02 1.49
0 -7 -3 9.73 1.11
0 -7 -3 9.95 0.95
0 -7 -2 6.67 0.78
0 -7 -1 0.61 0.22
0 -7 0 49.7 2.01
0 -7 1 27.47 1.46
0 -7 2 23.42 1.34
0 -7 3 1.76 0.37
0 -6 -12 -0.03 0.03
0 -6 -11 0.17 0.07
0 -6 -11 0.2 0.08
0 -6 -10 18.15 0.98
0 -6 -10 17.93 1.04
0 -6 -9 15.56 1
0 -6 -9 14.31 1.01
0 -6 -8 32.04 1.59
0 -6 -7 3.56 0.54
0 -6 -7 3.42 0.52
0 -6 -6 0.73 0.23
0 -6 -6 0.86 0.27
0 -6 -5 9.73 0.83
0 -6 -4 71.63 2.25
0 -6 -3 13.02 0.96
0 -6 -2 42.09 1.7
0 -6 -1 0.09 0.07
0 -6 0 0.58 0.16
0 -6 1 47.84 1.59
0 -6 2 61.93 1.81
0 -6 3 28.04 1.27
0 -6 4 2.95 0.44
0 -6 5 0.92 0.25
0 -5 -12 2.44 0.3
0 -5 -11 0.19 0.1
0 -5 -11 0.27 0.12
0 -5 -10 12.94 0.87
0 -5 -10 13.69 0.95
0 -5 -9 56.49 1.94
0 -5 -9 56.11 2.05
0 -5 -8 38.16 1.65
0 -5 -8 36.1 1.68
0 -5 -7 12.56 0.96
0 -5 -7 12.24 0.96
0 -5 -6 19.18 1.14
0 -5 -5 10.88 0.81
0 -5 -4 74.18 2.04
0 -5 -3 124.6 2.56
0 -5 -2 41.23 1.42
0 -5 -1 8.57 0.6
0 -5 0 0.09 0.07
0 -5 1 58.24 1.44
0 -5 2 49.04 1.38
0 -4 -13 10.04 0.48
0 -4 -13 10.61 0.54
0 -4 -12 15.55 0.76
0 -4 -12 16.24 0.84
0 -4 -11 0.59 0.19
0 -4 -11 0.37 0.14
0 -4 -10 0.86 0.24
0 -4 -10 1.04 0.27
0 -4 -9 24.88 1.29
0 -4 -9 27.53 1.45
0 -4 -9 27.13 1.35
0 -4 -8 67.36 2.13
0 -4 -8 69.9 2.3
0 -4 -8 69.04 2.16
0 -4 -7 50.21 1.8
0 -4 -6 15.25 0.98
0 -4 -5 1.45 0.28
0 -4 -4 21.89 1.01
0 -4 -3 139.11 2.38
0 -4 -2 199.45 2.65
0 -4 -1 281.15 2.81
0 -4 0 2.38 0.24
0 -4 1 0.37 0.1
0 -3 -13 12.23 0.58
0 -3 -13 12.71 0.64
0 -3 -12 12.63 0.72
0 -3 -12 11.98 0.7
0 -3 -12 13.09 0.81
0 -3 -11 22.08 1.09
0 -3 -11 26.66 1.28
0 -3 -10 8.94 0.74
0 -3 -10 9.68 0.83
0 -3 -9 36.51 1.52
0 -3 -9 39.5 1.72
0 -3 -9 39.79 1.65
0 -3 -9 39.15 1.6
0 -3 -8 88.82 2.36
0 -3 -7 45.29 1.63
0 -3 -6 40.38 1.52
0 -3 -5 107.67 2.29
0 -3 -4 81.41 1.81
0 -3 -4 73.43 1.8
0 -3 -3 286.72 3.07
0 -3 -3 290.49 2.78
0 -3 -2 197.54 2.22
0 -3 -2 197.21 2.26
0 -3 -1 58.83 1.04
0 -3 -1 65.11 1.25
0 -3 0 4.78 0.34
0 -3 0 4.03 0.25
0 -2 -13 7.22 0.47
0 -2 -12 17.21 0.89
0 -2 -12 17.41 0.97
0 -2 -11 26.18 1.22
0 -2 -11 30.58 1.42
0 -2 -10 7.04 0.66
0 -2 -10 8.47 0.78
0 -2 -9 3.62 0.47
0 -2 -9 2.89 0.46
0 -2 -9 3.99 0.52
0 -2 -8 41.62 1.59
0 -2 -8 39.56 1.53
0 -2 -7 187.45 3.14
0 -2 -6 142.22 2.58
0 -2 -5 38.9 1.32
0 -2 -4 30.01 0.77
0 -2 -4 29.42 1.02
0 -2 -3 40.92 1.07
0 -2 -3 42.55 0.88
0 -2 -2 115.73 1.39
0 -2 -1 367.46 2.38
0 -2 0 113.52 1.34
0 -2 3 76.16 1.51
0 -1 -13 4.47 0.38
0 -1 -12 32.63 1.24
0 -1 -11 24.05 1.18
0 -1 -11 23.88 1.26
0 -1 -10 6.5 0.65
0 -1 -10 7.09 0.7
0 -1 -9 11.07 0.85
0 -1 -9 12.61 0.89
0 -1 -9 13.79 0.97
0 -1 -8 43.98 1.61
0 -1 -7 109.2 2.34
0 -1 -7 112.18 2.4
0 -1 -6 153.36 2.57
0 -1 -5 161 2.42
0 -1 -4 29.67 0.93
0 -1 -4 29.84 0.96
0 -1 -3 0.96 0.14
0 -1 -2 28.82 0.74
0 -1 -1 115.85 0.95
0 -1 0 107.67 0.93
0 -1 2 1.49 0.16
0 -1 3 11.49 0.61
0 0 -13 3.25 0.31
0 0 -12 7.28 0.58
0 0 -12 8 0.6
0 0 -11 50.33 1.69
0 0 -11 50.32 1.84
0 0 -10 15.44 0.97
0 0 -10 13.33 0.99
0 0 -9 9.04 0.78
0 0 -9 11.8 0.92
0 0 -9 8.7 0.71
0 0 -9 11.85 0.92
0 0 -8 7.47 0.69
0 0 -7 14.65 0.91
0 0 -6 198.82 3.07
0 0 -5 290.91 3.44
0 0 -4 58.37 1.37
0 0 -4 56.4 0.66
0 0 -3 21.59 0.74
0 0 -3 18.51 0.36
0 0 -2 0.55 0.05
0 0 1 155.8 1.74
0 0 2 0.67 0.18
0 0 3 19.38 1.12
0 0 4 56.07 2.18
0 1 -13 -0.04 0.04
0 1 -12 9.76 0.65
0 1 -12 9.76 0.62
0 1 -11 10.63 0.76
0 1 -11 10.17 0.76
0 1 -10 48.52 1.71
0 1 -9 22.19 1.15
0 1 -9 22.31 1.31
0 1 -9 23.42 1.29
0 1 -8 8.62 0.77
0 1 -7 3.53 0.48
0 1 -6 158.34 3.09
0 1 -5 268.21 3.74
0 1 -4 158.96 2.57
0 1 -3 11.42 0.57
0 1 -2 1.78 0.14
0 1 -1 157.89 1.25
0 1 2 30.44 0.53
0 2 -12 0.13 0.03
0 2 -11 3.24 0.4
0 2 -11 3.8 0.43
0 2 -10 37.3 1.5
0 2 -10 39.14 1.59
0 2 -9 22.23 1.21
0 2 -9 23.08 1.27
0 2 -9 21.65 1.19
0 2 -8 29 1.38
0 2 -8 29.98 1.49
0 2 -7 1.49 0.34
0 2 -6 10.07 0.85
0 2 -5 62.89 1.96
0 2 -4 243.26 3.33
0 2 -3 76.74 1.48
0 2 -3 75.52 1.13
0 2 -2 12.57 0.46
0 2 -2 11.62 0.44
0 2 -2 12.21 0.47
0 2 -1 42.02 0.89
0 2 -1 42.79 0.88
0 2 3 41.44 0.84
0 2 4 27.38 0.74
0 3 -12 1.13 0.16
0 3 -11 8.13 0.59
0 3 -10 21.71 1.11
0 3 -10 21.46 1.1
0 3 -9 36.41 1.57
0 3 -9 38.26 1.67
0 3 -8 28.24 1.46
0 3 -8 27.91 1.54
0 3 -8 28.24 1.49
0 3 -8 26.83 1.32
0 3 -7 4.1 0.51
0 3 -7 4.51 0.62
0 3 -6 11.03 0.83
0 3 -6 7.41 0.78
0 3 -5 63.09 2.08
0 3 -4 101.24 2.34
0 3 -4 102.34 2.25
0 3 -3 121.46 2.2
0 3 -3 138.27 2.12
0 3 -2 9.13 0.45
0 3 -2 8.9 0.44
0 3 -2 8.75 0.49
0 3 -1 23.8 0.45
0 3 -1 25.04 0.54
0 3 -1 23.97 0.62
0 3 -1 25.56 0.85
0 3 3 290.94 2.67
0 4 -11 -0.01 0.06
0 4 -10 9.17 0.65
0 4 -9 43.3 1.66
0 4 -9 45.03 1.67
0 4 -8 10.96 0.91
0 4 -8 11.26 0.96
0 4 -7 8.77 0.85
0 4 -7 9.78 0.97
0 4 -7 8.66 0.88
0 4 -7 10.29 0.87
0 4 -6 1.5 0.33
0 4 -6 0.25 0.15
0 4 -5 0.27 0.14
0 4 -5 0.33 0.16
0 4 -4 39.3 1.52
0 4 -4 44.88 1.6
0 4 -3 74.5 1.68
0 4 -3 74.39 1.71
0 4 -2 24.79 0.75
0 4 -2 24.37 0.84
0 5 -11 1.07 0.15
0 5 -10 2.24 0.28
0 5 -9 17.22 0.95
0 5 -8 8 0.75
0 5 -7 5.66 0.72
0 5 -6 3.78 0.61
0 5 -6 4.18 0.62
0 5 -5 0.26 0.15
0 5 -4 26.04 1.33
0 6 -10 0.08 0.05
0 6 -9 1.05 0.21
0 6 -8 5.91 0.59
0 6 -7 26.8 1.44
0 6 -7 26.88 1.44
0 6 -6 11.38 1.03
0 6 -6 10.84 1.01
0 6 -5 0.45 0.2
0 6 -5 0.39 0.19
0 6 -4 3.13 0.52
0 6 -4 2.97 0.49
0 6 6 0.9 0.29
0 7 -9 0.08 0.05
0 7 -8 10.09 0.67
0 7 -7 8 0.72
0 7 -6 21.64 1.32
0 7 -6 19.1 1.28
0 7 -5 4.22 0.63
0 7 -5 3.4 0.57
0 7 -4 8.03 0.89
0 7 -4 10.62 0.97
0 7 -3 1.8 0.39
0 7 -3 1.98 0.38
0 7 -2 24.32 1.18
0 7 -2 21.93 1.26
0 7 -1 24.31 1.22
0 7 3 8.48 0.7
0 7 3 8.36 0.88
0 7 4 15.76 1.2
0 7 5 76.5 2.68
0 8 -5 5.87 0.68
0 8 -5 4.31 0.59
0 8 -4 0.36 0.18
0 8 -3 -0.15 0.12
0 8 -2 2.73 0.42
0 8 -2 2.49 0.46
0 8 -1 21.2 1.27
0 8 -1 24.78 1.15
0 8 0 26.55 1.37
0 8 1 0.54 0.18
0 8 2 1.2 0.27
0 8 2 0.54 0.21
0 8 3 0.84 0.3
0 8 4 11.15 1.08
0 8 5 22.03 1.47
0 9 -5 6.15 0.55
0 9 -4 4.34 0.51
0 9 -4 3.91 0.53
0 9 -3 0.01 0.09
0 9 -3 0.07 0.02
0 9 -2 0.81 0.29
0 9 -1 14.75 1.15
0 9 0 6.47 0.72
0 9 1 16.47 1.12
0 9 3 1.15 0.41
0 9 4 4.81 0.73
0 10 -2 -0.47 0.19
0 10 7 1.66 0.27
1 -10 -6 7.09 0.53
1 -10 -5 4.18 0.47
1 -10 -4 8.88 0.74
1 -10 -3 2.74 0.5
1 -10 -3 6.65 0.68
1 -10 -2 0.07 0.13
1 -10 -2 -0.01 0.06
1 -10 -1 0.12 0.2
1 -10 0 0.52 0.22
1 -10 1 0.88 0.34
1 -10 2 0.24 0.23
1 -9 -8 9.76 0.61
1 -9 -8 9.09 0.59
1 -9 -7 0.39 0.14
1 -9 -6 0.6 0.21
1 -9 -5 2.5 0.45
1 -9 -4 14.21 1.26
1 -9 -4 14 1.12
1 -9 -3 17.27 1.48
1 -9 -3 19.97 1.4
1 -9 -2 3.58 0.72
1 -9 -1 -0.09 0.19
1 -9 0 1.21 0.42
1 -8 -9 10.89 0.68
1 -8 -9 10.15 0.64
1 -8 -8 8.77 0.69
1 -8 -7 11.55 0.89
1 -8 -6 0 0.07
1 -8 -5 4.88 0.77
1 -8 -5 3.94 0.59
1 -8 -4 22.74 1.72
1 -8 -4 19.12 1.36
1 -8 -3 32.06 2.17
1 -8 -2 44.22 2.65
1 -7 -10 1.59 0.25
1 -7 -10 1.35 0.23
1 -7 -9 5.54 0.55
1 -7 -9 5.08 0.52
1 -7 -8 16.31 1.02
1 -7 -7 16.62 1.1
1 -7 -6 0.13 0.09
1 -7 -5 1.42 0.42
1 -7 -5 2.16 0.43
1 -7 -5 1.58 0.37
1 -7 -4 3.73 0.7
1 -7 -4 2.76 0.49
1 -7 -3 84.96 2.76
1 -7 -3 92.75 3.48
1 -7 -2 89.62 3.52
1 -7 -2 92.2 2.94
1 -7 -1 11.82 1.06
1 -7 0 0.59 0.22
1 -7 1 10.35 0.93
1 -7 2 20.09 1.28
1 -6 -11 3.36 0.35
1 -6 -11 2.94 0.31
1 -6 -10 0.22 0.09
1 -6 -10 0.05 0.02
1 -6 -9 6.74 0.65
1 -6 -9 5.96 0.59
1 -6 -8 17.94 1.11
1 -6 -7 8.16 0.78
1 -6 -7 8.22 0.78
1 -6 -6 57.43 2.06
1 -6 -6 59.01 2.08
1 -6 -5 0.02 0.05
1 -6 -5 0.17 0.1
1 -6 -5 0.03 0.11
1 -6 -4 7.71 0.73
1 -6 -3 65.33 2.15
1 -6 -2 40.18 1.71
1 -6 -1 39.16 1.66
1 -6 0 13.78 0.94
1 -6 1 6.33 0.61
1 -6 2 47.51 1.67
1 -6 3 37.55 1.51
1 -6 4 16.63 1.04
1 -6 5 38.9 1.66
1 -5 -12 6.49 0.43
1 -5 -12 6.68 0.42
1 -5 -11 9.17 0.63
1 -5 -11 8.43 0.58
1 -5 -10 0.9 0.24
1 -5 -10 0.95 0.22
1 -5 -9 13.08 0.94
1 -5 -9 11.93 0.88
1 -5 -8 27.75 1.37
1 -5 -8 26.14 1.36
1 -5 -7 56.9 2.01
1 -5 -7 56.64 2.02
1 -5 -6 17.64 1.08
1 -5 -5 22.33 1.15
1 -5 -4 1.95 0.33
1 -5 -3 40.64 1.48
1 -5 -2 79.91 2.05
1 -5 -1 81.74 1.98
1 -5 0 34.96 1.23
1 -5 1 4.56 0.43
1 -5 2 10.22 0.66
1 -5 3 91.13 2.06
1 -5 4 48.5 1.6
1 -4 -12 7.96 0.46
1 -4 -12 8.35 0.55
1 -4 -12 7.67 0.5
1 -4 -11 6.44 0.49
1 -4 -11 6.13 0.56
1 -4 -11 6.37 0.55
1 -4 -10 3.91 0.49
1 -4 -10 3.89 0.49
1 -4 -9 0.45 0.18
1 -4 -9 0.5 0.19
1 -4 -8 13.96 1.01
1 -4 -8 14.01 1.06
1 -4 -8 14.47 1.02
1 -4 -8 13.92 0.96
1 -4 -7 31.45 1.44
1 -4 -6 38.75 1.56
1 -4 -5 32.14 1.32
1 -4 -4 0.65 0.18
1 -4 -3 1.58 0.27
1 -4 -2 56.03 1.44
1 -4 -1 47.32 1.23
1 -4 0 123.95 1.88
1 -4 1 185.75 2.29
1 -4 2 6.79 0.46
1 -3 -12 15.13 0.71
1 -3 -12 16.43 0.82
1 -3 -12 16.08 0.79
1 -3 -11 17.8 0.9
1 -3 -11 17.91 1
1 -3 -11 17.06 0.95
1 -3 -10 3.12 0.45
1 -3 -10 2.81 0.42
1 -3 -9 6.67 0.68
1 -3 -9 6.44 0.71
1 -3 -9 6.97 0.7
1 -3 -9 6.69 0.66
1 -3 -9 6.9 0.67
1 -3 -8 1.41 0.31
1 -3 -8 0.71 0.22
1 -3 -8 0.72 0.2
1 -3 -8 0.87 0.24
1 -3 -7 17.36 1.03
1 -3 -6 54.89 1.81
1 -3 -5 24.01 1.1
1 -3 -4 20.66 0.92
1 -3 -3 2.18 0.32
1 -3 -3 1.86 0.26
1 -3 -2 72.98 1.45
1 -3 -2 81.84 1.77
1 -3 -1 372.46 2.83
1 -3 -1 365.21 3.24
1 -3 0 243.55 2.23
1 -3 0 249.65 2.14
1 -3 1 92.73 1.35
1 -2 -13 0.24 0.07
1 -2 -12 14.45 0.75
1 -2 -12 14 0.78
1 -2 -11 4.99 0.5
1 -2 -11 4.4 0.51
1 -2 -11 4.59 0.52
1 -2 -10 9.66 0.8
1 -2 -10 8.11 0.76
1 -2 -10 9.74 0.8
1 -2 -9 30.27 1.45
1 -2 -9 30.87 1.44
1 -2 -9 33.31 1.45
1 -2 -8 3.77 0.47
1 -2 -7 51.94 1.68
1 -2 -6 31.2 1.24
1 -2 -5 93.53 2.05
1 -2 -4 123.5 2.14
1 -2 -4 127.34 2.4
1 -2 -3 27.44 0.91
1 -2 -3 25.6 0.7
1 -2 -2 4.29 0.32
1 -2 -2 4.7 0.36
1 -2 -1 30.79 0.77
1 -2 -1 26.99 0.65
1 -2 0 103.01 1.09
1 -2 2 101.26 1.89
1 -1 -13 0.11 0.05
1 -1 -12 1.59 0.25
1 -1 -11 4.33 0.49
1 -1 -11 4.12 0.5
1 -1 -11 4.11 0.49
1 -1 -10 27.6 1.3
1 -1 -10 27.55 1.38
1 -1 -10 26.68 1.32
1 -1 -10 23.87 1.26
1 -1 -9 38.29 1.62
1 -1 -9 37.26 1.44
1 -1 -9 36.12 1.52
1 -1 -8 4.68 0.51
1 -1 -7 0.24 0.1
1 -1 -7 0.14 0.08
1 -1 -6 72.72 1.77
1 -1 -5 64.41 1.55
1 -1 -4 219.93 2.82
1 -1 -4 226.07 2.21
1 -1 -3 27.02 0.89
1 -1 -3 26.76 0.66
1 -1 -2 5.44 0.32
1 -1 -2 5.5 0.24
1 -1 0 73.5 0.84
1 -1 1 7.41 0.42
1 -1 2 89.67 1.92
1 -1 3 23.08 1.14
1 0 -13 5.97 0.39
1 0 -12 0.57 0.15
1 0 -11 22.73 1.13
1 0 -10 9.79 0.77
1 0 -10 9.06 0.79
1 0 -10 8.43 0.75
1 0 -10 7.83 0.68
1 0 -9 31.59 1.39
1 0 -9 32.81 1.53
1 0 -9 31.51 1.39
1 0 -9 31.03 1.42
1 0 -9 26.8 1.28
1 0 -8 56.98 1.8
1 0 -7 1.59 0.29
1 0 -6 47.22 1.42
1 0 -5 65.73 1.57
1 0 -5 66.06 1.53
1 0 -4 79.29 1.57
1 0 -4 84.88 1.65
1 0 -3 54.55 1.14
1 0 -3 54.05 1.2
1 0 2 468.88 4.76
1 0 3 143.67 3.59
1 0 4 26.57 1.91
1 1 -12 5.62 0.48
1 1 -11 0.23 0.07
1 1 -10 37.03 1.5
1 1 -10 29.74 1.25
1 1 -9 28.94 1.33
1 1 -9 27.51 1.39
1 1 -9 29.7 1.38
1 1 -9 24.71 1.16
1 1 -8 68.85 2
1 1 -8 65.48 2.15
1 1 -8 64.49 1.99
1 1 -7 7.79 0.66
1 1 -6 13.33 0.84
1 1 -5 24.85 1.09
1 1 -4 98.18 2.03
1 1 -3 285.6 2.43
1 1 -3 272.4 2.35
1 1 -2 117.44 1.33
1 2 -12 10.28 0.6
1 2 -11 0.06 0.03
1 2 -10 3.38 0.45
1 2 -9 25.03 1.27
1 2 -9 26.02 1.31
1 2 -8 19.71 1.14
1 2 -8 19.87 1.12
1 2 -7 13.75 0.9
1 2 -6 19.43 1.03
1 2 -6 22.03 1.19
1 2 -5 2.22 0.33
1 2 -5 1.2 0.28
1 2 -4 67.17 1.72
1 2 -4 64.6 1.19
1 2 -3 104.75 1.74
1 2 -3 105.28 1.42
1 2 -2 66.32 1.22
1 2 -2 65.73 0.99
1 2 -2 66.14 0.78
1 2 -2 64.71 0.9
1 2 -1 136.72 1.12
1 2 -1 136.31 1.39
1 2 0 72.2 0.99
1 3 -12 6.17 0.4
1 3 -11 5.14 0.47
1 3 -11 4.49 0.39
1 3 -10 0.19 0.11
1 3 -9 11.8 0.89
1 3 -8 37.8 1.67
1 3 -8 35.29 1.53
1 3 -7 90.04 2.42
1 3 -6 17.06 1.03
1 3 -6 15.56 1.07
1 3 -5 30.5 1.42
1 3 -5 38.6 1.5
1 3 -4 21.52 1.04
1 3 -4 18.79 0.97
1 3 -3 152.84 2.44
1 3 -3 151.2 2.14
1 3 -2 174.18 2.09
1 3 -2 172.11 1.49
1 3 -1 42.87 0.7
1 3 -1 44.97 0.86
1 3 -1 42.23 0.89
1 3 0 41.88 0.7
1 3 0 43.58 0.96
1 3 1 16.09 0.61
1 3 2 25.29 0.78
1 3 3 120.72 1.75
1 4 -11 10.21 0.53
1 4 -11 11.01 0.6
1 4 -10 0.15 0.09
1 4 -10 0.34 0.12
1 4 -9 0.03 0.05
1 4 -8 15.68 1.11
1 4 -7 55.78 2.25
1 4 -7 55.69 2
1 4 -6 44.03 1.78
1 4 -5 6.5 0.67
1 4 -5 5.41 0.62
1 4 -4 0.4 0.16
1 4 -4 1.35 0.27
1 4 -3 9.5 0.63
1 4 -3 9.13 0.58
1 4 -2 103.1 1.71
1 4 -2 105.6 1.25
1 4 -1 181.28 1.64
1 4 0 137.07 1.49
1 5 -10 10.76 0.61
1 5 -10 11.79 0.65
1 5 -9 2.55 0.37
1 5 -9 1.91 0.3
1 5 -8 10.24 0.87
1 5 -8 8.35 0.71
1 5 -7 50.75 2.15
1 5 -7 50.54 1.9
1 5 -7 53.92 2.06
1 5 -6 21.73 1.44
1 5 -6 32.58 1.67
1 5 -5 16.22 1.15
1 5 -4 21.78 1.18
1 5 -4 24.62 1.28
1 5 -3 1.69 0.28
1 5 -1 58.52 1.04
1 5 0 30.65 0.8
1 6 -10 11.73 0.54
1 6 -9 7.74 0.55
1 6 -8 1.1 0.24
1 6 -8 1.34 0.27
1 6 -7 12.25 0.93
1 6 -7 10.26 0.87
1 6 -6 9.05 0.87
1 6 -6 10.34 0.95
1 6 -5 23.05 1.47
1 6 -5 26.57 1.45
1 6 -4 30.46 1.61
1 6 0 92.05 1.58
1 6 1 51.83 1.24
1 7 -8 0.73 0.17
1 7 -7 1.33 0.29
1 7 -6 45.91 2
1 7 -5 8.31 0.92
1 7 -4 12.16 1.1
1 7 -3 6.39 0.73
1 7 -2 3 0.44
1 7 2 43.19 1.28
1 8 -8 2.96 0.28
1 8 -5 13.64 1.14
1 8 -4 7.74 0.89
1 8 -1 0.24 0.11
1 8 0 8.91 0.81
1 8 0 9.12 0.71
1 8 1 76.67 1.94
1 8 1 69.46 2.22
1 8 2 42.19 1.73
1 8 2 43.24 1.4
1 8 3 0.45 0.14
1 8 4 0.4 0.14
1 8 5 5.53 0.57
1 8 11 5.48 0.39
1 9 -6 0.16 0.09
1 9 -5 9.28 0.79
1 9 -4 9.6 0.91
1 9 -3 11.83 1.01
1 9 -2 0.95 0.29
1 9 -1 1.13 0.28
1 9 0 8.79 0.71
1 9 0 8.48 0.87
1 9 1 52.86 1.64
1 9 10 0.04 0.05
1 10 -4 9.21 0.65
1 10 -3 11.4 0.81
1 10 -2 7.53 0.66
1 10 -1 0.36 0.16
1 10 0 1.54 0.26
1 10 6 1.35 0.28
1 10 7 7.81 0.69
1 10 8 7.27 0.59
1 11 4 2.47 0.27
1 11 5 3.13 0.31
2 -10 -1 0.28 0.1
2 -9 -7 9.34 0.58
2 -9 -6 2.89 0.31
2 -9 -5 0.41 0.14
2 -9 -4 2.3 0.37
2 -9 -3 5.76 0.77
2 -9 -3 7.17 0.71
2 -9 -2 5.28 0.76
2 -9 -2 9.21 0.86
2 -9 -1 1.62 0.43
2 -9 0 0.08 0.18
2 -9 1 0.24 0.14
2 -9 2 0.27 0.16
2 -9 3 0.03 0.09
2 -8 -8 7.36 0.56
2 -8 -7 10.39 0.64
2 -8 -7 10.44 0.69
2 -8 -6 2.73 0.4
2 -8 -5 0.8 0.24
2 -8 -4 0.03 0.08
2 -8 -4 0.16 0.14
2 -8 -3 7.74 1.02
2 -8 -3 7.6 0.82
2 -8 -2 16.4 1.54
2 -8 -1 6.7 1.01
2 -8 0 6.71 1.07
2 -7 -10 1.49 0.2
2 -7 -9 0.21 0.08
2 -7 -8 2.59 0.35
2 -7 -7 12.63 0.81
2 -7 -7 11.6 0.82
2 -7 -6 10.09 0.82
2 -7 -5 0.53 0.2
2 -7 -4 3.83 0.68
2 -7 -4 3.14 0.51
2 -7 -3 4.17 0.73
2 -7 -2 1.13 0.32
2 -7 -2 1.06 0.35
2 -7 -1 46.23 2.11
2 -7 -1 37.89 2.43
2 -7 0 14.96 1.21
2 -6 -11 7.49 0.44
2 -6 -10 1.52 0.25
2 -6 -9 0.05 0.03
2 -6 -9 0.11 0.06
2 -6 -8 1.81 0.31
2 -6 -7 4.08 0.48
2 -6 -7 3.03 0.43
2 -6 -6 30.46 1.44
2 -6 -5 2.73 0.42
2 -6 -5 3.19 0.47
2 -6 -4 0.98 0.24
2 -6 -4 1.21 0.35
2 -6 -4 1.09 0.27
2 -6 -3 3.83 0.67
2 -6 -3 3.3 0.48
2 -6 -2 5.25 0.8
2 -6 -2 5.1 0.61
2 -6 -1 66.02 2.26
2 -6 0 38.26 1.72
2 -6 1 16.83 1.11
2 -6 2 0.71 0.23
2 -6 3 0.56 0.18
2 -5 -11 10.51 0.6
2 -5 -10 7.16 0.59
2 -5 -10 6.85 0.52
2 -5 -9 9.41 0.75
2 -5 -9 9.97 0.71
2 -5 -8 1.33 0.26
2 -5 -8 1.4 0.29
2 -5 -7 2.71 0.4
2 -5 -7 2.77 0.43
2 -5 -7 2.93 0.44
2 -5 -6 30.2 1.41
2 -5 -6 29.19 1.41
2 -5 -5 55.94 1.92
2 -5 -5 55.33 1.84
2 -5 -4 7.36 0.65
2 -5 -3 4.65 0.51
2 -5 -2 10.56 0.77
2 -5 -1 4.92 0.52
2 -5 0 46.89 1.58
2 -5 1 41.46 1.45
2 -5 2 14.66 0.85
2 -5 3 15.55 0.89
2 -5 4 0.95 0.23
2 -5 5 17.9 1.04
2 -4 -12 0.24 0.07
2 -4 -11 4.72 0.44
2 -4 -11 4.51 0.38
2 -4 -10 17.34 0.98
2 -4 -10 17.47 0.9
2 -4 -9 6.55 0.65
2 -4 -9 6.77 0.63
2 -4 -8 1.09 0.24
2 -4 -8 1.48 0.32
2 -4 -8 1.56 0.35
2 -4 -8 1.62 0.32
2 -4 -8 1.68 0.33
2 -4 -7 0.1 0.08
2 -4 -7 0.23 0.13
2 -4 -7 0.13 0.1
2 -4 -6 15.44 0.98
2 -4 -5 46.34 1.61
2 -4 -4 27.79 1.51
2 -4 -4 64.9 1.8
2 -4 -3 7.68 0.74
2 -4 -3 15.91 0.84
2 -4 -2 0.37 0.12
2 -4 -1 0.76 0.17
2 -4 0 64.12 1.5
2 -4 1 44.06 1.22
2 -4 2 27.1 0.98
2 -4 3 6.32 0.5
2 -3 -12 0.12 0.06
2 -3 -11 0.77 0.19
2 -3 -11 0.74 0.17
2 -3 -10 24.95 1.24
2 -3 -10 23.9 1.27
2 -3 -10 24.43 1.13
2 -3 -9 41.74 1.7
2 -3 -9 44 1.82
2 -3 -9 43.04 1.64
2 -3 -8 18.49 1.03
2 -3 -8 20.37 1.22
2 -3 -8 20.43 1.24
2 -3 -8 21.49 1.19
2 -3 -8 21.04 1.14
2 -3 -7 1.4 0.31
2 -3 -7 1.43 0.29
2 -3 -5 45.22 1.55
2 -3 -4 54.41 1.93
2 -3 -4 82.53 1.91
2 -3 -3 59.13 1.52
2 -3 -3 56.55 1.82
2 -3 -2 20.42 0.82
2 -3 -2 16.12 0.88
2 -3 -1 88.42 1.57
2 -3 -1 96.55 1.87
2 -3 0 36.44 0.92
2 -3 1 77.67 1.32
2 -3 2 166.3 2.08
2 -2 -12 3.54 0.31
2 -2 -11 0.54 0.14
2 -2 -11 0.36 0.12
2 -2 -11 0.39 0.13
2 -2 -10 25.57 1.12
2 -2 -10 25.9 1.3
2 -2 -10 25.95 1.2
2 -2 -10 25.6 1.33
2 -2 -9 40.42 1.47
2 -2 -9 41.62 1.71
2 -2 -9 40.76 1.72
2 -2 -9 40.81 1.59
2 -2 -8 21.54 1.12
2 -2 -8 23.15 1.28
2 -2 -8 21.33 1.21
2 -2 -8 21.97 1.17
2 -2 -8 22.44 1.14
2 -2 -7 21.8 1.09
2 -2 -6 14.38 0.85
2 -2 -5 47.72 1.69
2 -2 -4 121.74 2.57
2 -2 -4 143.28 2.36
2 -2 -3 102.33 1.84
2 -2 -3 114.02 2.19
2 -2 -2 61.33 1.31
2 -2 -2 53.58 1.35
2 -2 -1 0.32 0.08
2 -2 0 26.37 0.63
2 -2 1 28.52 0.66
2 -2 1 31.8 1.06
2 -2 2 121.06 2.62
2 -1 -12 7.62 0.5
2 -1 -11 0.02 0.02
2 -1 -11 0.04 0.08
2 -1 -11 0 0.02
2 -1 -10 5.42 0.55
2 -1 -10 6.02 0.64
2 -1 -10 5.74 0.57
2 -1 -10 5.95 0.63
2 -1 -9 21.45 1.12
2 -1 -9 21.68 1.23
2 -1 -9 21.98 1.15
2 -1 -9 21.98 1.23
2 -1 -8 65.65 1.96
2 -1 -8 68.52 2.15
2 -1 -8 62.21 2.01
2 -1 -8 64.44 1.93
2 -1 -7 30.03 1.21
2 -1 -6 0.44 0.13
2 -1 -5 3.41 0.42
2 -1 -5 3.64 0.37
2 -1 -4 83.68 1.92
2 -1 -3 123.68 2.06
2 -1 -3 112.32 1.72
2 -1 -2 178.78 1.91
2 -1 -2 167.68 2.16
2 -1 -1 8.31 0.37
2 -1 1 10.62 0.53
2 -1 2 49.14 1.57
2 -1 3 376.81 5.57
2 0 -12 4.15 0.38
2 0 -11 0.36 0.14
2 0 -11 0.23 0.09
2 0 -10 0.45 0.16
2 0 -10 0.14 0.08
2 0 -10 0.25 0.11
2 0 -10 0.32 0.1
2 0 -9 21.53 1.14
2 0 -9 19.68 1.06
2 0 -9 21.1 1.21
2 0 -9 20.49 1.11
2 0 -9 20.24 1.13
2 0 -8 40.21 1.53
2 0 -8 39.63 1.52
2 0 -8 39.93 1.63
2 0 -8 37.71 1.42
2 0 -8 36.63 1.44
2 0 -8 35.33 1.45
2 0 -7 54.67 1.65
2 0 -6 29.73 1.15
2 0 -5 0.12 0.07
2 0 -5 0.03 0.06
2 0 -4 16.64 0.78
2 0 -4 16.11 0.74
2 0 -4 17.64 0.73
2 0 -3 137.55 1.98
2 0 -3 134.43 1.82
2 0 -3 134.49 1.85
2 0 -2 283.04 2.17
2 0 -2 289.47 2.87
2 0 -1 431.75 3.29
2 0 0 107.74 1.44
2 1 -12 12.44 0.65
2 1 -11 2.27 0.33
2 1 -10 0.05 0.05
2 1 -10 0 0.02
2 1 -9 0.7 0.21
2 1 -9 0.45 0.16
2 1 -9 0.59 0.18
2 1 -9 0.44 0.16
2 1 -8 26.61 1.27
2 1 -8 27.32 1.38
2 1 -8 25.22 1.25
2 1 -8 26.09 1.24
2 1 -8 23.27 1.13
2 1 -7 103.65 2.41
2 1 -6 92.12 2.17
2 1 -5 13.12 0.77
2 1 -4 0.32 0.1
2 1 -4 0.39 0.11
2 1 -4 0.53 0.16
2 1 -3 1.51 0.19
2 1 -3 1.26 0.2
2 1 -3 1.29 0.19
2 1 -2 143.02 1.64
2 1 -2 142.58 1.81
2 1 -1 1000 3.92
2 1 0 84.36 1
2 1 1 85.51 0.93
2 1 2 118.01 1.11
2 1 3 166.8 1.36
2 2 -12 3.6 0.33
2 2 -11 13.32 0.78
2 2 -10 0.82 0.22
2 2 -9 0.07 0.04
2 2 -9 0.09 0.06
2 2 -8 7.28 0.7
2 2 -8 6.72 0.65
2 2 -8 6.15 0.56
2 2 -7 50.04 1.76
2 2 -6 65.77 1.94
2 2 -5 25.87 1.17
2 2 -4 1.22 0.2
2 2 -4 1.03 0.22
2 2 -4 0.96 0.17
2 2 -3 22.88 0.74
2 2 -3 21.58 0.88
2 2 -3 23.39 0.79
2 2 -2 227.98 2.53
2 2 -2 229.92 2.15
2 2 -1 154.8 1.52
2 2 -1 154.76 1.76
2 2 1 10.67 0.37
2 2 2 3.53 0.21
2 3 -11 12.89 0.72
2 3 -10 8.21 0.66
2 3 -9 2.87 0.43
2 3 -8 4.44 0.57
2 3 -8 4.7 0.56
2 3 -7 16.52 1.13
2 3 -7 15.89 1.02
2 3 -6 61.44 2
2 3 -5 109.12 2.58
2 3 -4 19.5 1.01
2 3 -4 21.6 0.82
2 3 -3 4.55 0.44
2 3 -3 4.98 0.36
2 3 -2 50.53 1.25
2 3 -2 49.12 0.97
2 3 -1 70.57 1.05
2 3 0 258 1.95
2 3 1 69.12 1.02
2 3 2 29.54 0.68
2 4 -11 6.85 0.46
2 4 -10 9.09 0.65
2 4 -9 2.18 0.37
2 4 -9 1.74 0.28
2 4 -8 0.01 0.04
2 4 -8 0.06 0.07
2 4 -7 15.24 1.15
2 4 -7 14.24 1.02
2 4 -6 27.43 1.61
2 4 -6 33.14 1.57
2 4 -5 23.59 1.3
2 4 -4 19.13 1.08
2 4 -3 3.36 0.4
2 4 -3 3.92 0.32
2 4 -2 8.24 0.4
2 4 -2 8.28 0.54
2 4 -1 59.14 1.25
2 4 -1 52.35 0.97
2 4 0 114.38 1.45
2 4 1 136.52 1.63
2 4 2 86.79 1.32
2 5 -10 12.44 0.67
2 5 -10 11.16 0.56
2 5 -9 0.74 0.17
2 5 -9 1.18 0.25
2 5 -8 0.07 0.11
2 5 -8 0.24 0.1
2 5 -7 0.88 0.29
2 5 -7 1.03 0.26
2 5 -6 8.43 0.93
2 5 -6 10.21 0.84
2 5 -6 9.72 0.9
2 5 -5 30.36 1.72
2 5 -5 33.91 1.56
2 5 -5 35.67 1.73
2 5 -4 39.01 1.67
2 5 -3 13.69 0.86
2 5 -2 1.1 0.16
2 5 -1 0.72 0.12
2 5 0 82.33 1.37
2 5 1 84.48 1.45
2 5 2 72.38 1.39
2 6 -9 2.21 0.27
2 6 -9 2.41 0.31
2 6 -8 1.88 0.33
2 6 -8 1.97 0.31
2 6 -7 2.38 0.44
2 6 -7 2.33 0.39
2 6 -6 0.9 0.26
2 6 -6 1.46 0.34
2 6 -5 6.2 0.78
2 6 -5 7.75 0.81
2 6 -4 8.33 0.84
2 6 -4 7.33 0.77
2 6 -1 15.25 0.64
2 6 0 4.65 0.36
2 6 1 90.43 1.7
2 6 2 73.27 1.58
2 6 3 32.98 1.08
2 6 11 10.62 0.7
2 7 -8 10.45 0.66
2 7 -8 9.76 0.62
2 7 -7 1.3 0.28
2 7 -7 1.34 0.28
2 7 -6 1.04 0.31
2 7 -6 1.09 0.29
2 7 -5 1.24 0.34
2 7 -5 1.59 0.39
2 7 -4 27.63 1.64
2 7 -4 29.42 1.61
2 7 -3 33.24 1.71
2 7 -3 38.27 1.69
2 7 -2 12.4 0.88
2 7 -2 10.81 0.89
2 7 0 11.89 0.64
2 7 1 39 1.22
2 7 2 21.3 0.93
2 7 3 49.81 1.47
2 7 4 0.23 0.09
2 7 5 2.94 0.39
2 7 11 0.91 0.19
2 8 -7 8.99 0.61
2 8 -6 0.33 0.14
2 8 -5 7.5 0.77
2 8 -4 0.71 0.24
2 8 -3 8.77 0.83
2 8 -2 8.32 0.85
2 8 -1 9.93 0.85
2 8 0 6.89 0.66
2 8 0 6.97 0.53
2 8 1 2.02 0.34
2 8 2 6.48 0.54
2 8 2 5.9 0.55
2 8 3 8.81 0.65
2 8 3 8.79 0.65
2 8 4 51.56 1.66
2 8 4 53.6 1.59
2 8 5 0.17 0.1
2 8 10 5.52 0.54
2 8 11 0.13 0.06
2 9 -6 0.99 0.2
2 9 -5 0.46 0.17
2 9 -4 1.6 0.37
2 9 -3 3.33 0.58
2 9 -2 18.82 1.33
2 9 -1 7.03 0.75
2 9 0 1.62 0.33
2 9 0 1.65 0.26
2 9 1 0.27 0.13
2 9 1 0.14 0.08
2 9 2 7.69 0.64
2 9 3 14.85 0.86
2 9 9 6.4 0.61
2 9 10 9.45 0.59
2 10 -4 0.12 0.08
2 10 -3 1.76 0.37
2 10 -2 6.56 0.72
2 10 -1 1.56 0.33
2 10 0 6.86 0.65
2 10 1 0.01 0.03
2 10 1 -0.02 0.03
2 10 2 2.62 0.35
2 10 2 2.69 0.31
2 10 6 0.6 0.19
2 10 7 0.33 0.14
2 10 8 5.43 0.55
2 10 9 4.53 0.41
2 11 -1 4.96 0.48
2 11 0 1.98 0.29
2 11 3 1.6 0.22
2 11 4 4.28 0.38
2 11 5 1.37 0.22
2 11 6 1.18 0.21
3 -9 -4 2.47 0.31
3 -9 0 2.06 0.38
3 -8 -7 3.21 0.33
3 -8 -6 5.45 0.46
3 -8 -2 0.29 0.19
3 -8 -1 2.94 0.57
3 -8 0 6.3 0.9
3 -8 1 6.67 0.94
3 -8 2 0.28 0.16
3 -8 3 0.06 0.08
3 -7 -8 2.16 0.25
3 -7 -8 2.26 0.29
3 -7 -7 0.58 0.15
3 -7 -6 5.07 0.52
3 -7 -3 15.05 1.3
3 -7 -2 5.39 0.81
3 -7 -1 12.31 1.3
3 -7 0 12.98 1.41
3 -7 1 16.18 1.62
3 -6 -10 3.58 0.3
3 -6 -9 9.64 0.6
3 -6 -8 5.06 0.45
3 -6 -8 5.37 0.51
3 -6 -7 -0.04 0.08
3 -6 -6 0.93 0.25
3 -6 -3 19.89 1.47
3 -6 -2 0.6 0.3
3 -6 -1 1.8 0.47
3 -6 0 23.02 1.79
3 -5 -10 8.09 0.52
3 -5 -9 11.38 0.64
3 -5 -9 10.61 0.7
3 -5 -8 4.52 0.46
3 -5 -8 5.03 0.54
3 -5 -7 15.99 0.95
3 -5 -6 1.58 0.33
3 -5 -4 64.7 2.18
3 -5 -3 27.32 1.65
3 -5 -3 26.55 1.45
3 -5 -2 14.93 1.23
3 -5 -2 11.81 0.98
3 -5 -1 0.16 0.26
3 -4 -11 0.11 0.06
3 -4 -10 5.11 0.46
3 -4 -9 10.25 0.67
3 -4 -9 10.79 0.77
3 -4 -8 11.7 0.79
3 -4 -8 13.09 0.92
3 -4 -7 0.67 0.2
3 -4 -6 0.9 0.26
3 -4 -5 14.76 0.96
3 -4 -4 5.34 0.72
3 -4 -3 13.26 1.1
3 -3 -11 0.26 0.08
3 -3 -10 1.42 0.25
3 -3 -9 10.32 0.72
3 -3 -9 11.11 0.82
3 -3 -9 11.77 0.88
3 -3 -8 15.18 0.94
3 -3 -8 16.2 1.06
3 -3 -8 17.81 1.12
3 -3 -7 14.52 0.96
3 -3 -7 15.91 1.09
3 -3 -7 17.77 1.11
3 -3 -6 5.57 0.6
3 -3 -6 5.36 0.54
3 -3 -5 0.85 0.26
3 -3 -4 8.17 0.84
3 -3 -3 69.6 2.21
3 -3 -2 37.43 1.47
3 -3 -1 33.12 1.31
3 -2 -11 0.11 0.07
3 -2 -10 -0.05 0.06
3 -2 -10 -0.04 0.08
3 -2 -10 -0.03 0.04
3 -2 -9 5.1 0.53
3 -2 -9 4.9 0.56
3 -2 -9 5.67 0.62
3 -2 -8 22.95 1.2
3 -2 -8 23.52 1.29
3 -2 -8 24.82 1.31
3 -2 -7 24.44 1.25
3 -2 -7 27.9 1.41
3 -2 -7 28.16 1.38
3 -2 -5 5.34 0.65
3 -2 -4 0.69 0.22
3 -2 -3 10.15 0.76
3 -2 -2 137.91 2.5
3 -1 -11 2.37 0.33
3 -1 -10 4.49 0.5
3 -1 -10 5.19 0.55
3 -1 -9 0.45 0.16
3 -1 -9 0.27 0.13
3 -1 -9 0.52 0.19
3 -1 -8 22.87 1.22
3 -1 -8 22.63 1.24
3 -1 -8 22.99 1.24
3 -1 -7 12.83 0.89
3 -1 -7 12.05 0.89
3 -1 -7 12.03 0.88
3 -1 -6 25.93 1.41
3 -1 -5 20.96 1.21
3 -1 -4 5.73 0.57
3 -1 -3 72.67 1.84
3 -1 -2 63.16 1.54
3 0 -11 6.69 0.49
3 0 -11 7.14 0.56
3 0 -10 4.67 0.48
3 0 -10 4.83 0.53
3 0 -10 4.99 0.53
3 0 -9 -0.05 0.06
3 0 -9 0.13 0.11
3 0 -9 0.24 0.14
3 0 -9 -0.13 0.12
3 0 -8 3.36 0.44
3 0 -8 3.17 0.45
3 0 -8 3.3 0.47
3 0 -8 3.72 0.49
3 0 -7 34.24 1.47
3 0 -7 32.29 1.42
3 0 -7 33.69 1.45
3 0 -5 38.67 1.55
3 0 -4 1.48 0.29
3 0 -3 1.1 0.23
3 0 -2 56.54 1.41
3 0 -1 142.27 2.18
3 0 0 133.65 2.04
3 0 1 106.87 1.74
3 1 -11 2.86 0.33
3 1 -11 2.96 0.34
3 1 -10 8.41 0.66
3 1 -10 7.78 0.64
3 1 -9 8.15 0.7
3 1 -9 7.52 0.69
3 1 -9 7.26 0.65
3 1 -8 1.54 0.3
3 1 -8 1.56 0.31
3 1 -8 1.75 0.33
3 1 -8 1.63 0.31
3 1 -7 21.09 1.15
3 1 -7 21.09 1.17
3 1 -7 21.27 1.16
3 1 -7 19.5 1.05
3 1 -7 19.69 1.08
3 1 -6 34.07 1.36
3 1 -5 35.13 1.42
3 1 -5 29.19 1.2
3 1 -4 17.11 0.89
3 1 -4 16.07 0.81
3 1 -4 15.9 0.78
3 1 -3 0.23 0.09
3 1 -3 0.21 0.09
3 1 -2 78.37 1.59
3 1 -1 27.15 0.87
3 1 0 18.75 0.65
3 1 1 83.1 1.24
3 1 2 1.58 0.16
3 2 -11 12.09 0.67
3 2 -10 4.87 0.49
3 2 -10 4.96 0.48
3 2 -9 4.08 0.5
3 2 -9 4.18 0.48
3 2 -8 0.44 0.15
3 2 -8 0.53 0.17
3 2 -8 0.62 0.18
3 2 -7 1.15 0.27
3 2 -7 1.55 0.31
3 2 -7 1.54 0.33
3 2 -7 1.67 0.32
3 2 -7 1.03 0.23
3 2 -6 17.39 1.04
3 2 -5 45.7 1.62
3 2 -4 65.04 1.6
3 2 -4 61.44 1.75
3 2 -3 26.4 1.03
3 2 -3 25.91 0.97
3 2 -2 32.17 0.9
3 2 -2 32.45 1
3 2 -1 9.3 0.47
3 2 0 195.54 1.97
3 2 1 17.36 0.56
3 2 2 14.6 0.51
3 2 3 0.61 0.11
3 2 4 1.73 0.19
3 3 -11 3.24 0.32
3 3 -10 11.66 0.74
3 3 -9 6.13 0.61
3 3 -8 7.2 0.7
3 3 -8 7.22 0.61
3 3 -7 4.27 0.56
3 3 -7 3.63 0.38
3 3 -7 3.81 0.51
3 3 -7 3.69 0.43
3 3 -6 1.88 0.39
3 3 -6 1.86 0.35
3 3 -5 38.04 1.58
3 3 -5 38.22 1.25
3 3 -4 33.1 1.4
3 3 -4 34.29 1.16
3 3 -3 20.09 0.97
3 3 -3 20.39 0.85
3 3 -2 4.64 0.36
3 3 -1 1.13 0.16
3 3 0 24.49 0.7
3 3 1 94.62 1.36
3 3 2 109.26 1.49
3 3 3 43.1 0.97
3 3 4 1.58 0.19
3 3 5 45.66 1.11
3 4 -11 0.34 0.09
3 4 -10 4.44 0.42
3 4 -9 9.49 0.72
3 4 -8 11.81 0.9
3 4 -7 0.12 0.1
3 4 -6 0.43 0.18
3 4 -6 0.36 0.18
3 4 -5 17.88 1.15
3 4 -4 55.17 1.93
3 4 -4 55.48 1.47
3 4 -3 48.21 1.27
3 4 -2 3.05 0.29
3 4 -1 0.03 0.04
3 4 0 29.73 0.82
3 4 1 111.77 1.59
3 4 2 90.63 1.49
3 4 3 15.74 0.64
3 4 4 0.62 0.13
3 4 5 5.12 0.4
3 4 6 38.31 1.18
3 5 -10 0.33 0.1
3 5 -9 7.72 0.6
3 5 -8 16.84 1.03
3 5 -7 9.34 0.87
3 5 -6 0.08 0.12
3 5 -6 0.03 0.04
3 5 -5 0.81 0.28
3 5 -5 0.34 0.15
3 5 -3 51.57 1.33
3 5 -2 47.65 1.19
3 5 -1 19.98 0.74
3 5 0 1.84 0.22
3 5 1 34.12 0.96
3 5 2 14.96 0.67
3 5 3 66.83 1.44
3 5 4 30.22 1.03
3 5 5 8.98 0.59
3 5 6 20.54 0.95
3 5 7 13.74 0.83
3 5 9 40.49 1.67
3 6 -9 5.35 0.43
3 6 -8 14.22 0.86
3 6 -8 12.89 0.7
3 6 -7 6.28 0.68
3 6 -7 6.16 0.57
3 6 -6 2.44 0.48
3 6 -6 2.52 0.4
3 6 -5 1.99 0.45
3 6 -5 2.43 0.43
3 6 -4 4.3 0.64
3 6 -4 4.89 0.63
3 6 -4 5.59 0.51
3 6 -3 52.96 1.99
3 6 -3 52.11 1.47
3 6 -2 17.86 0.78
3 6 -1 11.66 0.6
3 6 0 0.97 0.17
3 6 1 16.58 0.74
3 6 2 11.9 0.66
3 6 3 40.53 1.26
3 6 4 18.2 0.88
3 6 5 13.84 0.81
3 6 6 0.49 0.15
3 6 7 4.19 0.5
3 6 8 38.73 1.58
3 6 9 21.1 1.28
3 6 10 9.04 0.75
3 7 -8 6.99 0.52
3 7 -8 6.36 0.43
3 7 -7 8.13 0.69
3 7 -6 10.84 0.96
3 7 -5 2.79 0.53
3 7 -5 4.45 0.59
3 7 -4 2.11 0.47
3 7 -3 11.66 1.02
3 7 -3 14.6 0.83
3 7 -2 41.15 1.75
3 7 -2 42.59 1.35
3 7 -1 28.12 1.32
3 7 -1 26.89 1.4
3 7 -1 26.9 1.05
3 7 -1 27.98 1.02
3 7 0 10.94 0.83
3 7 0 10.45 0.63
3 7 1 1.08 0.2
3 7 2 24.41 1.02
3 7 3 32.37 1.23
3 7 4 42.56 1.45
3 7 4 43 1.48
3 7 5 17.02 0.95
3 7 6 0.03 0.05
3 7 7 1.17 0.28
3 7 9 13.36 1.03
3 7 10 8.5 0.72
3 7 11 1.28 0.22
3 8 -7 13.65 0.66
3 8 -6 2.03 0.36
3 8 -6 1.98 0.31
3 8 -5 1.52 0.37
3 8 -5 1.91 0.38
3 8 -4 0.37 0.21
3 8 -4 0.61 0.22
3 8 -3 3.02 0.55
3 8 -3 2.84 0.52
3 8 -2 11.82 1.05
3 8 -2 13.87 0.8
3 8 -1 8.16 0.83
3 8 -1 8.33 0.62
3 8 0 10.74 0.88
3 8 0 11.03 0.7
3 8 1 4.45 0.54
3 8 1 3.97 0.42
3 8 1 4.13 0.42
3 8 2 0.16 0.09
3 8 2 0.25 0.11
3 8 3 4.8 0.49
3 8 3 4.71 0.51
3 8 4 43.87 1.55
3 8 4 45.12 1.55
3 8 4 46.15 1.73
3 8 5 6.44 0.62
3 8 5 7.84 0.76
3 8 6 23.86 1.4
3 8 7 0.13 0.13
3 8 8 4.34 0.62
3 8 9 22.54 1.28
3 8 10 12.41 0.8
3 8 11 1.45 0.21
3 9 -6 10.12 0.56
3 9 -5 3.22 0.41
3 9 -4 1.27 0.31
3 9 -3 -0.25 0.15
3 9 -2 1.87 0.44
3 9 -1 14.75 1.14
3 9 -1 18.35 0.91
3 9 0 46.62 1.9
3 9 0 50.21 1.51
3 9 1 15.01 1
3 9 1 14.37 0.8
3 9 2 3.6 0.46
3 9 2 3.07 0.37
3 9 3 3.9 0.47
3 9 4 12.28 0.84
3 9 5 46.87 1.76
3 9 6 2.21 0.41
3 9 7 0.08 0.04
3 9 8 0.99 0.27
3 9 9 5.47 0.56
3 9 10 9.53 0.6
3 10 -4 2.39 0.33
3 10 -3 0.16 0.11
3 10 -2 0.15 0.12
3 10 -1 6.25 0.71
3 10 0 18.36 1.16
3 10 0 20.75 0.89
3 10 1 4.25 0.52
3 10 1 4.4 0.42
3 10 2 0.57 0.17
3 10 2 0.64 0.15
3 10 3 0.89 0.18
3 10 5 14.62 0.86
3 10 6 6.98 0.63
3 10 7 2.97 0.42
3 10 8 0.14 0.09
3 10 9 1.51 0.24
3 11 -2 0.79 0.19
3 11 -1 2.04 0.34
3 11 0 4.49 0.51
3 11 1 10.57 0.75
3 11 1 10.71 0.56
3 11 2 1.93 0.25
3 11 3 0.47 0.12
3 11 4 0.65 0.15
3 11 5 2.26 0.29
3 11 6 6.04 0.48
3 11 7 3.33 0.34
4 -8 -4 6.79 0.51
4 -7 -6 0.43 0.12
4 -7 -6 0.43 0.13
4 -7 -5 0.94 0.21
4 -7 -1 0.54 0.23
4 -6 -8 4.94 0.37
4 -6 -8 5.01 0.38
4 -6 -7 3.5 0.36
4 -6 -7 3.88 0.39
4 -6 -6 0.08 0.06
4 -6 -5 3.13 0.43
4 -6 -2 18.12 1.33
4 -5 -9 0.07 0.05
4 -5 -9 0.19 0.07
4 -5 -8 5.55 0.45
4 -5 -8 6.05 0.48
4 -5 -7 13.93 0.81
4 -5 -7 16.15 0.9
4 -5 -6 0.47 0.17
4 -5 -5 0.04 0.06
4 -5 -4 0.38 0.16
4 -5 -3 13.45 1.01
4 -5 -2 34.43 1.69
4 -5 -1 13.46 1.1
4 -4 -10 0.57 0.12
4 -4 -9 1.99 0.25
4 -4 -9 1.82 0.25
4 -4 -8 1.95 0.29
4 -4 -8 1.69 0.28
4 -4 -7 9.57 0.72
4 -4 -7 11.25 0.81
4 -4 -6 8.9 0.75
4 -4 -5 0.2 0.1
4 -4 -5 0.29 0.13
4 -4 -4 0.16 0.1
4 -4 -4 1.88 0.36
4 -4 -3 10.65 0.89
4 -4 -2 5.47 0.66
4 -4 -1 22.19 1.4
4 -4 0 19.46 1.34
4 -3 -10 1.1 0.17
4 -3 -10 1.12 0.19
4 -3 -9 0.18 0.07
4 -3 -9 0.24 0.11
4 -3 -9 0.14 0.08
4 -3 -8 0.58 0.18
4 -3 -8 0.8 0.21
4 -3 -8 0.7 0.19
4 -3 -7 5.01 0.56
4 -3 -7 5.54 0.6
4 -3 -6 16.76 1.07
4 -3 -6 17.87 1.13
4 -3 -6 15.51 0.93
4 -3 -5 21.56 1.25
4 -3 -5 22.22 1.16
4 -3 -4 0.51 0.25
4 -3 -4 1.44 0.3
4 -3 -3 2.25 0.44
4 -3 -3 4.05 0.52
4 -3 -2 15.49 1.11
4 -3 -1 50.76 1.85
4 -3 0 24.76 1.21
4 -2 -10 6.58 0.46
4 -2 -10 7.2 0.52
4 -2 -10 8.07 0.58
4 -2 -9 0.64 0.17
4 -2 -9 0.96 0.22
4 -2 -9 0.88 0.21
4 -2 -8 0.94 0.23
4 -2 -8 0.82 0.22
4 -2 -8 1.15 0.27
4 -2 -7 6.19 0.64
4 -2 -7 6.38 0.65
4 -2 -7 7.26 0.69
4 -2 -6 29.97 1.43
4 -2 -6 33.2 1.51
4 -2 -6 32.9 1.45
4 -2 -5 25.38 1.33
4 -2 -5 25.54 1.2
4 -2 -4 8.63 0.86
4 -2 -3 0.54 0.21
4 -2 -2 25.64 1.28
4 -2 -1 2.38 0.38
4 -1 -10 6.37 0.51
4 -1 -10 7.03 0.57
4 -1 -9 2.12 0.33
4 -1 -9 2.42 0.36
4 -1 -9 2.29 0.36
4 -1 -8 2.09 0.36
4 -1 -8 1.85 0.33
4 -1 -8 2.39 0.39
4 -1 -7 0.32 0.15
4 -1 -7 0.12 0.07
4 -1 -7 0.29 0.12
4 -1 -6 27.3 1.35
4 -1 -6 28.12 1.33
4 -1 -6 28.85 1.39
4 -1 -5 46.22 1.71
4 -1 -5 32.79 1.69
4 -1 -4 20.58 1.26
4 -1 -3 4.19 0.53
4 -1 -2 14.1 0.86
4 0 -10 7.29 0.58
4 0 -9 14.89 0.9
4 0 -9 13.81 0.87
4 0 -9 16.14 0.97
4 0 -8 3.78 0.49
4 0 -8 3.46 0.46
4 0 -8 3.36 0.46
4 0 -7 0.46 0.18
4 0 -7 0.83 0.22
4 0 -7 0.93 0.24
4 0 -6 5.72 0.61
4 0 -6 6.75 0.68
4 0 -5 25.19 1.38
4 0 -4 29.54 1.38
4 0 -3 29.57 1.27
4 0 -2 4.17 0.42
4 0 -1 0.32 0.12
4 0 0 29.81 1.11
4 1 -10 5.81 0.49
4 1 -9 9.82 0.72
4 1 -8 12.1 0.88
4 1 -8 11.32 0.81
4 1 -8 12.12 0.85
4 1 -7 2.78 0.43
4 1 -7 2.75 0.41
4 1 -7 2.46 0.4
4 1 -6 0.62 0.2
4 1 -6 0.52 0.19
4 1 -6 0.63 0.21
4 1 -5 12.54 0.95
4 1 -4 56.43 1.82
4 1 -3 76.95 1.9
4 1 -3 70.45 1.81
4 1 -2 51.94 1.5
4 1 -1 12.09 0.7
4 1 0 75.65 1.7
4 1 1 74.72 1.61
4 2 -10 0.6 0.14
4 2 -10 0.62 0.15
4 2 -9 7.72 0.61
4 2 -9 8.19 0.63
4 2 -8 16.62 0.99
4 2 -8 16.9 0.98
4 2 -7 5.47 0.6
4 2 -7 5.94 0.63
4 2 -7 5.89 0.6
4 2 -6 1.6 0.32
4 2 -6 1.76 0.34
4 2 -6 2.05 0.31
4 2 -6 1.73 0.33
4 2 -4 6.63 0.63
4 2 -4 5.97 0.54
4 2 -3 95.38 2.08
4 2 -3 86.47 2.01
4 2 -2 247.88 2.93
4 2 -2 254.57 3.32
4 2 -1 4.73 0.43
4 2 0 7.05 0.49
4 2 1 31.21 0.97
4 2 2 69.24 1.37
4 2 3 127.42 1.78
4 3 -10 0.2 0.08
4 3 -9 3.26 0.4
4 3 -9 2.91 0.35
4 3 -8 14.75 0.94
4 3 -8 15.5 0.89
4 3 -7 16.2 1.07
4 3 -7 16.92 0.98
4 3 -6 6.01 0.67
4 3 -6 7.03 0.58
4 3 -6 7.37 0.67
4 3 -5 1.53 0.34
4 3 -5 1.98 0.38
4 3 -5 1.68 0.3
4 3 -5 1.49 0.3
4 3 -4 15.99 0.87
4 3 -3 77.1 1.88
4 3 -2 38.77 1.2
4 3 -2 32.98 1.18
4 3 -1 68.55 1.58
4 3 0 6.1 0.44
4 3 1 13.93 0.63
4 3 2 60.48 1.28
4 3 3 77.29 1.47
4 3 4 68.02 1.38
4 4 -10 0.15 0.06
4 4 -9 4.13 0.42
4 4 -8 7.03 0.64
4 4 -7 12.45 0.94
4 4 -7 13.3 0.83
4 4 -6 10.99 0.94
4 4 -6 11.94 0.73
4 4 -6 12.73 0.86
4 4 -5 0.29 0.12
4 4 -5 0.39 0.2
4 4 -5 0.38 0.14
4 4 -5 0.5 0.19
4 4 -4 13.38 0.77
4 4 -3 26.32 1.07
4 4 -2 36.42 1.19
4 4 -1 66.63 1.52
4 4 0 8.59 0.51
4 4 1 5.41 0.39
4 4 2 63.16 1.35
4 4 3 55.54 1.29
4 4 4 58.47 1.38
4 4 5 30.95 1.05
4 4 7 1.73 0.33
4 5 -9 0.43 0.12
4 5 -8 6.13 0.56
4 5 -7 8.81 0.76
4 5 -6 5.73 0.68
4 5 -6 6.34 0.51
4 5 -5 3.5 0.55
4 5 -5 3.91 0.44
4 5 -4 1.08 0.22
4 5 -4 1.03 0.3
4 5 -4 1.12 0.24
4 5 -3 6.35 0.68
4 5 -3 7.51 0.61
4 5 -3 6.47 0.53
4 5 -2 18.37 0.85
4 5 -1 18.19 0.8
4 5 0 25.48 0.91
4 5 1 15.31 0.7
4 5 2 1.42 0.22
4 5 3 96.11 1.82
4 5 4 32.23 1.1
4 5 5 32.21 1.17
4 5 6 26.46 1.11
4 5 6 28.6 1.39
4 5 7 0.75 0.24
4 5 8 72.42 2.25
4 5 9 21.81 1.16
4 6 -9 0.13 0.06
4 6 -8 0.32 0.11
4 6 -7 3.91 0.48
4 6 -6 5.83 0.67
4 6 -5 1.01 0.31
4 6 -5 1.94 0.3
4 6 -4 -0.13 0.14
4 6 -4 -0.02 0.05
4 6 -3 0.68 0.17
4 6 -3 0.58 0.2
4 6 -3 0.89 0.26
4 6 -3 0.74 0.2
4 6 -2 4.88 0.59
4 6 -2 5.75 0.65
4 6 -2 5.43 0.5
4 6 -2 5.08 0.46
4 6 -1 32.63 1.13
4 6 0 41.3 1.24
4 6 1 12.59 0.68
4 6 2 7.08 0.52
4 6 3 14.41 0.76
4 6 4 31.82 1.18
4 6 5 23.15 1.07
4 6 5 25.03 1.28
4 6 6 36.09 1.4
4 6 6 36.95 1.66
4 6 7 1.14 0.26
4 6 7 1.08 0.29
4 6 8 12.64 1
4 6 9 25.96 1.34
4 6 10 38.81 1.44
4 7 -8 0.04 0.03
4 7 -7 4.1 0.45
4 7 -6 6.61 0.68
4 7 -5 4.21 0.62
4 7 -5 5.57 0.58
4 7 -5 5.29 0.46
4 7 -4 9.65 0.85
4 7 -4 9.48 0.69
4 7 -3 0.31 0.18
4 7 -3 0.4 0.17
4 7 -3 0.35 0.14
4 7 -2 9.06 0.88
4 7 -2 9.85 0.93
4 7 -2 9.74 0.7
4 7 -2 9.09 0.65
4 7 -1 6.75 0.71
4 7 -1 7.03 0.75
4 7 -1 6.53 0.55
4 7 -1 6.68 0.55
4 7 0 36.83 1.29
4 7 0 36.52 1.25
4 7 1 15.47 0.82
4 7 1 16.91 0.85
4 7 2 5.16 0.58
4 7 2 4.87 0.5
4 7 2 4.06 0.41
4 7 2 4.28 0.43
4 7 3 5.5 0.5
4 7 3 5.84 0.61
4 7 3 6.32 0.6
4 7 4 39.23 1.39
4 7 4 39.37 1.58
4 7 5 24.42 1.15
4 7 5 26.45 1.36
4 7 6 17.15 1.01
4 7 6 17.22 1.17
4 7 7 5.01 0.64
4 7 8 0.81 0.25
4 7 9 16.44 1.09
4 7 10 5.64 0.55
4 8 -6 1.16 0.2
4 8 -5 5.57 0.66
4 8 -5 6.91 0.59
4 8 -4 3.56 0.49
4 8 -4 3.93 0.41
4 8 -3 0.24 0.23
4 8 -3 0.2 0.16
4 8 -3 -0.14 0.09
4 8 -2 2.88 0.5
4 8 -2 2.5 0.37
4 8 -1 9 0.89
4 8 -1 9.58 0.7
4 8 0 7 0.75
4 8 0 6.47 0.57
4 8 1 5.8 0.65
4 8 1 4.64 0.47
4 8 1 4.94 0.48
4 8 2 5.95 0.63
4 8 2 4.94 0.48
4 8 2 5.08 0.49
4 8 3 1.16 0.27
4 8 3 1.26 0.27
4 8 3 1.38 0.27
4 8 4 1.95 0.35
4 8 5 8.17 0.76
4 8 6 10.24 0.89
4 8 7 10.06 0.91
4 8 8 6.41 0.7
4 8 9 2.74 0.42
4 8 10 3.53 0.4
4 9 -5 0.41 0.11
4 9 -4 3.84 0.45
4 9 -3 3.37 0.49
4 9 -2 0.24 0.17
4 9 -2 0.22 0.07
4 9 -1 6.31 0.74
4 9 -1 7.42 0.62
4 9 0 3.58 0.54
4 9 0 3.14 0.39
4 9 1 6.11 0.68
4 9 1 5.7 0.53
4 9 2 7.05 0.69
4 9 2 6.58 0.56
4 9 3 18.75 1.09
4 9 3 17.13 0.9
4 9 4 7.3 0.64
4 9 4 5.53 0.52
4 9 5 14.81 0.96
4 9 6 2.42 0.41
4 9 7 7.4 0.73
4 9 8 3.22 0.46
4 9 9 0.93 0.22
4 9 10 3.11 0.32
4 10 -3 4.75 0.47
4 10 -2 0.13 0.1
4 10 -1 1.22 0.3
4 10 -1 1.48 0.25
4 10 0 0.31 0.18
4 10 0 0.49 0.14
4 10 1 3.31 0.48
4 10 1 3.19 0.37
4 10 2 3.87 0.49
4 10 2 4.1 0.42
4 10 3 0.19 0.09
4 10 4 1.1 0.22
4 10 5 0.66 0.17
4 10 5 0.78 0.19
4 10 6 3.4 0.42
4 10 6 3.38 0.39
4 10 7 3.18 0.42
4 10 7 3.99 0.4
4 10 8 2.32 0.33
4 10 8 3.22 0.32
4 11 -1 0.98 0.22
4 11 0 0.7 0.2
4 11 0 0.55 0.12
4 11 1 2.46 0.28
4 11 2 3.11 0.32
4 11 3 1.06 0.19
4 11 4 1.46 0.23
4 11 5 0.01 0.04
4 11 6 2 0.27
5 -7 -3 2.08 0.27
5 -7 -2 4.42 0.43
5 -7 -1 6.47 0.54
5 -7 0 6.25 0.51
5 -6 -6 4.05 0.34
5 -6 -5 5.43 0.45
5 -6 -4 1.96 0.29
5 -6 -3 4.42 0.48
5 -5 -7 1.64 0.23
5 -5 -6 5.55 0.47
5 -5 -5 15.39 0.86
5 -5 -4 2.9 0.4
5 -5 -3 0.01 0.07
5 -5 -3 -0.03 0.07
5 -5 -2 2.69 0.41
5 -5 -1 13.76 0.97
5 -5 0 18.54 1.14
5 -4 -8 1.28 0.2
5 -4 -7 2.51 0.32
5 -4 -6 13.56 0.83
5 -4 -5 11.62 0.82
5 -4 -4 2.38 0.39
5 -4 -4 2.91 0.42
5 -4 -3 0.19 0.11
5 -4 -3 0.14 0.09
5 -4 -2 2.83 0.45
5 -4 -1 14.44 1.06
5 -4 0 26.35 1.49
5 -3 -9 2.12 0.23
5 -3 -8 -0.03 0.06
5 -3 -7 0.12 0.04
5 -3 -6 4.94 0.54
5 -3 -5 5.07 0.58
5 -3 -5 5.42 0.55
5 -3 -4 8.7 0.79
5 -3 -4 9.42 0.77
5 -3 -3 6.31 0.69
5 -3 -3 7.07 0.69
5 -3 -2 0.6 0.24
5 -3 -2 1.79 0.36
5 -3 -1 1.32 0.32
5 -3 -1 1.84 0.39
5 -3 0 27.46 1.52
5 -3 1 79.31 2.68
5 -2 -9 2.93 0.31
5 -2 -9 3.72 0.35
5 -2 -8 1.85 0.29
5 -2 -8 2.14 0.31
5 -2 -7 -0.02 0.07
5 -2 -7 0.03 0.04
5 -2 -6 1.74 0.34
5 -2 -6 1.39 0.26
5 -2 -5 10.95 0.87
5 -2 -5 9.78 0.74
5 -2 -4 21.84 1.25
5 -2 -4 23.49 1.21
5 -2 -3 8 0.77
5 -2 -3 8.86 0.77
5 -2 -2 4.79 0.6
5 -2 -2 4.88 0.63
5 -2 -2 6.11 0.65
5 -2 -1 0.11 0.12
5 -2 -1 0.06 0.07
5 -2 0 31.73 1.46
5 -2 0 36.91 1.68
5 -2 1 36.04 1.72
5 -2 2 26.3 1.52
5 -1 -10 1.48 0.2
5 -1 -9 4.78 0.43
5 -1 -9 5.15 0.45
5 -1 -8 2.02 0.33
5 -1 -8 2.2 0.33
5 -1 -7 0 0.08
5 -1 -7 0.01 0.06
5 -1 -6 0.07 0.02
5 -1 -6 0.07 0.07
5 -1 -5 2.45 0.41
5 -1 -5 2.89 0.44
5 -1 -5 2.3 0.35
5 -1 -4 9.83 0.82
5 -1 -4 8.93 0.88
5 -1 -4 10.28 0.78
5 -1 -3 41.13 1.66
5 -1 -3 47.65 1.72
5 -1 -2 20.68 1.23
5 -1 -2 27.86 1.33
5 -1 -1 0.1 0.05
5 0 -10 1.21 0.18
5 0 -9 6.03 0.5
5 0 -8 3.42 0.44
5 0 -8 3.28 0.42
5 0 -7 5.97 0.62
5 0 -7 6.2 0.61
5 0 -6 2.38 0.4
5 0 -6 2.08 0.38
5 0 -5 4.36 0.54
5 0 -5 3.62 0.55
5 0 -5 4.95 0.6
5 0 -4 16.79 1.05
5 0 -4 16.06 1.11
5 0 -4 19.66 1.2
5 0 -4 15.81 0.91
5 0 -3 15.48 0.99
5 0 -3 16.77 1.06
5 0 -3 16.84 0.97
5 0 -2 16.47 0.99
5 1 -10 0.1 0.05
5 1 -9 2.09 0.29
5 1 -8 7.15 0.6
5 1 -7 3.78 0.49
5 1 -7 3.59 0.46
5 1 -6 4.28 0.54
5 1 -6 3.97 0.52
5 1 -5 0 0.03
5 1 -5 -0.08 0.08
5 1 -4 4.25 0.53
5 1 -4 4.54 0.56
5 1 -4 5.08 0.6
5 1 -3 22.73 1.18
5 1 -2 28.07 1.2
5 1 -1 18.24 0.97
5 1 0 0.56 0.17
5 2 -10 0.11 0.05
5 2 -9 1.98 0.27
5 2 -8 5.58 0.51
5 2 -7 8.02 0.66
5 2 -6 2.69 0.42
5 2 -6 2.9 0.42
5 2 -5 0.16 0.1
5 2 -5 0.26 0.09
5 2 -5 0.27 0.17
5 2 -4 8.87 0.79
5 2 -4 8.65 0.77
5 2 -4 9.43 0.71
5 2 -4 9.75 0.81
5 2 -3 24.23 1.18
5 2 -3 23.69 1.16
5 2 -2 6.85 0.57
5 2 -2 7.11 0.63
5 2 -1 12.19 0.81
5 2 0 15.38 0.9
5 2 1 0.36 0.12
5 3 -9 0.06 0.04
5 3 -8 0.44 0.14
5 3 -7 3.23 0.4
5 3 -6 9.32 0.74
5 3 -5 3.64 0.43
5 3 -5 3.26 0.46
5 3 -4 4.19 0.57
5 3 -4 4.97 0.54
5 3 -4 4.08 0.52
5 3 -4 3.65 0.44
5 3 -3 6.04 0.72
5 3 -3 7.46 0.69
5 3 -3 5.96 0.57
5 3 -2 10.71 0.73
5 3 -2 10.36 0.76
5 3 -1 65.18 1.89
5 3 0 8.65 0.66
5 3 1 2.44 0.33
5 3 2 0.08 0.06
5 4 -9 0.21 0.08
5 4 -8 0.11 0.08
5 4 -8 0.11 0.07
5 4 -7 4.35 0.48
5 4 -7 4.41 0.45
5 4 -6 11.29 0.86
5 4 -6 12 0.7
5 4 -6 12.99 0.85
5 4 -5 4.73 0.59
5 4 -5 5.84 0.54
5 4 -5 5.9 0.6
5 4 -4 1.63 0.34
5 4 -4 2.04 0.35
5 4 -4 1.61 0.32
5 4 -4 1.64 0.29
5 4 -3 2.32 0.39
5 4 -3 2.02 0.32
5 4 -2 2.88 0.42
5 4 -2 2.61 0.37
5 4 -1 20.78 1.02
5 4 0 33.63 1.25
5 4 1 8.49 0.6
5 4 2 0.05 0.05
5 4 3 7.07 0.53
5 4 4 24.21 0.98
5 4 5 19.65 1.13
5 4 6 35.53 1.53
5 4 7 2.2 0.38
5 5 -8 0.06 0.05
5 5 -7 -0.17 0.09
5 5 -6 3.17 0.45
5 5 -6 3.16 0.33
5 5 -6 3.31 0.4
5 5 -5 10.11 0.88
5 5 -5 11.06 0.71
5 5 -5 11.77 0.82
5 5 -4 6.7 0.74
5 5 -4 7.71 0.65
5 5 -4 8.04 0.71
5 5 -3 0.25 0.11
5 5 -3 0.39 0.19
5 5 -3 0.12 0.09
5 5 -3 0.12 0.09
5 5 -2 0.35 0.12
5 5 -2 0.56 0.2
5 5 -2 0.29 0.13
5 5 -1 8.47 0.74
5 5 -1 7.96 0.66
5 5 -1 7.68 0.6
5 5 0 25.13 1.06
5 5 1 14.89 0.79
5 5 2 1.86 0.27
5 5 3 0.53 0.14
5 5 4 3.74 0.47
5 5 4 3.36 0.38
5 5 5 43.4 1.7
5 5 5 39.76 1.32
5 5 6 15.27 1.04
5 5 7 0.9 0.25
5 5 8 0.49 0.18
5 6 -8 0.59 0.13
5 6 -7 0.4 0.13
5 6 -6 0.55 0.18
5 6 -6 0.56 0.13
5 6 -5 4.69 0.6
5 6 -5 5.25 0.46
5 6 -4 7.1 0.79
5 6 -4 7.98 0.63
5 6 -3 2.53 0.46
5 6 -3 2.79 0.39
5 6 -2 0.05 0.04
5 6 -2 -0.01 0.13
5 6 -2 0.07 0.09
5 6 -1 7.16 0.74
5 6 -1 6.78 0.6
5 6 -1 6.51 0.56
5 6 0 14.14 0.84
5 6 0 14.96 0.84
5 6 1 6.48 0.59
5 6 1 5.72 0.52
5 6 1 5.18 0.48
5 6 2 19.02 1.09
5 6 2 18.9 1.01
5 6 2 16.08 0.85
5 6 2 16.71 0.86
5 6 3 3.07 0.42
5 6 3 2.89 0.36
5 6 3 2.66 0.34
5 6 4 7.12 0.67
5 6 4 6.89 0.56
5 6 5 5.12 0.6
5 6 5 5.16 0.51
5 6 6 2.45 0.42
5 6 7 9.57 0.85
5 6 8 14.47 1.01
5 6 9 0.44 0.16
5 7 -6 0.28 0.12
5 7 -6 0.04 0.02
5 7 -5 3.82 0.52
5 7 -5 4.37 0.38
5 7 -4 13.2 1.07
5 7 -4 14.42 0.82
5 7 -3 5.39 0.71
5 7 -3 6.46 0.59
5 7 -2 2.63 0.49
5 7 -2 3.13 0.43
5 7 -1 0.16 0.1
5 7 0 8.79 0.81
5 7 0 7.36 0.62
5 7 0 7.85 0.63
5 7 1 11.19 0.9
5 7 1 11.26 0.79
5 7 1 9.4 0.68
5 7 1 10.03 0.7
5 7 2 16.03 1.08
5 7 2 15.1 0.93
5 7 2 14.05 0.82
5 7 2 14.05 0.83
5 7 3 6.71 0.63
5 7 3 5.44 0.51
5 7 3 5.83 0.53
5 7 4 0.11 0.06
5 7 4 -0.02 0.06
5 7 4 0.08 0.07
5 7 5 4.65 0.57
5 7 5 3.96 0.44
5 7 6 7.58 0.76
5 7 7 16.91 1.14
5 7 8 1.5 0.34
5 7 9 1.95 0.34
5 7 10 0 0.02
5 8 -5 2.01 0.22
5 8 -4 3.44 0.36
5 8 -3 7.43 0.61
5 8 -2 0.96 0.26
5 8 -2 0.87 0.21
5 8 -1 -0.08 0.08
5 8 -1 0 0.06
5 8 0 0.54 0.21
5 8 0 0.6 0.18
5 8 1 8.52 0.82
5 8 1 8.96 0.68
5 8 2 4.1 0.56
5 8 2 4.24 0.49
5 8 2 4.11 0.45
5 8 3 7.63 0.67
5 8 3 7.14 0.59
5 8 4 2.12 0.37
5 8 4 1.83 0.3
5 8 5 -0.03 0.04
5 8 5 0.19 0.14
5 8 6 1.15 0.24
5 8 6 1.1 0.29
5 8 7 6.61 0.7
5 8 8 12.02 0.91
5 8 9 3.39 0.43
5 8 10 0.06 0.04
5 9 -3 4.14 0.42
5 9 -3 3.74 0.37
5 9 -2 3.88 0.48
5 9 -2 4.36 0.46
5 9 -1 4.08 0.54
5 9 -1 4.48 0.49
5 9 0 0.49 0.19
5 9 0 0.32 0.12
5 9 1 1 0.27
5 9 1 1.35 0.26
5 9 2 8.43 0.79
5 9 2 9.31 0.68
5 9 3 19.33 1
5 9 3 17.37 0.93
5 9 4 2.98 0.41
5 9 4 3.2 0.4
5 9 5 2.68 0.4
5 9 5 2.29 0.34
5 9 6 3.43 0.47
5 9 6 3.4 0.41
5 9 7 4.45 0.53
5 9 7 5.72 0.5
5 9 8 11.63 0.82
5 9 9 3.52 0.39
5 10 -2 4.98 0.44
5 10 -2 4.48 0.36
5 10 -1 7.95 0.65
5 10 -1 8.37 0.57
5 10 0 0.37 0.16
5 10 0 0.39 0.13
5 10 1 4.75 0.46
5 10 2 1.48 0.26
5 10 3 3.96 0.42
5 10 4 15.23 0.82
5 10 5 -0.02 0.08
5 10 5 0.11 0.09
5 10 6 0.23 0.1
5 10 6 0.26 0.11
5 10 7 1.43 0.27
5 10 7 2.1 0.28
5 10 8 3.7 0.39
5 11 1 0.05 0.04
5 11 2 2 0.26
5 11 3 2.24 0.29
5 11 4 6.14 0.49
5 11 5 3.09 0.35
6 -5 -4 1.74 0.23
6 -5 -3 4.56 0.41
6 -5 -2 0.07 0.05
6 -4 -6 0.59 0.13
6 -4 -5 0.26 0.09
6 -4 -4 4.23 0.43
6 -4 -3 5.76 0.52
6 -4 -3 6.62 0.56
6 -4 -2 1.12 0.23
6 -4 -2 1.44 0.27
6 -4 -1 0.63 0.19
6 -4 0 2.67 0.39
6 -3 -7 1.87 0.24
6 -3 -6 0.06 0.06
6 -3 -5 0.55 0.16
6 -3 -5 0.8 0.19
6 -3 -4 2.15 0.33
6 -3 -4 2.35 0.34
6 -3 -3 1.95 0.34
6 -3 -3 2 0.33
6 -3 -2 3.71 0.47
6 -3 -2 3.44 0.46
6 -3 -1 2.17 0.38
6 -3 0 -0.03 0.04
6 -3 1 13.19 0.97
6 -3 3 16.22 1.14
6 -2 -8 1.32 0.18
6 -2 -7 4.03 0.38
6 -2 -6 3.03 0.38
6 -2 -5 0.29 0.12
6 -2 -5 0.16 0.07
6 -2 -4 2.95 0.42
6 -2 -4 2.86 0.39
6 -2 -3 9.43 0.78
6 -2 -3 9.98 0.79
6 -2 -2 10.21 0.81
6 -2 -2 11.32 0.87
6 -2 -1 2.65 0.43
6 -2 0 0.19 0.12
6 -2 1 4.7 0.59
6 -2 1 4.4 0.59
6 -2 2 33.06 1.66
6 -2 2 34.04 1.65
6 -1 -8 1.55 0.22
6 -1 -8 1.65 0.22
6 -1 -7 4.78 0.46
6 -1 -7 4.96 0.44
6 -1 -6 2.48 0.36
6 -1 -6 2.68 0.35
6 -1 -5 0.08 0.07
6 -1 -5 0.26 0.12
6 -1 -5 0.27 0.11
6 -1 -4 2.44 0.38
6 -1 -4 2.63 0.38
6 -1 -3 11.69 0.88
6 -1 -3 12.82 0.89
6 -1 -2 2.45 0.41
6 -1 -1 6.8 0.75
6 -1 -1 7.14 0.73
6 -1 -1 7.92 0.75
6 -1 0 11.91 0.94
6 -1 0 12.45 0.98
6 -1 1 0.36 0.16
6 -1 1 -0.01 0.04
6 -1 2 10.82 0.97
6 -1 2 13.02 1.03
6 -1 3 7.34 0.78
6 0 -8 1.23 0.2
6 0 -7 6.06 0.54
6 0 -7 6.26 0.52
6 0 -6 6.71 0.62
6 0 -6 7.49 0.63
6 0 -5 2.49 0.39
6 0 -5 2.95 0.42
6 0 -4 0.19 0.12
6 0 -4 0.04 0.07
6 0 -4 0.12 0.07
6 0 -3 3.59 0.49
6 0 -3 3.88 0.53
6 0 -3 3.23 0.44
6 0 -2 11.9 0.94
6 0 -2 12.64 0.93
6 0 -1 12.46 0.95
6 0 -1 11.08 0.91
6 0 0 9.15 0.84
6 0 0 8.38 0.8
6 0 1 1.3 0.33
6 0 1 1.48 0.34
6 0 2 1.32 0.34
6 0 2 1.72 0.38
6 0 3 10.33 0.92
6 0 4 14.6 1.09
6 1 -8 0.82 0.16
6 1 -7 1.91 0.29
6 1 -6 5.7 0.57
6 1 -6 5.46 0.54
6 1 -5 5.74 0.6
6 1 -5 6.04 0.62
6 1 -4 1.81 0.34
6 1 -4 2.74 0.43
6 1 -3 0.05 0.06
6 1 -3 -0.08 0.09
6 1 -3 0.04 0.02
6 1 -3 -0.01 0.03
6 1 -2 3.55 0.49
6 1 -2 4.54 0.58
6 1 -2 4.04 0.5
6 1 -1 10.46 0.78
6 1 -1 11.61 0.89
6 1 -1 11.99 0.97
6 1 0 22.83 1.36
6 1 0 23.36 1.29
6 1 1 33.42 1.7
6 1 1 35.48 1.63
6 1 2 0.12 0.08
6 1 2 -0.03 0.1
6 1 3 6.67 0.73
6 1 4 31.15 1.57
6 1 5 36.12 1.66
6 2 -8 -0.01 0.04
6 2 -7 0.93 0.2
6 2 -6 3.27 0.41
6 2 -5 9.5 0.77
6 2 -5 9.75 0.78
6 2 -4 9.5 0.8
6 2 -4 9.37 0.8
6 2 -3 1.87 0.36
6 2 -3 2.62 0.37
6 2 -3 2.79 0.44
6 2 -2 7.36 0.67
6 2 -2 8.48 0.68
6 2 -2 8 0.67
6 2 -1 21.28 1.14
6 2 -1 24.65 1.45
6 2 -1 24 1.23
6 2 0 17.01 1.06
6 2 0 18.62 1.09
6 2 0 18.27 1.26
6 2 1 14.54 1.13
6 2 1 14.64 1.01
6 2 2 12.14 1.05
6 2 2 12.99 0.99
6 2 3 5.65 0.73
6 2 3 6.61 0.71
6 2 4 18.38 1.19
6 2 5 13.97 1.03
6 2 6 16.26 1.07
6 3 -8 0.38 0.11
6 3 -7 0.48 0.14
6 3 -6 1.03 0.22
6 3 -5 0.51 0.17
6 3 -4 16.11 0.9
6 3 -4 15.05 0.97
6 3 -3 19.7 1.06
6 3 -3 17.55 1.08
6 3 -2 3.19 0.46
6 3 -2 2.47 0.4
6 3 -1 3.47 0.45
6 3 -1 4.74 0.57
6 3 -1 3.19 0.41
6 3 -1 3.86 0.51
6 3 0 9.75 0.76
6 3 0 11.24 0.99
6 3 0 10.16 0.83
6 3 1 35.07 1.75
6 3 1 34.01 1.47
6 3 1 36.42 1.58
6 3 2 41.85 1.92
6 3 2 43.86 1.72
6 3 3 2.29 0.45
6 3 3 2.43 0.42
6 3 4 5.28 0.71
6 3 4 5.02 0.61
6 3 5 26.26 1.38
6 3 6 16.32 1.06
6 3 7 11.57 0.84
6 4 -8 0.96 0.15
6 4 -7 -0.01 0.04
6 4 -6 0.22 0.11
6 4 -5 11.15 0.67
6 4 -5 10.92 0.77
6 4 -4 18.12 0.94
6 4 -4 16.74 1.01
6 4 -3 6.85 0.63
6 4 -3 6.04 0.62
6 4 -2 7.06 0.69
6 4 -2 6.25 0.61
6 4 -1 10.34 0.87
6 4 -1 8.04 0.71
6 4 0 15.81 0.91
6 4 0 17.2 1.05
6 4 1 21.98 1.11
6 4 1 24.8 1.43
6 4 1 23.4 1.23
6 4 2 10.7 0.81
6 4 2 12.84 0.89
6 4 2 11.27 0.96
6 4 3 4.87 0.64
6 4 3 4.93 0.57
6 4 4 0.42 0.19
6 4 4 0.23 0.14
6 4 5 5.43 0.62
6 4 6 33.88 1.52
6 4 7 6.36 0.63
6 4 8 11.05 0.77
6 5 -7 0.89 0.15
6 5 -6 0.54 0.14
6 5 -5 2.83 0.32
6 5 -5 3.38 0.41
6 5 -4 4.75 0.47
6 5 -4 4.39 0.51
6 5 -3 4.22 0.48
6 5 -3 4.41 0.53
6 5 -2 5.13 0.57
6 5 -1 0.79 0.22
6 5 -1 0.77 0.21
6 5 0 3.17 0.46
6 5 0 2.72 0.36
6 5 0 2.95 0.42
6 5 1 14.19 0.99
6 5 1 11.98 0.78
6 5 1 12.31 0.84
6 5 2 16.1 0.94
6 5 2 16.48 0.97
6 5 3 18.1 1.04
6 5 3 17.12 0.98
6 5 4 3.11 0.48
6 5 5 0.71 0.24
6 5 6 9.5 0.85
6 5 7 44.63 1.79
6 5 7 45.7 1.72
6 5 8 7.52 0.64
6 5 9 2.27 0.31
6 6 -5 1.06 0.18
6 6 -4 3.37 0.37
6 6 -4 3.5 0.42
6 6 -3 4.85 0.49
6 6 -3 4.94 0.54
6 6 -2 1.94 0.33
6 6 -2 2.46 0.4
6 6 -1 2.47 0.4
6 6 0 0.11 0.09
6 6 1 6.11 0.61
6 6 1 6.91 0.57
6 6 2 27.31 1.29
6 6 2 25.03 1.13
6 6 3 3.52 0.49
6 6 4 6.07 0.66
6 6 5 9.32 0.82
6 6 6 2.04 0.39
6 6 7 33.41 1.57
6 6 8 11.84 0.87
6 6 9 6.6 0.54
6 7 -5 -0.01 0.01
6 7 -4 0.3 0.1
6 7 -3 1.82 0.29
6 7 -2 7.34 0.63
6 7 -1 9.31 0.74
6 7 0 1.43 0.29
6 7 1 2.57 0.39
6 7 2 8.17 0.69
6 7 2 7.68 0.6
6 7 3 20.41 1.15
6 7 3 18.96 1.04
6 7 4 12.45 0.92
6 7 5 5.16 0.61
6 7 6 2.66 0.45
6 7 7 9.05 0.81
6 7 8 13.19 0.92
6 7 9 10.06 0.66
6 8 -4 0.58 0.12
6 8 -3 4.27 0.41
6 8 -2 2.61 0.36
6 8 -1 4.96 0.53
6 8 0 0.13 0.03
6 8 1 0.28 0.12
6 8 2 3.87 0.46
6 8 3 7.64 0.65
6 8 3 6.88 0.56
6 8 4 4.23 0.52
6 8 4 3.91 0.46
6 8 5 1.89 0.36
6 8 6 1.33 0.3
6 8 7 1.04 0.26
6 8 8 10.26 0.78
6 8 9 3.46 0.36
6 9 -3 0.63 0.12
6 9 -2 2.85 0.32
6 9 -1 1.22 0.25
6 9 0 2.54 0.36
6 9 1 0.99 0.22
6 9 2 0.58 0.18
6 9 3 3.7 0.44
6 9 4 8.15 0.65
6 9 4 6.48 0.52
6 9 5 3.51 0.44
6 9 5 4.18 0.46
6 9 6 1.45 0.29
6 9 7 0.12 0.08
6 9 8 2.96 0.34
6 10 -1 0.71 0.14
6 10 0 0.35 0.12
6 10 1 0.31 0.11
6 10 2 1.1 0.22
6 10 3 5.85 0.51
6 10 4 4.02 0.43
6 10 5 0.87 0.2
6 10 5 0.41 0.11
6 10 6 2.05 0.26
7 -3 -3 0.46 0.13
7 -3 -2 4.1 0.4
7 -3 -1 5.43 0.48
7 -3 0 0.79 0.19
7 -3 1 0.77 0.18
7 -2 -5 1.34 0.19
7 -2 -4 0.38 0.11
7 -2 -4 0.32 0.1
7 -2 -3 0.1 0.05
7 -2 -2 1.72 0.29
7 -2 -1 6.59 0.6
7 -2 0 14.59 0.91
7 -2 1 0.95 0.24
7 -2 2 0.01 0.09
7 -2 2 0.02 0.08
7 -2 3 0.18 0.11
7 -2 4 22.9 1.24
7 -2 5 20.26 1.13
7 -2 6 3.28 0.42
7 -1 -6 1.81 0.22
7 -1 -5 2.62 0.3
7 -1 -5 1.75 0.21
7 -1 -4 0.58 0.15
7 -1 -4 0.53 0.15
7 -1 -3 0.1 0.06
7 -1 -2 1.11 0.25
7 -1 -1 11.37 0.85
7 -1 0 6.55 0.66
7 -1 0 6.45 0.66
7 -1 1 5.93 0.64
7 -1 1 6.59 0.68
7 -1 2 3.41 0.51
7 -1 2 3.62 0.5
7 -1 3 0.09 0.07
7 -1 3 0.12 0.11
7 -1 4 12.25 1
7 -1 5 15.93 1.13
7 -1 6 6.26 0.7
7 -1 7 2.98 0.45
7 -1 8 -0.01 0.02
7 0 -6 0.7 0.14
7 0 -5 1.54 0.25
7 0 -5 2.15 0.28
7 0 -4 5.49 0.5
7 0 -4 4.44 0.4
7 0 -3 1.6 0.28
7 0 -2 0.61 0.19
7 0 -1 3.35 0.47
7 0 0 9.86 0.85
7 0 0 9.14 0.83
7 0 1 15.12 1.09
7 0 1 16.54 1.13
7 0 2 8.92 0.85
7 0 2 9.99 0.88
7 0 3 0.03 0.04
7 0 3 0.03 0.03
7 0 4 7.08 0.79
7 0 4 7.64 0.71
7 0 5 6.87 0.79
7 0 6 12.59 1.07
7 0 7 11.45 0.98
7 0 8 0.29 0.14
7 1 -7 0.02 0.04
7 1 -6 1.32 0.21
7 1 -5 3.72 0.4
7 1 -4 4.49 0.48
7 1 -3 2.79 0.41
7 1 -3 1.97 0.3
7 1 -2 0.02 0.04
7 1 -2 -0.16 0.09
7 1 -1 1.58 0.34
7 1 -1 1.23 0.29
7 1 0 8.66 0.79
7 1 0 7.99 0.81
7 1 1 10.84 0.92
7 1 1 10.05 0.93
7 1 2 9.6 0.92
7 1 2 10.24 0.91
7 1 3 2.74 0.49
7 1 3 3.16 0.51
7 1 4 -0.06 0.12
7 1 4 0.03 0.04
7 1 5 10.02 1.01
7 1 5 11.67 0.87
7 1 6 16.12 1.27
7 1 7 7.86 0.87
7 1 8 12.83 1.04
7 1 9 0.06 0.05
7 2 -7 0.08 0.04
7 2 -6 0.55 0.14
7 2 -5 2.96 0.36
7 2 -4 4.58 0.49
7 2 -3 3.41 0.46
7 2 -3 2.05 0.28
7 2 -2 0.59 0.2
7 2 -2 0.54 0.16
7 2 -1 0.8 0.23
7 2 -1 0.67 0.2
7 2 0 3.63 0.49
7 2 0 4 0.59
7 2 1 16.58 1.12
7 2 1 15.96 1.2
7 2 2 10.93 1
7 2 2 11.5 0.96
7 2 3 0.54 0.22
7 2 3 0.49 0.17
7 2 4 0.35 0.22
7 2 4 0.26 0.12
7 2 5 2.44 0.5
7 2 5 3.16 0.47
7 2 6 3.27 0.58
7 2 6 4.3 0.51
7 2 7 16.25 1.28
7 2 8 14.8 1.15
7 2 9 0.43 0.15
7 3 -7 0.11 0.05
7 3 -6 0.04 0.05
7 3 -5 2.08 0.29
7 3 -4 1.74 0.3
7 3 -3 0.36 0.14
7 3 -2 0.91 0.25
7 3 -2 0.93 0.2
7 3 -1 0.49 0.16
7 3 0 1.07 0.26
7 3 1 2.28 0.45
7 3 1 2.22 0.39
7 3 2 4.85 0.6
7 3 2 5.18 0.69
7 3 3 11.64 1.04
7 3 3 12.55 0.99
7 3 4 4.24 0.64
7 3 4 5.22 0.64
7 3 5 0.77 0.27
7 3 5 1.06 0.29
7 3 6 1.54 0.4
7 3 6 2.29 0.39
7 3 7 17.29 1.31
7 3 7 18.67 0.99
7 3 8 12.23 1.02
7 4 -6 -0.01 0.02
7 4 -5 0.93 0.19
7 4 -4 0.12 0.1
7 4 -3 4.44 0.42
7 4 -3 4.16 0.48
7 4 -2 12 0.75
7 4 -2 11.79 0.85
7 4 -1 0.77 0.21
7 4 -1 0.72 0.18
7 4 0 0.31 0.13
7 4 1 2.04 0.35
7 4 2 5.68 0.61
7 4 2 6.04 0.73
7 4 3 15.51 1.05
7 4 3 13.59 1.1
7 4 4 5.91 0.72
7 4 4 6.54 0.7
7 4 5 -0.02 0.05
7 4 5 0.06 0.07
7 4 6 2.53 0.42
7 4 7 1.39 0.28
7 5 -5 0.08 0.05
7 5 -4 1.16 0.22
7 5 -3 0.5 0.13
7 5 -3 0.61 0.18
7 5 -2 2.75 0.35
7 5 -2 2.81 0.41
7 5 -1 2.99 0.4
7 5 0 0.12 0.07
7 5 0 -0.02 0.05
7 5 1 -0.05 0.05
7 5 2 1.97 0.34
7 5 3 6.17 0.63
7 5 4 6.52 0.66
7 5 5 6.23 0.66
7 5 6 0.58 0.2
7 5 7 6.74 0.62
7 5 8 1.12 0.23
7 6 -4 0.03 0.03
7 6 -4 0.05 0.04
7 6 -3 0.83 0.17
7 6 -3 0.78 0.19
7 6 -2 2.23 0.31
7 6 -2 2.55 0.38
7 6 -1 5.64 0.53
7 6 0 1.7 0.31
7 6 1 0.26 0.13
7 6 1 0.26 0.11
7 6 2 1.43 0.27
7 6 3 2.29 0.36
7 6 4 8.2 0.7
7 6 5 0.5 0.18
7 6 6 0.04 0.03
7 6 7 0.12 0.07
7 6 8 1.92 0.3
7 7 -3 0.22 0.08
7 7 -2 1.44 0.23
7 7 -2 1.69 0.27
7 7 -1 1.86 0.29
7 7 -1 2.06 0.33
7 7 0 1.05 0.23
7 7 1 3.94 0.47
7 7 2 0.08 0.07
7 7 2 0.05 0.05
7 7 3 4.98 0.49
7 7 4 3.91 0.45
7 7 5 1.08 0.25
7 7 6 3.1 0.42
7 7 7 1.17 0.24
7 7 8 2.05 0.3
7 8 -3 0.03 0.02
7 8 -2 1.11 0.18
7 8 -1 2.43 0.3
7 8 0 2.62 0.34
7 8 1 1.02 0.23
7 8 2 0.09 0.07
7 8 3 1.03 0.24
7 8 3 0.71 0.17
7 8 4 0.99 0.21
7 8 5 1.2 0.24
7 8 6 2.94 0.38
7 8 7 0.36 0.13
7 8 8 0.17 0.06
7 9 -1 0.12 0.05
7 9 0 1.64 0.24
7 9 1 1.25 0.22
7 9 2 2.71 0.35
7 9 3 0.54 0.16
7 9 4 0.59 0.14
7 9 5 1.65 0.24
7 9 6 2.91 0.33
8 -1 -2 0.05 0.04
8 -1 -1 0.03 0.05
8 -1 0 1.75 0.27
8 -1 1 7.33 0.54
8 -1 2 0.15 0.07
8 -1 3 0.06 0.05
8 -1 3 0.13 0.06
8 -1 4 0.27 0.1
8 0 -3 0.18 0.07
8 0 -2 0.31 0.1
8 0 -1 0.42 0.13
8 0 0 0.95 0.21
8 0 1 4.69 0.49
8 0 2 1.44 0.29
8 0 2 1.2 0.25
8 0 3 0.5 0.17
8 0 3 0.42 0.13
8 0 4 1.89 0.25
8 0 4 2.17 0.35
8 0 5 0.01 0.04
8 0 6 2.92 0.37
8 1 -3 1.4 0.18
8 1 -2 1.21 0.2
8 1 -1 0.99 0.21
8 1 0 0.1 0.06
8 1 1 1.15 0.26
8 1 2 3.27 0.44
8 1 2 2.8 0.44
8 1 3 4.52 0.5
8 1 3 4.61 0.56
8 1 4 2.82 0.37
8 1 4 3.2 0.45
8 1 5 -0.04 0.06
8 1 5 -0.06 0.05
8 1 6 0.06 0.03
8 2 -4 0.2 0.07
8 2 -3 1.85 0.26
8 2 -2 2.14 0.31
8 2 -2 1.58 0.22
8 2 -1 2.79 0.38
8 2 -1 1.98 0.29
8 2 0 1.39 0.27
8 2 0 1.2 0.25
8 2 1 0.57 0.18
8 2 2 3.41 0.46
8 2 2 3.3 0.49
8 2 3 6.33 0.63
8 2 3 6.03 0.66
8 2 4 3.82 0.47
8 2 4 3.24 0.49
8 2 5 1.52 0.33
8 2 5 1.56 0.27
8 2 6 0.5 0.18
8 2 7 2.09 0.34
8 3 -4 0.05 0.05
8 3 -3 1.13 0.21
8 3 -2 2.74 0.35
8 3 -1 1.51 0.28
8 3 -1 0.8 0.17
8 3 0 1.61 0.3
8 3 0 1.4 0.25
8 3 1 1.15 0.25
8 3 2 2.08 0.34
8 3 3 4.23 0.51
8 3 3 4.12 0.56
8 3 4 5.34 0.57
8 3 4 5.52 0.64
8 3 5 3.03 0.4
8 3 5 2.92 0.47
8 3 6 0 0.05
8 3 6 0.09 0.06
8 3 7 0.04 0.06
8 4 -4 0.66 0.13
8 4 -3 0.94 0.18
8 4 -2 1.49 0.25
8 4 -1 2.85 0.37
8 4 -1 2.35 0.27
8 4 0 5.98 0.56
8 4 0 4.97 0.45
8 4 1 1.96 0.3
8 4 2 0.14 0.11
8 4 3 5.21 0.55
8 4 4 7.58 0.68
8 4 5 2.79 0.4
8 4 5 2.34 0.41
8 4 6 1.47 0.3
8 4 6 1.95 0.31
8 4 7 0.24 0.09
8 5 -3 0.07 0.05
8 5 -2 2.34 0.31
8 5 -1 3.35 0.39
8 5 0 2.51 0.35
8 5 0 1.72 0.24
8 5 1 0.9 0.19
8 5 2 0.23 0.1
8 5 3 -0.02 0.05
8 5 4 3.42 0.44
8 5 5 9.49 0.72
8 5 6 0.96 0.21
8 5 7 1.48 0.24
8 6 -2 0.01 0.03
8 6 -1 1.25 0.17
8 6 -1 1.58 0.26
8 6 0 2.67 0.36
8 6 1 2.13 0.27
8 6 2 1.25 0.21
8 6 3 0.02 0.04
8 6 4 0.33 0.13
8 6 5 3.07 0.39
8 6 6 14.85 0.84
8 6 7 0.83 0.17
8 7 -1 0.02 0.03
8 7 -1 0.05 0.04
8 7 0 1.85 0.21
8 7 0 2.08 0.28
8 7 1 4.54 0.44
8 7 2 0.57 0.14
8 7 3 1.26 0.21
8 7 4 0.85 0.18
8 7 5 4.13 0.42
8 7 6 11.67 0.69
8 8 2 2.56 0.29
9 3 1 0.32 0.09
9 3 2 0.16 0.07
9 3 3 0.05 0.02
9 4 2 0.92 0.16
9 4 3 0.12 0.07

_cod_database_fobs_code 2021763
