#------------------------------------------------------------------------------
#$Date: 2018-02-22 09:11:00 +0200 (Thu, 22 Feb 2018) $
#$Revision: 206576 $
#$URL: file:///home/coder/svn-repositories/cod/cif/2/02/10/2021031.cif $
#------------------------------------------------------------------------------
#
# This file is available in the Crystallography Open Database (COD),
# http://www.crystallography.net/. The original data for this entry
# were provided by IUCr Journals, http://journals.iucr.org/.
#
# The file may be used within the scientific community so long as
# proper attribution is given to the journal article from which the
# data were obtained.
#
data_2021031
loop_
_publ_author_name
'Borjas Nevarez, Rosendo'
'Balasekaran, Samundeeswari Mariappan'
'Kim, Eunja'
'Weck, Philippe'
'Poineau, Frederic'
_publ_section_title
;
 Zirconium tetrachloride revisited
;
_journal_coeditor_code           YO3045
_journal_issue                   3
_journal_name_full               'Acta Crystallographica Section C'
_journal_page_first
;
;
_journal_paper_doi               10.1107/S205322961800219X
_journal_volume                  74
_journal_year                    2018
_chemical_formula_iupac          'Zr Cl4'
_chemical_formula_moiety         'Cl4 Zr'
_chemical_formula_sum            'Cl4 Zr'
_chemical_formula_weight         233.02
_chemical_name_common            'Zirconium tetrachloride'
_chemical_name_systematic
;
Zirconium tetrachloride
;
_space_group_crystal_system      orthorhombic
_space_group_IT_number           29
_space_group_name_Hall           'P 2c -2ac'
_space_group_name_H-M_alt        'P c a 21'
_symmetry_space_group_name_Hall  'P 2c -2ac'
_symmetry_space_group_name_H-M   'P c a 21'
_atom_sites_solution_hydrogens   notdet
_atom_sites_solution_primary     heavy
_atom_sites_solution_secondary   difmap
_cell_angle_alpha                90
_cell_angle_beta                 90
_cell_angle_gamma                90
_cell_formula_units_Z            4
_cell_length_a                   6.262(9)
_cell_length_b                   7.402(11)
_cell_length_c                   12.039(17)
_cell_measurement_reflns_used    1130
_cell_measurement_temperature    300.(2)
_cell_measurement_theta_max      24.4776
_cell_measurement_theta_min      2.7516
_cell_volume                     558.0(14)
_computing_cell_refinement
;
APEX3 (Bruker, 2016)
;
_computing_data_collection
;
BIS (Bruker, 2016)
;
_computing_data_reduction
;
SAINT (Bruker, 2015)
;
_computing_molecular_graphics
;
shelXle (H\"ubschle <i>et al.</i>,  2011)
;
_computing_publication_material
;
APEX3 (Bruker, 2016)
;
_computing_structure_refinement  'SHELXL2014 (Sheldrick, 2015b)'
_computing_structure_solution    'SHELXT2014 (Sheldrick, 2015a)'
_diffrn_ambient_temperature      300.(2)
_diffrn_detector_area_resol_mean 8.3333
_diffrn_measured_fraction_theta_full 0.998
_diffrn_measured_fraction_theta_max 0.998
_diffrn_measurement_device_type  'Bruker D8 QUEST'
_diffrn_measurement_method       '\f and \w scans'
_diffrn_radiation_monochromator  'curved graphite'
_diffrn_radiation_type           'Mo K\a'
_diffrn_radiation_wavelength     0.71073
_diffrn_reflns_av_R_equivalents  0.0931
_diffrn_reflns_av_unetI/netI     0.0641
_diffrn_reflns_limit_h_max       7
_diffrn_reflns_limit_h_min       -7
_diffrn_reflns_limit_k_max       8
_diffrn_reflns_limit_k_min       -8
_diffrn_reflns_limit_l_max       14
_diffrn_reflns_limit_l_min       -14
_diffrn_reflns_number            5334
_diffrn_reflns_theta_full        24.70
_diffrn_reflns_theta_max         24.70
_diffrn_reflns_theta_min         3.38
_diffrn_source                   'sealed tube'
_diffrn_source_type              'Siemens KFFMo2K-90'
_exptl_absorpt_coefficient_mu    3.714
_exptl_absorpt_correction_T_max  0.81
_exptl_absorpt_correction_T_min  0.55
_exptl_absorpt_correction_type   numerical
_exptl_absorpt_process_details
;
(SADABS; Krause <i>et al.</i>,  2015)
;
_exptl_crystal_colour            'translucent colourless'
_exptl_crystal_density_diffrn    2.773
_exptl_crystal_density_method    'not measured'
_exptl_crystal_description       'rectangular box'
_exptl_crystal_F_000             432
_exptl_crystal_size_max          0.09
_exptl_crystal_size_mid          0.08
_exptl_crystal_size_min          0.06
_refine_diff_density_max         2.586
_refine_diff_density_min         -0.703
_refine_ls_abs_structure_details
;
Flack <i>x</i> determined using 284 quotients [(I+)-(I-)]/[(I+)+(I-)]
(Parsons <i>et al.</i>,  2013)
;
_refine_ls_abs_structure_Flack   0.0(3)
_refine_ls_extinction_method     none
_refine_ls_goodness_of_fit_ref   1.016
_refine_ls_hydrogen_treatment    undef
_refine_ls_matrix_type           full
_refine_ls_number_parameters     46
_refine_ls_number_reflns         949
_refine_ls_number_restraints     1
_refine_ls_restrained_S_all      1.016
_refine_ls_R_factor_all          0.0763
_refine_ls_R_factor_gt           0.0533
_refine_ls_shift/su_max          0.000
_refine_ls_shift/su_mean         0.000
_refine_ls_structure_factor_coef Fsqd
_refine_ls_weighting_details
'w=1/[\s^2^(Fo^2^)+(0.0788P)^2^] where P=(Fo^2^+2Fc^2^)/3'
_refine_ls_weighting_scheme      calc
_refine_ls_wR_factor_gt          0.1219
_refine_ls_wR_factor_ref         0.1384
_reflns_number_gt                737
_reflns_number_total             949
_reflns_threshold_expression     'I > 2\s(I)'
_cod_data_source_file            yo3045sup1.cif
_cod_data_source_block           SMB_ZrCl4_b_300K
_cod_database_code               2021031
_publcif_datablock.id            {ecf92484-f5ff-49db-8e74-55d8ee6010e5}
_shelx_res_file
;



    SMB_ZrCl4_b_0m_a.res created by SHELXL-2014/7


TITL SMB_ZrCl4_b_0m_a.res in Pca2(1)
REM Old TITL SMB_ZrCl4_b_0m in Pca2(1)
REM SHELXT solution in Pca2(1)
REM R1 0.105,  Rweak 0.009,  Alpha 0.006,  Orientation as input
REM Flack x =  0.037 ( 0.262 ) from Parsons' quotients
REM Formula found by SHELXT:  Cl4 Zr
CELL  0.71073   6.2621   7.4020  12.0395   90.000   90.000   90.000
ZERR    4.000   0.0089   0.0105   0.0170    0.000    0.000    0.000
LATT -1
SYMM -X, -Y, 1/2+Z
SYMM 1/2+X, -Y, Z
SYMM 1/2-X, Y, 1/2+Z
SFAC CL ZR
UNIT 16 4
TEMP 27.290
SIZE 0.06 0.078 0.091
L.S. 10
BOND $H
SHEL 6.5 0.85
OMIT -4 50
OMIT 2   1   8
OMIT 0   3 -12
OMIT 3   3   8
OMIT 6   2   4
LIST 4
ACTA
FMAP 2
PLAN 20
WGHT    0.078800
FVAR       0.47800
ZR1   2    0.423901    0.335404    0.500003    11.00000    0.02727    0.03815 =
         0.04128    0.00019    0.00012    0.00093
CL1   1    0.570168    0.137963    0.628047    11.00000    0.04720    0.05443 =
         0.05298    0.01137   -0.00533    0.00646
CL2   1    0.094209    0.390485    0.612712    11.00000    0.03202    0.04550 =
         0.03968    0.00665    0.00400    0.00430
CL3   1    0.282910    0.133860    0.373141    11.00000    0.05441    0.05036 =
         0.05591   -0.00872   -0.00433   -0.00615
CL4   1    0.750370    0.392972    0.385280    11.00000    0.03297    0.04638 =
         0.04267   -0.00740    0.00655   -0.00381
HKLF 4

REM  SMB_ZrCl4_b_0m_a.res in Pca2(1)
REM R1 =  0.0533 for     737 Fo > 4sig(Fo)  and  0.0763 for all     949 data
REM     46 parameters refined using      1 restraints

END

WGHT      0.0788      0.0000

REM Highest difference peak  2.586,  deepest hole -0.703,  1-sigma level  0.198
Q1    1   0.7263  0.3381  0.4999  11.00000  0.05    2.59
Q2    1   0.1181  0.3482  0.5023  11.00000  0.05    1.24
Q3    1   0.3915  0.3600  0.6152  11.00000  0.05    1.03
Q4    1   0.5697  0.6013  0.3975  11.00000  0.05    0.85
Q5    1   0.4149  0.3621  0.3912  11.00000  0.05    0.84
Q6    1   0.2576  0.6149  0.6030  11.00000  0.05    0.83
Q7    1   0.5752  0.1307  0.3748  11.00000  0.05    0.74
Q8    1   0.2665  0.1384  0.6353  11.00000  0.05    0.62
Q9    1  -0.0406  0.1500  0.5878  11.00000  0.05    0.56
Q10   1   0.4203  0.3983  0.4993  11.00000  0.05    0.54
Q11   1   0.3903 -0.0891  0.5047  11.00000  0.05    0.53
Q12   1   0.8377  0.1247  0.6228  11.00000  0.05    0.51
Q13   1   0.0780  0.2708  0.6152  11.00000  0.05    0.45
Q14   1   0.2069  0.3060  0.4021  11.00000  0.05    0.41
Q15   1   0.4254  0.0246  0.4924  11.00000  0.05    0.41
Q16   1   0.2973  0.2051  0.5655  11.00000  0.05    0.40
Q17   1   0.4905  0.1623  0.4908  11.00000  0.05    0.40
Q18   1   0.4766  0.4860  0.4172  11.00000  0.05    0.38
Q19   1   0.7709  0.3600  0.2873  11.00000  0.05    0.38
Q20   1   0.4292 -0.1331  0.4088  11.00000  0.05    0.38
;
_shelx_res_checksum              8226
_shelx_hkl_file
;
  -1   0   0   -0.10    3.90
  -1   0   0    2.60    5.90
   1   0   0    0.40    5.90
   1   0   0    4.20    5.70
   2   0   0  116.79   15.50
  -2   0   0   98.49   13.80
   2   0   0   88.09   18.40
  -2   0   0  124.19   20.00
  -3   0   0   -1.80   12.90
   3   0   0    0.80   13.60
  -3   0   0    5.80    9.70
   3   0   0    4.50   12.00
   4   0   0   13.50   14.80
  -4   0   0   -8.30   10.50
  -4   0   0    8.60   17.90
   4   0   0   -6.10   12.20
   5   0   0   13.90   18.10
   5   0   0   -3.90   16.90
  -5   0   0    3.10   15.00
   6   0   0 2192.28  134.29
  -6   0   0 1934.91  147.49
   6   0   0 1832.12  148.89
  -7   0   0   -9.50   28.50
   7   0   0   -8.50   28.60
   8   0   0   68.39   46.80
  -8   0   0   49.10   43.10
   0   1   0 2142.19  109.69
   0   1   0 2084.79  110.89
   0  -1   0 1961.40  109.19
   0  -1   0 1920.01  110.89
   1   1   0  721.73   46.20
   1  -1   0  683.83   45.60
  -1   1   0  698.33   44.60
  -1  -1   0  614.74   44.90
   1  -1   0  717.23   44.80
   1   1   0  734.13   45.40
   2  -1   0   90.29   19.10
  -2  -1   0   23.10   12.70
  -2   1   0   48.80   16.10
  -2  -1   0   50.79   16.60
   2   1   0   62.09   10.70
   2  -1   0   65.49   16.40
   2   1   0   58.49   15.90
   3   1   0 1647.54   93.59
   3  -1   0 1604.34  106.19
  -3  -1   0 1637.94   97.79
  -3  -1   0 1530.45  103.69
  -3   1   0 1503.65  104.69
   3   1   0 1538.35  105.99
   3  -1   0 1586.94  101.29
   4   1   0   54.89   16.30
   4   1   0   51.29   23.20
   4  -1   0   33.10   20.10
   4  -1   0   48.70   21.50
  -4  -1   0   76.99   22.20
  -4  -1   0   76.39   23.70
  -4   1   0    3.70   16.60
  -5   1   0  123.99   35.10
  -5  -1   0   56.39   26.70
   5   1   0   84.29   29.90
   5   1   0   68.49   21.80
   5  -1   0   46.00   21.50
   5  -1   0   96.59   30.70
  -5  -1   0  102.99   25.00
  -6  -1   0  428.66   58.19
  -6   1   0  272.37   55.79
   6   1   0  376.66   60.59
   6  -1   0  386.56   47.90
   6  -1   0  357.66   56.29
  -7  -1   0   19.10   37.20
   7  -1   0   29.40   31.10
  -7   1   0   -9.40   29.30
   7  -1   0   28.60   33.80
   7   1   0    5.70   32.30
  -8  -1   0   33.00   47.90
   8   1   0  -10.80   43.60
   8  -1   0   -0.60   32.70
  -8   1   0   -1.40   39.10
   0  -2   0  648.84   47.50
   0   2   0  716.23   46.60
   0   2   0  714.53   44.50
   0  -2   0  623.44   43.30
   1   2   0   26.50   10.80
  -1   2   0    3.80    9.20
   1   2   0    1.80    9.80
  -1   2   0    6.10    9.20
  -1  -2   0    5.60    4.80
  -1  -2   0  -10.40   10.90
   1  -2   0   12.70   10.60
   1  -2   0    4.40    9.00
   2   2   0  234.98   28.00
  -2   2   0  265.97   28.70
   2  -2   0  217.48   29.20
   2   2   0  260.77   29.60
  -2  -2   0  238.58   29.30
   2  -2   0  188.18   25.60
  -3  -2   0 9999.00  527.05
  -3   2   0 9801.42  531.15
   3  -2   0 9156.18  531.45
  -3  -2   0 9884.61  530.65
   3   2   0 9708.23  534.05
   3   2   0 9944.41  512.95
   3  -2   0 9796.92  530.35
   4  -2   0    8.70   19.50
  -4   2   0   75.69   27.70
   4   2   0   71.69   27.90
  -4  -2   0   26.00   19.70
   4   2   0   -4.30   11.40
  -4  -2   0   49.50   23.00
   4  -2   0   -0.60   16.40
  -5  -2   0  116.99   31.70
  -5   2   0   59.89   31.80
   5   2   0  117.89   36.30
  -5  -2   0  125.79   34.90
   5  -2   0   89.39   27.90
   5  -2   0   86.19   31.20
   6  -2   0   32.60   27.10
  -6  -2   0   52.89   36.50
   6  -2   0   71.89   31.70
   6   2   0   22.40   27.40
  -6   2   0   31.50   32.60
   7   2   0   13.00   36.70
   7  -2   0  -15.60   23.90
  -7   2   0   47.50   35.30
   7  -2   0   67.49   32.80
  -7  -2   0   43.60   38.90
   8  -2   0    8.80   36.90
   8  -2   0  -17.00   39.10
   8   2   0  -10.00   38.90
  -8  -2   0  -12.70   44.60
  -8   2   0   31.50   40.20
   0  -3   0 1122.79   71.59
   0  -3   0 1174.38   78.59
   0   3   0 1137.29   76.99
   0   3   0 1175.98   72.79
   1   3   0   -8.30   11.90
  -1  -3   0   10.40   14.40
  -1   3   0    4.80    9.90
  -1  -3   0   -4.10    7.80
  -1   3   0  -11.00   10.90
   1  -3   0   12.50   12.10
   1  -3   0    1.80   10.50
   1   3   0  -17.50    9.40
   2  -3   0  470.75   46.10
   2   3   0  488.05   44.90
  -2  -3   0  577.34   50.79
  -2   3   0  424.46   45.00
  -2   3   0  508.85   43.50
   2  -3   0  436.86   36.10
   2   3   0  477.85   43.60
   3   3   0  170.38   31.90
  -3  -3   0  210.78   34.50
   3  -3   0  181.98   33.20
  -3   3   0  189.28   32.80
   3  -3   0  198.18   30.00
   3   3   0  146.29   32.50
  -4  -3   0  123.59   33.40
  -4   3   0  148.79   35.80
  -4  -3   0  129.39   33.80
   4   3   0   88.79   28.80
   4  -3   0  172.48   38.20
   4  -3   0  162.98   33.70
   5  -3   0  -13.70   20.70
  -5   3   0   59.29   31.20
  -5  -3   0   51.09   29.70
   5   3   0   35.50   25.40
  -5  -3   0   73.59   31.40
   5  -3   0   72.79   30.80
  -6  -3   0  451.15   63.19
  -6   3   0  462.15   72.39
   6  -3   0  329.47   62.29
  -6  -3   0  461.65   55.69
   6   3   0  203.28   53.89
   6  -3   0  353.86   59.99
   7   3   0  -28.90   25.50
   7  -3   0   -6.70   33.00
  -7   3   0    8.70   37.70
  -7  -3   0  -29.10   34.50
   7  -3   0   51.79   40.40
  -8   3   0  -18.50   37.70
  -8  -3   0    5.40   46.90
   8  -3   0  -72.89   36.80
   8  -3   0   -3.90   42.80
   0  -4   0 6617.84  368.86
   0   4   0 6663.03  369.16
   0  -4   0 6750.42  360.56
   0   4   0 6567.84  362.06
  -1   4   0  357.86   36.60
  -1  -4   0  231.38   24.00
   1  -4   0  209.18   31.70
  -1   4   0  278.37   33.20
   1   4   0  263.07   33.30
   1   4   0  268.77   32.40
   1  -4   0  236.98   31.60
  -1  -4   0  213.08   37.30
  -2  -4   0  -15.30   15.10
   2   4   0   21.50   17.90
  -2   4   0  -12.00   11.20
   2  -4   0    4.50   16.30
   2   4   0   -5.60   13.40
  -2   4   0  -16.80   12.50
   2  -4   0  -10.70   12.00
   3  -4   0  514.75   39.10
  -3   4   0  426.56   52.69
  -3  -4   0  562.94   55.49
  -3   4   0  522.65   51.29
   3   4   0  509.15   51.49
   3   4   0  469.05   50.29
   3  -4   0  468.85   53.19
  -4   4   0   24.60   25.30
  -4  -4   0   11.80   22.80
   4  -4   0  -11.10   20.80
   4   4   0   24.20   22.70
   4   4   0   21.60   18.20
  -4   4   0   49.20   23.80
   5   4   0  166.78   43.40
   5  -4   0  210.28   47.50
   5  -4   0  181.28   43.90
  -5  -4   0  256.27   51.99
  -5   4   0  188.28   46.40
  -5  -4   0  258.77   46.90
  -6  -4   0  761.32   78.99
  -6  -4   0  713.33   77.89
   6  -4   0  617.74   74.69
  -6   4   0  677.63   81.89
   6  -4   0  541.15   74.29
   6   4   0  392.66   73.39
   7  -4   0    3.10   32.40
   7  -4   0  -38.50   35.80
   7   4   0    3.00   29.60
  -7  -4   0  -23.40   32.80
  -7   4   0  -20.80   34.60
   0   5   0   13.30   15.40
   0  -5   0  -23.10   11.70
   0   5   0   27.90   18.20
   0  -5   0  -12.30   15.90
   1   5   0  291.07   36.10
   1  -5   0  266.67   35.90
  -1  -5   0  307.07   49.80
  -1   5   0  238.28   34.90
   1  -5   0  207.28   36.30
  -1   5   0  245.78   36.10
  -1  -5   0  283.97   28.50
   1   5   0  229.78   35.70
  -2   5   0   57.39   23.70
   2  -5   0  138.79   32.10
  -2  -5   0   80.99   31.00
   2  -5   0  140.69   27.70
   2   5   0   75.99   24.50
   2   5   0  112.19   30.70
  -2   5   0  148.59   31.10
   3  -5   0  190.18   40.90
  -3   5   0  142.99   34.10
   3   5   0  174.68   36.10
   3   5   0  148.59   35.70
  -3   5   0  252.87   44.20
  -3  -5   0  193.58   43.40
   4  -5   0  -19.80   21.10
  -4   5   0   17.00   26.30
   4   5   0    5.10   25.30
  -4   5   0   66.89   30.50
   4   5   0   50.79   25.30
  -4  -5   0   -9.50   22.30
  -5  -5   0   72.29   39.10
  -5   5   0   14.60   32.20
   5   5   0   36.80   28.40
   5  -5   0   66.69   37.70
  -5  -5   0   56.49   33.90
  -5   5   0   33.10   31.70
  -6  -5   0   30.10   33.30
   6  -5   0   -8.60   37.60
  -6  -5   0    0.20   34.40
  -6   5   0  -36.10   25.80
   6   5   0  -13.00   31.30
  -6   5   0   41.60   40.50
  -7   5   0   13.20   39.80
   7   5   0   17.20   33.90
  -7  -5   0   13.00   39.00
   7  -5   0  -50.49   43.00
  -7   5   0   20.30   38.90
   0  -6   0  462.55   45.80
   0  -6   0  434.26   55.39
   0   6   0  516.75   49.60
   0   6   0  449.66   54.19
   1   6   0   44.80   25.50
   1   6   0    4.60   18.60
  -1   6   0   75.59   26.60
  -1   6   0   52.19   22.70
  -1  -6   0   27.00   16.90
   1  -6   0   34.80   25.50
  -1  -6   0   66.69   34.00
   1  -6   0   27.10   21.40
   2  -6   0  226.38   42.40
  -2   6   0  211.48   42.10
  -2  -6   0  236.88   50.99
   2   6   0  215.28   40.50
   2  -6   0  278.77   45.30
  -2   6   0  253.57   45.00
  -3   6   0  653.43   69.39
   3   6   0  452.25   61.39
   3  -6   0  547.65   64.89
  -3  -6   0  733.83   76.69
   3   6   0  509.05   61.09
  -3   6   0  581.84   64.19
  -4   6   0   29.90   31.50
  -4  -6   0   28.50   35.30
   4   6   0    4.00   24.80
   4   6   0  -19.30   26.40
   4  -6   0   42.00   33.80
  -4   6   0   -5.40   29.30
  -5  -6   0  -35.30   29.50
  -5   6   0  -33.60   30.60
  -5  -6   0  -37.90   32.70
   5  -6   0   -2.90   29.80
   5   6   0    5.10   29.30
  -5   6   0   -1.50   29.50
  -6   6   0   79.69   46.50
  -6  -6   0  110.89   44.10
  -6  -6   0  108.99   48.30
   6   6   0   26.00   38.50
  -6   6   0   62.59   42.20
   6  -6   0   39.30   49.30
   0  -7   0   49.50   34.10
   0  -7   0   32.00   22.50
   0   7   0   -0.90   22.30
   0   7   0   26.50   27.70
   1  -7   0   73.29   27.30
  -1  -7   0   84.79   42.30
   1  -7   0   63.29   35.90
   1   7   0   46.70   32.00
  -1   7   0   33.60   28.30
  -1   7   0   46.90   26.70
   1   7   0  107.99   33.40
   2   7   0   31.10   30.10
  -2   7   0   36.40   27.70
   2  -7   0   58.69   27.50
  -2  -7   0    7.40   33.10
   2   7   0   76.09   37.30
   2  -7   0   62.79   27.10
  -2   7   0   49.20   29.70
   3   7   0    9.50   31.90
   3  -7   0  -45.10   21.00
  -3  -7   0    5.60   34.80
  -3   7   0   21.70   28.30
  -3   7   0   -9.70   30.20
   3   7   0   31.00   30.30
   4   7   0  -12.90   30.70
   4   7   0   50.09   38.60
  -4   7   0   57.19   39.60
  -4   7   0   17.00   32.90
  -4  -7   0  -22.00   36.10
   4  -7   0    9.50   33.50
  -5   7   0  107.09   44.60
  -5   7   0  138.89   46.10
   5  -7   0  119.59   42.50
  -5  -7   0   62.19   41.50
  -5  -7   0  165.18   59.09
   5   7   0   33.40   38.40
   0   8   0   44.60   33.20
   0  -8   0   62.29   41.60
  -1  -8   0   -0.20   43.50
  -1   8   0   41.00   32.40
   1  -8   0   55.19   31.30
   1  -8   0   60.59   38.20
   1   8   0   48.60   33.90
   2  -8   0   56.99   32.20
  -2  -8   0  -30.10   40.30
   2   8   0  -29.40   26.10
  -2   8   0   64.49   37.80
  -3   8   0   28.60   33.90
   3   8   0   -4.80   32.90
   3  -8   0   12.60   31.60
  -3  -8   0   71.89   51.49
  -4  -8   0  -19.90   39.50
   4  -8   0  -41.30   30.10
   4   8   0  -36.20   32.60
  -4   8   0  -15.20   33.90
  -5  -8   0  -14.40   47.50
  -5   8   0  146.09   54.89
   0   9   0   34.20   39.70
   0  -9   0   20.10   41.60
  -1   9   0   25.30   36.30
   1  -9   0   12.20   39.20
  -1  -9   0  -42.70   40.70
   1   9   0   33.00   47.50
  -2  -9   0   19.20   57.89
  -2   9   0   18.30   40.90
   2  -9   0   34.80   36.70
   2   9   0   23.90   44.20
  -3   9   0   22.20   37.20
   3  -9   0   38.30   34.00
  -3  -9   0    6.20   54.39
   3   9   0   35.00   43.00
   0   0  -1    9.30    3.40
   0   0  -1    1.70    3.40
   1   0   1    1.00    5.90
   1   0   1   18.40    7.10
   1   0  -1    7.60    7.70
  -1   0  -1    8.70    7.50
  -1   0  -1    5.40    5.60
   1   0  -1   -3.40    4.90
   1   0  -1    2.40    5.10
   1   0  -1    4.20    6.90
  -2   0  -1 1619.14   88.09
   2   0   1 1505.25   90.79
  -2   0   1 1597.54   88.19
   2   0  -1 1550.94   96.49
   2   0  -1 1491.35   90.29
   2   0   1 1582.84   94.69
  -2   0   1 1535.35   95.99
  -2   0  -1 1499.45   94.79
  -3   0  -1  -12.90   11.90
   3   0   1    8.70   14.80
  -3   0   1   -3.60    8.40
  -3   0   1  -17.80   11.80
   3   0  -1   -3.20   12.80
   3   0  -1   15.10   11.00
   3   0   1    6.40   11.70
  -3   0  -1    4.50    9.10
  -4   0  -1  291.77   36.70
  -4   0  -1  209.28   23.40
   4   0  -1  239.68   30.00
  -4   0   1  216.08   37.80
   4   0   1  236.98   39.40
  -4   0   1  209.48   24.10
   4   0  -1  198.18   37.20
   4   0   1  232.18   28.80
   5   0   1  -18.50   13.90
   5   0  -1   13.60   16.90
   5   0  -1  -26.70   13.90
   5   0   1    2.60   18.40
  -5   0   1   28.60   21.40
  -5   0  -1   26.00   22.60
   6   0  -1  112.09   31.40
   6   0  -1  134.09   42.70
  -6   0   1   41.30   30.10
  -6   0  -1  103.49   39.90
   6   0   1  113.89   40.50
   6   0   1   85.39   29.70
  -7   0  -1   20.30   35.60
   7   0   1   19.10   35.30
   7   0  -1   -0.70   27.20
  -7   0   1  -38.50   26.90
  -8   0  -1   89.39   53.39
   8   0  -1  104.79   54.39
   8   0   1    8.60   40.30
  -8   0   1   14.90   38.60
   0   1  -1    0.30    4.40
   0  -1  -1   10.70    6.20
   0   1   1    9.10    6.00
   0  -1   1   -2.00    4.40
   0  -1   1    8.60    6.30
   0  -1  -1  -11.00    5.90
   0   1  -1    2.00    6.50
   1  -1   1 2608.34  138.39
  -1  -1  -1 2278.67  140.69
  -1  -1  -1 2627.44  139.09
   1   1  -1 2536.35  142.09
   1   1  -1 2557.84  140.79
  -1   1   1 2569.64  138.69
   1  -1   1 2435.76  140.59
  -1   1  -1 2529.75  141.39
   1  -1  -1 2559.64  142.09
  -1  -1   1 2567.34  141.09
   1   1   1 2656.53  136.29
   1  -1  -1 2401.46  135.09
   1   1   1 2700.63  141.89
   1  -1  -1 2424.66  140.59
  -1   1  -1 2506.35  136.29
   2   1  -1  160.98   22.50
   2   1  -1  151.98   14.80
   2  -1   1  162.68   21.30
  -2  -1  -1  137.19   21.40
  -2  -1  -1  147.89   21.70
  -2   1   1  125.89   21.50
   2   1  -1  170.28   24.20
   2  -1   1  147.69   22.60
   2  -1  -1  118.39   20.60
   2   1   1  144.29   21.50
   2   1   1  156.58   16.30
  -2   1  -1  138.59   23.60
   2  -1  -1  127.39   22.50
  -2  -1   1  149.09   19.40
  -3  -1  -1  107.69   20.80
   3  -1   1   90.89   20.90
  -3   1   1  104.29   24.00
   3   1  -1   81.09   15.50
   3  -1   1  107.19   25.40
  -3  -1  -1   98.79   23.70
   3   1  -1  129.89   26.70
   3  -1  -1   70.19   21.90
   3   1   1   97.49   16.70
  -3  -1   1  112.89   21.20
   3   1   1  103.29   25.60
  -3  -1   1  134.29   28.00
   3  -1  -1   72.39   19.80
  -3   1  -1  102.29   25.00
   4  -1   1  369.66   47.70
  -4  -1  -1  485.15   41.60
   4   1  -1  564.84   41.40
   4   1  -1  406.16   49.90
  -4  -1  -1  475.65   49.00
  -4   1   1  387.86   47.50
   4  -1   1  419.76   44.10
  -4  -1   1  437.16   40.50
  -4   1  -1  540.35   53.39
   4  -1  -1  444.06   50.59
   4  -1  -1  570.34   48.10
   4   1   1  506.25   40.70
  -4  -1   1  443.36   49.50
   4   1   1  409.36   50.29
   5  -1   1  106.59   32.00
  -5  -1  -1  136.89   28.30
  -5  -1  -1  154.68   35.30
   5  -1   1  190.38   33.80
   5   1  -1  226.58   29.60
   5   1  -1  110.79   33.90
  -5   1   1  146.09   34.80
   5   1   1  135.89   26.70
  -5  -1   1   87.29   31.20
  -5   1  -1  104.49   32.90
   5  -1  -1   92.49   32.00
   5   1   1  184.18   41.40
  -5  -1   1  183.28   31.80
   5  -1  -1  201.38   35.40
   6  -1   1   22.90   23.70
   6  -1   1   25.20   27.20
  -6  -1  -1    7.80   24.60
  -6   1   1   19.20   26.70
   6   1  -1   87.69   35.50
   6  -1  -1   33.40   25.90
   6  -1  -1   52.29   32.20
   6   1   1   80.79   29.10
  -6   1  -1   53.99   31.60
   6   1   1   -2.00   26.30
  -6  -1   1   14.50   29.70
  -7   1   1  270.87   58.09
   7  -1   1  225.88   55.49
  -7  -1  -1  162.18   52.59
   7  -1   1  210.58   42.70
   7   1  -1  154.18   54.99
   7  -1  -1  317.17   63.39
   7  -1  -1  259.87   50.79
  -7   1  -1  178.38   52.09
  -7  -1   1  317.37   62.89
   7   1   1  282.97   63.59
  -8   1   1   22.20   33.30
   8  -1   1  -10.10   40.20
  -8  -1  -1  -29.90   42.20
   8   1  -1   -7.30   33.90
   8  -1  -1  -29.10   31.50
  -8   1  -1   42.90   39.70
   8   1   1  -11.30   45.60
  -8  -1   1   -4.90   43.30
   0   2  -1  -11.60    7.80
   0  -2  -1   -5.50    9.20
   0  -2  -1    6.10    8.50
   0   2   1   -1.30    5.80
   0  -2   1   11.30    7.90
   0   2   1   -3.80    9.40
   0  -2   1   -6.20    9.50
   0   2  -1    7.80    8.00
  -1  -2  -1  612.64   38.90
   1   2  -1  687.73   46.90
  -1   2   1  647.54   45.90
   1  -2   1  591.54   44.90
  -1   2   1  641.54   41.60
  -1  -2  -1  515.35   46.20
   1   2  -1  685.23   45.60
   1  -2   1  621.54   43.10
   1  -2  -1  604.24   45.80
   1   2   1  550.04   41.20
   1   2   1  637.14   46.20
   1  -2  -1  561.74   42.00
  -1   2  -1  707.23   43.70
  -1  -2   1  532.95   46.50
  -1   2  -1  633.94   45.70
  -2  -2  -1  358.76   37.00
   2  -2   1  288.17   33.80
  -2   2   1  388.36   34.20
   2  -2   1  316.47   32.20
   2   2  -1  391.56   36.70
   2  -2   1  340.37   26.40
   2   2  -1  341.87   35.10
   2  -2  -1  321.77   35.90
   2   2   1  342.57   35.60
   2   2   1  356.76   33.00
   2   2   1  414.06   25.70
  -2   2  -1  287.07   34.00
  -2  -2   1  369.96   35.90
   2  -2  -1  344.07   34.90
  -3  -2  -1  161.88   28.90
   3  -2   1  143.09   27.70
   3   2  -1  125.79   27.90
  -3   2   1  169.38   29.40
  -3  -2  -1   96.09   26.70
   3   2  -1  182.28   32.80
   3  -2   1  160.78   29.30
   3   2   1  135.59   18.00
  -3   2  -1  161.78   30.80
   3   2   1  149.79   28.80
  -3  -2   1  168.78   30.00
   3  -2  -1  199.98   32.30
   3  -2  -1  175.38   32.40
  -4   2   1  167.38   35.90
  -4  -2  -1  185.88   32.50
  -4  -2  -1  229.58   38.40
   4  -2   1  232.88   40.40
   4   2  -1  234.98   23.80
   4   2  -1  192.08   39.30
   4  -2   1  162.38   32.90
  -4  -2   1  238.78   33.00
   4   2   1  178.98   39.60
  -4   2  -1  259.77   42.30
   4   2   1  215.78   25.00
  -4  -2   1  222.68   40.50
   4  -2  -1  212.88   40.40
   4  -2  -1  147.49   33.10
  -5   2   1  215.98   46.50
   5   2  -1  196.28   44.30
   5  -2   1  346.27   46.10
  -5  -2  -1  331.07   42.60
   5  -2   1  328.17   47.80
  -5  -2  -1  358.16   53.59
  -5  -2   1  333.37   48.60
  -5  -2   1  306.17   43.50
   5   2   1  257.57   52.29
  -5   2  -1  361.76   57.19
   5   2   1  321.37   35.90
   5  -2  -1  334.17   46.10
   5  -2  -1  341.27   50.39
  -6   2   1   13.20   26.40
   6   2  -1   36.00   27.40
   6  -2   1  -17.90   21.00
   6  -2   1   13.00   22.60
  -6  -2  -1  -36.90   20.90
  -6   2  -1  -24.70   22.10
   6  -2  -1   -8.50   25.00
   6  -2  -1    1.60   22.40
   6   2   1   27.90   31.50
  -6  -2   1   45.40   34.40
  -7  -2  -1   29.60   33.80
   7  -2   1   82.09   33.40
   7   2  -1   38.50   37.00
   7  -2   1    1.60   24.60
  -7   2   1   54.79   41.40
  -7  -2   1   36.50   38.50
   7  -2  -1    2.80   30.00
   7  -2  -1   58.29   33.30
   7   2   1   17.80   35.80
  -7   2  -1   31.50   38.20
   8   2  -1   -2.20   41.60
   8  -2   1   21.50   37.20
  -8  -2  -1    6.70   46.30
  -8   2   1    7.80   36.50
   8  -2   1    9.90   32.40
   8  -2  -1    5.80   39.20
   8   2   1   39.70   49.30
  -8   2  -1    7.20   42.70
   8  -2  -1   -4.40   35.20
  -8  -2   1   25.90   45.60
   0   3  -1   -4.70    9.90
   0   3   1   -5.50   10.20
   0   3  -1  -10.60    8.10
   0  -3  -1  -10.00   12.90
   0  -3   1    8.40   13.50
   0  -3   1    7.00   10.20
   0   3   1    3.90    8.40
   0  -3  -1   12.20   11.00
  -1  -3  -1   24.40   10.10
  -1  -3  -1   30.20   16.60
  -1   3   1   38.60   14.50
  -1   3   1   31.50   13.60
   1   3  -1   26.30   14.10
   1  -3   1   10.30   12.70
   1  -3   1   29.00   14.30
   1   3  -1   39.10   16.90
  -1   3  -1    8.10   14.40
   1   3   1   12.00   11.60
   1   3   1   14.80   14.00
  -1  -3   1    4.00   14.30
   1  -3  -1   19.20   13.60
  -1   3  -1   36.70   13.40
   1  -3  -1   35.50   14.40
  -1  -3   1    7.60    7.50
   2  -3   1  990.80   64.09
  -2   3   1  693.43   69.79
   2  -3   1 1042.60   74.99
   2   3  -1  974.20   72.09
  -2  -3  -1 1126.79   79.29
   2   3  -1  998.50   72.59
  -2   3   1 1037.30   68.89
   2   3   1  994.50   58.29
  -2  -3   1 1069.59   77.09
  -2   3  -1  985.50   72.09
  -2   3  -1  957.40   70.59
   2   3   1 1091.59   70.09
   2  -3  -1  977.40   63.79
   2   3   1  961.40   72.79
   2  -3  -1  991.80   74.79
  -3  -3  -1   66.09   21.00
  -3   3   1   44.70   20.90
   3   3  -1   21.20   17.00
   3  -3   1   51.89   19.10
  -3  -3  -1   38.10   21.30
   3  -3   1   55.29   22.90
   3   3  -1   62.79   22.10
   3   3   1   39.80   20.70
   3  -3  -1   43.10   19.50
   3   3   1   47.80   11.10
   3  -3  -1   62.29   23.30
  -3   3  -1   12.40   18.80
  -3  -3   1   34.20   22.70
   4   3  -1 1101.59   93.39
   4   3  -1 1165.48   93.59
  -4  -3  -1 1433.56   94.89
   4  -3   1 1089.19   92.59
  -4  -3  -1 1406.16   95.39
   4  -3   1 1137.59   91.19
  -4   3   1 1235.48   92.39
   4  -3  -1 1266.67   94.89
   4  -3  -1 1122.89   95.29
   4   3   1  897.71   88.39
  -4  -3   1 1212.78   89.49
  -4   3  -1 1147.99   93.59
   5  -3   1   56.19   28.80
  -5   3   1   12.60   24.70
   5  -3   1   13.70   28.50
  -5  -3  -1   59.09   29.10
   5   3  -1   21.90   25.30
  -5  -3  -1   50.39   27.30
  -5  -3   1   36.50   27.90
   5   3   1   13.60   25.00
   5  -3  -1   34.10   31.40
   5  -3  -1   31.20   30.80
  -5   3  -1   24.60   29.30
  -5  -3   1   76.39   33.90
  -6  -3  -1    4.80   32.00
   6   3  -1   19.70   31.20
  -6  -3  -1   10.30   28.50
   6  -3   1   36.50   30.90
  -6   3   1   57.09   33.40
   6  -3   1   36.60   32.20
   6   3   1    0.80   26.20
  -6   3  -1  -48.50   24.90
  -6  -3   1    8.80   30.70
   6  -3  -1   35.10   31.40
   6  -3  -1   21.70   31.60
  -6  -3   1   37.90   33.20
   7  -3   1   -5.30   30.30
  -7  -3  -1  -19.50   31.50
   7   3  -1   34.90   31.80
   7  -3   1    4.10   31.60
  -7   3   1   32.40   35.70
   7  -3  -1   14.00   33.90
  -7   3  -1    4.00   35.20
   7   3   1   32.50   38.80
  -7  -3   1   -1.40   42.50
   7  -3  -1  -22.90   28.80
  -8  -3  -1    3.30   46.50
  -8  -3   1   56.69   50.79
   0  -4  -1  -10.80   18.70
   0   4  -1   -6.50   11.90
   0  -4  -1   -5.30   11.40
   0  -4   1    2.30   12.20
   0  -4   1    9.60   18.50
   0   4  -1    8.00   13.40
   0   4   1    1.70   15.20
   0   4   1   14.60   10.80
   1   4  -1  852.41   63.39
   1  -4   1  892.51   64.79
  -1  -4  -1  758.72   67.49
   1   4  -1  744.93   60.69
  -1  -4  -1  726.43   52.49
  -1   4   1  746.93   56.19
  -1   4   1  689.03   61.29
   1  -4   1  776.42   60.19
   1   4   1  839.32   65.59
  -1  -4   1  749.13   50.09
  -1   4  -1  725.23   60.79
   1  -4  -1  712.23   59.89
  -1  -4   1  870.61   70.39
   1  -4  -1  761.12   60.99
   1   4   1  811.82   57.09
  -1   4  -1  821.52   60.99
   2  -4   1  310.17   40.30
   2   4  -1  274.67   36.40
  -2  -4  -1  277.47   25.70
  -2  -4  -1  270.57   44.50
  -2   4   1  291.47   35.80
   2   4  -1  316.37   38.70
  -2   4   1  281.37   37.20
   2  -4   1  308.17   34.00
   2   4   1  279.27   34.60
   2  -4  -1  266.87   38.30
   2   4   1  289.87   39.70
   2  -4  -1  302.57   32.20
  -2  -4   1  330.87   43.40
  -2   4  -1  267.87   37.40
  -2   4  -1  359.76   36.80
  -3   4   1    7.50   18.40
  -3   4   1   16.80   17.60
  -3  -4  -1   -7.70   21.60
   3  -4   1   15.30   18.40
   3   4  -1   -6.60   15.60
   3   4  -1   29.20   19.40
   3  -4   1   -4.60   11.10
   3   4   1   -9.00   15.80
  -3   4  -1    7.80   17.30
   3  -4  -1   15.90   18.20
  -3   4  -1   37.70   21.70
  -3  -4   1  -24.70   16.90
   3  -4  -1   -6.80   12.10
   3   4   1   -9.00   16.60
   4   4  -1    1.60   21.10
   4   4  -1   19.90   22.30
   4  -4   1   26.80   23.00
  -4   4   1    3.40   22.80
  -4  -4  -1   18.70   22.60
  -4   4   1   42.40   25.80
  -4  -4  -1    7.10   26.80
  -4  -4   1   -1.00   22.70
   4  -4  -1   70.79   33.00
  -4   4  -1   51.19   26.00
   4   4   1   20.70   20.80
  -4   4  -1   50.09   26.00
   5  -4   1  184.68   44.10
   5   4  -1  125.19   39.50
  -5  -4  -1  268.77   52.69
  -5   4   1  275.07   52.19
  -5  -4  -1  205.38   46.00
   5  -4   1  209.18   44.40
   5   4   1  133.49   37.70
   5  -4  -1  160.58   41.60
  -5   4  -1  211.78   46.80
  -5  -4   1  303.77   55.19
  -5  -4   1  256.27   51.49
   5  -4  -1  177.18   47.90
  -6   4   1   21.30   30.70
   6  -4   1   12.70   31.20
  -6  -4  -1    4.50   35.70
   6   4  -1   24.00   32.30
  -6  -4  -1   61.69   37.10
   6  -4   1   25.80   31.30
  -6  -4   1  -20.10   32.30
  -6  -4   1   -5.50   32.40
  -6   4  -1  100.89   45.50
   6   4   1   20.60   26.80
   6  -4  -1   40.20   32.10
   6  -4  -1   22.10   35.10
   7  -4   1   82.39   41.60
  -7  -4  -1  113.39   51.39
  -7   4   1   59.19   42.50
   7  -4   1  110.39   46.40
   7   4  -1   61.69   48.10
  -7   4  -1   15.20   41.20
   7  -4  -1  160.68   47.20
   7  -4  -1  163.38   50.39
   7   4   1   60.59   39.80
  -7  -4   1   85.99   47.40
   0   5  -1  -15.10   14.80
   0   5   1  -19.80   14.50
   0  -5  -1   11.80   21.60
   0   5   1    9.00   14.00
   0  -5  -1    1.50   13.70
   0  -5   1  -13.50   17.40
   0  -5   1   15.10   16.40
   0   5  -1    4.90   14.70
  -1   5   1  774.82   60.79
   1   5  -1  816.32   67.39
   1  -5   1  826.82   67.29
   1  -5   1  798.02   70.89
  -1   5   1  854.31   71.49
   1   5  -1  870.31   70.59
  -1  -5  -1  682.23   72.99
  -1  -5  -1  826.42   58.49
  -1  -5   1  904.11   57.49
  -1  -5   1  898.21   77.89
  -1   5  -1  829.12   69.09
   1   5   1  823.92   63.79
   1  -5  -1  748.73   68.09
   1  -5  -1  795.12   65.89
  -1   5  -1  842.42   67.39
   1   5   1  822.42   71.99
   2  -5   1  293.67   35.70
  -2   5   1  261.57   38.50
  -2  -5  -1  254.97   49.30
   2   5  -1  260.77   38.70
   2  -5   1  301.57   40.00
  -2   5   1  228.08   36.00
  -2  -5  -1  254.97   29.70
   2   5  -1  254.27   37.50
   2  -5  -1  232.38   39.90
   2  -5  -1  286.27   34.70
   2   5   1  292.27   36.30
  -2   5  -1  347.67   44.60
  -2  -5   1  245.18   45.40
   2   5   1  266.97   40.50
  -2   5  -1  274.07   38.30
  -3   5   1   33.40   23.30
   3  -5   1   14.80   20.90
  -3  -5  -1   25.60   29.00
   3   5  -1   22.10   18.90
  -3   5   1  -20.20   18.10
   3   5  -1   26.50   21.60
   3   5   1  -13.80   16.20
  -3   5  -1   -2.00   17.00
  -3  -5   1   -5.30   25.00
  -3   5  -1   41.00   27.20
   3   5   1   70.79   26.00
   3  -5  -1   22.40   23.70
  -4  -5  -1   83.39   35.40
  -4   5   1   54.49   31.00
   4  -5   1  112.29   35.40
  -4   5   1  153.88   40.10
   4   5  -1  103.59   33.10
  -4  -5  -1   92.99   29.70
   4   5  -1   98.59   32.10
   4   5   1   63.99   30.50
   4  -5  -1   73.39   34.80
  -4  -5   1  112.69   34.80
  -4   5  -1   68.39   31.90
  -4   5  -1   65.59   28.50
   5   5  -1  123.79   39.10
  -5   5   1   79.19   36.30
  -5   5   1   90.39   41.20
  -5  -5  -1  140.09   43.00
   5  -5   1   66.09   35.70
  -5  -5  -1   82.19   37.90
  -5   5  -1   65.09   37.80
   5  -5  -1   74.29   40.00
   5   5   1   72.09   35.70
  -5  -5   1  116.49   40.70
  -5  -5   1   78.19   35.50
  -5   5  -1  174.08   45.80
  -6   5   1  -12.30   31.90
  -6  -5  -1  -30.70   31.80
   6  -5   1  -29.00   32.70
  -6   5   1   58.39   38.50
   6   5  -1    8.60   36.40
  -6  -5  -1   53.69   37.30
   6  -5  -1   54.19   37.60
  -6  -5   1   59.99   41.30
  -6   5  -1  -35.30   27.30
   6   5   1   18.40   29.50
  -6  -5   1   85.09   41.30
  -6   5  -1  -44.40   28.70
  -7   5   1  148.29   53.79
  -7  -5  -1  137.59   53.69
   7  -5   1  132.19   53.49
   7   5  -1   75.49   50.69
  -7   5   1   23.60   39.90
   7   5   1   -8.40   28.00
   7  -5  -1  165.38   55.39
  -7   5  -1   29.60   39.60
  -7   5  -1  122.89   51.69
  -7  -5   1   25.50   42.20
   0   6   1   -5.50   16.60
   0  -6  -1   16.20   26.30
   0  -6   1  -17.70   15.20
   0   6  -1   -8.00   14.40
   0  -6   1  -71.49   16.90
   0  -6  -1   21.60   17.60
   0   6  -1    7.20   17.70
   0   6   1   19.90   20.20
  -1  -6  -1  121.39   39.20
  -1  -6  -1  119.29   24.70
   1  -6   1  146.39   34.70
   1  -6   1   78.89   28.60
  -1   6   1  110.39   27.00
   1   6  -1   55.79   26.00
  -1   6   1  164.78   37.10
   1   6  -1  117.99   30.30
   1   6   1   88.19   25.60
   1  -6  -1  130.59   29.50
   1   6   1   66.89   29.40
   1  -6  -1  153.48   35.70
  -1   6  -1  117.09   33.70
  -1  -6   1   94.09   21.20
  -1   6  -1  140.39   32.70
  -1  -6   1  140.19   40.00
  -2  -6  -1  360.96   64.19
   2  -6   1  329.67   46.00
   2   6  -1  246.78   46.90
  -2   6   1  439.96   50.99
  -2   6   1  388.76   50.79
   2  -6   1  376.26   49.40
   2   6  -1  313.37   48.30
   2   6   1  418.56   54.79
  -2   6  -1  357.46   47.70
   2  -6  -1  367.76   47.90
   2  -6  -1  310.97   47.20
   2   6   1  475.85   48.20
  -2   6  -1  434.56   54.89
  -2  -6   1  309.97   55.99
   3   6  -1   21.60   24.90
   3  -6   1   13.90   26.30
   3   6  -1   48.00   27.40
  -3   6   1  -41.70   23.70
  -3  -6  -1   25.10   32.40
  -3   6   1   38.40   26.10
  -3   6  -1   -1.30   19.60
  -3  -6   1   29.00   29.50
   3   6   1   -2.60   22.50
  -3   6  -1    0.50   27.00
   3  -6  -1   26.60   24.60
   3   6   1   26.80   25.00
  -4  -6  -1  291.27   49.10
   4  -6   1  274.87   52.49
  -4   6   1  245.98   53.09
  -4   6   1  259.07   49.20
   4   6  -1  107.89   35.30
   4   6  -1  156.88   42.50
  -4  -6  -1  310.17   60.49
  -4   6  -1  304.47   51.79
  -4  -6   1  287.07   59.09
   4  -6  -1  166.98   44.90
   4   6   1  173.28   45.10
  -4   6  -1  313.97   56.09
  -5   6   1   58.39   40.20
   5   6  -1   44.80   36.20
  -5  -6  -1  -15.00   31.40
  -5  -6  -1  116.79   44.50
   5  -6   1   27.80   33.50
   5   6  -1   82.39   36.30
  -5   6   1   24.30   40.20
  -5   6  -1   55.59   33.30
   5  -6  -1   72.09   37.90
  -5   6  -1   28.90   34.30
  -5  -6   1   58.59   43.20
   5   6   1   96.39   39.40
   6   6  -1  -14.20   36.30
   6  -6   1    4.50   40.40
  -6   6   1   41.90   43.20
  -6   6   1  -24.60   38.20
  -6  -6  -1   62.49   45.00
  -6  -6  -1   54.69   40.90
  -6  -6   1    6.40   36.10
  -6   6  -1   -0.90   35.20
  -6  -6   1   14.00   43.30
  -6   6  -1   40.00   46.70
   6   6   1   12.60   34.70
   6  -6  -1    4.50   42.30
   0  -7   1   13.80   19.80
   0  -7  -1    2.00   18.80
   0   7  -1  -17.20   21.20
   0   7  -1    3.30   25.00
   0   7   1   -6.60   23.90
   0  -7  -1  -10.00   28.90
   0  -7   1  -27.90   24.10
   1  -7   1  257.47   43.60
   1   7  -1  286.07   52.49
  -1   7   1  197.28   46.60
  -1  -7  -1  216.88   54.99
   1   7  -1  321.37   50.79
   1  -7   1  228.08   43.40
   1  -7  -1  280.87   44.80
  -1  -7   1  234.58   53.39
  -1   7  -1  244.28   47.80
   1  -7  -1  247.68   48.20
  -1   7  -1  292.27   47.50
   1   7   1  257.17   50.89
   2   7  -1   76.29   36.80
   2  -7   1  167.58   40.30
  -2   7   1   89.59   34.90
   2   7  -1   74.89   35.20
  -2  -7  -1   84.59   43.20
   2  -7   1   50.79   29.30
   2  -7  -1   66.49   28.60
   2   7   1   21.20   29.60
  -2  -7   1   33.40   36.20
  -2   7  -1  110.99   33.70
   2  -7  -1  105.39   31.20
  -2   7  -1  172.68   40.50
   3   7  -1    9.20   26.20
  -3   7   1   70.49   33.60
   3  -7   1  -13.30   27.10
   3   7  -1   -8.70   24.90
  -3  -7  -1  -12.80   31.60
   3   7   1    5.70   25.30
  -3   7  -1    5.20   23.90
  -3  -7   1   16.70   31.80
  -3   7  -1  -17.00   29.40
   3  -7  -1   27.80   30.70
  -4   7   1   65.59   38.10
   4   7  -1  112.99   39.40
  -4  -7  -1  103.09   47.20
   4  -7   1  121.79   44.80
   4   7  -1   78.89   37.40
  -4   7  -1   70.69   36.00
  -4   7  -1   82.79   45.20
   4   7   1   83.59   39.60
   4  -7  -1  135.79   45.30
  -4  -7   1  140.19   50.99
   5   7  -1  116.69   43.40
  -5   7   1  104.79   49.99
   5   7  -1   91.09   47.60
  -5  -7  -1  107.69   46.10
   5  -7   1   78.39   44.10
  -5   7  -1   65.49   37.20
  -5   7  -1   76.89   46.50
  -5  -7   1   97.99   51.99
   5   7   1   90.49   45.30
   5  -7  -1   36.30   41.50
   0   8  -1   18.00   29.30
   0  -8   1    7.30   33.50
   0  -8  -1  -31.60   32.80
   0   8   1   -2.90   28.70
  -1   8   1  172.98   48.20
  -1  -8  -1  139.29   56.09
   1  -8   1  116.29   35.70
   1  -8   1  114.79   43.30
   1   8  -1  158.08   49.40
   1   8  -1  117.59   49.40
   1  -8  -1  119.39   41.00
   1  -8  -1  195.88   41.20
  -1  -8   1  119.49   53.19
   1   8   1  132.69   46.70
  -1   8  -1   51.19   33.10
   2   8  -1  104.99   41.70
   2   8  -1   86.29   41.00
  -2  -8  -1   11.80   45.80
  -2   8   1  126.39   43.60
   2  -8   1   80.69   36.90
   2   8   1   99.29   41.10
  -2   8  -1   50.29   34.20
   2  -8  -1   83.49   34.50
  -2  -8   1   93.39   47.00
   3   8  -1   31.00   38.90
  -3   8   1    4.50   29.20
  -3  -8  -1  -60.29   40.90
   3   8  -1  -22.90   31.80
   3  -8   1   17.10   28.40
   3  -8  -1  -24.30   28.30
  -3   8  -1  -30.60   26.10
  -3  -8   1   70.29   47.10
   3   8   1  -11.50   32.60
   4  -8   1  135.49   46.20
   4   8  -1   66.39   56.69
  -4   8   1   63.09   42.40
   4   8  -1   45.60   42.30
  -4  -8  -1   68.69   47.20
   4  -8  -1   71.89   40.90
  -4  -8   1  107.59   54.99
  -4   8  -1   74.09   39.70
   4   8   1   51.89   40.40
  -5   8   1   -9.60   44.10
   0  -9  -1   17.80   36.80
   0   9   1  -14.40   35.30
   0  -9   1   -9.50   41.00
   0   9  -1   11.10   34.50
  -1   9   1   55.79   42.00
  -1  -9  -1    6.80   50.29
   1   9  -1   13.00   39.80
   1  -9   1   -7.70   39.80
   1  -9  -1   54.09   39.70
  -1   9  -1   49.50   41.00
  -1  -9   1   43.10   47.60
   1   9   1   33.90   44.80
  -2  -9  -1  136.89   65.89
   2   9  -1  110.09   47.20
   2  -9   1  166.28   43.10
  -2   9   1   11.50   39.00
  -2   9  -1   85.19   40.80
   2  -9  -1  132.19   40.80
  -2  -9   1   87.49   58.69
   2   9   1  149.39   58.59
   3  -9   1  -29.80   30.10
  -3   9   1   -0.90   37.20
  -3  -9  -1   37.50   52.29
   3   9  -1   -1.70   41.00
   3   9   1  -11.30   42.70
  -3   9  -1  -24.30   32.90
  -3  -9   1  -39.40   51.39
   3  -9  -1    2.90   32.70
   0   0  -2 6278.27  336.17
   0   0   2 6607.54  333.77
   0   0  -2 6389.06  339.17
   0   0   2 6188.28  336.47
   1   0  -2   -1.90    7.60
   1   0   2  -12.90    5.40
  -1   0  -2    4.90    7.40
   1   0   2   -2.40    6.70
   1   0  -2   11.20    9.20
   1   0  -2   10.20    7.70
   1   0  -2    2.40    8.60
  -1   0  -2   -3.90    8.10
   2   0  -2 4524.75  253.57
   2   0  -2 4826.02  262.07
   2   0   2 4871.71  257.67
  -2   0   2 4789.22  252.77
   2   0  -2 4587.14  260.37
   2   0   2 4715.83  256.17
  -2   0  -2 4616.54  260.57
  -2   0  -2 4653.63  253.27
  -3   0   2   -7.30   10.30
   3   0   2   -3.10   10.90
  -3   0   2    3.40   14.60
   3   0  -2   -3.60   14.10
  -3   0  -2  -16.50   13.00
   3   0  -2   24.90   12.90
  -3   0  -2  -12.70    9.70
   3   0   2    9.00   13.30
   4   0   2 1143.59   91.89
  -4   0  -2 1330.47   80.69
   4   0  -2 1403.76   86.69
  -4   0   2 1296.37   95.49
  -4   0   2 1300.87   80.49
   4   0   2 1312.67   86.59
   4   0  -2 1144.19   94.49
  -4   0  -2 1240.18   93.89
  -5   0   2   -7.30   20.90
   5   0  -2  -26.80   16.90
   5   0   2   -5.00   14.20
  -5   0  -2    2.80   19.90
   5   0  -2   14.70   17.60
   5   0   2    5.50   22.50
  -6   0   2  562.94   67.99
   6   0  -2  481.75   68.69
  -6   0  -2  597.44   70.29
   6   0   2  518.35   67.49
   6   0   2  656.73   60.39
   6   0  -2  625.14   58.19
  -7   0  -2   33.00   38.90
   7   0   2   71.79   32.00
  -7   0   2   17.30   28.40
   7   0   2  -10.10   31.50
   7   0  -2    3.20   31.20
  -8   0   2  115.49   49.50
   8   0   2    0.30   40.40
   8   0  -2   77.89   47.70
  -8   0  -2   92.19   52.29
   0  -1   2 1537.05   86.79
   0   1  -2 1575.94   90.89
   0   1  -2 1549.34   90.19
   0  -1  -2 1633.54   89.29
   0  -1  -2 1508.45   89.79
   0   1  -2 1524.85   83.99
   1  -1   2  440.06   33.00
  -1  -1  -2  408.86   33.20
   1   1  -2  432.46   35.90
   1  -1   2  424.26   27.40
  -1   1   2  391.26   29.50
  -1  -1  -2  428.36   30.20
   1   1  -2  394.16   31.20
   1  -1  -2  419.36   33.10
   1  -1  -2  380.96   32.40
  -1   1  -2  394.06   29.80
  -1  -1   2  425.66   33.30
   1  -1  -2  442.06   29.80
   1   1   2  472.05   30.90
   1   1   2  402.26   31.90
  -1   1  -2  427.56   34.60
  -2  -1  -2  182.18   22.90
   2  -1   2  196.38   23.50
  -2  -1  -2  174.08   22.80
   2   1  -2  163.58   24.30
   2   1  -2  155.98   16.40
   2   1  -2  156.88   26.30
  -2   1   2  175.68   23.30
   2  -1   2  227.38   24.60
   2  -1  -2  165.08   16.90
  -2  -1   2  223.38   23.70
  -2   1  -2  183.18   18.20
   2   1   2  190.28   24.50
   2  -1  -2  154.98   24.20
   2  -1  -2  233.48   25.20
  -2   1  -2  188.98   25.70
   2   1   2  194.48   20.10
   3  -1   2 1735.13  109.19
  -3  -1  -2 1731.13  106.19
   3   1  -2 1726.83  115.69
  -3  -1  -2 1654.13  109.79
   3   1  -2 1759.42  114.49
   3  -1   2 1851.21  112.69
   3   1  -2 1800.42  100.29
  -3   1   2 1705.63  111.79
  -3   1  -2 1708.03   98.29
   3   1   2 1759.92  114.49
  -3   1  -2 1666.33  114.29
   3  -1  -2 1611.14  116.19
   3  -1  -2 1786.52  109.49
  -3  -1   2 1718.03  106.39
   3   1   2 1715.03  104.29
  -4  -1  -2  151.58   26.70
   4   1  -2  173.78   34.00
  -4  -1  -2  185.58   33.20
   4   1  -2  140.29   22.10
   4  -1   2  171.58   30.10
  -4   1   2  150.08   32.40
   4  -1   2  177.98   35.00
   4  -1  -2  197.28   33.10
  -4  -1   2  154.48   28.00
   4  -1  -2  178.58   36.10
   4   1   2  129.99   23.90
  -4   1  -2  172.98   36.30
  -4  -1   2  163.48   35.20
   4   1   2  188.58   36.90
  -5  -1  -2  296.77   47.30
  -5  -1  -2  221.98   31.40
  -5   1   2  188.68   40.10
   5   1  -2  261.17   32.30
   5   1  -2  210.88   46.10
   5  -1   2  201.08   36.00
   5  -1   2  184.38   38.30
  -5   1  -2  237.78   47.20
   5   1   2  266.97   33.30
  -5  -1   2  200.68   33.20
   5   1   2  268.07   49.40
  -5  -1   2  160.48   38.50
   5  -1  -2  285.17   50.89
   5  -1  -2  318.37   40.80
   6  -1   2  109.89   32.80
  -6  -1  -2  120.89   41.10
   6  -1   2  145.89   41.30
  -6   1   2  109.49   38.20
   6   1  -2  155.78   44.50
   6   1   2  154.78   43.50
   6  -1  -2  193.78   36.40
  -6   1  -2  115.69   41.90
   6   1   2  135.89   30.60
   6  -1  -2  176.28   43.90
  -6  -1   2  196.78   46.00
  -7  -1  -2   60.49   41.10
   7   1  -2   45.40   39.90
   7  -1   2   79.19   36.70
   7  -1   2    4.10   27.10
  -7   1   2   58.79   41.90
  -7  -1   2   22.70   31.00
   7  -1  -2   75.29   34.50
   7  -1  -2   54.89   37.60
   7   1   2   22.30   34.50
  -7   1  -2   88.79   40.10
   8   1  -2    0.70   38.00
  -8  -1  -2   52.49   48.90
   8  -1   2   -8.90   41.70
  -8   1   2   55.59   42.80
   8  -1  -2    7.30   37.10
   8   1   2  -33.90   38.40
  -8   1  -2   88.39   48.50
  -8  -1   2   30.50   38.20
   0  -2  -2  589.24   42.50
   0  -2  -2  649.93   45.60
   0   2  -2  525.55   39.20
   0   2   2  616.14   44.50
   0  -2   2  657.03   40.80
   0   2  -2  620.24   45.90
   0  -2   2  605.04   44.40
   1   2  -2 4574.84  245.58
  -1  -2  -2 4414.76  244.58
  -1   2   2 4419.86  234.48
   1  -2   2 4209.18  237.78
   1   2  -2 4446.56  240.28
  -1  -2  -2 4176.98  234.68
   1  -2   2 4427.26  241.38
  -1   2   2 4609.14  244.18
  -1  -2  -2 4357.16  237.38
  -1  -2   2 4318.67  243.58
  -1   2  -2 4404.36  244.28
   1  -2  -2 4177.58  241.48
   1   2   2 4511.75  243.58
  -1   2  -2 4310.17  235.78
   1  -2  -2 4478.85  237.98
  -2   2   2  129.29   21.40
  -2  -2  -2  125.89   20.50
   2   2  -2  143.69   25.10
   2   2  -2  162.48   27.20
   2  -2   2  158.48   17.50
   2  -2   2  204.28   26.10
   2  -2   2  152.08   20.70
  -2  -2  -2  147.29   25.60
   2   2   2  132.49   17.20
  -2   2  -2  147.69   25.70
  -2  -2   2  184.68   25.50
   2  -2  -2  119.09   15.80
   2  -2  -2  148.19   23.60
   2  -2  -2  107.49   22.90
   2   2   2  184.38   25.00
   3  -2   2 1329.77  102.49
   3  -2   2 1664.53  105.49
  -3  -2  -2 1648.54  104.59
  -3   2   2 1644.44  106.09
   3   2  -2 1581.04  109.99
   3   2  -2 1467.35  107.49
  -3  -2  -2 1556.14  103.19
   3  -2  -2 1614.04  106.29
   3   2   2 1652.33   95.39
  -3  -2   2 1685.63  104.69
   3   2   2 1554.84  108.29
   3  -2  -2 1678.93  111.79
  -3   2  -2 1597.84  109.99
   4  -2   2   10.40   16.80
   4  -2   2   54.39   22.40
  -4  -2  -2   41.40   19.00
  -4  -2  -2   59.79   22.40
   4   2  -2   88.39   28.60
   4   2  -2   17.40   18.20
  -4   2   2   37.50   21.20
   4   2  -2   30.40   11.70
   4  -2  -2   36.30   24.50
   4   2   2   31.40   15.00
  -4   2  -2    4.00   19.00
   4   2   2   40.50   23.10
   4  -2  -2   16.20   20.70
  -4  -2   2    3.00   16.60
   5  -2   2  535.15   60.79
   5  -2   2  593.34   59.49
   5   2  -2  550.74   68.39
  -5   2   2  537.05   63.39
  -5  -2  -2  550.44   55.29
  -5  -2  -2  599.34   61.49
  -5   2  -2  549.45   67.79
   5  -2  -2  571.24   64.59
   5   2   2  526.55   67.09
  -5  -2   2  626.44   68.69
   5  -2  -2  580.24   61.49
   5   2   2  595.94   49.60
  -5  -2   2  596.44   57.99
   6   2  -2   30.00   34.60
  -6   2   2  153.98   40.60
   6  -2   2   44.40   29.10
   6  -2   2   77.59   32.10
  -6  -2  -2   54.49   29.90
   6  -2  -2   53.99   27.10
   6  -2  -2   42.50   28.70
  -6  -2   2   25.00   33.50
   6   2   2   73.79   34.20
  -6   2  -2   20.50   29.90
  -7  -2  -2  104.99   46.10
  -7   2   2  100.29   40.70
   7   2  -2   98.49   42.00
   7  -2   2  140.59   42.20
   7  -2   2   46.40   37.10
   7   2   2   48.00   38.70
  -7   2  -2  163.08   52.49
   7  -2  -2   95.99   44.70
  -7  -2   2  192.48   54.69
   7  -2  -2   46.60   32.50
   8  -2   2   60.39   40.80
  -8   2   2   40.90   44.90
   8  -2   2   -3.10   35.90
  -8  -2  -2  -52.59   38.90
   8   2  -2  -17.70   39.90
  -8  -2   2   -7.20   45.60
  -8   2  -2   18.10   42.50
   8  -2  -2   16.00   39.70
   8   2   2  -12.30   45.20
   0   3  -2 2740.83  156.18
   0   3   2 2644.54  161.18
   0  -3  -2 2846.22  161.48
   0  -3   2 2723.53  161.18
   0  -3   2 2860.71  154.38
   0   3  -2 2689.23  160.88
   0  -3  -2 2649.03  156.28
   0   3   2 2723.63  149.09
  -1  -3  -2  130.99   25.40
  -1  -3  -2  124.59   19.00
   1  -3   2  155.58   23.50
   1   3  -2  137.49   24.90
  -1   3   2  142.19   22.30
  -1   3   2  127.19   17.60
   1  -3   2  126.09   22.80
   1   3  -2  146.89   23.50
   1   3   2  128.79   18.30
   1   3   2  178.78   29.00
  -1   3  -2  149.19   21.00
  -1  -3   2  141.29   26.60
   1  -3  -2  151.98   24.30
  -1   3  -2  135.39   26.50
  -1  -3   2  133.79   15.10
   1  -3  -2  122.99   22.90
   2   3  -2  536.95   47.70
   2  -3   2  566.54   49.40
  -2  -3  -2  541.15   43.40
  -2  -3  -2  683.43   55.29
   2  -3   2  536.45   42.20
   2   3  -2  521.35   50.09
  -2   3   2  554.64   44.50
  -2   3  -2  589.64   52.09
  -2   3  -2  534.55   45.00
   2  -3  -2  509.25   48.20
   2  -3  -2  549.74   40.60
   2   3   2  410.36   46.20
   2   3   2  511.95   38.00
  -2  -3   2  543.75   50.59
   3   3  -2  -10.00   14.10
   3  -3   2   16.10   14.20
   3  -3   2   10.90   17.00
  -3  -3  -2   -5.90   15.50
   3  -3   2   30.20   12.90
   3   3  -2   31.60   20.70
  -3  -3  -2  -13.10   12.70
  -3   3   2   27.20   17.80
  -3   3  -2    9.70   17.10
  -3  -3   2   30.80   20.20
   3  -3  -2   35.60   20.30
   3   3   2   25.60   11.00
   3   3   2   11.70   15.30
   3  -3  -2   14.60   14.80
  -4  -3  -2  140.49   30.60
  -4  -3  -2   36.00   23.20
   4  -3   2   59.89   26.30
   4  -3   2   74.69   26.00
  -4   3   2   69.39   27.40
   4   3  -2   68.89   27.10
   4   3  -2   60.89   26.30
   4  -3  -2   40.30   26.30
  -4   3  -2   44.90   25.00
   4   3   2   41.70   16.70
   4   3   2  115.19   30.90
  -4  -3   2  103.79   27.40
   4  -3  -2  106.49   31.30
  -5   3   2    2.70   24.60
  -5  -3  -2  -15.10   21.70
   5  -3   2   -1.70   23.10
  -5  -3  -2   -7.30   23.60
   5   3  -2   10.50   26.70
   5  -3   2    6.90   27.10
   5   3   2    2.10   20.90
   5  -3  -2    3.80   22.40
  -5   3  -2   39.00   30.70
   5  -3  -2   29.40   26.60
  -5  -3   2   40.40   29.80
  -5  -3   2   38.90   25.70
  -6  -3  -2  393.76   56.59
  -6   3   2  339.47   62.49
   6  -3   2  473.75   63.19
  -6  -3  -2  312.17   52.99
   6  -3   2  345.57   57.89
   6   3  -2  259.87   60.79
  -6   3  -2  375.76   68.29
  -6  -3   2  333.77   63.69
   6  -3  -2  479.35   57.39
  -6  -3   2  303.37   52.49
   6   3   2  289.87   63.39
   6  -3  -2  335.57   67.29
   7  -3   2   98.89   45.80
  -7   3   2   34.70   36.00
   7   3  -2   73.79   49.30
  -7  -3  -2   75.89   40.40
   7  -3   2   10.70   33.30
   7  -3  -2  112.99   41.80
  -7   3  -2   16.90   40.60
  -7  -3   2   88.99   47.40
   7   3   2   45.50   43.70
   7  -3  -2   45.80   41.50
   0  -4   2  629.64   49.30
   0   4   2  650.33   57.19
   0  -4  -2  593.64   55.49
   0   4   2  643.44   45.50
   0  -4  -2  636.34   50.19
   0   4  -2  645.24   54.89
   0   4  -2  624.34   51.89
   0  -4   2  722.83   58.99
  -1   4   2  175.28   23.50
   1   4  -2  251.37   31.90
   1   4  -2  243.68   33.10
   1  -4   2  220.88   30.40
  -1  -4  -2  207.08   24.50
  -1  -4  -2  209.88   36.70
   1  -4   2  165.98   30.10
  -1   4   2  185.08   29.70
   1  -4  -2  169.78   29.50
  -1  -4   2  209.08   21.50
   1   4   2  160.48   23.40
   1   4   2  203.68   30.90
  -1   4  -2  146.89   30.70
   1  -4  -2  180.78   29.10
  -1   4  -2  259.57   30.10
  -1  -4   2  181.18   32.70
   2   4  -2 1156.58   83.69
  -2   4   2 1110.69   76.49
  -2   4   2 1118.79   85.19
  -2  -4  -2 1133.99   89.49
   2  -4   2 1246.88   85.19
   2  -4   2 1169.68   77.59
   2   4  -2 1050.59   80.49
  -2   4  -2 1099.29   84.29
   2  -4  -2 1033.30   74.49
  -2   4  -2 1091.29   76.49
   2  -4  -2 1154.98   83.59
  -2  -4   2 1043.00   84.89
   2   4   2  985.40   82.99
   2   4   2 1082.39   76.39
   3  -4   2  565.44   43.70
  -3   4   2  623.94   52.99
   3   4  -2  556.54   54.99
   3  -4   2  537.65   55.29
   3   4  -2  553.44   53.99
  -3  -4  -2  517.75   56.99
  -3  -4  -2  527.75   50.59
  -3   4  -2  403.06   48.10
   3   4   2  482.15   37.20
   3  -4  -2  520.35   40.80
   3  -4  -2  518.85   55.29
  -3   4  -2  534.75   55.89
  -3  -4   2  444.06   54.59
   3   4   2  569.14   55.09
   4  -4   2  407.36   53.19
  -4  -4  -2  443.56   49.20
  -4  -4  -2  527.95   56.29
   4   4  -2  335.87   49.99
  -4   4   2  418.86   51.19
   4   4  -2  417.46   52.49
  -4  -4   2  460.75   54.49
  -4   4  -2  341.17   51.29
   4   4   2  335.57   49.30
   4  -4  -2  446.26   55.99
  -5   4   2  142.59   40.20
  -5  -4  -2  144.49   42.50
   5   4  -2   82.79   35.80
   5  -4   2  138.19   39.00
   5  -4   2  129.09   37.60
   5   4  -2  117.99   35.90
  -5  -4  -2  109.79   35.30
   5   4   2  104.79   35.30
   5  -4  -2  127.39   38.40
  -5   4  -2  158.08   42.00
   5  -4  -2  144.19   39.80
  -5  -4   2  176.98   41.40
  -6  -4  -2   37.30   33.70
  -6   4   2   82.69   39.70
  -6  -4  -2   94.79   38.90
   6  -4   2   61.49   34.80
   6   4  -2   52.29   38.80
   6  -4   2   84.39   40.10
  -6  -4   2  135.69   44.60
  -6   4  -2  104.79   44.90
   6   4   2   22.30   31.40
   6  -4  -2  139.79   42.80
  -6  -4   2   84.19   43.10
   6  -4  -2  147.29   45.30
  -7   4   2   27.80   38.70
   7  -4   2   23.50   33.10
   7  -4   2   41.70   40.20
  -7  -4  -2    9.50   35.80
   7   4  -2   -6.30   34.50
   7  -4  -2   66.29   42.20
  -7  -4   2   22.90   42.50
   7  -4  -2  -15.80   32.80
  -7   4  -2   18.90   41.20
   7   4   2   -2.70   30.80
   0   5  -2  114.09   28.40
   0   5   2  145.29   32.70
   0  -5  -2  122.89   31.50
   0   5   2  134.09   23.60
   0  -5   2  140.69   25.90
   0   5  -2  170.58   32.70
   0  -5   2  187.38   33.70
   0  -5  -2  146.69   26.70
   1  -5   2  277.57   39.40
  -1  -5  -2  218.28   26.90
  -1   5   2  159.18   33.50
   1  -5   2  220.58   34.90
  -1   5   2  200.68   25.70
   1   5  -2  262.07   36.10
  -1  -5  -2  221.78   41.70
   1   5  -2  201.88   35.10
   1  -5  -2  203.28   35.90
  -1  -5   2  190.88   24.90
  -1   5  -2  227.38   38.30
   1  -5  -2  133.39   29.20
  -1   5  -2  237.28   34.30
   1   5   2  170.38   37.50
   1   5   2  242.18   29.90
  -1  -5   2  178.88   38.10
  -2   5   2  101.79   28.80
  -2  -5  -2   74.59   20.70
  -2   5   2   71.89   23.60
   2  -5   2  118.79   31.20
   2  -5   2  103.29   28.50
   2   5  -2  108.49   29.20
   2   5  -2  134.39   29.70
  -2  -5  -2   64.49   28.10
   2   5   2  142.19   35.10
  -2  -5   2   84.59   29.10
   2  -5  -2   86.09   26.80
   2   5   2   90.39   24.00
  -2   5  -2   88.99   31.40
  -2   5  -2  102.89   25.20
   2  -5  -2  110.19   25.00
   3  -5   2  498.95   58.89
  -3   5   2  639.04   65.99
   3  -5   2  463.45   55.39
   3   5  -2  553.74   58.59
   3   5  -2  591.04   61.69
  -3  -5  -2  545.95   64.99
  -3   5   2  649.43   59.89
  -3   5  -2  583.94   55.59
  -3  -5   2  598.54   65.39
   3   5   2  496.05   53.59
   3  -5  -2  481.65   59.49
  -3   5  -2  513.25   59.69
   3   5   2  584.54   60.99
  -4  -5  -2  128.09   39.60
  -4  -5  -2  133.09   34.10
  -4   5   2  172.08   39.70
   4  -5   2   38.60   27.30
   4   5  -2   88.89   32.50
  -4   5   2   95.59   37.90
   4   5  -2  151.18   38.30
   4   5   2  134.29   37.60
  -4   5  -2  133.69   34.50
  -4  -5   2  169.88   42.20
   4  -5  -2  170.48   40.80
  -4   5  -2   90.19   35.00
  -5  -5  -2  103.09   40.30
  -5   5   2  102.89   37.70
   5   5  -2   46.70   31.70
  -5   5   2   30.40   37.10
   5  -5   2  120.69   40.40
  -5  -5  -2  163.58   43.30
   5   5  -2  176.58   45.60
  -5  -5   2  137.59   39.80
  -5   5  -2   68.39   38.10
  -5   5  -2   15.50   29.40
   5  -5  -2   88.89   42.60
   5   5   2   70.99   33.00
   6   5  -2   14.60   36.70
  -6   5   2  -15.30   32.70
  -6  -5  -2   -5.80   34.50
  -6   5   2   13.30   36.20
  -6  -5  -2  -12.60   31.40
   6  -5   2   96.19   41.70
   6   5   2   34.10   33.40
  -6   5  -2   58.29   37.80
  -6  -5   2  -18.20   32.40
   6  -5  -2    1.30   35.60
  -6  -5   2  -17.20   32.50
  -6   5  -2   11.20   32.00
   7   5  -2   68.99   48.30
  -7   5   2    7.20   41.10
   7  -5   2   51.19   46.70
  -7  -5  -2   46.50   41.40
  -7   5   2   -1.20   40.00
  -7   5  -2  -11.50   42.90
   7   5   2  -31.00   33.00
   7  -5  -2   -3.70   44.70
  -7   5  -2   12.10   43.50
  -7  -5   2  -42.90   34.30
   0  -6   2  532.85   51.59
   0   6   2  595.14   63.29
   0  -6   2  499.95   62.29
   0  -6  -2  538.55   51.69
   0   6   2  415.46   51.89
   0  -6  -2  639.24   64.69
   0   6  -2  596.54   60.09
   0   6  -2  649.04   58.99
   1  -6   2  538.95   58.59
   1   6  -2  445.96   52.39
  -1   6   2  346.57   44.60
  -1   6   2  348.47   50.59
  -1  -6  -2  366.26   39.20
  -1  -6  -2  503.25   62.09
   1   6  -2  343.57   46.50
   1  -6   2  425.76   47.20
  -1   6  -2  398.16   49.80
   1   6   2  406.06   43.50
   1   6   2  472.05   57.09
   1  -6  -2  395.16   47.60
   1  -6  -2  344.87   44.30
  -1  -6   2  416.76   55.19
  -1   6  -2  363.96   48.00
   2  -6   2   96.89   31.00
   2   6  -2  168.48   37.50
  -2  -6  -2  239.68   49.20
  -2   6   2  174.58   35.10
  -2   6   2  142.89   37.30
   2   6  -2  116.29   32.10
   2  -6   2  183.08   36.50
  -2   6  -2  155.48   33.20
  -2  -6   2  112.79   39.40
   2  -6  -2  195.68   38.20
   2   6   2  145.09   31.60
   2  -6  -2   83.59   28.00
  -2   6  -2   37.50   30.10
   2   6   2  119.39   36.50
  -3   6   2   27.40   26.70
   3  -6   2   55.89   24.20
   3   6  -2    0.60   19.80
  -3   6   2   20.70   26.60
  -3  -6  -2    3.70   29.00
   3   6  -2   42.50   27.60
  -3   6  -2    0.90   21.00
   3  -6  -2    4.80   24.30
  -3   6  -2   16.10   30.80
  -3  -6   2   35.60   28.50
   3   6   2   31.30   23.80
   3   6   2   34.10   25.60
  -4  -6  -2   70.99   31.60
   4   6  -2   21.90   25.00
   4  -6   2   39.00   24.90
  -4   6   2   -5.20   31.00
  -4   6   2  103.29   37.20
  -4  -6  -2   67.49   36.00
   4   6  -2    5.50   28.00
   4  -6  -2   37.30   30.70
  -4  -6   2   58.19   34.50
  -4   6  -2   64.79   30.20
   4   6   2   39.40   29.20
  -4   6  -2   55.69   33.60
  -5  -6  -2  148.39   42.90
  -5   6   2   74.89   44.80
   5  -6   2   86.49   35.30
   5   6  -2   52.09   36.00
  -5   6   2   94.49   41.80
  -5  -6  -2   50.99   38.10
   5   6  -2   12.70   29.40
  -5   6  -2  112.09   42.20
   5  -6  -2   57.59   40.60
  -5   6  -2   67.59   37.40
   5   6   2   25.30   26.40
  -5  -6   2   88.79   40.30
  -6  -6  -2   97.59   48.60
  -6  -6  -2  128.79   44.70
   6  -6   2   31.30   45.30
  -6   6   2   16.90   40.80
   6   6  -2   69.79   47.10
  -6  -6   2  131.09   50.69
  -6   6  -2   37.80   40.90
   6   6   2   64.19   34.00
  -6  -6   2   36.30   43.40
  -6   6  -2   52.09   54.99
   6  -6  -2   53.29   49.80
   0   7  -2  139.39   38.50
   0  -7   2  124.89   40.00
   0  -7  -2  137.79   33.60
   0   7   2  114.49   38.20
   0   7  -2  152.58   38.80
   0  -7   2  142.79   32.40
   0  -7  -2  202.08   44.90
   1   7  -2   69.39   30.30
   1   7  -2   23.60   28.50
   1  -7   2  101.49   32.70
  -1  -7  -2  166.18   46.50
   1  -7   2   98.09   35.70
  -1   7   2  102.49   38.30
   1  -7  -2  134.79   31.90
   1   7   2   93.49   37.20
  -1   7  -2  123.09   36.40
  -1  -7   2   85.39   36.00
   1  -7  -2   99.89   35.20
  -1   7  -2  115.59   35.30
   2   7  -2   49.00   27.70
   2  -7   2   64.09   29.40
  -2  -7  -2   45.10   37.40
   2  -7   2  144.39   38.40
   2   7  -2   92.79   33.90
  -2   7   2  104.89   37.30
   2  -7  -2   24.30   26.20
   2   7   2   65.89   36.90
  -2   7  -2   71.69   31.90
  -2   7  -2   93.99   32.60
  -2  -7   2   28.10   35.90
   2  -7  -2  118.49   31.10
  -3   7   2  114.49   43.70
   3   7  -2   96.49   35.70
  -3  -7  -2  120.39   42.00
   3  -7   2   95.69   36.70
   3   7  -2  131.39   40.60
  -3  -7   2  141.39   44.50
   3   7   2   41.70   34.60
  -3   7  -2  140.19   46.90
  -3   7  -2  161.18   39.00
   3  -7  -2  151.48   42.70
   4  -7   2    5.00   29.80
   4   7  -2   29.60   33.30
  -4  -7  -2   -9.80   34.00
   4   7  -2   20.30   33.10
  -4   7   2    8.10   31.60
   4  -7  -2   39.80   32.90
   4   7   2    6.20   30.70
  -4   7  -2    7.40   29.80
  -4   7  -2   32.40   35.50
  -4  -7   2   31.60   35.10
  -5   7   2   35.40   38.40
  -5  -7  -2  106.89   51.29
   5  -7   2   34.50   36.60
   5   7  -2   62.49   43.80
   5   7  -2   12.40   38.00
  -5  -7   2   18.50   43.40
   5  -7  -2   16.10   34.30
  -5   7  -2   61.49   45.60
   5   7   2   15.00   35.40
   0   8  -2   21.70   32.10
   0   8   2    1.50   27.30
   0  -8  -2   32.80   35.20
   0  -8  -2   46.60   28.60
   0  -8   2  -31.80   30.30
   0   8  -2   -0.40   28.00
   1   8  -2   -3.60   28.50
  -1   8   2  -13.40   29.60
   1  -8   2   39.60   32.80
   1  -8   2   33.60   27.30
  -1  -8  -2   93.49   46.40
   1   8  -2   34.10   33.80
   1   8   2   33.90   34.90
  -1  -8   2   50.99   39.60
  -1   8  -2   22.50   28.30
   1  -8  -2   43.20   34.70
   1  -8  -2   32.20   28.90
  -1   8  -2    3.30   26.80
   2   8  -2   29.40   32.00
   2   8  -2   81.39   38.20
   2  -8   2   31.30   28.40
  -2   8   2  118.19   44.80
  -2  -8  -2   87.19   51.39
   2  -8  -2   59.69   33.50
   2   8   2   30.70   37.70
  -2   8  -2  105.89   38.00
  -2  -8   2   91.09   48.40
  -2   8  -2  114.89   39.80
   3   8  -2   44.30   32.60
  -3  -8  -2   91.49   55.59
   3   8  -2  150.88   45.90
  -3   8   2  123.29   51.39
   3  -8   2   48.90   35.70
   3   8   2   75.79   42.70
   3  -8  -2  117.99   40.60
  -3   8  -2   45.50   31.90
  -3  -8   2   57.29   41.10
  -3   8  -2  101.09   46.70
   4   8  -2  111.89   42.60
   4  -8   2   22.80   40.70
  -4  -8  -2  -23.50   41.70
   4   8  -2   -3.40   36.70
  -4   8   2   70.19   46.60
  -4   8  -2  -25.40   46.10
   4  -8  -2   79.09   44.20
  -4  -8   2   -2.90   37.30
   4   8   2  109.69   48.50
   0   9   2  116.19   52.79
   0  -9  -2   92.39   50.39
   0   9  -2   71.39   45.30
   0  -9   2   68.89   45.90
  -1   9   2   30.50   38.10
  -1  -9  -2   78.29   54.79
   1  -9   2   13.10   40.40
  -1   9  -2   94.09   44.30
   1  -9  -2   45.60   35.90
   1   9   2   40.90   45.80
  -1  -9   2  -10.60   41.90
   1  -9  -2    3.00   33.00
  -2   9   2   31.30   45.30
  -2  -9  -2   58.19   57.19
   2   9  -2   67.19   42.10
   2  -9   2  -33.10   31.00
  -2  -9   2   33.30   51.19
   2  -9  -2   73.19   38.80
   2   9   2   -5.70   39.80
  -2   9  -2   -0.40   39.70
  -3  -9  -2  -28.70   53.99
   3   9  -2  -16.90   33.10
   3  -9   2    3.70   31.30
  -3   9   2    5.00   38.00
  -3  -9   2   11.80   53.29
   3   9   2   15.70   44.30
   3  -9  -2  -57.39   28.80
   0   0  -3    2.40    7.80
   0   0   3    0.80    7.30
   0   0  -3    3.60   10.00
   0   0   3    3.60    4.70
   1   0   3    4.60    8.50
   1   0  -3   -3.50    8.10
   1   0  -3   -2.00    8.90
   1   0   3   -6.20    6.40
   1   0  -3    4.00    9.60
   1   0  -3   -7.30    8.30
  -1   0  -3   -5.60    8.90
  -1   0  -3    2.60   10.00
   2   0  -3 4016.10  224.58
  -2   0  -3 3687.53  221.98
   2   0   3 4053.49  218.28
   2   0  -3 3978.10  217.48
   2   0  -3 4055.59  223.98
   2   0  -3 4039.10  218.08
   2   0   3 3847.11  219.68
  -2   0  -3 3900.01  217.68
   3   0   3   -5.10   12.80
  -3   0  -3   16.20   16.70
   3   0   3   -2.20   12.60
  -3   0   3   -2.70   15.20
  -3   0  -3   -8.20   10.50
   3   0  -3    1.50   15.60
  -3   0   3   10.20   12.30
   3   0  -3  -11.60   10.00
   4   0   3 2684.93  159.98
  -4   0   3 2703.83  169.08
  -4   0  -3 2749.43  170.58
  -4   0  -3 2543.55  152.98
   4   0   3 2685.73  165.88
   4   0  -3 2758.52  156.68
   4   0  -3 2434.96  168.98
  -4   0   3 2631.84  152.58
  -5   0  -3   -5.50   20.60
   5   0   3   14.10   19.90
   5   0   3   33.80   23.80
   5   0  -3   14.40   16.10
   5   0  -3   -4.00   17.80
  -5   0   3    5.00   20.50
   6   0  -3    1.20   23.30
  -6   0   3   32.90   29.10
   6   0   3   -2.40   22.80
  -6   0  -3  -37.80   25.30
   6   0   3   24.90   23.30
   6   0  -3  -19.30   21.30
  -7   0  -3    1.50   34.20
   7   0   3   27.80   29.80
   7   0  -3   -5.70   28.50
   7   0   3  -27.80   30.20
  -7   0   3    1.00   28.00
   8   0  -3   37.50   49.99
  -8   0   3  158.08   55.29
   8   0   3   43.10   41.80
  -8   0  -3   27.10   44.70
   0  -1  -3   -7.00    7.60
   0  -1  -3  -14.60    4.60
   0  -1  -3   -0.60    8.40
   0   1  -3   16.20   10.40
   0   1   3    6.90    7.40
   0  -1   3   -0.10    6.50
   0   1  -3   -3.30    8.90
   1   1  -3  960.80   64.59
  -1  -1  -3  966.20   63.99
   1   1  -3  972.10   60.19
   1   1  -3  903.91   65.39
   1  -1   3  955.40   63.19
  -1  -1  -3  935.81   59.09
   1  -1  -3  994.60   61.19
   1   1   3  949.31   61.19
  -1  -1   3  990.40   57.49
  -1   1  -3 1001.40   62.19
   1  -1  -3  914.41   63.39
   1  -1  -3  922.01   58.99
   1  -1  -3  996.70   62.99
   1   1   3  957.80   61.29
  -1   1  -3  978.30   65.59
   2  -1   3  624.74   43.10
   2   1  -3  557.54   46.20
   2   1  -3  548.15   38.90
   2  -1   3  573.94   46.50
  -2  -1  -3  538.05   45.00
  -2  -1  -3  602.94   46.40
   2   1  -3  545.35   48.40
  -2   1   3  505.75   43.70
   2  -1  -3  538.35   44.70
  -2   1  -3  567.14   42.00
   2  -1  -3  556.84   40.50
   2   1   3  589.84   43.00
  -2   1  -3  473.45   46.90
   2   1   3  655.33   47.30
   2  -1  -3  606.54   49.30
  -2  -1   3  614.84   45.60
   3  -1   3   84.69   22.20
   3   1  -3   71.19   24.60
  -3  -1  -3   89.79   22.40
   3  -1   3   85.69   21.40
   3   1  -3  118.89   26.50
  -3  -1  -3   69.99   19.10
   3   1  -3  129.69   19.40
  -3   1   3  107.29   24.20
  -3  -1   3   87.59   19.80
   3  -1  -3   96.69   21.80
  -3   1  -3   92.49   17.90
   3   1   3  116.19   21.20
   3   1   3   36.90   19.30
   3  -1  -3   85.19   16.50
  -3   1  -3   74.59   24.00
   3  -1  -3   76.19   22.90
   4   1  -3  100.19   30.20
  -4   1   3  130.29   29.70
   4  -1   3   94.09   24.90
  -4   1   3  121.49   18.00
  -4  -1  -3   58.59   24.80
   4  -1   3  102.09   27.20
   4   1  -3  166.28   22.40
  -4  -1  -3  156.98   26.80
  -4  -1   3  121.89   25.30
  -4   1  -3  146.39   20.20
   4  -1  -3  112.19   31.50
   4   1   3   92.19   28.30
   4   1   3  114.09   23.90
  -4  -1   3   98.09   29.80
   4  -1  -3  136.99   27.70
  -4   1  -3  172.78   36.10
   5   1  -3  421.96   55.29
  -5  -1  -3  329.57   42.40
  -5  -1  -3  382.16   49.90
   5   1  -3  416.36   39.50
   5  -1   3  429.46   46.80
   5  -1   3  366.36   48.40
  -5   1   3  397.36   53.29
   5   1   3  322.97   50.09
  -5   1  -3  390.16   54.59
   5  -1  -3  398.06   46.20
   5  -1  -3  262.17   51.89
  -5  -1   3  354.66   50.79
   5   1   3  367.36   42.30
  -5  -1   3  346.47   41.90
  -6   1   3   58.59   31.10
  -6  -1  -3   49.99   33.60
   6  -1   3    4.40   22.40
   6  -1   3    8.00   25.00
   6   1  -3    7.20   28.00
   6  -1  -3   35.60   27.00
   6   1   3   13.20   18.90
   6   1   3   41.00   31.00
  -6   1  -3   30.30   32.10
  -6  -1   3   26.00   28.30
   6  -1  -3    3.20   23.40
   7   1  -3   67.29   43.50
   7  -1   3   88.79   36.20
  -7  -1  -3  168.58   50.29
  -7   1   3  116.89   47.30
   7  -1   3   95.99   39.60
  -7   1  -3   77.09   42.60
   7  -1  -3  125.79   40.80
   7   1   3   40.70   44.00
  -7  -1   3  132.09   45.20
   7  -1  -3   84.19   39.40
   8  -1   3   10.30   46.40
  -8   1   3   82.89   48.50
   8  -1   3  -22.00   40.00
  -8  -1  -3   21.50   47.80
   8   1  -3  134.89   54.29
  -8   1  -3  -20.50   49.00
   8   1   3   37.70   48.50
   8  -1  -3   91.69   48.90
  -8  -1   3   15.60   34.80
   0  -2   3   24.40   13.20
   0   2   3   -2.10    9.60
   0  -2  -3    5.80    9.70
   0  -2   3   -8.40    7.90
   0  -2  -3    3.30   11.30
   0   2  -3    1.10   11.10
  -1  -2  -3 4212.28  230.98
  -1  -2  -3 4250.77  225.28
   1   2  -3 4187.58  229.98
  -1   2   3 4023.10  234.98
  -1   2   3 4190.38  224.68
   1   2  -3 4253.57  238.68
   1  -2   3 4056.89  232.48
  -1  -2  -3 4240.38  237.38
   1  -2  -3 4264.37  231.08
  -1   2  -3 4195.18  232.68
  -1  -2   3 4277.07  235.88
  -1   2  -3 4010.70  237.78
  -1   2  -3 4182.38  224.48
   1  -2  -3 4241.98  234.78
   1   2   3 4359.26  236.28
  -1  -2   3 4262.77  224.58
   2  -2   3  255.07   25.50
   2  -2   3  251.97   29.90
   2   2  -3  244.08   32.50
   2   2  -3  273.27   31.50
  -2  -2  -3  157.28   29.60
  -2   2   3  271.67   27.60
  -2  -2  -3  263.37   27.00
  -2  -2   3  268.27   31.40
   2   2   3  240.68   30.20
   2  -2  -3  228.28   30.50
   2  -2  -3  250.07   24.60
  -2   2  -3  262.77   34.00
   2   2   3  253.47   25.30
  -2   2  -3  265.67   26.70
   2  -2  -3  199.48   30.70
   3  -2   3   37.60   18.10
  -3  -2  -3   23.80   15.70
  -3   2   3   12.30   14.50
   3   2  -3   21.80   16.30
  -3  -2  -3   39.20   17.40
   3  -2   3   46.10   17.00
   3   2  -3   47.90   20.30
   3  -2  -3   63.69   22.50
   3  -2  -3   33.90   11.10
   3   2   3   22.50   13.70
   3  -2  -3   19.30   15.00
  -3  -2   3   71.89   21.50
  -3   2  -3   36.30   20.30
   3   2   3   49.80   21.10
  -3   2  -3   39.90   13.90
  -4   2   3  211.38   36.00
  -4  -2  -3  260.57   35.60
   4   2  -3  231.78   41.90
   4  -2   3  233.58   39.40
   4  -2   3  207.88   36.40
   4   2  -3  209.98   41.30
  -4  -2  -3  243.08   33.80
  -4   2  -3  183.48   38.10
   4  -2  -3  100.89   31.50
   4   2   3  161.38   34.70
   4   2   3  246.68   30.80
   4  -2  -3  322.17   38.90
  -4  -2   3  188.28   33.30
  -5   2   3  550.04   63.49
   5  -2   3  652.13   62.79
   5   2  -3  538.75   65.79
  -5  -2  -3  634.54   63.09
  -5  -2  -3  475.95   52.19
   5  -2   3  474.75   54.99
   5  -2  -3  588.54   68.39
   5   2   3  568.14   50.79
  -5  -2   3  532.15   64.49
  -5  -2   3  536.85   57.19
   5   2   3  481.45   63.89
  -5   2  -3  622.14   69.99
   5  -2  -3  571.04   59.69
  -6   2   3   15.30   27.90
  -6  -2  -3  -37.50   22.10
   6  -2   3  -16.10   25.60
   6  -2   3   -2.20   23.10
   6   2  -3   25.20   31.90
   6  -2  -3    7.60   28.50
   6   2   3  -22.40   23.00
  -6  -2   3   -7.70   28.40
  -6   2  -3  -14.90   25.00
   6  -2  -3  -18.00   19.60
   7  -2   3  411.66   60.09
  -7   2   3  375.66   69.19
   7  -2   3  341.57   62.59
  -7  -2  -3  518.65   71.69
   7   2  -3  250.87   66.79
   7  -2  -3  274.77   64.99
   7  -2  -3  395.26   61.29
  -7  -2   3  417.66   71.69
   7   2   3  433.96   79.99
  -7   2  -3  359.06   69.49
   8   2  -3   43.40   59.39
   8  -2   3   -1.20   39.80
  -8   2   3  -19.40   34.90
   8  -2   3   12.40   35.80
  -8  -2  -3   -3.20   43.20
  -8   2  -3    0.70   40.30
  -8  -2   3   -4.20   42.40
   8  -2  -3    6.10   37.60
   8   2   3  -32.70   43.60
   0  -3  -3   29.10   17.30
   0  -3   3   -2.10   11.80
   0  -3  -3    3.60   11.50
   0   3  -3    0.50    9.10
   0   3  -3    0.70   13.50
   0  -3   3  -18.60    9.70
   0   3   3    8.00   14.20
  -1   3   3   41.60   11.60
   1  -3   3   44.30   16.80
  -1  -3  -3   38.20   10.00
  -1  -3  -3   25.50   14.50
   1  -3   3   27.00   15.00
  -1  -3  -3   50.39   20.10
  -1   3   3   19.30   14.80
   1   3  -3   46.10   15.70
   1   3  -3    4.90   15.70
   1   3   3   39.90   19.40
  -1  -3   3   32.80   10.60
  -1   3  -3   24.40   18.50
   1  -3  -3   64.39   19.20
  -1  -3   3   53.99   20.10
  -1   3  -3   33.00   12.70
   1  -3  -3   47.30   17.20
  -2  -3  -3  833.12   56.99
  -2   3   3  874.61   57.99
   2   3  -3  871.01   63.39
   2  -3   3  725.93   62.39
   2   3  -3  829.02   67.49
  -2  -3  -3  805.32   66.19
   2  -3   3  838.32   58.69
   2  -3  -3  931.01   66.79
   2  -3  -3  851.91   57.29
   2   3   3  905.91   57.49
  -2   3  -3  729.23   56.39
  -2   3  -3  849.12   68.79
   2   3   3  772.32   66.29
  -2  -3   3  730.63   65.49
   3  -3   3   26.00   15.90
   3  -3   3   37.00   17.00
  -3  -3  -3   47.40   16.10
   3   3  -3   67.19   23.40
  -3  -3  -3   69.39   24.10
   3   3  -3   -1.90   15.80
   3  -3   3   30.60   13.90
  -3   3   3   40.30   19.60
  -3  -3   3   47.20   21.60
  -3   3  -3   46.80   21.90
   3  -3  -3   38.60   12.90
   3  -3  -3    2.20   15.20
   3   3   3   46.90   13.50
   3  -3  -3   21.00   17.00
   3   3   3   15.30   17.60
  -4   3   3  376.66   44.40
  -4  -3  -3  345.17   43.20
   4   3  -3  348.17   46.70
   4  -3   3  344.87   45.80
   4   3  -3  339.87   48.10
   4  -3   3  247.48   42.10
  -4  -3  -3  329.27   42.20
   4   3   3  310.07   44.50
   4  -3  -3  385.76   50.79
   4  -3  -3  337.17   45.20
  -4  -3   3  285.87   42.10
  -4   3  -3  291.07   48.80
   4   3   3  454.95   37.80
  -5  -3  -3   11.30   23.90
   5   3  -3   41.40   28.00
  -5   3   3   16.50   25.80
   5  -3   3   24.20   27.50
   5   3  -3   72.59   32.20
   5  -3   3   30.10   26.80
  -5  -3  -3   54.09   28.60
   5  -3  -3   45.60   29.20
  -5   3  -3   17.10   29.40
  -5  -3   3    2.70   27.30
   5   3   3   17.20   25.20
   5  -3  -3   25.80   27.40
  -6  -3  -3   19.30   27.90
   6  -3   3   -7.00   28.30
   6   3  -3   46.00   39.90
   6  -3   3   54.79   34.20
  -6  -3  -3  -11.70   26.20
  -6   3   3   38.40   34.80
   6  -3  -3   19.70   30.10
  -6  -3   3   50.79   37.90
   6   3   3   76.59   40.50
  -6  -3   3   48.10   31.80
   6  -3  -3  -13.50   27.60
  -6   3  -3   35.00   34.10
   7  -3   3  -19.80   31.90
  -7   3   3   16.00   30.80
   7   3  -3    1.10   38.00
  -7  -3  -3    2.60   36.40
   7  -3   3   33.70   37.10
  -7  -3   3  -47.30   34.80
  -7   3  -3  -41.10   28.30
   7   3   3   34.70   36.10
   7  -3  -3    8.40   30.80
   7  -3  -3    8.70   37.60
   0  -4  -3  -13.90   12.30
   0   4   3    8.60   14.70
   0   4  -3    5.00   14.60
   0  -4   3   -8.80   10.10
   0  -4  -3    2.50   12.90
   0   4  -3   20.10   14.40
   0  -4   3  -19.50   13.90
   1  -4   3  664.43   54.59
  -1  -4  -3  677.63   52.49
  -1   4   3  678.33   59.19
   1   4  -3  718.33   61.99
   1   4  -3  680.53   54.69
  -1  -4  -3  632.24   60.59
  -1   4   3  607.04   45.80
   1  -4   3  684.63   58.09
  -1  -4   3  645.14   61.49
   1  -4  -3  843.02   60.69
   1   4   3  672.13   61.79
   1  -4  -3  772.02   59.59
   1   4   3  707.43   47.10
  -1   4  -3  703.33   54.09
  -1  -4   3  678.73   46.90
  -1   4  -3  702.93   62.49
  -2  -4  -3  601.24   63.19
   2  -4   3  761.52   58.69
  -2   4   3  723.93   64.69
   2   4  -3  770.12   61.19
   2   4  -3  640.74   63.49
   2  -4   3  614.74   60.09
  -2   4   3  748.23   54.79
  -2  -4  -3  794.72   54.99
  -2   4  -3  751.52   68.49
  -2  -4   3  633.64   64.09
  -2   4  -3  762.82   55.59
   2  -4  -3  689.43   55.19
   2  -4  -3  683.73   62.19
   2   4   3  653.33   64.79
   2   4   3  745.93   52.99
  -3  -4  -3   18.00   16.10
   3  -4   3   -1.30   14.60
  -3  -4  -3  -31.10   16.10
   3  -4   3    4.80   17.30
  -3   4   3   26.60   19.10
   3   4  -3   23.30   18.60
  -3   4   3   41.50   22.90
   3   4  -3   11.90   16.90
  -3  -4   3   11.70   21.30
  -3   4  -3   -1.90   18.00
   3   4   3   35.70   20.50
  -3   4  -3    5.10   14.50
   3   4   3   -5.90   10.80
   3  -4  -3   15.40   17.60
   3  -4  -3    0.90   13.70
   4   4  -3  591.64   64.99
   4   4  -3  636.84   65.59
  -4  -4  -3  633.04   60.19
  -4   4   3  614.64   61.29
  -4  -4  -3  612.64   64.19
   4  -4   3  515.75   60.09
  -4   4  -3  517.15   63.69
  -4  -4   3  606.94   65.69
   4  -4  -3  638.84   65.89
   4   4   3  471.15   60.09
   5   4  -3   50.59   34.10
   5  -4   3   74.39   31.50
   5  -4   3  167.88   44.00
  -5  -4  -3   86.19   33.10
  -5  -4  -3  107.29   35.00
  -5   4   3   46.50   31.00
   5   4  -3   75.09   34.00
   5  -4  -3   97.99   38.50
   5   4   3  100.09   35.50
  -5   4  -3   62.49   33.80
   5  -4  -3   55.19   31.50
  -5  -4   3   73.59   33.00
  -6   4   3   21.70   33.00
  -6  -4  -3  -24.80   26.10
  -6  -4  -3    8.10   28.90
   6   4  -3    4.10   29.80
   6  -4   3   16.80   31.10
   6  -4   3   -9.40   30.70
  -6   4  -3  -12.80   29.40
  -6  -4   3  -14.80   29.20
   6  -4  -3   20.50   32.30
   6  -4  -3   -1.50   28.90
   6   4   3   25.50   34.40
  -6  -4   3   10.30   33.30
  -7  -4  -3  149.39   52.09
  -7   4   3   32.60   39.70
   7  -4   3  131.69   50.69
   7   4  -3   57.59   49.50
   7  -4   3   64.49   46.10
  -7  -4   3  192.48   58.59
   7  -4  -3   83.39   43.30
   7   4   3  148.29   54.59
   7  -4  -3  136.79   54.49
  -7   4  -3   69.39   47.00
   0   5  -3    8.30   16.00
   0  -5  -3    3.70   13.30
   0  -5   3    5.00   14.00
   0  -5  -3    7.40   17.00
   0   5  -3   13.70   17.50
   0   5   3    2.30   17.50
   0  -5   3    0.50   17.20
   0   5   3  -23.30   12.10
  -1  -5  -3  248.28   43.50
   1  -5   3  285.57   38.50
  -1   5   3  238.78   26.90
  -1   5   3  258.37   38.30
  -1  -5  -3  214.58   29.80
   1   5  -3  228.58   40.40
   1   5  -3  289.37   37.20
   1  -5   3  203.98   35.00
   1   5   3  206.08   40.50
  -1   5  -3  199.28   38.70
  -1  -5   3  246.68   27.30
   1   5   3  241.18   27.40
   1  -5  -3  273.77   35.70
   1  -5  -3  246.38   34.40
  -1   5  -3  321.07   37.70
  -1  -5   3  218.88   39.80
  -2  -5  -3   29.40   24.00
  -2   5   3   37.00   22.20
  -2   5   3   36.00   20.90
   2   5  -3   36.70   25.80
   2   5  -3   31.80   20.10
   2  -5   3   19.80   20.00
   2  -5   3   22.40   19.70
  -2  -5  -3   58.09   20.20
  -2   5  -3  -15.60   19.80
   2  -5  -3   60.89   24.40
  -2   5  -3   49.60   20.60
   2   5   3   21.70   21.50
  -2  -5   3   99.39   29.30
   2  -5  -3    7.40   16.70
  -3  -5  -3  -14.60   23.30
   3   5  -3   39.00   22.50
   3  -5   3   24.90   20.20
  -3   5   3   41.60   26.40
  -3   5   3   40.00   25.60
   3  -5   3   25.90   24.90
   3   5  -3   23.70   25.00
  -3  -5  -3   38.20   20.20
  -3   5  -3   12.40   22.30
  -3   5  -3   45.30   20.40
   3  -5  -3    9.90   20.90
  -3  -5   3   -2.60   23.80
   3   5   3   38.00   22.80
  -4  -5  -3  225.08   38.50
   4   5  -3  107.59   32.80
  -4   5   3   71.49   33.90
  -4   5   3  131.29   36.40
   4   5  -3   68.89   33.70
  -4  -5  -3   76.99   33.60
   4  -5   3  108.39   35.40
  -4   5  -3   27.60   26.70
  -4  -5   3  111.89   35.90
   4   5   3   34.90   24.40
   4  -5  -3   14.60   28.00
  -4   5  -3   73.49   29.40
  -5  -5  -3  169.18   42.70
  -5   5   3  151.58   43.90
   5   5  -3  157.98   47.50
  -5   5   3   16.60   34.10
   5   5  -3  124.29   42.30
   5  -5   3   90.29   38.60
  -5  -5  -3  136.89   40.50
  -5  -5   3  190.88   49.10
  -5   5  -3   40.30   29.60
  -5   5  -3  148.19   45.90
   5   5   3   98.99   35.90
   5  -5  -3  213.58   48.50
  -6  -5  -3   20.10   32.40
  -6   5   3   -2.40   38.80
   6   5  -3    1.10   34.50
  -6   5   3   -8.20   34.50
  -6  -5  -3  -15.20   31.80
   6  -5   3   -4.50   32.80
   6   5   3   30.00   32.20
  -6  -5   3   37.90   36.70
  -6   5  -3  -18.80   32.10
  -6  -5   3   58.29   34.30
   6  -5  -3   89.89   46.80
  -7   5   3    3.30   42.90
  -7   5   3   37.90   46.40
   7  -5   3   33.40   43.70
  -7  -5  -3   83.09   41.90
   7   5  -3   48.50   51.59
   7   5   3   -8.00   39.00
   7  -5  -3   98.89   50.09
  -7  -5   3   -0.10   42.00
  -7   5  -3    6.30   44.10
   0  -6   3   -4.60   19.80
   0   6  -3   -2.00   16.50
   0  -6   3   22.00   19.10
   0   6  -3   48.80   22.40
   0  -6  -3   -6.60   21.30
   0   6   3   64.39   25.70
   0  -6  -3    3.90   17.30
  -1  -6  -3  206.08   46.10
   1  -6   3  132.39   31.10
   1   6  -3  119.49   32.40
   1  -6   3  151.88   34.60
  -1   6   3   99.49   34.40
  -1  -6  -3  160.18   28.20
  -1  -6   3  130.29   35.60
  -1   6  -3  148.99   37.80
  -1   6  -3   94.39   27.80
   1  -6  -3  154.98   34.00
   1   6   3  105.99   35.00
   1  -6  -3  150.68   32.60
   2  -6   3  312.17   47.20
   2   6  -3  128.79   36.70
   2   6  -3  310.07   43.70
  -2  -6  -3  150.58   44.40
   2  -6   3  219.88   43.10
  -2   6   3  169.98   41.60
   2  -6  -3  308.87   47.90
  -2  -6   3  233.18   49.00
  -2   6  -3  219.18   38.50
   2   6   3  203.98   47.40
  -2   6  -3  220.48   46.30
   2  -6  -3  196.48   37.00
   3   6  -3    1.70   24.30
  -3   6   3   -7.20   22.40
   3   6  -3   10.60   26.00
  -3  -6  -3   19.10   28.30
   3  -6   3   -9.90   20.50
  -3   6  -3    5.30   26.40
  -3  -6   3    2.30   23.90
  -3   6  -3    2.10   18.10
   3   6   3   -4.40   22.10
   3  -6  -3  -14.80   21.40
   4   6  -3  328.47   57.49
  -4  -6  -3  314.77   60.69
  -4   6   3  367.66   66.79
   4  -6   3  328.27   55.19
   4   6  -3  250.87   51.59
   4  -6  -3  330.97   57.99
  -4  -6   3  262.07   55.09
   4   6   3  272.27   53.39
  -4   6  -3  347.17   47.30
  -4   6  -3  390.76   67.39
  -5  -6  -3   64.49   36.80
   5   6  -3   28.50   31.60
   5   6  -3   11.50   31.70
   5  -6   3  172.68   47.90
  -5   6   3  -12.40   37.30
   5  -6  -3   55.29   40.10
  -5  -6   3   11.20   31.30
   5   6   3    8.30   27.30
  -5   6  -3   23.00   35.30
   6   6  -3  -26.40   39.10
  -6   6   3   66.29   48.00
  -6  -6  -3   20.50   42.00
   6  -6   3   24.80   38.70
  -6   6  -3  101.99   47.30
  -6  -6   3  -27.10   35.90
  -6  -6   3   30.40   41.20
   6   6   3    0.70   32.30
   6  -6  -3   64.59   48.40
   0   7  -3    4.50   24.30
   0   7   3   26.30   26.90
   0  -7   3   23.90   32.30
   0  -7  -3  -33.10   23.10
   0  -7   3  -15.80   28.80
   0   7  -3    5.00   21.90
   0  -7  -3   18.40   20.00
  -1   7   3  156.38   43.30
  -1  -7  -3  125.99   42.40
   1   7  -3  102.19   35.10
   1  -7   3  144.39   36.20
   1  -7   3  133.59   40.50
  -1  -7  -3   79.19   27.70
   1  -7  -3  121.69   34.10
  -1   7  -3  211.68   43.50
   1  -7  -3  103.39   33.60
   1   7   3  157.08   43.50
  -1   7  -3   60.69   31.20
  -1  -7   3   70.79   39.40
  -2   7   3   -3.30   28.40
   2   7  -3   21.20   27.70
   2  -7   3   52.49   32.10
  -2  -7  -3  -20.00   31.80
   2  -7   3    7.10   21.40
   2   7  -3   27.70   26.10
   2  -7  -3   27.10   22.40
  -2   7  -3   66.29   29.00
   2   7   3   67.89   38.90
  -2  -7   3   20.20   37.30
  -2   7  -3   94.99   35.70
   2  -7  -3   43.00   26.10
   3  -7   3   22.30   27.20
   3   7  -3    4.20   29.90
  -3  -7  -3   38.40   36.10
   3   7  -3    6.40   27.50
  -3   7   3  -18.30   29.20
   3  -7  -3   13.90   26.20
  -3   7  -3    8.40   23.90
   3   7   3   23.10   31.00
  -3  -7   3   10.20   32.20
  -3   7  -3   10.40   34.70
   4   7  -3   19.00   30.80
  -4   7   3   36.10   40.60
   4   7  -3  -12.20   24.80
  -4  -7  -3   27.40   38.80
   4  -7   3   11.40   29.00
   4   7   3   12.80   25.50
   4  -7  -3   27.40   33.10
  -4   7  -3   20.50   32.90
  -4  -7   3   20.30   35.90
   5   7  -3   -9.00   32.50
  -5  -7  -3   19.20   39.30
   5   7  -3    8.10   34.40
  -5   7   3   22.10   45.10
   5  -7   3   45.60   35.30
   5  -7  -3  -17.90   30.40
  -5  -7   3   11.90   36.70
   5   7   3   20.90   33.10
  -5   7  -3   -3.70   39.00
   0   8  -3  -27.40   28.30
   0   8   3   55.69   38.00
   0   8  -3   -1.00   29.90
   0  -8  -3   19.40   25.50
   0  -8  -3   44.00   33.10
   0  -8   3  -26.10   33.00
   1   8  -3   46.80   35.40
   1   8  -3   61.99   38.70
   1  -8   3   48.40   29.80
   1  -8   3   96.29   41.40
  -1   8   3   60.29   41.10
  -1  -8  -3  150.58   52.49
   1   8   3  161.78   48.80
  -1  -8   3   55.59   39.60
  -1   8  -3   73.79   36.00
   1  -8  -3   48.70   28.80
  -1   8  -3   55.59   35.70
   1  -8  -3   62.19   32.30
   2  -8   3   22.70   46.50
   2  -8   3   46.00   32.60
  -2  -8  -3  -10.40   42.90
   2   8  -3   86.89   34.80
   2   8  -3   38.70   31.90
  -2   8   3   67.39   40.00
   2  -8  -3   36.00   28.50
   2   8   3  -10.30   35.80
  -2   8  -3  103.39   42.10
  -2  -8   3  -17.80   38.80
  -3   8   3   13.70   37.10
   3  -8   3    7.20   28.50
   3   8  -3  -12.60   27.80
  -3  -8  -3   -8.70   46.40
   3   8  -3   15.30   32.10
   3   8   3    6.80   38.20
  -3  -8   3  -34.50   32.00
   3  -8  -3  -30.00   23.90
  -3   8  -3   19.10   37.80
   4   8  -3  -27.90   35.10
  -4   8   3  -26.30   40.80
  -4  -8  -3  -41.50   40.70
   4  -8   3   27.90   34.50
   4   8  -3   57.79   36.80
   4  -8  -3   -0.90   31.40
   4   8   3  -19.60   36.90
  -4   8  -3  -42.60   44.00
  -4  -8   3   79.79   45.80
   0   9   3   82.39   45.10
   0   9  -3  -20.90   34.20
   0  -9   3  -62.79   32.30
   0   9  -3  -71.99   34.00
   0  -9  -3   36.40   40.10
   1  -9   3  -49.10   33.80
   1   9  -3    3.60   33.30
  -1  -9  -3    6.90   42.90
   1   9  -3  -45.90   31.60
  -1   9   3   -3.00   41.40
   1  -9  -3   42.20   31.60
  -1  -9   3   52.39   44.10
   1   9   3   44.20   47.60
  -1   9  -3  -22.80   40.40
   1  -9  -3    7.30   35.50
   2   9  -3   15.50   37.30
   2   9  -3  -12.20   37.60
   2  -9   3   42.70   33.20
  -2  -9  -3   14.50   51.19
  -2   9   3   41.10   49.30
  -2  -9   3   10.00   48.00
   2  -9  -3   21.70   34.90
   2   9   3   54.09   52.19
   3   9  -3  -68.79   44.30
  -3  -9  -3   23.20   54.29
  -3   9   3   32.80   45.80
   3   9  -3  -21.50   36.80
   3  -9   3   46.70   34.40
   3   9   3    8.20   43.40
  -3  -9   3   -2.50   41.60
   3  -9  -3   21.90   34.70
   0   0   4 1603.24   97.29
   0   0   4 1690.53   90.99
   0   0  -4 1574.84   96.49
   0   0  -4 1625.84  101.89
   1   0  -4    0.20    9.70
   1   0  -4   11.40   11.40
  -1   0  -4    0.20   10.80
   1   0   4   -2.40    6.60
   1   0  -4  -14.90    9.70
   1   0  -4    3.00   12.70
  -1   0  -4   -0.30   10.20
   1   0   4    5.40   10.40
   2   0   4 1607.74  103.29
   2   0  -4 1726.73  105.39
   2   0   4 1640.84   98.49
   2   0  -4 1682.33  106.49
   2   0  -4 1682.03  100.29
   2   0  -4 1612.04  101.69
  -2   0  -4 1621.44  101.89
  -3   0  -4   15.90   18.00
   3   0  -4    3.00   12.80
   3   0   4   15.40   14.70
   3   0   4   -3.20   10.70
  -3   0   4   -1.30   12.80
   3   0  -4    3.20   18.60
  -3   0  -4   11.50   14.50
   3   0  -4   -3.90   14.00
   4   0  -4  382.56   46.70
  -4   0   4  377.26   46.90
   4   0   4  359.46   40.90
  -4   0   4  338.37   35.40
   4   0  -4  346.47   36.80
   4   0   4  378.16   43.00
  -4   0  -4  340.57   37.80
  -4   0  -4  333.57   46.10
   5   0  -4  -29.90   15.60
   5   0   4   -7.20   21.70
   5   0  -4   16.90   23.10
   5   0   4   34.50   22.00
  -5   0   4    5.00   20.20
  -5   0  -4    9.20   23.90
  -6   0  -4   33.90   30.70
   6   0  -4    4.70   28.90
   6   0  -4  -26.50   21.90
   6   0   4   16.60   25.20
  -6   0   4    8.10   22.90
   6   0   4   32.30   27.90
   7   0   4   12.80   27.90
  -7   0  -4   -8.00   30.30
   7   0  -4   20.00   34.60
  -7   0   4   22.20   34.20
   7   0   4  -40.20   30.90
   8   0  -4   84.19   49.40
  -8   0   4  158.38   53.09
  -8   0  -4  117.29   57.49
   8   0   4   83.59   47.70
   0  -1  -4  548.65   40.40
   0  -1  -4  467.55   32.50
   0   1  -4  454.15   40.70
   0   1  -4  447.06   40.40
   0  -1   4  473.45   36.80
   0  -1  -4  463.65   39.00
  -1  -1  -4  279.17   25.90
   1   1  -4  189.48   30.70
   1   1  -4  302.17   26.90
   1   1  -4  291.77   31.80
   1  -1   4  306.37   30.20
  -1  -1  -4  226.08   28.20
  -1  -1   4  332.97   25.90
   1  -1  -4  234.28   28.20
  -1   1  -4  337.77   32.80
  -1   1  -4  262.87   29.40
   1  -1  -4  303.27   26.80
   1   1   4  298.97   29.10
   1   1   4  300.47   27.70
   1  -1  -4  321.47   30.10
   2   1  -4  355.16   35.30
   2   1  -4  326.87   36.70
  -2  -1  -4  362.86   36.20
  -2  -1  -4  371.46   37.00
   2  -1   4  386.66   31.10
   2  -1   4  275.97   34.80
   2   1  -4  353.16   30.60
   2   1  -4  348.27   39.10
   2  -1  -4  329.97   32.90
   2   1   4  364.76   34.80
   2   1   4  336.47   33.40
  -2   1  -4  306.67   33.40
   2  -1  -4  388.06   38.90
  -2   1  -4  333.07   39.60
   2  -1  -4  399.66   35.90
   2  -1  -4  316.87   34.70
  -3   1   4 1140.29   82.19
   3  -1   4 1166.98   77.89
   3  -1   4 1083.89   82.29
   3   1  -4 1059.09   85.49
  -3  -1  -4 1245.98   81.39
   3   1  -4 1117.09   72.29
   3   1  -4 1186.58   84.69
  -3  -1  -4 1146.29   83.69
   3  -1  -4 1153.18   85.89
  -3   1  -4 1116.79   75.09
  -3   1  -4 1095.59   86.89
   3   1   4 1227.28   83.79
   3  -1  -4 1045.20   77.09
  -3  -1   4 1108.59   78.69
   3   1   4 1139.29   77.69
   3  -1  -4 1112.19   73.49
  -4   1   4    7.90   13.80
   4   1  -4   35.20   24.70
   4   1  -4   70.69   19.20
  -4  -1  -4   54.09   26.30
  -4  -1  -4   28.90   18.60
   4  -1   4   20.20   16.10
  -4   1   4   29.20   21.50
   4   1  -4   42.60   23.00
   4  -1   4   19.10   19.70
  -4   1  -4   39.70   27.00
  -4  -1   4   44.80   20.30
   4  -1  -4   23.30   17.10
  -4   1  -4   38.50   15.60
   4   1   4   20.50   22.00
   4   1   4   36.40   19.00
   4  -1  -4   23.30   21.10
   5   1  -4  444.76   47.80
  -5   1   4  392.76   51.99
   5  -1   4  307.07   46.30
   5   1  -4  289.47   52.99
   5  -1   4  380.16   48.30
  -5  -1  -4  427.96   45.20
  -5  -1  -4  311.87   52.69
   5   1   4  403.26   44.60
   5  -1  -4  344.17   51.39
   5   1   4  414.56   55.39
   5  -1  -4  388.16   45.60
  -5  -1   4  358.76   51.99
  -5  -1   4  410.56   44.30
  -5   1  -4  465.05   59.79
   6   1  -4   15.00   31.80
  -6  -1  -4   19.50   30.00
   6  -1   4   16.20   23.40
   6  -1   4  -13.20   24.30
  -6   1   4    2.90   27.20
   6   1   4   29.00   30.60
  -6  -1   4  -15.20   25.60
   6  -1  -4    5.20   22.80
  -6   1  -4   30.20   36.90
   6   1   4  -10.10   18.70
   6  -1  -4  -23.80   21.50
  -7   1   4    5.10   27.60
   7  -1   4   26.10   33.80
  -7  -1  -4   45.60   39.40
   7  -1   4   14.60   32.20
   7   1  -4  -26.70   30.70
  -7   1  -4   21.10   39.10
   7   1   4   21.80   39.20
   7  -1  -4   17.40   31.40
  -7  -1   4   20.00   31.60
  -8   1   4   44.80   43.80
  -8  -1  -4   86.39   51.29
   8  -1   4   -0.80   39.50
   8   1  -4  -24.30   42.80
   8  -1   4   71.09   47.70
   8  -1  -4   81.99   42.50
   8   1   4  112.89   59.59
  -8   1  -4   79.39   53.19
  -8  -1   4    3.70   37.10
   0   2  -4  656.33   53.49
   0  -2  -4  638.94   50.49
   0   2  -4  637.14   41.10
   0  -2   4  716.13   48.00
   0  -2  -4  681.43   52.29
   0   2   4  681.23   50.29
   0   2  -4  650.83   53.99
  -1  -2  -4 1144.79   79.89
  -1  -2  -4 1090.89   67.39
   1   2  -4 1164.48   82.39
  -1  -2  -4 1187.78   75.49
   1   2  -4 1136.59   71.89
   1  -2   4 1207.08   77.29
  -1   2   4 1070.49   66.79
  -1   2   4 1201.88   78.29
  -1  -2   4 1160.18   68.99
   1  -2  -4 1199.18   75.09
   1   2   4 1101.89   76.79
   1  -2  -4 1124.69   77.49
  -1   2  -4 1048.60   75.89
  -1  -2   4 1212.18   79.19
  -1   2  -4 1096.19   81.39
   2  -2   4   89.99   14.70
   2   2  -4   58.39   18.40
   2  -2   4   55.89   19.50
  -2   2   4   77.39   17.20
  -2  -2  -4   83.89   22.20
  -2  -2  -4   68.89   18.30
   2   2  -4   61.99   21.20
   2  -2  -4   67.99   17.40
  -2  -2   4   63.09   11.20
  -2  -2   4   34.00   19.30
  -2   2  -4   80.19   20.40
   2   2   4   82.99   16.90
   2  -2  -4   75.09   21.70
   2   2   4   32.60   15.70
   2  -2  -4   42.10   17.20
  -2   2  -4   99.89   25.90
   3   2  -4  252.27   23.80
  -3   2   4  230.88   33.10
  -3  -2  -4  317.17   35.60
  -3  -2  -4  274.37   33.00
   3  -2   4  239.58   36.20
   3   2  -4  265.67   37.00
   3   2  -4  241.58   34.80
   3  -2   4  232.18   29.40
   3   2   4  257.07   35.20
   3  -2  -4  262.17   26.80
   3   2   4  280.77   30.50
  -3   2  -4  248.38   27.70
  -3   2  -4  211.28   36.60
   3  -2  -4  188.68   37.20
   3  -2  -4  248.38   32.80
  -3  -2   4  269.07   35.70
   4   2  -4   20.30   21.40
   4   2  -4   26.20   20.90
  -4  -2  -4   15.70   18.50
  -4  -2  -4   23.60   18.40
   4  -2   4   16.40   18.70
  -4   2   4    6.60   18.50
   4  -2   4   14.70   18.80
   4  -2  -4   -4.50   18.60
  -4  -2   4   27.30   21.40
   4   2   4   18.90   16.60
  -4   2  -4    1.90   12.70
   4  -2  -4    2.40   16.30
  -4   2  -4   -5.90   21.10
   4   2   4   12.90   20.10
  -5  -2  -4  364.76   48.10
   5   2  -4  289.67   52.69
   5   2  -4  361.46   54.09
   5  -2   4  312.77   44.00
   5  -2   4  351.26   47.20
  -5  -2  -4  249.68   42.20
  -5   2   4  322.07   46.30
   5   2   4  340.17   41.10
  -5   2  -4  160.08   48.50
  -5  -2   4  276.87   44.40
  -5  -2   4  218.68   46.70
   5   2   4  282.97   52.59
   5  -2  -4  270.17   52.79
   5  -2  -4  380.86   47.50
   6  -2   4   68.69   31.70
  -6   2   4    4.90   28.70
  -6  -2  -4   34.70   29.70
   6  -2   4   29.00   29.70
   6   2  -4   21.40   29.90
  -6   2  -4  153.68   48.70
   6  -2  -4  104.69   36.70
  -6  -2   4   57.79   29.00
   6   2   4   33.70   34.60
   6  -2  -4  108.69   40.90
  -7   2   4   19.20   33.00
  -7  -2  -4   34.70   39.10
   7   2  -4  -40.70   29.70
   7  -2   4   31.00   31.60
   7  -2   4    9.60   33.50
  -7  -2   4   12.50   32.90
   7  -2  -4  -29.50   29.40
   7  -2  -4   46.20   39.40
  -7   2  -4   19.90   42.10
   7   2   4   47.50   43.00
   0   3  -4 2686.23  171.38
   0   3  -4 2750.82  157.38
   0  -3  -4 2762.52  164.98
   0  -3  -4 2849.31  167.88
   0   3   4 2763.32  167.98
   0  -3   4 2844.42  167.68
   0  -3   4 3025.30  161.88
   1  -3   4   22.40   14.60
  -1  -3  -4   49.99   18.20
   1   3  -4   26.50   13.00
   1  -3   4  -11.10   12.40
   1   3  -4   57.99   21.00
  -1  -3  -4   18.30   18.30
  -1   3   4   42.30   16.60
   1  -3  -4   19.90   15.90
  -1  -3   4    2.10   15.30
  -1   3  -4   20.70   17.10
   1   3   4    7.00   15.30
   1  -3  -4   45.10   18.20
  -1  -3   4   39.40   12.00
  -1   3  -4   19.00   10.30
   2  -3   4  406.16   37.70
  -2  -3  -4  414.16   35.10
  -2  -3  -4  373.76   43.00
   2   3  -4  444.86   41.40
   2   3  -4  400.86   47.10
  -2   3   4  346.97   34.10
   2  -3   4  432.96   42.30
   2   3   4  406.36   37.20
  -2  -3   4  346.97   41.80
   2  -3  -4  415.26   36.70
   2  -3  -4  400.36   41.80
  -2   3  -4  385.76   45.90
  -2   3  -4  346.47   31.80
   2   3   4  463.95   46.40
   3   3  -4   36.30   21.00
  -3   3   4    0.20   15.10
   3   3  -4   55.99   23.70
   3  -3   4   78.89   24.50
  -3   3   4  101.59   23.50
  -3  -3  -4   88.99   21.40
  -3  -3  -4   83.39   25.70
   3  -3   4   69.59   17.70
   3  -3   4   86.19   19.90
   3  -3  -4   85.19   19.10
   3   3   4   81.89   24.60
  -3   3  -4    0.10   19.00
   3   3   4  101.99   19.50
   3  -3  -4   62.49   23.50
  -3  -3   4   72.69   24.10
  -4  -3  -4   30.30   21.20
   4  -3   4   37.00   21.70
   4  -3   4   27.30   22.40
  -4  -3  -4   20.40   19.20
   4   3  -4   16.10   22.30
   4   3  -4   74.99   28.70
  -4   3   4   38.90   22.30
   4   3   4   75.19   29.50
   4  -3  -4   42.20   24.50
   4  -3  -4   57.69   25.90
  -4  -3   4   59.19   24.30
   4   3   4   65.89   21.10
  -4   3  -4   13.70   24.10
  -5  -3  -4   19.30   22.60
   5  -3   4   41.90   27.30
   5  -3   4   85.99   32.90
   5   3  -4   50.09   31.00
  -5  -3  -4   47.50   28.60
  -5   3   4   78.89   30.80
   5   3  -4   96.19   37.90
  -5   3  -4   43.20   32.10
   5  -3  -4   76.29   36.70
   5  -3  -4   71.49   30.20
  -5  -3   4  115.39   34.40
   5   3   4   51.59   28.90
  -6   3   4  225.98   49.60
   6  -3   4  170.38   48.80
  -6  -3  -4  235.88   43.60
   6  -3   4  239.08   51.59
   6   3  -4  216.78   54.19
  -6  -3  -4  274.27   52.09
  -6   3  -4  247.28   58.69
   6  -3  -4  202.68   47.40
  -6  -3   4  230.08   52.29
   6   3   4  206.28   55.89
   6  -3  -4  284.67   62.39
  -6  -3   4  274.77   58.89
   7  -3   4    4.70   41.00
  -7  -3  -4   25.40   38.80
   7  -3   4   64.79   41.00
   7   3  -4   24.10   41.20
  -7   3   4  -25.60   34.20
   7  -3  -4    2.70   31.60
   7   3   4    4.90   33.50
   7  -3  -4   -0.50   36.30
  -7  -3   4   10.10   39.90
  -7   3  -4   24.10   41.30
   0   4  -4  821.12   66.19
   0  -4  -4  704.63   61.29
   0   4  -4  683.53   54.09
   0   4   4  694.03   62.19
   0  -4   4  726.03   62.19
   0  -4  -4  712.73   57.09
   0  -4   4  736.73   54.39
   1  -4   4  118.29   25.40
   1   4  -4  100.19   21.50
  -1   4   4   76.99   24.90
  -1  -4  -4   91.59   25.60
   1  -4   4   83.09   23.10
  -1  -4  -4  114.69   24.70
   1   4  -4  107.29   30.10
  -1   4  -4  143.09   31.90
   1   4   4  112.59   29.60
  -1  -4   4  122.89   27.80
  -1  -4   4  117.49   18.70
   1  -4  -4   73.69   22.90
  -1   4  -4   97.79   19.30
   1  -4  -4   53.59   21.50
   2  -4   4  327.67   36.60
  -2   4   4  295.47   41.20
  -2  -4  -4  326.17   42.50
  -2   4   4  374.96   33.50
   2  -4   4  296.77   39.00
   2   4  -4  384.36   39.50
  -2  -4  -4  294.67   31.00
   2   4  -4  279.57   47.90
  -2   4  -4  348.97   34.50
  -2  -4   4  330.47   42.70
  -2   4  -4  362.56   47.50
   2  -4  -4  384.86   38.60
   2   4   4  342.87   34.80
   2   4   4  257.77   41.10
   2  -4  -4  341.97   41.20
  -3   4   4  701.63   56.89
   3   4  -4  748.03   63.49
   3  -4   4  699.53   54.29
   3  -4   4  666.63   61.59
   3   4  -4  608.44   63.89
  -3  -4  -4  622.84   53.89
  -3  -4  -4  673.43   63.89
   3  -4  -4  619.04   51.09
  -3   4  -4  606.44   65.39
   3   4   4  657.93   50.39
  -3   4  -4  525.75   51.19
   3  -4  -4  628.94   63.19
   3   4   4  655.23   63.89
  -3  -4   4  656.63   65.59
   4   4  -4   81.39   30.90
   4   4  -4   99.99   34.20
   4  -4   4   56.49   28.20
  -4  -4  -4  127.79   30.50
  -4  -4  -4   47.60   28.00
  -4   4   4  142.79   33.60
  -4   4   4  -11.70   22.20
  -4  -4   4   79.39   30.80
  -4   4  -4   38.80   21.80
  -4   4  -4   42.90   32.00
   4   4   4   67.89   28.50
   4  -4  -4  117.29   35.60
   5  -4   4   44.00   31.40
   5  -4   4   31.10   24.70
  -5   4   4   16.80   30.60
  -5  -4  -4   39.00   30.30
  -5   4   4   53.19   30.50
  -5  -4  -4   62.99   28.50
   5   4  -4   31.80   28.50
   5   4  -4   15.90   27.10
  -5  -4   4   37.10   29.90
  -5   4  -4  -36.20   23.80
   5  -4  -4   80.79   37.00
   5   4   4   60.19   31.20
  -6  -4  -4   22.70   30.60
   6   4  -4   46.80   37.90
  -6   4   4   30.70   31.90
  -6  -4  -4   23.50   29.10
   6  -4   4   96.39   43.60
  -6   4  -4   29.50   34.80
   6   4   4   11.90   32.90
   6  -4  -4   26.50   34.00
  -6  -4   4  -30.60   29.90
  -6  -4   4   46.90   43.00
   6  -4  -4   19.40   36.30
   7  -4   4   31.20   44.90
  -7   4   4   40.50   39.30
  -7  -4  -4    8.50   34.80
   7   4  -4   22.60   43.50
   7  -4  -4   13.20   39.40
  -7  -4   4   11.60   41.50
  -7   4  -4  -36.80   31.80
   7  -4  -4   -2.20   32.30
   7   4   4    7.40   36.50
   0  -5  -4  522.25   55.39
   0  -5  -4  614.14   51.79
   0   5   4  511.55   56.29
   0   5  -4  542.05   57.09
   0  -5   4  511.65   56.39
   0  -5   4  498.85   46.90
   0   5  -4  554.34   50.09
   1  -5   4   60.99   21.00
  -1  -5  -4  123.89   32.00
  -1   5   4   62.29   24.80
  -1  -5  -4   79.69   22.80
   1  -5   4   32.40   20.40
   1   5  -4   46.60   19.90
   1   5  -4   17.80   22.10
   1   5   4   50.79   22.80
  -1  -5   4   33.40   24.10
  -1  -5   4   31.40   16.30
  -1   5  -4   47.70   19.30
   1  -5  -4   39.40   22.20
   1  -5  -4   58.99   24.30
  -1   5  -4   25.50   23.80
  -2   5   4  -10.60   15.50
   2  -5   4    4.50   19.30
   2  -5   4   23.50   19.50
   2   5  -4   12.80   18.80
  -2  -5  -4   -4.90   18.70
  -2  -5  -4   20.60   22.10
   2   5  -4  -24.80   17.80
  -2  -5   4   -2.50   20.70
  -2   5  -4   13.60   21.00
   2   5   4  -10.50   18.40
  -2   5  -4   -1.20   15.20
   2  -5  -4  -13.30   18.70
   2  -5  -4  -17.50   12.70
   3  -5   4  775.62   63.99
   3   5  -4  796.42   70.19
  -3  -5  -4  703.53   71.79
  -3  -5  -4  956.40   70.19
   3  -5   4  654.63   69.29
  -3   5   4  705.93   75.09
   3   5  -4  704.53   72.69
  -3   5  -4  877.41   81.69
  -3  -5   4  718.83   74.39
   3   5   4  711.73   65.09
   3  -5  -4  776.72   73.49
  -3   5  -4  628.54   59.39
   3   5   4  660.83   71.69
   4   5  -4   41.70   28.30
  -4  -5  -4  -31.30   20.00
   4   5  -4   59.39   30.00
   4  -5   4    7.00   24.40
  -4  -5  -4   -9.20   26.50
  -4   5   4   24.60   28.80
   4  -5  -4    2.20   24.10
  -4   5  -4   -1.00   25.50
  -4   5  -4   16.40   26.30
   4   5   4    7.40   22.00
  -4  -5   4    3.30   27.80
   5   5  -4   60.49   38.80
  -5   5   4   11.70   29.20
   5   5  -4  180.38   45.30
  -5  -5  -4   98.69   39.60
  -5  -5  -4  113.19   34.10
   5  -5   4   80.49   35.60
   5   5   4   70.09   31.90
   5  -5  -4   14.10   33.50
  -5   5  -4  110.69   42.00
  -5  -5   4  114.59   41.30
  -6  -5  -4  107.99   45.30
   6   5  -4  109.09   47.20
  -6   5   4   31.90   40.60
   6  -5   4  130.89   47.60
  -6  -5  -4  150.18   45.30
   6   5  -4  137.59   45.70
  -6  -5   4  129.89   47.10
  -6  -5   4  119.79   47.60
  -6   5  -4  109.79   49.30
   6  -5  -4  159.68   49.80
   6   5   4   72.89   40.00
   0   6  -4  675.13   67.89
   0  -6  -4  531.85   63.29
   0  -6  -4  768.62   61.89
   0  -6   4  626.94   66.69
   0   6   4  672.63   71.39
   0   6  -4  695.33   63.49
   0  -6   4  659.53   57.69
   1  -6   4   59.49   27.40
  -1   6   4   46.20   27.30
  -1  -6  -4   69.99   32.20
   1  -6   4   57.49   26.10
   1   6  -4   25.40   23.00
  -1  -6  -4   65.69   24.90
   1   6  -4   20.30   20.70
  -1  -6   4   83.69   33.60
  -1   6  -4   70.09   26.00
   1   6   4   79.39   28.50
   1  -6  -4   57.29   26.40
   1  -6  -4   36.90   21.80
  -1   6  -4   78.49   32.30
   2   6  -4   60.59   25.70
  -2   6   4   98.59   36.40
   2   6  -4  124.29   39.20
   2  -6   4   72.79   25.80
   2  -6   4   57.99   28.20
  -2  -6  -4  131.69   38.00
  -2  -6  -4   58.59   25.90
  -2   6  -4   62.79   32.60
  -2  -6   4   52.89   30.30
   2  -6  -4   68.49   28.80
  -2   6  -4   47.00   23.60
   2  -6  -4   60.99   25.70
   2   6   4   85.09   33.50
  -3   6   4  307.47   57.69
   3   6  -4  281.67   52.49
   3   6  -4  346.27   47.60
   3  -6   4  303.67   52.49
  -3  -6  -4  285.47   53.39
   3  -6  -4  347.27   54.89
   3   6   4  271.47   52.79
  -3   6  -4  331.87   60.09
  -3  -6   4  143.99   46.40
  -4  -6  -4  -15.40   29.10
   4   6  -4   24.40   24.80
   4  -6   4  -17.10   24.90
   4   6  -4    2.70   25.20
  -4   6   4   26.80   36.80
   4   6   4   12.10   24.30
   4  -6  -4   30.20   29.00
  -4   6  -4   47.60   34.80
  -4  -6   4    2.90   29.20
   5  -6   4  -22.60   26.60
  -5  -6  -4    2.10   35.80
   5   6  -4   31.20   35.20
  -5   6   4    1.80   41.80
   5   6  -4   13.00   29.50
   5  -6  -4   18.60   38.60
   5   6   4    7.10   27.00
  -5  -6   4    3.80   33.70
  -5   6  -4    0.00   31.10
   6   6  -4  146.79   49.30
  -6   6   4  116.99   56.89
   6  -6   4   93.59   45.80
   6   6  -4  134.69   56.29
  -6  -6  -4  111.39   49.99
   6   6   4  109.09   49.90
   6  -6  -4  166.98   58.39
  -6  -6   4  156.18   55.69
  -6   6  -4   74.19   51.29
   0   7  -4  318.97   54.99
   0  -7  -4  449.46   49.30
   0  -7  -4  431.36   57.79
   0   7  -4  408.16   55.09
   0  -7   4  424.76   59.79
   0   7   4  361.06   57.39
  -1   7   4    0.70   24.90
  -1  -7  -4   34.50   24.30
   1   7  -4   30.00   26.10
   1  -7   4   55.19   25.10
   1   7  -4   53.49   28.10
   1  -7   4   -3.20   25.90
  -1  -7  -4   61.79   32.20
  -1   7  -4   15.80   24.70
  -1   7  -4   34.60   28.10
   1   7   4   26.60   30.80
   1  -7  -4   34.90   27.90
  -1  -7   4    4.80   29.70
   1  -7  -4  -14.70   21.80
  -2  -7  -4    2.20   29.90
   2  -7   4  -13.30   30.20
   2  -7   4  -18.20   23.30
   2   7  -4  -11.20   22.00
   2   7  -4   20.80   31.20
  -2   7   4    1.70   30.10
   2   7   4   11.10   29.20
  -2  -7   4   13.20   34.20
  -2   7  -4  -11.30   24.60
   2  -7  -4   21.30   23.50
   2  -7  -4   16.20   24.70
   3   7  -4  311.67   59.79
  -3   7   4  306.87   63.59
   3   7  -4  390.36   55.69
   3  -7   4  388.26   61.19
  -3  -7  -4  393.56   66.79
   3  -7  -4  370.26   60.09
  -3  -7   4  314.57   62.09
   3   7   4  265.17   56.89
  -3   7  -4  404.36   68.69
   4  -7   4  -15.40   26.40
   4   7  -4   29.00   28.70
  -4   7   4  -12.90   34.60
   4   7  -4    0.80   30.10
  -4  -7  -4   44.10   39.10
   4   7   4  -36.80   25.60
   4  -7  -4   -4.30   28.10
  -4  -7   4  -14.00   32.20
  -4   7  -4   23.30   36.70
   5   7  -4    8.50   33.20
   5   7  -4    5.70   38.30
  -5   7   4    7.80   41.30
   5  -7   4   17.80   29.00
  -5  -7  -4  -50.19   34.70
  -5  -7   4    7.40   35.70
   5  -7  -4  -12.90   30.30
   5   7   4  -17.00   30.30
  -5   7  -4   22.70   40.80
   0  -8  -4  287.97   48.20
   0   8  -4  213.38   52.39
   0  -8   4  291.97   62.79
   0   8  -4  335.17   62.49
   0   8   4  255.37   60.89
   0  -8  -4  335.97   60.19
  -1   8   4   26.20   34.00
   1   8  -4   18.90   29.70
  -1  -8  -4   16.90   35.10
   1   8  -4   30.10   31.10
   1  -8   4  -68.59   27.00
   1  -8  -4   13.30   28.40
  -1  -8   4    7.10   36.80
  -1   8  -4    3.80   29.70
   1   8   4   28.70   35.90
   1  -8  -4  -17.50   26.20
   2  -8   4  -29.80   41.00
   2   8  -4  -14.00   27.40
  -2   8   4  -13.10   31.70
   2   8  -4   10.60   27.70
  -2  -8  -4   39.20   43.60
   2  -8   4  -17.10   26.10
  -2  -8   4  -58.39   35.80
   2  -8  -4  -36.90   22.70
   2   8   4  -26.70   37.50
  -2   8  -4   25.50   36.60
  -3   8   4   94.49   52.79
   3   8  -4  120.99   40.30
  -3  -8  -4  124.79   57.29
   3   8  -4   90.39   42.80
   3  -8   4  193.58   46.20
   3   8   4  104.29   49.99
  -3   8  -4  110.69   47.20
  -3  -8   4   18.80   37.60
   3  -8  -4  207.88   47.90
   4   8  -4  -27.80   32.50
  -4   8   4  -19.30   48.80
  -4  -8  -4   15.10   43.00
   4   8  -4  -21.00   34.40
   4  -8   4   32.50   34.20
  -4  -8   4   20.20   40.20
   4  -8  -4   43.60   41.00
  -4   8  -4   47.60   41.10
   4   8   4  -23.90   33.00
   0  -9  -4  193.78   55.39
   0   9  -4  144.69   47.70
   0   9   4  199.38   63.19
   0  -9   4  243.08   58.69
  -1  -9  -4  -20.30   40.60
   1   9  -4  -23.00   32.40
  -1   9   4  -23.90   35.90
   1  -9   4  -36.70   37.50
  -1   9  -4  -16.70   33.90
   1   9   4   -6.70   41.40
   1  -9  -4   38.70   36.00
  -1  -9   4   15.60   44.10
   1  -9  -4  -18.10   31.60
   2   9  -4  -29.30   28.90
  -2  -9  -4   -9.80   48.00
  -2   9   4  -38.00   40.10
   2   9  -4    0.20   35.60
   2   9   4   35.70   50.09
  -2  -9   4    1.40   45.60
  -2   9  -4   29.40   41.60
   2  -9  -4   26.00   38.10
   0   0  -5   -0.50   14.40
   0   0  -5    4.10   11.50
   0   0   5   -7.60    5.30
   0   0   5    4.00   10.00
  -1   0  -5   -0.30   12.40
  -1   0  -5   -8.20   11.10
   1   0  -5    7.10   13.80
   1   0  -5  -11.80   13.30
   1   0  -5    1.00   11.60
   1   0   5   -5.70   10.40
   1   0  -5   -1.40   11.20
   1   0   5  -11.20    7.90
  -2   0  -5 2599.54  161.58
   2   0  -5 2669.83  164.48
   2   0  -5 2873.31  161.38
   2   0  -5 2711.03  162.58
   2   0   5 2798.42  155.78
   2   0  -5 2824.22  163.18
   2   0   5 2761.22  164.48
  -3   0  -5   -1.30   16.90
   3   0   5    0.00   13.70
  -3   0  -5    5.60   14.90
   3   0  -5   -8.70   13.50
   3   0   5   -5.10   15.60
   3   0  -5   -0.80   15.30
   3   0  -5   -1.90   15.50
   3   0  -5  -13.50   12.70
  -4   0  -5 2137.89  133.49
   4   0  -5 2113.39  143.59
   4   0   5 2079.59  139.39
   4   0  -5 2124.79  132.49
  -4   0  -5 2192.58  145.89
  -4   0   5 2105.69  132.19
   4   0   5 2151.28  136.59
  -4   0   5 2083.89  141.69
  -5   0  -5    3.00   20.70
  -5   0   5   23.20   25.00
  -5   0  -5   21.40   31.00
   5   0   5   37.10   23.70
   5   0   5   15.80   19.90
   5   0  -5   18.50   22.60
   5   0  -5   19.50   21.30
  -6   0  -5   -1.80   32.20
   6   0   5    4.90   26.10
  -6   0   5   -0.90   25.50
   6   0  -5   -5.00   28.50
   6   0   5   21.80   28.20
  -7   0  -5   29.90   42.90
   7   0   5   36.90   38.00
  -7   0   5   31.70   31.90
   7   0   5  -10.50   26.20
   7   0  -5  -52.89   30.20
  -8   0   5   55.99   38.20
   0  -1   5    4.80   10.10
   0  -1  -5    2.20   12.00
   0  -1  -5    2.30    9.30
   0   1  -5   16.20   14.60
   0   1  -5  -22.30    9.90
   0  -1  -5   17.90   12.70
   1   1  -5 1090.89   75.89
  -1  -1  -5 1026.00   66.69
   1   1  -5 1115.79   75.59
   1  -1   5 1059.49   72.99
   1   1  -5 1047.70   66.09
  -1  -1  -5  972.30   72.29
   1  -1  -5 1039.10   67.09
  -1   1  -5 1034.00   75.79
  -1   1  -5 1001.40   73.39
   1   1   5  972.30   69.89
  -1  -1   5 1061.89   67.29
   1  -1  -5  990.60   71.79
   1   1   5 1017.20   67.89
   1  -1  -5 1010.90   72.49
   2   1  -5  607.04   49.10
   2   1  -5  528.45   50.59
  -2  -1  -5  590.64   49.99
   2   1  -5  606.04   53.49
   2  -1   5  525.15   51.49
   2   1  -5  593.84   46.30
  -2  -1  -5  518.35   48.80
   2  -1   5  591.14   41.00
   2  -1  -5  615.54   48.90
   2   1   5  599.64   47.30
  -2   1  -5  497.95   51.29
  -2   1  -5  539.75   49.10
   2   1   5  539.55   47.20
   2  -1  -5  582.14   49.50
   2  -1  -5  659.63   50.49
   2  -1  -5  595.74   52.49
  -3   1   5   63.49   20.40
   3   1  -5  104.29   26.60
  -3  -1  -5   78.89   25.10
   3   1  -5   91.09   19.70
   3   1  -5   87.29   27.40
   3  -1   5   71.69   19.00
  -3  -1  -5   54.99   22.00
   3  -1   5  107.09   26.10
  -3   1  -5   23.80   21.90
   3  -1  -5   52.69   22.50
   3   1   5   58.69   20.50
   3  -1  -5   60.79   17.80
   3  -1  -5   41.70   19.60
  -3  -1   5   21.00   18.70
  -3   1  -5   51.49   19.50
   4  -1   5  171.78   31.60
   4   1  -5  176.58   36.20
  -4   1   5  125.99   31.00
   4   1  -5  218.98   27.70
  -4  -1  -5   90.39   26.00
   4  -1   5  166.38   34.40
   4   1  -5  141.99   35.30
  -4  -1  -5  226.08   38.80
   4   1   5  165.18   31.00
   4  -1  -5  191.58   33.20
  -4  -1   5  162.28   30.20
   4  -1  -5  152.78   34.30
  -4   1  -5  158.88   39.00
   4   1   5  150.18   34.80
  -4   1  -5  141.69   27.40
   5  -1   5  333.37   46.50
   5  -1   5  276.07   47.60
  -5  -1  -5  302.67   41.40
  -5   1   5  420.96   52.79
  -5  -1  -5  397.66   53.09
   5   1  -5  315.57   54.59
  -5  -1   5  301.07   53.39
   5   1   5  321.47   49.30
  -5   1  -5  396.86   64.39
   5  -1  -5  228.88   48.40
  -5  -1   5  355.56   44.20
   5   1   5  349.27   44.60
   5  -1  -5  384.96   44.30
   6   1  -5   28.50   31.70
   6  -1   5   39.30   26.50
  -6  -1  -5    2.70   29.30
  -6   1   5    1.90   27.90
   6  -1   5   57.69   32.10
   6  -1  -5   16.80   25.40
  -6   1  -5   27.90   35.80
   6   1   5    7.80   29.40
   6   1   5   24.60   27.40
   6  -1  -5   42.30   29.70
  -6  -1   5   25.60   26.90
   7  -1   5  186.98   48.70
  -7  -1  -5  137.19   45.10
   7  -1   5  121.19   47.80
   7   1  -5   49.40   42.40
  -7   1   5  136.79   43.30
   7   1   5  101.89   46.90
  -7   1  -5   22.00   43.80
   7  -1  -5  140.19   49.80
  -7  -1   5    7.90   31.50
   0   2  -5   -2.40   13.40
   0  -2  -5   20.50   15.60
   0  -2   5    9.80   12.40
   0   2   5    9.40   12.20
   0  -2  -5   15.10   14.80
   0   2  -5    6.30   14.20
   1  -2   5 2906.81  174.38
   1   2  -5 2860.91  179.58
  -1  -2  -5 2890.21  162.38
  -1   2   5 2905.61  173.38
   1   2  -5 2917.71  166.18
  -1  -2  -5 2864.41  176.78
   1   2  -5 2924.21  177.48
  -1   2   5 3101.99  161.78
  -1  -2   5 3041.20  165.98
  -1   2  -5 2804.72  180.48
   1  -2  -5 3052.89  175.38
   1  -2  -5 2902.21  171.78
   1   2   5 3003.10  172.38
  -1   2  -5 2930.21  174.68
   1   2   5 3102.59  174.28
   2   2  -5  160.58   27.20
  -2  -2  -5  122.59   29.00
  -2   2   5  128.29   21.70
  -2  -2  -5  161.48   26.00
   2  -2   5  143.09   28.80
   2   2  -5  138.49   29.80
  -2   2  -5  110.19   29.10
   2   2   5  167.98   28.20
  -2   2  -5  142.99   26.10
   2  -2  -5  180.88   29.60
  -2  -2   5  144.99   28.10
  -2  -2   5  127.39   16.70
   2  -2  -5  114.49   22.80
   2   2   5  193.78   24.80
  -3   2   5   32.90   17.60
  -3  -2  -5   -1.00   18.30
   3  -2   5   58.99   21.50
   3   2  -5   29.90   20.20
   3  -2   5   27.50   15.30
   3   2  -5   73.19   23.20
  -3  -2  -5   55.79   20.50
   3  -2  -5   78.99   23.70
  -3  -2   5   57.49   24.00
   3  -2  -5   65.29   25.40
  -3   2  -5   35.80   23.20
   3   2   5   38.70   16.80
  -3   2  -5   26.80   15.50
   3   2   5   47.60   19.60
   3  -2  -5   36.00   18.10
   4  -2   5  101.19   28.70
  -4  -2  -5   67.49   25.10
  -4  -2  -5  105.19   32.20
   4   2  -5  135.89   36.30
   4  -2   5  111.29   28.60
   4   2  -5  122.39   32.40
  -4   2   5  168.28   34.60
   4  -2  -5   76.59   26.40
   4   2   5  124.19   32.70
  -4   2  -5  160.98   26.80
  -4  -2   5  176.58   34.30
  -4   2  -5  138.09   36.30
   4  -2  -5  164.28   39.40
   4   2   5  243.18   32.60
   5  -2   5  548.75   55.59
  -5   2   5  526.35   58.39
  -5  -2  -5  517.05   55.89
  -5  -2  -5  314.97   54.89
   5  -2   5  388.46   53.89
   5   2  -5  480.45   62.29
   5   2  -5  507.55   66.59
   5  -2  -5  404.46   60.59
  -5  -2   5  403.96   52.19
   5   2   5  420.36   50.29
  -5   2  -5  491.15   67.19
   5   2   5  455.15   62.99
   5  -2  -5  494.25   54.29
  -6  -2  -5  -17.00   27.60
   6   2  -5  -31.30   30.70
   6  -2   5    7.20   25.80
   6  -2   5   40.60   29.10
  -6   2   5    5.50   24.50
   6  -2  -5   34.20   28.30
  -6  -2   5    4.50   26.00
   6  -2  -5    6.10   28.40
  -6   2  -5   21.90   39.00
   6   2   5   18.00   32.20
   7   2  -5  307.27   73.39
  -7   2   5  300.27   63.39
  -7  -2  -5  312.87   61.69
   7  -2   5  331.27   63.29
   7  -2  -5  307.87   69.89
  -7  -2   5  275.77   61.99
   7   2   5  290.07   70.29
  -7   2  -5  231.78   67.59
   7  -2  -5  372.36   61.09
   0  -3   5   17.30   15.70
   0  -3  -5    6.90   16.70
   0  -3  -5   -1.20   12.50
   0   3  -5   12.60   14.60
   0   3   5   -7.50   12.30
   0  -3   5  -12.30   11.90
   0   3  -5   -4.10    7.90
  -1  -3  -5   37.30   19.60
   1   3  -5   33.60   14.30
   1   3  -5    1.10   15.60
   1  -3   5   39.80   18.10
  -1  -3  -5   35.10   17.60
  -1   3   5   31.70   15.50
   1   3   5   13.60   17.40
  -1   3  -5  -20.10   13.30
  -1  -3   5   20.40   12.80
   1  -3  -5   28.90   17.20
  -1  -3   5   12.50   16.60
  -1   3  -5   26.40   17.80
   1  -3  -5   22.00   16.10
   2   3  -5  612.24   66.09
   2   3  -5  797.22   62.39
   2  -3   5  711.43   63.19
  -2   3   5  825.42   54.99
  -2  -3  -5  737.63   54.89
  -2  -3  -5  889.41   67.79
  -2   3  -5  718.53   70.09
  -2  -3   5  670.13   65.59
   2  -3  -5  717.73   58.19
  -2  -3   5  758.32   49.60
  -2   3  -5  807.62   62.19
   2   3   5  746.83   58.69
   2  -3  -5  832.42   66.89
   2   3   5  797.12   66.99
  -2   3  -5  801.72   50.89
   3  -3   5   40.70   22.40
   3   3  -5   17.60   19.50
  -3   3   5    4.40   14.70
  -3  -3  -5   56.29   19.00
  -3  -3  -5   40.40   22.10
  -3   3   5   -7.70   16.20
   3   3  -5   48.50   22.40
   3   3   5   54.09   17.20
  -3   3  -5   52.69   24.90
  -3  -3   5   17.30   19.30
   3  -3  -5    6.50   16.10
  -3   3  -5   16.80   13.90
   3   3   5   31.00   20.90
   3  -3  -5   44.30   19.40
  -3   3  -5   40.20   17.60
   4   3  -5  485.95   55.39
  -4  -3  -5  317.07   44.90
  -4   3   5  316.77   44.30
   4  -3   5  452.05   53.69
  -4  -3  -5  301.77   42.60
   4  -3   5  369.76   44.50
   4   3  -5  353.86   51.89
   4   3   5  377.16   50.39
  -4  -3   5  429.76   52.39
  -4   3  -5  286.87   52.99
   4  -3  -5  396.86   48.70
   4  -3  -5  444.66   56.59
   4   3   5  415.26   42.30
  -5  -3  -5   59.49   29.00
  -5   3   5   31.40   26.20
   5  -3   5   40.40   29.90
   5   3  -5   16.20   30.60
   5  -3   5   76.39   33.20
   5   3  -5   94.99   35.50
  -5  -3  -5   26.90   25.70
   5  -3  -5  100.09   37.30
  -5  -3   5   -2.30   24.20
   5   3   5  -13.10   21.60
   5  -3  -5   51.99   31.20
  -5   3  -5   34.00   30.90
   5   3   5   49.99   27.90
  -6   3   5   14.40   29.10
  -6  -3  -5    3.60   27.50
   6  -3   5   28.20   33.80
  -6  -3  -5   85.79   33.50
   6   3  -5   42.00   34.10
   6   3   5   -3.80   31.60
  -6   3  -5   49.30   35.20
   6  -3  -5   12.40   32.00
   6  -3  -5   13.00   32.60
  -6  -3   5   10.10   42.30
  -6  -3   5   29.20   30.90
   7   3  -5   29.00   42.70
  -7   3   5  -17.70   30.40
  -7  -3  -5   -9.80   38.10
   7  -3   5   16.00   38.40
   7   3   5  -14.90   36.80
   7  -3  -5   12.90   34.30
  -7  -3   5  -42.20   31.20
   7  -3  -5  -21.30   31.60
  -7   3  -5   19.20   38.80
   0  -4  -5   -8.70   13.60
   0   4  -5   -3.30   10.90
   0  -4   5    0.60   16.50
   0   4   5    5.90   12.90
   0  -4   5   21.40   14.90
   0   4  -5   -0.90   18.30
   0  -4  -5  -11.80   16.80
   1   4  -5  272.17   46.80
  -1  -4  -5  309.27   42.60
   1  -4   5  401.66   45.10
  -1  -4  -5  463.05   44.90
   1  -4   5  434.76   43.10
  -1   4   5  394.66   44.90
   1   4  -5  435.86   38.90
  -1   4  -5  404.26   49.30
   1  -4  -5  529.15   49.60
  -1   4  -5  349.67   33.20
   1  -4  -5  377.26   44.50
   1   4   5  425.16   47.30
  -1  -4   5  414.26   46.70
  -1  -4   5  394.96   34.70
   2   4  -5  514.05   60.09
   2  -4   5  633.24   56.29
  -2  -4  -5  485.55   54.39
  -2  -4  -5  525.05   43.10
   2   4  -5  585.74   52.19
  -2   4   5  616.54   60.09
  -2   4   5  500.65   45.50
   2  -4   5  524.35   50.99
  -2   4  -5  549.45   44.90
   2   4   5  545.55   49.60
   2  -4  -5  654.13   52.89
  -2   4  -5  589.44   64.79
  -2  -4   5  524.45   56.39
   2   4   5  600.14   59.79
   2  -4  -5  583.24   56.69
   3  -4   5  -15.50   17.30
   3  -4   5   37.30   21.80
  -3   4   5   20.00   17.50
   3   4  -5  -26.30   17.10
   3   4  -5   24.90   21.10
  -3   4   5  -15.10   17.90
  -3  -4  -5   47.70   26.50
  -3  -4  -5   -8.00   15.50
  -3  -4   5   -1.50   21.40
  -3   4  -5    5.60   14.40
   3   4   5    7.80   14.60
   3  -4  -5   25.10   18.30
   3  -4  -5    4.30   22.90
   3   4   5    9.90   20.50
  -3   4  -5   40.10   25.40
  -4  -4  -5  512.55   57.79
  -4   4   5  589.14   57.59
   4  -4   5  483.05   57.89
   4   4  -5  473.05   60.39
  -4  -4  -5  565.64   56.79
   4   4  -5  482.75   62.49
  -4  -4   5  540.65   62.49
   4  -4  -5  509.45   60.29
   4   4   5  550.04   48.20
  -4   4  -5  519.75   64.29
   4   4   5  438.36   57.09
  -5  -4  -5  127.19   34.40
  -5   4   5  116.49   33.70
   5   4  -5   36.20   32.70
   5   4  -5   90.89   36.00
  -5   4   5   37.20   33.50
   5  -4   5   56.09   33.60
  -5  -4  -5  130.79   37.70
   5   4   5   47.20   29.70
  -5  -4   5   77.59   35.20
   5  -4  -5   17.00   30.50
  -5   4  -5   92.59   42.30
   6   4  -5   42.40   32.70
   6   4  -5   12.90   36.60
  -6   4   5    8.10   28.10
   6  -4   5    4.80   36.90
  -6  -4  -5   -7.00   31.20
  -6  -4  -5  -23.00   26.30
  -6  -4   5   -1.80   30.50
   6  -4  -5   69.49   36.90
   6  -4  -5  -10.20   30.00
   6   4   5   11.40   30.90
  -6   4  -5   14.80   39.60
  -7   4   5   45.70   39.60
   7   4  -5   51.39   49.10
   7  -4   5   72.89   49.70
  -7  -4  -5  147.69   50.29
   7   4   5   40.80   44.80
  -7   4  -5  -17.40   40.20
   7  -4  -5   57.79   42.30
   7  -4  -5   62.19   45.40
  -7  -4   5   77.69   53.69
   0   5   5  -12.50   15.80
   0  -5   5    9.90   15.20
   0   5  -5   12.90   15.10
   0  -5  -5   29.80   20.30
   0   5  -5   -9.00   17.40
   0  -5   5  -16.60   17.40
   0  -5  -5    7.70   18.10
   1  -5   5  271.07   35.50
  -1  -5  -5  243.78   38.70
   1   5  -5  287.67   49.80
   1   5  -5  266.17   33.80
   1  -5   5  353.66   42.70
  -1  -5  -5  356.26   46.90
  -1   5   5  233.18   41.70
  -1   5  -5  294.47   48.20
  -1  -5   5  333.37   31.80
  -1   5  -5  280.27   34.00
   1   5   5  278.57   42.60
   1  -5  -5  254.67   40.50
  -1  -5   5  135.39   37.70
   1  -5  -5  334.87   42.80
  -2  -5  -5  -20.90   17.90
   2   5  -5   20.50   18.30
   2   5  -5   20.20   23.90
  -2   5   5  -17.10   14.40
   2  -5   5   38.50   22.20
   2  -5   5   10.20   16.70
   2  -5  -5    2.70   18.30
   2   5   5  -14.90   21.10
   2  -5  -5   -1.80   18.40
  -2   5  -5  -23.00   21.40
  -2  -5   5  -21.00   19.70
  -3   5   5   19.40   27.60
   3   5  -5   25.60   20.30
   3  -5   5   55.89   23.40
   3  -5   5   62.49   27.90
   3   5  -5   11.20   25.20
  -3  -5  -5  -28.60   20.40
  -3  -5   5   16.00   24.50
   3  -5  -5   34.80   24.80
   3   5   5   23.80   24.40
  -3   5  -5   48.70   30.80
   3   5   5   17.90   14.70
  -4  -5  -5   39.60   30.80
  -4   5   5   -8.10   30.70
   4   5  -5   43.60   29.60
   4  -5   5   10.40   24.30
   4   5  -5    2.00   23.10
   4  -5  -5    1.10   24.80
   4   5   5   69.79   30.90
  -4   5  -5   28.40   30.20
  -4  -5   5   52.49   32.20
   5   5  -5   81.89   37.20
  -5   5   5   28.40   37.50
  -5  -5  -5   79.59   34.40
   5  -5   5   40.80   33.80
   5   5  -5  119.69   42.50
   5   5   5  106.69   41.20
  -5   5  -5   82.09   38.90
  -5  -5   5   85.09   43.00
   5  -5  -5  118.09   45.70
  -6  -5  -5   24.30   31.70
  -6   5   5   16.90   44.10
   6  -5   5  -20.80   39.80
   6   5  -5  -21.30   27.50
   6   5  -5   27.80   42.90
  -6  -5   5   -0.20   37.00
   6  -5  -5   11.90   41.00
  -6   5  -5    8.30   37.30
   6   5   5   -9.40   29.10
   0   6  -5   23.50   25.30
   0  -6  -5  -23.40   18.30
   0  -6   5   -5.20   21.50
   0   6   5   -2.30   19.30
   0  -6  -5    4.80   21.50
   0  -6   5  -55.29   15.90
   1   6  -5  114.09   29.50
  -1  -6  -5  156.98   43.50
   1  -6   5  163.58   39.70
   1   6  -5   48.30   30.60
  -1  -6  -5  134.29   33.70
  -1   6   5  110.89   36.10
   1  -6   5   48.60   25.40
   1  -6  -5  148.89   33.80
   1   6   5  133.59   36.70
  -1  -6   5  177.88   40.80
   1  -6  -5  128.59   33.70
  -1   6  -5   97.29   33.60
   2   6  -5  145.69   33.00
  -2  -6  -5  131.99   38.40
  -2  -6  -5  153.98   33.60
   2   6  -5   86.29   34.60
   2  -6   5  128.59   33.50
   2  -6   5  151.98   36.00
  -2   6   5  119.89   38.70
  -2  -6   5   70.89   34.20
   2  -6  -5  103.69   32.20
   2   6   5  108.89   35.80
  -2   6  -5  213.88   49.40
   2  -6  -5  204.68   39.90
   3   6  -5   -0.90   22.20
   3   6  -5   -8.70   22.70
   3  -6   5  -41.30   23.30
  -3  -6  -5    0.30   26.60
  -3   6   5   18.50   31.10
   3  -6  -5    4.30   21.50
  -3   6  -5    4.90   30.70
  -3  -6   5   30.40   30.00
   3   6   5    8.10   27.40
   4   6  -5  126.89   40.70
   4   6  -5   57.09   32.30
  -4  -6  -5   82.39   37.80
  -4   6   5  128.19   45.70
   4  -6   5  143.29   41.60
  -4  -6   5   81.39   41.50
   4   6   5   64.69   37.10
   4  -6  -5  173.58   46.00
  -4   6  -5  169.28   49.80
  -5  -6  -5   -1.10   30.20
   5  -6   5  -33.10   30.40
   5   6  -5  -13.30   35.60
  -5   6   5  -42.90   37.50
   5   6  -5   33.20   32.00
  -5   6  -5   14.10   34.80
   5  -6  -5   45.90   38.50
  -5  -6   5   16.90   39.20
   5   6   5   -5.20   29.60
  -6   6   5  -18.50   44.10
   6   6  -5   10.00   37.20
   6   6  -5    6.40   35.70
  -6  -6  -5   -6.50   36.80
   6  -6   5   -1.40   33.90
   6  -6  -5  -15.10   37.00
  -6   6  -5   53.99   46.60
  -6  -6   5  -28.80   40.70
   6   6   5   10.90   39.60
   0  -7  -5   10.00   25.80
   0   7   5   -3.90   24.00
   0  -7   5    8.60   26.70
   0  -7  -5  -19.90   20.80
   0   7  -5   -3.80   22.90
  -1   7   5   99.49   38.30
  -1  -7  -5   -5.80   30.70
   1   7  -5  130.39   39.70
   1  -7   5   97.69   32.90
  -1  -7  -5   86.39   29.30
   1  -7   5   62.79   33.20
   1   7  -5   86.19   27.70
   1   7   5   96.09   36.20
   1  -7  -5   38.70   26.40
  -1   7  -5   80.79   35.20
  -1  -7   5    1.10   30.60
   1  -7  -5  111.99   36.40
  -2   7   5   17.30   34.20
   2   7  -5   64.79   38.30
  -2  -7  -5  -16.30   31.90
   2  -7   5   11.00   27.60
   2   7  -5   42.60   27.90
   2  -7   5   70.09   31.80
   2  -7  -5   70.19   31.90
   2   7   5   -5.70   28.10
  -2  -7   5   34.40   34.40
   2  -7  -5    6.10   27.00
  -2   7  -5   61.39   34.60
  -3   7   5    2.50   38.00
  -3  -7  -5   -4.10   33.20
   3  -7   5   -8.50   25.50
   3   7  -5    6.50   27.00
   3   7  -5   41.00   27.80
  -3  -7   5    3.40   32.70
  -3   7  -5   48.30   33.90
   3  -7  -5   30.80   33.60
   3   7   5   -8.50   26.90
   4   7  -5   13.60   32.80
  -4   7   5   62.59   46.20
   4   7  -5   -7.40   29.30
   4  -7   5   -0.20   33.90
  -4  -7  -5   30.50   37.50
   4   7   5    1.70   33.30
  -4  -7   5   76.99   44.70
   4  -7  -5   29.40   29.00
  -4   7  -5  -10.30   35.50
   5  -7   5   -8.70   33.70
   5   7  -5   11.40   32.70
   5   7  -5   62.89   45.20
  -5  -7  -5   15.50   38.70
  -5   7   5   -0.70   40.40
  -5   7  -5  100.39   51.89
   5  -7  -5  -13.70   31.40
   5   7   5   -2.40   32.00
  -5  -7   5  -27.50   33.30
   0  -8   5    9.80   38.60
   0  -8  -5   19.70   34.30
   0   8   5  -10.50   30.90
   0   8  -5  -18.20   28.50
   0  -8  -5   20.10   24.70
   1  -8   5   47.20   41.20
  -1  -8  -5   40.20   40.80
  -1   8   5   64.99   40.00
   1   8  -5   92.99   39.90
  -1   8  -5   11.00   33.10
  -1  -8   5  -18.10   39.30
   1  -8  -5   50.29   31.40
   1  -8  -5   85.59   34.50
   1   8   5   24.00   36.60
   2  -8   5  -10.90   25.70
   2   8  -5   14.10   31.20
  -2   8   5   20.70   38.30
   2   8  -5   -3.00   29.40
   2  -8   5   31.70   39.20
  -2  -8  -5   -6.70   39.10
  -2   8  -5   19.00   32.70
   2  -8  -5   26.90   30.70
   2   8   5   -4.20   32.20
  -2  -8   5  -21.00   36.00
   3   8  -5   54.99   34.80
  -3   8   5    4.30   44.60
   3  -8   5   41.40   30.60
   3   8  -5   27.90   34.50
  -3  -8  -5   -0.20   45.20
   3  -8  -5  -23.40   26.40
   3   8   5   28.60   36.50
  -3  -8   5   -3.80   38.10
  -3   8  -5   50.49   41.50
   4   8  -5   34.00   36.00
   4  -8   5   13.40   31.80
   4   8  -5  -18.90   33.90
  -4  -8  -5  -42.00   36.60
  -4   8   5  -55.39   44.90
   4   8   5  -29.90   33.80
  -4  -8   5   11.10   40.10
   4  -8  -5   41.50   41.20
  -4   8  -5  -19.90   33.40
   0   9   5   10.70   42.60
   0  -9  -5   25.80   38.80
   0  -9   5  -27.00   39.10
   0   9  -5   -1.20   34.40
   1  -9   5   74.79   41.10
   1   9  -5  -48.20   33.40
  -1   9   5   -5.70   40.00
  -1  -9  -5   53.99   47.50
   1  -9  -5   -9.60   27.90
   1   9   5   25.90   45.90
   1  -9  -5   28.50   33.40
  -1  -9   5  -49.50   41.60
  -1   9  -5    1.20   35.70
   2   9  -5  -14.90   29.80
  -2   9   5    6.80   51.19
  -2  -9  -5   66.39   53.29
   2  -9  -5   63.49   39.30
  -2  -9   5  -16.70   44.50
  -2   9  -5  -27.70   38.60
   2   9   5  -50.79   43.10
   0   0   6  940.91   56.39
   0   0  -6  894.51   71.89
   0   0   6  851.11   64.89
   0   0  -6  937.41   64.99
   1   0  -6   -3.00   15.80
   1   0   6   15.50    9.70
   1   0  -6   -2.90   11.50
  -1   0  -6  -28.30   12.00
   1   0   6    9.40   12.60
  -1   0  -6   -1.40   13.50
   1   0  -6    1.60   13.20
   1   0  -6   12.50   14.80
   2   0   6 1871.31  111.39
   2   0   6 1802.62  122.19
   2   0  -6 2027.30  124.19
  -2   0  -6 1942.81  123.79
   2   0  -6 1902.01  123.19
   2   0  -6 1910.01  120.79
  -2   0  -6 1894.01  122.19
   2   0  -6 1902.61  119.89
   3   0   6    5.80   13.30
  -3   0  -6   -7.20   13.20
   3   0  -6   -3.00   14.90
   3   0   6   -0.60   15.50
   3   0  -6    9.10   17.60
   3   0  -6  -19.70   12.90
   3   0  -6  -31.50   11.50
  -3   0  -6    8.40   19.10
   4   0  -6  606.74   62.39
  -4   0  -6  492.75   63.19
   4   0   6  679.63   57.89
   4   0  -6  693.63   68.59
   4   0  -6  556.64   52.59
  -4   0   6  597.14   56.39
   4   0   6  640.14   62.69
  -4   0  -6  746.63   58.99
  -5   0  -6    0.10   20.60
   5   0   6  -11.30   23.10
  -5   0   6    3.60   20.20
   5   0   6  -28.40   19.60
   5   0  -6   -6.90   18.80
  -5   0  -6   21.40   32.10
   5   0  -6  -20.70   21.70
   6   0   6  124.29   37.90
   6   0  -6  109.49   39.50
  -6   0   6   87.09   35.90
   6   0   6  121.09   39.00
  -6   0  -6  124.19   44.10
  -7   0   6   -7.30   31.70
  -7   0  -6   66.79   45.60
   7   0   6  -14.90   31.10
   7   0   6    3.10   38.80
   7   0  -6   11.80   38.10
   0  -1  -6   56.39   19.90
   0  -1  -6   93.09   17.80
   0  -1   6   60.49   17.90
   0   1  -6   32.90   18.90
   0  -1  -6  109.69   23.20
   0   1  -6   79.59   22.80
   1  -1   6  262.07   32.70
   1   1  -6  253.07   34.70
   1   1  -6  287.97   26.80
  -1  -1  -6  218.98   32.20
   1   1  -6  256.67   35.10
  -1  -1  -6  262.87   28.80
   1   1   6  242.18   27.90
   1   1   6  229.28   30.20
   1  -1  -6  253.47   32.60
   1  -1  -6  263.37   28.20
  -1   1  -6  274.07   35.20
   1  -1  -6  272.27   35.30
  -1  -1   6  224.58   27.30
  -1   1  -6  234.98   37.20
   2  -1   6   72.29   23.80
  -2  -1  -6  144.79   26.70
   2   1  -6  156.88   30.90
  -2  -1  -6  138.39   28.30
   2   1  -6  109.39   22.50
   2   1  -6  142.99   25.40
   2   1  -6  184.78   33.10
   2  -1  -6  144.49   28.60
   2   1   6  160.18   24.70
   2  -1  -6  128.89   27.40
  -2   1  -6  140.19   31.50
  -2   1  -6  174.38   30.70
   2   1   6  135.99   26.00
   2  -1  -6  162.78   29.00
   2  -1  -6  160.28   28.90
  -3  -1  -6  418.76   44.50
   3   1  -6  383.76   38.10
  -3  -1  -6  350.66   43.10
   3   1  -6  337.27   40.80
   3  -1   6  298.27   33.10
   3  -1   6  251.87   44.40
   3   1  -6  420.86   48.40
   3  -1  -6  322.87   36.80
   3  -1  -6  340.27   39.10
  -3   1  -6  347.67   40.00
  -3  -1   6  294.17   39.00
   3  -1  -6  317.37   43.00
  -3   1  -6  283.07   46.30
   3   1   6  339.67   40.60
   3   1   6  396.46   40.70
   3  -1  -6  380.36   42.20
   4   1  -6   66.79   27.20
  -4  -1  -6   97.89   29.30
   4   1  -6  116.89   32.90
   4  -1   6   76.29   25.70
  -4  -1  -6   35.30   26.70
  -4   1   6  108.89   29.70
   4  -1   6   62.09   28.20
   4   1  -6   95.49   23.80
   4   1   6   88.79   29.60
   4  -1  -6  130.79   34.20
  -4   1  -6   52.79   22.50
   4   1   6   63.89   24.50
   4  -1  -6   99.29   26.30
  -4   1  -6  151.58   37.70
  -4  -1   6   57.39   25.80
   4  -1  -6   44.70   23.20
   5   1  -6  113.99   37.90
  -5  -1  -6   99.59   32.00
   5  -1   6  112.29   33.70
  -5   1   6  107.39   31.40
  -5  -1  -6   96.99   38.00
   5  -1   6  131.09   33.60
  -5  -1   6  147.39   35.50
   5  -1  -6  163.68   42.20
   5   1   6  140.69   35.00
  -5   1  -6  165.78   45.50
   5  -1  -6  172.28   34.70
   5   1   6   77.69   33.20
  -5  -1   6  195.18   42.60
   6   1  -6   -2.60   28.50
   6  -1   6   24.20   32.50
   6  -1   6   -8.70   26.70
  -6  -1  -6   -7.70   32.40
  -6   1   6   13.60   27.00
   6   1   6   57.99   35.50
  -6   1  -6   70.09   43.50
   6  -1  -6   40.70   34.40
  -6  -1   6   43.40   32.60
   6  -1  -6   48.50   29.10
   6   1   6   54.39   29.30
  -7  -1  -6   20.30   36.40
   7   1  -6   33.20   42.80
  -7   1   6   12.50   30.30
   7  -1   6   12.50   31.60
  -7  -1   6   65.29   37.50
   7   1   6   -1.90   38.50
   7  -1  -6   27.40   39.00
  -7   1  -6  -35.10   39.00
   0   2  -6  537.45   50.89
   0   2  -6  474.75   48.70
   0  -2  -6  488.45   46.40
   0  -2   6  460.35   42.50
   0   2   6  486.25   42.20
   0  -2  -6  405.96   44.50
  -1   2   6 1646.54  103.49
  -1  -2  -6 1561.94   93.39
  -1  -2  -6 1562.64  107.59
   1   2  -6 1542.95  110.09
   1   2  -6 1440.86   94.79
   1  -2   6 1699.43  106.39
   1   2  -6 1706.43  111.29
  -1   2  -6 1595.44  111.79
   1  -2  -6 1512.75  102.79
  -1  -2   6 1571.14   97.09
  -1   2  -6 1713.83  108.49
   1   2   6 1707.53  104.79
   1  -2  -6 1538.65   92.39
   1   2   6 1545.65  103.69
   1  -2  -6 1495.25  105.59
  -2   2   6   79.99   18.80
   2   2  -6  105.79   23.70
  -2   2   6   -2.30   16.60
  -2  -2  -6   62.69   23.90
   2  -2   6  104.29   28.10
   2   2  -6   66.29   27.60
  -2  -2  -6   86.59   20.00
  -2  -2   6   40.50   12.80
   2  -2  -6   70.29   20.80
  -2   2  -6  102.09   31.10
  -2  -2   6  118.69   27.30
   2  -2  -6   65.49   21.70
   2   2   6   38.60   17.60
   2   2   6   73.39   19.80
  -2   2  -6   83.59   23.30
  -3  -2  -6  302.47   38.80
  -3   2   6  313.27   35.70
   3  -2   6  297.97   30.60
   3   2  -6  364.86   42.50
  -3  -2  -6  261.97   39.50
   3   2  -6  245.18   45.40
   3  -2   6  282.77   43.50
  -3   2  -6  275.47   35.60
   3  -2  -6  278.87   40.30
  -3  -2   6  266.37   28.10
   3  -2  -6  336.57   36.30
   3   2   6  280.47   37.30
  -3   2  -6  299.07   48.70
  -3  -2   6  291.77   40.60
   3  -2  -6  331.97   40.00
   3   2   6  225.68   35.00
   4   2  -6   13.40   21.90
   4  -2   6  -29.80   18.70
  -4  -2  -6   19.80   23.10
  -4  -2  -6   36.00   24.20
   4  -2   6   26.00   19.80
   4   2  -6    6.60   24.10
  -4   2   6   14.90   17.80
  -4  -2   6   34.90   22.40
   4  -2  -6   33.40   28.30
   4  -2  -6   44.20   24.20
  -4   2  -6  -17.50   23.90
   4   2   6   21.30   18.80
   4   2   6   64.89   26.30
  -4   2  -6  -17.60   15.60
   5  -2   6  414.16   60.69
   5   2  -6  322.87   57.99
   5   2  -6  295.27   56.99
  -5  -2  -6  437.46   55.19
  -5   2   6  363.66   51.19
  -5  -2  -6  323.17   51.29
   5   2   6  408.66   50.89
   5  -2  -6  426.36   63.89
  -5   2  -6  497.05   67.59
   5  -2  -6  514.95   56.59
  -5  -2   6  306.67   52.49
   5   2   6  305.67   58.39
   6  -2   6  -21.50   28.80
   6   2  -6  -23.30   29.80
  -6   2   6   98.89   37.60
  -6  -2  -6   96.19   36.80
   6  -2  -6   25.50   35.90
   6   2   6   99.79   33.20
  -6  -2   6   77.79   37.90
  -6   2  -6   66.59   44.70
   6   2   6   44.60   32.80
   6  -2  -6   52.19   33.80
   7   2  -6    4.90   40.80
  -7  -2  -6  130.19   47.60
   7  -2   6   92.39   42.40
  -7   2   6   67.69   43.20
   7   2   6   72.49   48.10
  -7   2  -6   92.59   48.10
  -7  -2   6   94.89   44.60
   7  -2  -6   98.99   48.70
   7  -2  -6   56.09   40.30
   0   3   6  611.34   54.39
   0  -3  -6  673.23   58.09
   0   3  -6  634.04   58.99
   0  -3   6  591.54   51.19
   0   3  -6  570.54   40.70
   0  -3  -6  616.84   55.29
   0   3  -6  614.74   59.69
  -1  -3  -6   55.89   21.40
  -1  -3  -6   53.79   23.20
   1   3  -6   35.90   21.60
  -1   3   6   63.59   20.30
   1   3  -6   40.70   16.90
   1  -3   6   56.79   22.00
  -1   3  -6   18.20   19.80
   1  -3  -6   71.49   22.30
  -1  -3   6   91.69   24.10
   1   3   6   71.99   25.70
  -1  -3   6   39.60   16.30
  -1   3  -6   84.79   25.20
   1  -3  -6   58.79   22.30
  -2   3   6  287.47   29.80
  -2  -3  -6  329.27   31.80
   2  -3   6  264.27   42.20
  -2  -3  -6  347.57   44.40
   2   3  -6  292.97   48.80
   2   3  -6  304.37   36.10
   2   3   6  392.16   39.60
   2   3   6  294.87   40.40
   2  -3  -6  333.47   42.40
  -2  -3   6  270.57   28.10
  -2  -3   6  318.77   44.40
  -2   3  -6  286.97   39.10
   2  -3  -6  304.67   36.50
  -2   3  -6  288.37   48.60
  -3  -3  -6   10.60   20.20
   3  -3   6   46.50   22.70
  -3   3   6   -9.60   15.40
   3   3  -6   28.20   21.30
   3   3  -6   59.19   25.90
  -3   3   6   50.79   17.30
  -3  -3  -6   59.39   22.30
   3  -3  -6   24.40   22.00
   3   3   6   -4.80   17.30
  -3   3  -6   11.40   22.70
   3  -3  -6    8.80   18.60
  -3   3  -6   49.10   23.60
   3   3   6   23.70   19.90
  -3  -3   6   46.50   22.20
  -4  -3  -6   57.69   29.70
  -4  -3  -6  128.59   32.00
   4   3  -6   20.70   27.00
   4  -3   6   51.49   31.80
  -4   3   6   28.80   20.20
   4   3  -6   28.80   25.50
   4   3   6   21.80   26.10
  -4   3  -6   46.70   31.20
   4  -3  -6   74.99   29.90
  -4  -3   6   96.99   36.20
   4   3   6   95.89   24.00
   4  -3  -6   66.59   29.70
  -5   3   6    3.30   23.80
   5   3  -6   -8.40   27.60
  -5  -3  -6   11.50   24.10
   5   3  -6   -7.30   25.70
   5  -3   6   24.90   29.70
  -5  -3  -6   35.60   29.00
   5   3   6    0.50   20.40
   5  -3  -6   52.49   30.70
   5   3   6  -24.70   22.30
  -5   3  -6   45.80   39.20
  -5  -3   6   -0.90   26.90
   5  -3  -6   -9.60   26.10
   6   3  -6  128.89   50.69
   6  -3   6  116.99   40.60
  -6   3   6   55.19   31.20
   6   3  -6  111.59   49.50
  -6  -3  -6   91.49   36.70
  -6  -3  -6  163.88   41.90
  -6   3  -6   96.29   50.39
   6  -3  -6  104.69   44.20
  -6  -3   6   94.09   38.50
   6  -3  -6  112.89   39.90
   6   3   6   85.29   43.70
  -7  -3  -6   52.69   38.70
   7  -3   6   57.69   47.50
   7   3  -6   49.30   54.89
  -7   3   6   54.79   39.30
  -7   3  -6   76.19   50.99
   7  -3  -6   13.40   39.00
  -7  -3   6   25.00   38.00
   7  -3  -6   45.10   41.50
   7   3   6   45.90   41.70
   0   4   6   88.09   25.50
   0  -4   6   42.70   23.40
   0  -4  -6   80.89   26.10
   0  -4  -6   42.20   24.80
   0  -4   6   31.30   18.10
   0   4  -6   96.29   26.90
   0   4  -6   35.80   13.50
  -1  -4  -6   82.29   28.50
  -1  -4  -6   75.59   25.70
  -1   4   6   91.79   27.30
   1   4  -6   79.09   20.10
   1  -4   6  113.29   27.20
   1  -4   6   89.29   25.70
   1   4  -6   91.39   29.80
   1  -4  -6   20.20   18.40
   1   4   6  122.59   30.20
  -1  -4   6   76.09   19.60
  -1   4  -6  141.79   33.10
   1  -4  -6   73.69   25.20
  -1  -4   6   29.30   19.50
   2  -4   6  614.34   58.59
  -2  -4  -6  558.34   60.39
   2   4  -6  447.56   60.79
   2  -4   6  641.84   58.69
   2   4  -6  706.63   57.49
  -2   4   6  553.54   58.79
   2   4   6  505.55   58.59
  -2   4  -6  609.64   66.79
   2  -4  -6  596.14   54.99
   2  -4  -6  619.54   60.19
  -2  -4   6  610.84   63.29
   2   4   6  574.74   52.89
   3  -4   6  535.75   52.69
   3   4  -6  378.06   56.69
  -3   4   6  409.86   56.49
   3  -4   6  424.06   53.19
   3   4  -6  526.55   55.09
  -3  -4  -6  398.76   52.19
  -3   4  -6  501.25   63.49
  -3  -4   6  483.65   60.09
   3   4   6  450.05   56.19
   3  -4  -6  517.85   48.40
   3  -4  -6  454.05   55.99
   3   4   6  485.95   46.90
   4   4  -6  172.88   43.70
   4   4  -6  235.88   45.10
  -4  -4  -6  188.28   39.90
  -4   4   6   32.00   29.30
   4  -4   6  183.48   41.30
   4   4   6  202.18   33.60
   4  -4  -6  199.28   43.80
  -4   4  -6  292.17   56.49
  -4  -4   6  173.18   42.30
   4   4   6  119.69   35.60
  -5  -4  -6   75.99   38.10
   5   4  -6   89.79   36.90
   5   4  -6   44.30   32.80
  -5  -4  -6  139.29   46.30
  -5   4   6  -12.00   25.00
   5  -4   6  127.99   41.10
   5   4   6  102.99   34.30
  -5  -4   6   13.50   29.70
   5  -4  -6  103.59   36.80
  -5   4  -6   58.19   35.20
  -6   4   6   17.40   38.90
   6  -4   6   19.00   37.50
  -6  -4  -6  -30.20   29.90
   6   4  -6   -6.50   31.50
   6   4  -6   11.00   38.40
   6   4   6    2.70   35.50
  -6   4  -6  -14.50   35.90
   6  -4  -6   14.70   34.20
  -6  -4   6    0.60   38.50
   7   4  -6   19.60   49.20
   7  -4   6  -13.40   44.50
  -7   4  -6  -43.90   37.50
   7  -4  -6   55.19   43.10
  -7  -4   6   -9.90   44.40
   0  -5  -6  267.97   45.60
   0  -5   6  230.08   43.40
   0  -5  -6  283.97   42.90
   0   5   6  260.47   44.60
   0   5  -6  208.68   44.20
   0  -5   6  227.28   35.50
   0   5  -6  199.08   32.70
  -1  -5  -6  157.28   38.30
  -1  -5  -6  120.19   32.00
   1  -5   6  220.38   40.60
   1  -5   6  150.28   31.40
   1   5  -6  103.49   35.00
  -1   5   6   29.40   22.00
   1   5  -6  130.39   25.80
  -1   5  -6   92.69   32.50
   1  -5  -6  244.98   42.30
  -1  -5   6  116.99   25.20
   1   5   6  111.89   33.00
  -1  -5   6   84.09   29.80
   1  -5  -6  178.88   34.00
   2  -5   6   44.10   23.80
  -2   5   6   35.10   25.30
  -2  -5  -6   18.60   25.90
   2   5  -6   10.20   19.80
   2  -5   6   30.50   23.60
   2   5  -6   21.70   26.30
  -2  -5   6   13.30   24.80
   2   5   6    5.00   21.50
   2  -5  -6   47.30   24.00
  -2   5  -6   46.10   28.70
   2   5   6   14.90   18.60
   2  -5  -6   -5.60   22.20
  -3  -5  -6  191.38   39.60
   3   5  -6  166.28   39.40
   3   5  -6  124.49   36.60
   3  -5   6  163.78   36.40
   3  -5   6  104.39   31.90
  -3   5   6   90.69   36.40
   3  -5  -6   90.59   34.10
  -3  -5   6  184.48   44.20
   3   5   6  219.48   43.50
   3   5   6  208.98   33.50
  -3   5  -6  224.08   51.39
   4   5  -6   50.29   29.10
  -4   5   6   34.70   32.70
  -4  -5  -6  120.29   33.70
   4   5  -6   74.79   33.70
   4  -5   6   31.40   28.90
  -4  -5   6   76.89   38.00
  -4   5  -6   80.59   40.40
   4  -5  -6   71.99   37.50
   4   5   6   76.99   33.90
  -5  -5  -6   79.29   36.10
   5   5  -6   78.29   38.80
   5  -5   6   69.59   34.60
  -5   5   6   41.50   37.60
   5   5  -6  106.89   42.60
   5  -5  -6   79.39   45.00
  -5  -5   6   29.20   34.60
   5   5   6   38.70   31.90
  -5   5  -6   97.29   44.40
   6  -5   6   44.60   47.30
   6   5  -6   18.80   37.10
  -6  -5  -6   42.20   39.00
   6   5  -6   53.59   40.40
  -6   5   6   46.50   47.30
  -6   5  -6   66.49   50.39
  -6  -5   6   34.30   42.30
   6  -5  -6   40.30   40.50
   6   5   6   73.09   42.20
   0  -6   6  472.15   50.19
   0   6  -6  536.05   64.29
   0  -6  -6  538.65   61.69
   0   6   6  525.55   62.59
   0  -6  -6  554.84   57.39
   0  -6   6  465.85   60.39
   1  -6   6  160.98   36.40
  -1  -6  -6  196.38   43.10
   1   6  -6  186.88   44.40
   1  -6   6  150.08   39.30
   1   6  -6  132.99   33.10
  -1   6   6  172.38   41.80
  -1  -6  -6  220.08   41.90
   1   6   6  237.28   49.60
  -1  -6   6  187.28   45.10
  -1   6  -6  232.18   47.60
   1  -6  -6  155.88   40.30
   1  -6  -6  226.48   39.70
   2   6  -6   16.40   23.10
   2  -6   6   86.89   33.50
   2   6  -6   39.90   22.50
  -2   6   6   89.59   33.80
   2  -6   6   46.80   28.30
  -2  -6  -6   -7.00   25.30
   2  -6  -6  129.29   34.60
  -2   6  -6  104.09   38.70
  -2  -6   6   90.69   39.20
   2   6   6   63.69   34.50
   2  -6  -6   36.80   26.50
   3   6  -6    2.10   25.60
  -3   6   6   -9.80   28.10
  -3  -6  -6  -14.20   20.30
   3   6  -6   10.40   26.80
   3  -6   6   29.70   28.70
   3  -6  -6   10.10   25.40
  -3   6  -6  -13.10   31.70
   3   6   6   -6.00   24.60
  -3  -6   6   29.30   27.70
   4   6  -6   14.40   32.80
   4   6  -6   -7.70   28.90
  -4   6   6  -21.20   30.30
   4  -6   6   20.90   31.20
  -4  -6  -6   23.70   31.70
   4   6   6    0.00   27.80
  -4   6  -6   64.19   39.80
   4  -6  -6   72.99   39.20
  -4  -6   6   31.00   33.10
   5   6  -6   31.60   38.20
   5  -6   6    9.10   36.20
   5   6  -6   -1.70   34.00
  -5   6   6   33.40   43.00
  -5  -6  -6   20.40   35.60
   5  -6  -6   13.80   40.90
   5   6   6   50.69   37.80
  -5   6  -6  -34.80   33.20
  -5  -6   6   -8.90   40.40
   0  -7  -6    6.60   23.30
   0  -7   6   60.49   35.20
   0  -7  -6   53.09   30.20
   0   7  -6   -8.70   23.70
   0   7   6   30.30   25.70
   1  -7   6   58.19   32.40
  -1  -7  -6   57.29   33.90
   1  -7   6   22.10   27.50
  -1  -7  -6    7.70   25.50
  -1   7   6   16.80   25.60
   1   7  -6   91.29   35.00
   1  -7  -6   64.19   33.80
  -1  -7   6   25.90   31.90
  -1   7  -6   38.40   31.80
   1   7   6   25.00   29.40
   1  -7  -6   14.60   24.10
   2  -7   6   76.29   36.30
  -2  -7  -6   93.09   39.00
  -2   7   6   56.39   38.80
   2   7  -6    3.10   30.90
   2  -7   6   68.79   32.40
   2  -7  -6   74.39   33.80
  -2  -7   6   -1.40   36.60
   2   7   6   42.70   32.30
  -2   7  -6   84.69   43.10
   2  -7  -6  105.69   35.80
  -3  -7  -6  279.27   57.49
   3   7  -6  172.48   50.19
   3   7  -6  135.29   39.70
  -3   7   6  105.39   54.59
   3  -7   6  218.38   49.70
  -3  -7   6  149.88   47.80
   3   7   6  135.79   45.50
  -3   7  -6  195.88   54.39
   3  -7  -6  171.08   51.19
  -4   7   6   58.19   49.40
   4   7  -6   30.20   35.10
   4   7  -6  -11.40   27.10
   4  -7   6  -34.80   30.30
  -4  -7  -6   20.00   36.40
   4  -7  -6    7.00   33.50
  -4   7  -6   24.80   39.80
  -4  -7   6  -37.30   35.70
   4   7   6   28.70   34.30
   5  -7   6  101.69   45.00
  -5  -7  -6   31.70   39.30
  -5   7   6   75.19   53.89
   5   7  -6    4.30   38.00
   5   7  -6  -11.00   37.30
  -5  -7   6  -17.10   42.10
   5   7   6   -7.00   41.30
  -5   7  -6   17.00   38.30
   5  -7  -6   52.79   39.30
   0   8   6   69.69   36.40
   0  -8   6   30.80   35.20
   0   8  -6   53.69   36.50
   0  -8  -6   50.99   32.30
   0  -8  -6   49.80   36.40
  -1  -8  -6   22.10   33.10
   1  -8   6   29.80   34.30
  -1   8   6   10.70   35.60
   1   8  -6   28.10   32.40
   1  -8  -6   49.10   31.60
  -1  -8   6    3.10   36.40
   1   8   6  -11.80   25.60
  -1   8  -6  -17.60   33.70
   1  -8  -6    7.30   32.90
   2  -8   6   17.10   32.70
  -2   8   6   72.09   45.00
  -2  -8  -6   64.19   46.30
   2   8  -6   -2.30   35.40
   2  -8   6   24.20   45.20
   2   8   6   83.39   41.60
  -2  -8   6   15.50   40.80
   2  -8  -6   18.70   32.20
  -2   8  -6   37.50   37.60
  -3   8   6    2.20   45.90
  -3  -8  -6   78.49   47.60
   3   8  -6   44.20   34.50
   3  -8   6  102.39   43.20
   3  -8  -6  185.58   49.70
   3   8   6   81.59   45.20
  -3  -8   6  123.69   54.69
  -3   8  -6  186.78   61.99
   0   9  -6   70.39   45.00
   0   9   6   44.00   49.10
   0  -9   6   93.59   50.49
   0  -9  -6   83.69   44.00
   1   9  -6   37.30   42.20
  -1   9   6   47.90   44.00
   1  -9   6   18.70   39.30
  -1  -9  -6   47.60   44.20
  -1   9  -6    6.40   36.60
   1  -9  -6  -14.40   33.50
  -1  -9   6   35.60   48.00
   1  -9  -6  -37.20   30.30
   1   9   6   45.20   42.80
   0   0  -7   -1.00   13.30
   0   0  -7    5.00   15.60
   0   0   7    8.60   14.60
   0   0   7   -6.40    7.40
  -1   0  -7   17.50   16.50
   1   0   7   14.50   15.80
   1   0  -7  -10.50   15.00
   1   0   7   -6.60    9.40
   1   0  -7  -23.00   13.00
  -1   0  -7    3.80   16.60
   1   0  -7    1.40   13.50
  -2   0  -7  682.63   63.19
   2   0  -7  697.63   61.09
   2   0  -7  707.63   60.29
  -2   0  -7  780.82   63.49
   2   0   7  634.74   59.89
   2   0  -7  727.13   61.49
   2   0   7  735.63   49.70
   2   0  -7  664.33   63.19
  -3   0  -7  -18.80   17.30
   3   0  -7    0.20   19.70
   3   0  -7    7.70   16.30
   3   0   7    2.30   13.90
   3   0  -7  -16.40   18.40
   3   0  -7  -19.30   14.60
  -3   0  -7    7.30   18.00
   3   0   7   -0.60   18.10
  -4   0  -7  204.98   38.30
  -4   0  -7  232.48   44.40
   4   0  -7  286.97   49.60
   4   0  -7  196.48   34.50
   4   0   7  119.09   34.80
   4   0  -7  211.78   40.70
   4   0   7  208.28   31.90
   5   0   7   57.39   29.80
   5   0   7    8.70   23.90
   5   0  -7  -11.10   20.40
  -5   0   7  -48.00   18.60
   5   0  -7  -22.90   19.20
  -5   0  -7   41.40   31.00
  -5   0  -7  -32.90   20.40
   6   0   7   12.80   25.40
  -6   0  -7   -5.20   35.00
  -6   0   7    4.10   25.60
   6   0  -7   59.99   33.00
  -7   0  -7   22.40   43.80
   7   0  -7    0.00   36.40
   7   0   7   18.80   33.10
  -7   0   7   22.50   29.90
   0   1   7   -2.30   10.10
   0   1   7   -7.60   11.00
   0  -1  -7   11.70   14.80
   0   1  -7    3.50   16.90
   0  -1  -7    5.20   11.80
   0  -1   7    8.20   12.40
   0   1  -7    8.30   14.70
  -1  -1  -7 1119.09   82.19
   1  -1   7 1060.89   79.19
   1   1  -7 1053.99   85.19
  -1  -1  -7 1180.88   74.99
   1   1  -7 1035.80   71.19
   1   1  -7 1046.40   81.19
   1   1   7 1048.80   72.99
   1  -1  -7 1045.70   81.79
   1  -1  -7 1089.29   82.09
  -1   1  -7 1015.50   81.49
  -1  -1   7 1060.19   74.99
   1  -1  -7 1105.99   74.69
  -1   1  -7 1099.29   83.29
   2   1  -7  120.19   29.00
  -2  -1  -7  183.68   35.00
   2  -1   7  104.89   27.40
   2   1  -7  168.38   26.40
   2   1  -7  195.48   39.30
  -2  -1  -7  201.98   31.60
   2   1   7  145.39   30.10
   2  -1  -7  184.88   34.10
  -2   1  -7  102.49   29.60
   2  -1  -7  103.49   26.00
   2  -1  -7  128.39   28.90
  -2  -1   7  182.38   28.80
   2   1   7  156.78   24.90
   2  -1  -7  157.78   30.10
  -2   1  -7  211.88   35.30
  -3  -1  -7   -8.20   19.90
   3  -1   7   19.90   15.00
   3   1  -7   -0.40   19.30
  -3  -1  -7   -8.10   17.10
   3   1  -7   -4.30   14.70
   3   1  -7    8.50   18.80
   3  -1   7   37.50   25.00
   3   1  -7   -1.20   18.10
   3  -1  -7   46.20   22.50
   3  -1  -7   27.30   19.20
  -3   1  -7    5.20   20.10
   3   1   7    7.60   15.90
   3  -1  -7    9.20   20.20
   3   1   7   47.00   20.80
  -3   1  -7   45.10   22.20
   3  -1  -7   -4.60   17.50
   4   1  -7  421.86   45.50
  -4  -1  -7  407.26   50.39
  -4   1   7  229.38   44.90
   4   1  -7  337.17   48.10
  -4  -1  -7  292.37   49.80
   4   1  -7  322.97   54.79
   4  -1   7  296.17   55.09
  -4  -1   7  336.07   45.30
   4  -1  -7  273.87   50.19
   4  -1  -7  338.87   41.70
   4   1   7  350.96   47.60
  -4   1  -7  264.97   50.99
   4   1   7  338.27   44.70
  -4   1  -7  315.07   41.10
   4  -1  -7  375.56   43.60
   5  -1   7   80.19   35.00
   5   1  -7  113.39   36.20
  -5   1   7   45.00   28.40
  -5  -1  -7   80.19   33.20
   5   1  -7  148.39   43.20
  -5  -1  -7   40.30   33.90
   5   1   7   82.89   31.80
   5  -1  -7   97.79   37.40
  -5  -1   7   39.20   28.10
   5  -1  -7   61.39   30.80
   5   1   7  120.79   35.50
  -5   1  -7   36.30   34.20
  -6  -1  -7    2.70   32.60
  -6   1   7   11.30   24.90
   6  -1   7   58.59   36.00
   6   1  -7   -5.90   30.80
   6  -1  -7   15.50   32.70
   6   1   7   23.40   32.20
  -6   1  -7   55.79   40.20
   6  -1  -7    0.20   28.60
  -6  -1   7    8.80   25.50
   6   1   7   -0.90   27.10
   7   1  -7  205.98   63.49
  -7  -1  -7   66.19   47.10
   7  -1   7  193.18   52.49
  -7   1   7   64.69   38.20
  -7   1  -7  139.99   52.29
  -7  -1   7  121.79   49.70
   7   1   7  165.68   42.00
   7  -1  -7  164.18   58.49
   0  -2   7    3.20   13.90
   0   2  -7    4.50   17.00
   0   2  -7   -9.50   16.50
   0  -2  -7  -10.80   15.30
   0   2   7   -2.50   13.10
   0  -2  -7   -3.10   10.50
   0  -2  -7   -6.00   14.60
  -1  -2  -7  314.67   31.00
   1   2  -7  325.87   45.00
   1  -2   7  422.46   43.00
   1   2  -7  319.17   30.80
   1   2  -7  367.56   45.80
  -1  -2  -7  300.47   41.00
  -1   2   7  346.07   37.10
   1   2   7  280.27   36.40
  -1   2  -7  292.97   41.00
  -1   2  -7  337.87   43.50
   1  -2  -7  309.87   38.60
   1  -2  -7  312.37   40.20
   1  -2  -7  363.66   31.00
  -1  -2   7  393.76   36.00
   1   2   7  290.07   37.30
   2  -2   7  173.18   34.60
  -2   2   7   17.20   18.20
   2   2  -7   94.39   30.90
   2   2  -7  138.19   33.70
  -2  -2  -7  100.09   23.80
   2   2  -7   95.69   22.90
  -2  -2  -7  114.69   30.80
   2  -2  -7   79.69   25.80
  -2   2  -7  114.79   29.60
   2   2   7  103.59   27.30
   2  -2  -7  111.69   28.10
  -2   2  -7  201.38   38.50
   2   2   7  128.39   25.70
  -2  -2   7  137.79   21.00
  -3  -2  -7   41.70   23.30
   3   2  -7   -1.40   19.40
   3   2  -7   55.49   24.60
   3  -2   7   24.20   23.80
  -3   2   7   15.30   16.70
  -3  -2  -7   24.00   20.70
  -3  -2   7   24.60   23.00
  -3  -2   7   32.90   13.70
   3   2   7   27.80   19.40
   3   2   7    2.10   17.30
  -3   2  -7   39.50   28.60
   3  -2  -7   15.80   19.40
   3  -2  -7   45.10   21.70
   3  -2  -7   28.10   19.20
  -3   2  -7   21.20   18.40
  -4  -2  -7  154.18   38.20
   4   2  -7   70.39   32.30
  -4   2   7   82.49   26.80
  -4  -2  -7  124.09   33.00
   4  -2   7   37.80   30.50
   4   2  -7   57.09   29.60
  -4   2  -7   52.69   23.80
  -4  -2   7   40.90   28.40
   4   2   7    5.90   20.40
   4  -2  -7  106.09   33.10
   4  -2  -7   64.39   29.70
  -4   2  -7   31.60   33.80
   4  -2  -7   72.39   28.80
   4   2   7   84.29   28.10
  -5  -2  -7  141.79   37.60
   5  -2   7  191.28   45.80
  -5  -2  -7  210.78   46.00
   5   2  -7  204.78   48.90
  -5   2   7  218.38   44.70
   5   2  -7  221.78   50.69
  -5  -2   7  201.88   43.00
  -5   2  -7  215.48   55.69
   5   2   7  212.68   41.20
   5  -2  -7  207.28   51.09
   5  -2  -7  217.68   42.00
   5   2   7  103.99   39.00
  -6   2   7    3.00   29.10
   6   2  -7   -3.00   30.10
   6  -2   7   -0.10   31.00
  -6  -2  -7   20.20   31.70
   6   2   7   -9.40   25.50
   6  -2  -7   -8.40   32.50
   6  -2  -7   18.80   28.80
   6   2   7   -4.80   31.90
  -6  -2   7   26.70   32.40
  -6   2  -7   -7.60   39.60
  -7   2   7   51.39   38.20
   7   2  -7  -14.60   40.70
  -7  -2  -7  -22.80   36.30
   7  -2   7   43.40   40.20
   7  -2  -7   96.09   49.20
   7   2   7   52.19   45.10
   7  -2  -7   58.79   48.50
  -7   2  -7  -40.60   44.60
  -7  -2   7   72.59   40.50
   0   3  -7   19.70   18.70
   0   3   7    8.30   14.70
   0  -3  -7   -5.80   18.30
   0  -3   7   16.80   17.00
   0   3  -7   10.90   21.30
   0  -3  -7    8.60   18.40
  -1  -3  -7   33.10   18.70
   1   3  -7   35.00   15.50
  -1  -3  -7   43.80   22.40
  -1   3   7   24.20   16.80
   1   3  -7   74.99   28.40
   1  -3   7   64.19   24.30
   1   3   7   41.40   19.20
  -1  -3   7   41.10   16.60
  -1  -3   7   10.20   18.50
  -1   3  -7   36.00   22.90
   1  -3  -7   19.40   16.70
   1   3   7   25.00   18.80
  -1   3  -7   38.90   24.70
   1  -3  -7   15.80   19.10
   2   3  -7  493.55   57.89
   2   3  -7  527.95   49.10
  -2  -3  -7  518.95   42.80
   2  -3   7  556.34   58.49
  -2  -3  -7  553.64   56.89
  -2   3  -7  487.35   61.29
   2  -3  -7  513.65   53.49
  -2  -3   7  463.95   39.90
   2   3   7  353.26   47.90
  -2  -3   7  543.25   57.59
   2   3   7  553.44   50.89
  -2   3  -7  417.06   49.90
   2  -3  -7  456.35   47.20
   3   3  -7    5.40   24.80
  -3   3   7   20.70   24.20
  -3  -3  -7   66.49   22.60
  -3  -3  -7    7.50   22.20
   3   3  -7    9.10   21.70
  -3   3   7   11.60   16.40
   3  -3   7   15.40   23.50
   3   3   7  -11.40   16.80
   3   3   7   18.50   20.10
   3  -3  -7   10.40   20.80
   3  -3  -7   22.00   20.70
  -3  -3   7   33.60   26.80
  -3   3  -7   16.50   27.20
  -3   3  -7   32.70   21.80
   4   3  -7  646.44   73.79
   4  -3   7  687.63   74.29
  -4  -3  -7  544.25   61.49
  -4  -3  -7  529.95   62.89
  -4   3   7  677.53   60.99
   4   3  -7  672.73   70.79
   4   3   7  692.73   69.49
   4  -3  -7  683.73   68.29
   4   3   7  707.13   62.19
  -4   3  -7  703.23   79.59
  -4  -3   7  671.43   70.19
   5   3  -7    9.50   31.80
  -5  -3  -7   35.30   27.60
   5   3  -7   18.20   32.50
  -5   3   7  -11.80   20.90
   5  -3   7   -5.50   28.90
  -5  -3  -7    1.60   26.20
  -5  -3   7   83.49   36.10
   5   3   7    9.00   31.00
   5  -3  -7   20.90   29.20
   5  -3  -7    8.30   27.80
   5   3   7   18.70   24.60
  -5   3  -7   24.40   35.80
   6   3  -7   91.29   43.60
  -6   3   7   49.20   32.70
   6  -3   7   29.90   40.80
   6   3  -7   21.50   37.80
  -6  -3  -7   46.10   35.90
  -6  -3  -7   10.30   37.70
   6   3   7   25.00   36.90
  -6   3  -7   -5.00   42.70
   6  -3  -7   22.40   36.70
   6  -3  -7   -4.70   32.40
   7   3  -7   28.10   46.30
  -7  -3  -7    1.40   43.80
   7  -3   7  -16.10   41.40
  -7  -3   7    0.60   38.90
   7  -3  -7  -21.00   42.30
   7   3   7  -27.60   41.90
   7  -3  -7   11.70   42.10
  -7   3  -7  -18.50   47.50
   0   4  -7    3.00   21.30
   0  -4  -7   -4.90   18.40
   0  -4   7   23.60   19.30
   0  -4  -7   -6.40   17.00
   0   4   7    6.90   17.50
   0  -4   7    8.10   22.50
  -1   4   7  285.67   41.40
  -1  -4  -7  332.87   46.70
  -1  -4  -7  306.87   41.10
   1  -4   7  302.57   43.90
   1  -4   7  279.77   39.30
   1   4  -7  290.17   34.10
   1   4  -7  247.98   47.40
   1  -4  -7  298.97   42.00
  -1  -4   7  270.57   34.90
   1   4   7  255.47   43.90
  -1  -4   7  216.88   44.40
  -1   4  -7  275.47   48.50
   1  -4  -7  245.98   42.40
  -2   4   7  169.28   37.40
   2   4  -7  250.27   35.40
  -2  -4  -7  140.69   36.30
   2  -4   7  178.48   36.50
   2  -4   7  174.58   36.50
   2   4  -7  115.69   39.20
   2  -4  -7  173.08   35.70
   2   4   7  211.68   34.10
   2  -4  -7  236.08   38.80
  -2  -4   7  116.29   37.00
   2   4   7  191.48   41.40
  -2   4  -7  161.68   43.00
  -3  -4  -7   12.10   25.40
   3   4  -7   18.30   23.20
   3  -4   7  -13.90   21.80
   3   4  -7   21.10   29.40
   3  -4   7   60.19   24.90
  -3   4   7    5.20   23.90
   3  -4  -7   16.50   23.20
   3  -4  -7    3.30   21.90
   3   4   7   -1.30   20.70
  -3   4  -7   -4.20   27.20
   3   4   7   10.30   17.80
  -3  -4   7   22.30   26.50
   4   4  -7   31.10   32.00
   4   4  -7   38.60   30.00
  -4   4   7    2.80   23.70
   4  -4   7   69.49   33.50
  -4  -4  -7   36.70   29.50
  -4   4  -7   11.70   30.50
   4   4   7   45.20   25.80
   4   4   7    0.10   20.90
  -4  -4   7   71.19   35.10
   4  -4  -7   -2.50   24.90
   5  -4   7   30.40   34.60
  -5   4   7   -4.30   26.20
   5   4  -7   62.59   42.00
  -5  -4  -7   60.79   32.70
   5   4  -7   53.29   38.00
  -5   4  -7   90.89   43.40
   5   4   7  131.69   38.80
   5  -4  -7  102.49   40.30
  -5  -4   7   67.29   40.60
   6   4  -7   38.40   38.20
  -6   4   7   10.00   33.20
  -6  -4  -7   -5.40   32.50
   6  -4   7  -42.20   35.20
   6   4  -7  -37.60   37.90
   6   4   7    2.10   35.70
  -6  -4   7   38.90   38.80
  -6   4  -7   34.70   38.40
   6  -4  -7    7.30   40.20
   0  -5  -7    3.70   25.90
   0   5   7   -3.40   19.70
   0  -5  -7  -11.90   17.90
   0  -5   7   21.60   19.80
   0   5  -7   -8.60   21.90
   0  -5   7   22.50   26.70
  -1  -5  -7  541.25   62.29
   1  -5   7  491.35   53.09
   1  -5   7  588.44   64.29
   1   5  -7  398.76   60.69
  -1   5   7  460.35   57.29
  -1  -5  -7  510.05   57.09
  -1   5  -7  494.15   64.19
  -1  -5   7  438.16   59.09
   1  -5  -7  488.15   56.99
   1   5   7  432.96   56.99
   1  -5  -7  563.74   59.89
  -2  -5  -7   63.59   30.80
   2   5  -7   92.09   28.00
   2  -5   7  136.49   37.80
   2  -5   7   75.09   31.00
   2   5  -7   68.29   34.80
  -2   5   7  110.29   34.70
   2  -5  -7  109.39   32.20
   2  -5  -7   88.79   29.90
  -2  -5   7   65.69   30.70
   2   5   7  105.09   31.10
  -2   5  -7   97.69   36.70
   2   5   7   16.60   26.30
   3  -5   7   23.20   26.20
  -3   5   7   -9.50   20.80
   3  -5   7  -14.70   22.40
  -3  -5  -7  -19.40   21.30
   3   5  -7   -0.30   25.20
   3   5  -7   18.30   26.30
   3  -5  -7    1.30   23.30
   3   5   7    4.50   24.50
  -3   5  -7   45.50   32.70
  -3  -5   7   20.50   26.70
   3   5   7    3.40   17.90
   4  -5   7   17.90   28.80
   4   5  -7  -14.90   28.20
  -4   5   7   -1.20   30.60
   4   5  -7   12.40   31.70
  -4  -5  -7   48.90   32.60
  -4  -5   7    1.50   31.30
   4  -5  -7  -13.50   29.10
  -4   5  -7  -18.10   29.20
   4   5   7   -2.70   30.00
  -5  -5  -7   14.10   34.40
   5   5  -7   71.39   41.60
   5  -5   7   19.20   30.60
   5   5  -7   38.70   40.70
  -5   5   7   39.20   33.30
   5  -5  -7    1.60   35.80
  -5   5  -7    9.50   36.60
  -5  -5   7   23.60   37.00
   5   5   7   21.30   33.30
   6   5  -7   -7.70   37.50
   6  -5   7  -10.70   43.70
   6   5  -7   54.59   46.70
  -6   5   7   27.30   40.30
  -6  -5  -7   59.09   41.40
  -6  -5   7   -7.00   44.30
   6   5   7   19.40   40.10
   6  -5  -7   33.50   46.30
  -6   5  -7   64.69   47.80
   0   6   7   -6.90   20.80
   0  -6   7  -13.90   18.20
   0  -6  -7  -20.10   18.30
   0  -6   7  -16.70   26.70
   0   6  -7   21.50   27.40
   0  -6  -7  -25.80   25.10
   1  -6   7   91.09   31.80
  -1  -6  -7   72.59   28.40
  -1   6   7   17.20   23.50
  -1  -6  -7   11.70   30.40
   1   6  -7   42.20   29.30
   1  -6   7    4.90   20.00
   1   6   7   28.80   24.50
   1  -6  -7   99.99   37.00
   1  -6  -7    6.10   23.90
  -1  -6   7   64.69   36.10
  -1   6  -7   90.39   36.70
   2   6  -7  136.29   44.80
  -2   6   7  118.89   37.40
  -2  -6  -7  141.39   41.80
   2  -6   7  219.08   42.80
   2  -6   7  131.19   34.10
  -2  -6   7  168.58   48.20
   2  -6  -7  141.59   38.80
   2  -6  -7  159.08   42.30
  -2   6  -7   80.89   38.70
   2   6   7  164.08   45.80
   2   6   7  137.99   33.90
   3   6  -7   14.90   28.10
   3   6  -7    5.00   28.80
  -3  -6  -7   19.90   27.00
  -3   6   7   16.00   30.90
   3  -6   7   -7.50   22.30
   3  -6  -7   11.60   24.30
  -3   6  -7   -5.80   32.20
  -3  -6   7  -42.80   27.80
   3   6   7   -9.00   28.60
  -4  -6  -7   88.09   41.10
   4   6  -7  120.89   44.50
   4  -6   7  114.69   43.20
  -4   6   7   59.39   40.60
   4   6  -7   70.89   38.90
  -4  -6   7   27.20   37.60
   4  -6  -7   95.79   43.60
  -4   6  -7  116.99   48.90
   4   6   7   71.89   40.00
   5   6  -7   31.40   35.70
  -5   6   7   76.59   50.39
   5  -6   7   21.20   34.40
   5   6  -7   33.20   40.00
  -5  -6  -7   40.90   37.50
   5   6   7  -20.20   35.50
  -5  -6   7   68.49   46.70
   5  -6  -7   14.20   42.30
  -5   6  -7  116.59   51.69
   0  -7   7   25.00   33.80
   0  -7  -7   36.90   27.50
   0   7   7   23.80   26.80
   0  -7  -7  -12.50   27.80
   0   7  -7  -21.00   24.60
  -1  -7  -7  144.19   39.90
  -1  -7  -7  165.38   48.00
  -1   7   7  129.09   42.20
   1  -7   7   90.79   35.30
   1   7  -7   46.50   33.20
   1  -7   7  142.59   42.50
   1  -7  -7  130.69   36.60
  -1   7  -7  143.79   44.70
   1  -7  -7   63.49   36.20
   1   7   7  100.19   36.60
  -1  -7   7   78.29   42.80
   2  -7   7   20.60   30.10
   2  -7   7   29.00   35.50
  -2  -7  -7  115.19   43.30
  -2   7   7   41.40   34.00
   2   7  -7   68.39   40.40
  -2   7  -7   11.30   33.90
   2   7   7    3.60   31.50
   2  -7  -7   48.40   32.40
   2  -7  -7   70.49   35.00
  -2  -7   7   86.19   41.60
   3  -7   7  -28.70   30.20
   3   7  -7   26.20   33.90
  -3  -7  -7  -20.50   27.40
  -3   7   7    8.60   33.20
   3  -7  -7  -11.90   28.40
  -3   7  -7  -16.30   35.20
   3   7   7  -20.40   30.90
  -3  -7   7   -7.90   31.10
  -4   7   7   73.39   50.49
   4   7  -7   31.50   38.10
   4  -7   7   54.79   41.20
  -4  -7  -7  118.19   44.00
  -4  -7   7   71.69   45.40
   4  -7  -7  104.59   43.90
  -4   7  -7   49.90   47.10
   4   7   7   68.79   39.40
   0  -8  -7    2.40   28.20
   0  -8  -7   21.20   34.10
   0   8   7   10.90   31.70
   0   8  -7  -11.00   35.60
   0  -8   7   -9.40   35.40
   1   8  -7   54.99   38.20
  -1   8   7   56.99   39.60
  -1  -8  -7  110.79   46.70
   1  -8   7   29.20   35.10
   1  -8  -7   91.69   40.30
  -1   8  -7   60.49   38.10
   1   8   7   42.30   36.70
  -1  -8   7   12.10   41.10
   1  -8  -7   61.09   38.20
   2   8  -7    3.20   39.30
  -2   8   7   24.10   37.50
   2  -8   7  -81.19   36.10
  -2  -8  -7   28.30   38.00
   2  -8   7   55.49   38.50
  -2  -8   7   30.00   47.10
   2   8   7    3.80   36.50
  -2   8  -7   83.89   49.60
   2  -8  -7   28.70   31.70
  -3  -8  -7  -21.00   45.20
   3  -8   7  -36.10   31.00
  -3   8   7  -14.80   48.70
   3   8  -7   -7.10   34.50
   3   8   7    0.80   37.10
  -3   8  -7   23.50   44.90
   3  -8  -7   25.30   38.90
  -3  -8   7  -11.40   42.10
   0   0   8 5694.03  328.27
   0   0  -8 5922.61  326.57
   0   0  -8 5865.01  336.07
  -1   0   8    6.30   13.90
   1   0  -8    9.00   19.20
   1   0  -8    9.60   18.50
   1   0   8   -4.70   13.10
  -1   0  -8   -7.50   16.30
   1   0   8   12.70   10.80
  -1   0  -8    2.30   16.20
  -1   0   8    4.50   16.10
   2   0  -8   87.99   24.50
   2   0  -8   61.39   24.90
  -2   0  -8  111.29   31.10
   2   0  -8   85.89   30.50
  -2   0  -8  100.39   30.60
   2   0   8  112.79   29.10
   2   0  -8   99.49   28.60
   2   0   8   68.49   15.50
  -3   0  -8   -5.00   21.60
   3   0  -8  -13.30   16.80
   3   0   8    3.90   20.80
  -3   0  -8   39.00   23.20
   3   0  -8   -7.90   20.30
   3   0  -8    5.10   20.00
   3   0  -8   -7.00   17.00
   4   0  -8   33.30   31.50
   4   0  -8   61.99   26.80
   4   0  -8   85.99   31.50
   4   0   8   64.39   32.40
  -4   0  -8   48.80   27.30
   4   0  -8   61.49   26.30
  -4   0  -8   37.30   33.30
  -5   0   8   27.30   25.10
   5   0   8   32.20   31.90
   5   0  -8   32.10   25.70
  -5   0  -8  -38.10   22.80
   5   0  -8    9.40   26.40
  -5   0  -8   34.40   32.90
  -6   0  -8  662.23   82.79
   6   0  -8  644.34   80.49
  -6   0   8  628.64   75.09
   6   0   8  550.64   73.29
  -7   0  -8   37.90   40.40
   7   0  -8  -20.80   38.90
  -7   0   8   -6.90   30.30
   7   0   8   33.90   35.80
   0   1   8  299.27   32.50
   0  -1   8  304.87   36.40
   0   1  -8  389.86   43.30
   0   1   8  317.17   39.50
   0  -1  -8  312.97   33.30
   0  -1  -8  317.37   42.80
   0   1  -8  308.17   44.10
   1  -1   8  222.28   35.70
   1   1  -8  240.18   38.70
   1   1  -8  185.18   38.00
  -1   1   8  139.09   26.80
  -1  -1  -8  228.38   38.40
  -1  -1  -8  171.78   28.40
   1   1  -8  256.57   27.00
   1   1   8  168.58   26.60
   1  -1  -8  198.18   36.50
   1  -1  -8  186.78   31.60
  -1   1  -8  179.18   35.60
   1   1   8  182.58   31.80
  -1   1  -8  241.68   40.50
   1  -1  -8  223.18   40.30
  -1  -1   8  233.88   30.60
  -2  -1  -8   98.39   27.70
   2  -1   8    1.90   16.20
   2   1  -8   84.89   31.80
   2   1  -8   24.40   21.00
  -2   1   8   10.20   17.50
   2   1  -8  100.49   23.70
  -2  -1  -8   95.89   29.70
  -2   1  -8   39.50   21.60
  -2  -1   8   32.40   19.00
   2  -1  -8   89.99   28.30
   2  -1  -8   81.39   25.40
   2   1   8   36.40   21.60
   2  -1  -8   69.29   23.30
   2   1   8   33.70   15.90
  -2   1  -8   24.70   22.80
   3   1  -8  465.15   49.40
   3   1  -8  454.65   54.69
   3   1  -8  459.45   55.19
   3  -1   8  409.56   55.89
  -3  -1  -8  448.26   50.19
   3   1  -8  477.25   49.20
  -3  -1  -8  454.05   52.89
   3   1   8  314.67   46.10
   3  -1  -8  392.46   50.49
   3   1   8  417.36   44.90
   3  -1  -8  484.15   52.59
  -3   1  -8  384.16   55.19
  -3   1  -8  400.36   49.60
   3  -1  -8  490.65   52.29
   3  -1  -8  486.25   51.39
   4   1  -8   49.50   28.40
  -4  -1  -8   76.39   31.00
  -4  -1  -8   48.10   28.00
   4   1  -8   -0.20   30.50
  -4   1   8   35.80   24.50
   4  -1   8   55.49   32.60
   4   1  -8   65.69   27.30
   4   1   8    6.30   24.60
   4   1   8   74.69   32.60
  -4   1  -8   22.80   25.40
   4  -1  -8   61.49   25.50
  -4  -1   8   48.50   28.30
   4  -1  -8   48.90   32.50
  -4   1  -8   -4.20   29.20
   4  -1  -8   67.19   25.20
  -5   1   8   -3.70   21.90
   5  -1   8   39.20   33.40
  -5  -1  -8   91.29   34.40
   5   1  -8  -15.30   25.20
   5   1  -8   47.40   33.40
  -5  -1  -8  101.09   38.90
   5  -1  -8   41.10   33.30
   5   1   8   30.90   28.90
  -5  -1   8   30.10   29.90
   5  -1  -8    3.90   25.90
  -5   1  -8   24.50   34.50
   6  -1   8  103.79   42.30
  -6   1   8   80.29   38.90
  -6  -1  -8   73.29   42.40
   6   1  -8  112.49   43.30
   6   1   8   61.59   35.40
   6  -1  -8  104.49   47.10
  -6  -1   8   57.39   36.20
  -6   1  -8   61.99   43.80
   6  -1  -8  108.79   37.30
  -7   1   8   -7.80   34.50
   7  -1   8  -24.60   35.10
  -7  -1  -8   39.80   46.80
   7   1  -8    8.20   43.90
   7   1   8   -7.50   35.20
   7  -1  -8    5.40   41.40
  -7  -1   8    0.90   31.30
  -7   1  -8   -6.90   44.00
   0   2  -8  122.29   31.00
   0  -2  -8  145.99   24.60
   0  -2   8  174.38   30.10
   0  -2  -8  125.29   31.40
   0   2   8  164.98   29.20
   0  -2  -8  220.18   36.60
   0   2  -8  150.58   38.10
   1   2  -8   70.99   27.80
   1  -2   8   54.19   21.90
   1   2  -8   76.99   17.50
  -1  -2  -8   65.99   16.80
  -1   2   8   46.20   19.80
  -1  -2  -8   96.09   27.60
   1   2  -8   35.20   20.80
   1   2   8   26.50   17.00
   1  -2  -8    5.80   18.20
   1   2   8   47.90   20.30
  -1  -2   8   67.89   20.70
  -1   2  -8   14.80   19.00
   1  -2  -8   87.99   19.10
  -1   2  -8   73.99   28.60
   1  -2  -8   70.89   25.90
  -2  -2  -8   29.20   23.90
  -2   2   8    8.00   15.60
   2   2  -8  113.89   34.20
  -2  -2  -8   94.29   22.30
   2   2  -8   43.80   20.40
   2  -2   8   59.19   27.10
   2   2  -8   57.39   29.30
   2   2   8   33.30   23.50
   2   2   8   96.09   25.40
   2  -2  -8   69.89   20.30
  -2   2  -8   58.39   33.10
   2  -2  -8   30.20   23.90
  -2   2  -8   70.99   27.60
  -2  -2   8   82.99   19.30
   2  -2  -8   79.49   26.70
   3  -2   8 1833.12  156.08
   3   2  -8 2209.48  157.98
  -3   2   8 2167.38  143.79
   3   2  -8 2352.66  149.99
  -3  -2  -8 2485.55  158.68
  -3   2  -8 2385.56  151.68
   3  -2  -8 2136.09  149.88
  -3  -2   8 2207.18  153.58
  -3  -2   8 2372.46  138.99
   3   2   8 2380.96  150.88
  -3   2  -8 2457.55  164.88
   3   2   8 2289.07  148.69
   3  -2  -8 2502.95  149.69
  -4  -2  -8    8.40   21.10
  -4  -2  -8   21.80   24.10
  -4   2   8    0.20   19.50
   4   2  -8  -19.80   24.00
   4   2  -8   27.80   29.40
   4  -2   8   13.70   29.50
   4  -2  -8    8.10   22.00
   4  -2  -8   27.80   27.00
   4  -2  -8  -15.20   22.50
  -4   2  -8   17.10   30.30
  -4  -2   8   10.80   24.90
   4   2   8   30.60   25.60
   4   2   8   10.40   21.90
  -4   2  -8    1.20   23.80
  -5  -2  -8   75.99   37.00
   5   2  -8   42.80   34.70
   5  -2   8   41.20   33.20
  -5   2   8   29.30   27.60
  -5  -2  -8   36.80   30.50
   5   2  -8   70.09   36.60
   5  -2  -8   24.70   27.20
   5  -2  -8   14.70   29.40
   5   2   8   35.50   27.00
   5   2   8   20.80   32.70
  -5   2  -8   87.89   45.10
  -5  -2   8   46.00   30.30
  -6  -2  -8   42.60   37.40
   6  -2   8  -20.10   34.40
  -6   2   8   49.30   34.60
   6   2  -8   29.00   40.80
   6   2   8   12.00   29.40
   6  -2  -8  -32.90   26.80
   6   2   8   45.00   45.90
  -6  -2   8   48.40   34.80
   6  -2  -8   43.70   40.90
  -6   2  -8   25.40   46.20
   7  -2   8   44.20   47.80
  -7  -2  -8  -21.20   41.00
  -7   2   8   43.20   35.70
   7   2  -8   -8.80   44.40
   7  -2  -8   28.00   44.40
  -7   2  -8   -5.50   50.99
  -7  -2   8  -15.90   29.90
   0  -3  -8  351.46   45.60
   0   3   8  403.86   43.70
   0   3  -8  378.76   50.29
   0   3  -8  240.28   46.00
   0  -3  -8  274.57   45.40
   0  -3   8  383.06   42.10
   1   3  -8   38.10   26.70
   1  -3   8   44.20   24.50
   1   3  -8   31.40   23.40
  -1  -3  -8   73.49   29.70
  -1   3   8   20.00   19.00
  -1   3  -8   24.00   25.50
  -1   3  -8   51.59   25.20
   1  -3  -8   21.30   21.30
  -1  -3   8   42.50   18.50
   1   3   8   32.30   20.00
   1   3   8   11.20   16.40
   1  -3  -8   69.99   26.00
  -2  -3  -8  174.88   41.60
  -2   3   8  242.38   42.00
   2   3  -8  230.78   34.30
   2   3  -8  197.28   45.20
   2  -3   8  185.98   39.80
   2  -3  -8  154.08   37.00
   2  -3  -8  236.98   39.20
  -2  -3   8  161.58   38.10
  -2   3  -8  213.98   47.00
   2   3   8  177.98   38.50
   2   3   8  146.29   31.70
  -2   3  -8  234.68   43.40
  -2  -3   8  170.78   27.20
  -3  -3  -8   32.30   26.00
   3   3  -8    2.40   25.70
   3  -3   8   11.90   27.70
  -3   3   8   -0.10   20.60
   3   3  -8   40.80   27.20
  -3   3  -8   95.29   40.00
   3   3   8   -6.70   19.90
   3  -3  -8   43.90   27.20
  -3   3  -8   39.40   25.30
   3   3   8   31.00   21.70
   3  -3  -8   29.60   23.80
  -3  -3   8    6.40   26.30
   4  -3   8   14.20   26.70
   4   3  -8   73.69   34.20
  -4  -3  -8   40.00   29.70
  -4   3   8   -6.80   22.50
   4   3  -8   58.89   34.90
  -4  -3   8   74.99   33.40
  -4   3  -8   75.39   43.90
  -4   3  -8   44.20   35.80
   4   3   8   58.19   29.80
   4  -3  -8   27.60   26.70
   4   3   8   64.69   27.10
  -5  -3  -8   35.00   33.00
   5   3  -8    4.10   30.80
   5   3  -8   -0.20   30.80
   5  -3   8   12.90   35.00
   5  -3  -8   36.50   30.80
   5   3   8   49.60   33.60
   5   3   8   54.39   30.30
  -5   3  -8   42.40   47.10
  -5  -3   8   21.20   31.20
   6  -3   8  161.38   55.79
   6   3  -8  129.29   49.50
  -6  -3  -8   88.09   42.50
   6   3  -8   89.29   52.99
   6  -3  -8  137.99   51.69
   6   3   8   85.09   46.20
  -6   3  -8   85.59   56.89
   6  -3  -8  112.09   41.20
   0  -4  -8 1786.92  124.69
   0   4   8 1574.94  120.09
   0  -4   8 1697.33  128.49
   0   4  -8 1604.64  129.99
   0  -4   8 1755.92  117.59
   0  -4  -8 1854.31  128.79
   1   4  -8   86.79   35.90
   1  -4   8  185.58   36.80
   1  -4   8   68.69   30.80
  -1  -4  -8  127.39   35.70
  -1   4   8   55.39   25.30
  -1  -4  -8   71.69   28.10
  -1   4  -8  149.39   41.70
   1  -4  -8  100.79   30.80
   1  -4  -8  204.58   40.30
   1   4   8   87.89   28.70
  -1  -4   8   73.39   24.50
  -1  -4   8   58.09   29.00
   2  -4   8   45.70   27.60
  -2   4   8   23.80   23.40
  -2  -4  -8   23.20   25.60
   2   4  -8   19.20   31.90
   2  -4   8   12.20   24.60
   2  -4  -8   14.20   21.10
  -2  -4   8   -0.10   25.20
   2   4   8   19.60   24.60
   2   4   8    6.10   20.80
  -2   4  -8   13.20   28.00
   2  -4  -8   -4.10   22.40
   3  -4   8  201.28   46.00
  -3   4   8  148.79   39.70
   3   4  -8  267.17   44.40
   3   4  -8  101.89   40.20
  -3  -4  -8  106.99   35.90
   3   4   8  135.89   35.10
   3  -4  -8  181.58   37.70
  -3   4  -8  155.88   51.99
  -3  -4   8  192.68   44.70
   3  -4  -8  116.59   34.00
   3   4   8  158.68   33.40
  -4   4   8    9.40   29.00
  -4  -4  -8   25.30   28.50
   4  -4   8  -13.10   25.50
   4   4  -8   -3.00   29.50
   4   4  -8   27.10   36.40
   4  -4  -8    0.60   26.20
   4   4   8   -2.20   20.80
  -4  -4   8   -2.40   28.20
  -4   4  -8    9.90   39.90
   4   4   8   53.99   28.70
  -5  -4  -8   60.69   36.50
   5   4  -8   48.30   37.30
  -5   4   8   31.10   31.60
   5   4  -8   66.79   46.80
   5  -4   8   67.59   37.00
  -5   4  -8  120.19   54.69
   5   4   8   22.10   29.80
   5  -4  -8   97.19   40.10
  -5  -4   8   79.89   39.80
  -6  -4  -8  190.28   49.99
   6  -4   8  140.89   54.69
   6   4  -8  170.08   57.89
   6   4  -8  209.48   66.59
  -6   4   8   23.90   34.80
   6   4   8  228.38   58.99
   6  -4  -8  154.38   50.09
  -6  -4   8   68.79   43.80
  -6   4  -8  111.49   63.49
   0   5   8    4.70   20.40
   0   5  -8   -9.20   21.20
   0  -5  -8    3.10   23.80
   0  -5   8  -13.20   21.00
   0  -5   8   18.00   26.90
   0  -5  -8   -7.30   23.50
   1   5  -8   82.89   33.80
  -1  -5  -8  198.38   47.20
   1  -5   8  118.39   30.50
  -1  -5  -8  106.29   34.20
   1  -5   8   46.70   34.70
  -1   5   8   95.89   33.90
  -1   5  -8   86.09   36.30
  -1  -5   8   30.40   30.80
   1   5   8   86.29   33.30
   1  -5  -8  104.69   35.10
   1  -5  -8   79.89   32.80
   2  -5   8   70.09   31.00
  -2  -5  -8   57.99   33.30
  -2   5   8   72.99   30.40
   2   5  -8   50.29   35.00
   2  -5   8    9.90   28.80
   2  -5  -8   29.00   29.60
   2   5   8    7.60   20.70
  -2  -5   8   24.30   28.60
   2   5   8   63.59   33.00
   2  -5  -8  107.69   36.40
   3   5  -8   48.60   33.90
   3  -5   8   90.49   39.00
  -3   5   8   61.29   35.20
  -3  -5  -8   31.70   26.40
   3  -5   8   53.99   31.20
  -3  -5   8   95.49   39.80
   3   5   8   56.69   25.50
   3  -5  -8   20.60   27.20
  -3   5  -8   25.30   37.70
   3   5   8   42.00   30.00
  -4   5   8    5.00   31.30
   4   5  -8   76.69   35.80
   4  -5   8    9.60   30.30
   4   5  -8   46.60   31.60
  -4  -5  -8   12.60   27.60
   4   5   8   29.50   31.60
   4  -5  -8   51.99   39.00
  -4  -5   8   24.20   37.70
  -4   5  -8   14.80   32.60
  -5  -5  -8   36.10   35.30
   5   5  -8   22.90   40.60
  -5   5   8   -0.40   34.10
   5  -5   8   43.10   34.00
   5   5  -8    6.60   41.20
   5   5   8   21.50   39.20
  -5  -5   8    7.50   36.00
  -5   5  -8   27.80   40.40
   5  -5  -8   58.99   41.80
   0  -6  -8   82.69   39.30
   0  -6   8   65.69   36.70
   0  -6  -8  118.29   37.80
   0   6  -8  119.09   39.70
   0   6   8   71.69   31.30
   1  -6   8   43.40   34.60
  -1  -6  -8  106.39   41.80
  -1  -6  -8    9.90   25.20
  -1   6   8   34.90   27.70
   1   6  -8   60.69   35.00
   1  -6   8   43.80   28.30
  -1  -6   8   90.09   39.70
   1   6   8    6.20   24.80
   1  -6  -8   50.39   33.80
   1  -6  -8   42.60   29.30
  -1   6  -8   15.60   32.10
   2  -6   8   78.69   38.10
  -2  -6  -8   72.49   41.30
   2  -6   8   44.10   32.60
   2   6  -8  -17.00   29.40
  -2   6   8  124.29   38.70
  -2   6  -8   93.19   40.10
   2   6   8   15.00   27.20
   2  -6  -8  177.78   45.20
   2  -6  -8  135.19   40.90
  -2  -6   8   75.49   45.90
   2   6   8   33.70   35.00
  -3  -6  -8   74.69   38.60
   3   6  -8   68.99   37.10
   3  -6   8  119.19   40.20
  -3   6   8  140.39   45.50
  -3   6  -8  188.08   52.59
   3  -6  -8  188.38   44.60
  -3  -6   8   92.19   41.80
   3   6   8  160.18   46.60
  -4   6   8   30.90   34.30
   4  -6   8   19.50   34.30
  -4  -6  -8   -7.60   32.10
   4   6  -8   11.30   33.80
   4  -6  -8    0.10   36.90
   4   6   8   12.70   35.20
  -4  -6   8   18.50   38.10
  -4   6  -8   36.00   44.10
   5   6  -8   -9.60   34.60
  -5  -6  -8    4.60   34.40
  -5   6   8    5.60   34.90
   5  -6   8   17.20   34.30
  -5  -6   8  -20.00   37.80
   5   6   8   -3.20   34.80
  -5   6  -8   64.99   52.49
   5  -6  -8   38.20   43.70
   0  -7  -8   -4.30   31.70
   0  -7   8   18.20   40.80
   0   7   8   -5.00   23.80
   0  -7  -8  -30.80   25.10
   0   7  -8    4.60   31.80
  -1   7   8   10.50   32.00
   1  -7   8   42.20   31.80
   1  -7   8   74.89   37.40
  -1  -7  -8   28.10   39.70
   1   7  -8   69.59   39.50
  -1  -7  -8  -13.30   25.90
   1   7   8  100.79   42.20
   1  -7  -8   -5.80   27.40
  -1   7  -8  -33.90   30.50
   1  -7  -8   15.80   28.40
  -1  -7   8   27.00   39.60
   2  -7   8   80.29   34.00
  -2   7   8    6.80   31.00
   2   7  -8    5.50   34.50
  -2  -7  -8   19.90   40.70
   2  -7   8   43.30   36.10
   2   7   8   -5.70   32.50
  -2   7  -8   20.70   38.20
  -2  -7   8   14.40   40.00
   2  -7  -8   25.60   35.20
   2  -7  -8    3.00   31.10
   2   7   8   60.39   36.60
   3  -7   8   50.19   37.10
  -3   7   8   69.59   40.30
   3   7  -8   42.40   35.50
  -3  -7  -8   21.70   38.60
  -3  -7   8   30.40   36.00
  -3   7  -8  -10.60   35.60
   3  -7  -8    4.20   29.40
   3   7   8  -14.60   32.40
   4  -7   8   33.80   43.00
  -4  -7  -8  -14.00   36.80
  -4   7   8   76.39   41.60
   4   7  -8   94.69   44.70
   4  -7  -8   -9.80   32.30
   4   7   8   -9.80   36.40
  -4  -7   8  -17.00   36.10
  -4   7  -8   54.79   41.90
   0  -8  -8  -22.30   33.10
   0  -8   8    9.70   39.40
   0  -8  -8   25.90   39.10
   0   8   8  -29.50   28.50
   0   8  -8  -70.79   35.00
  -1  -8  -8   -4.60   38.70
   1  -8   8    9.10   32.60
  -1  -8  -8   68.49   45.50
   1   8  -8   12.90   37.40
  -1   8   8    3.80   32.20
   1   8   8   -1.20   30.00
   1  -8  -8   67.99   36.90
  -1   8  -8  -13.20   38.20
   1  -8  -8   17.10   33.90
  -1  -8   8   -1.90   40.30
  -2  -8  -8   18.80   48.90
   2   8  -8  -16.30   35.40
   2  -8   8    7.40   44.10
  -2   8   8   13.30   40.10
  -2  -8   8  -10.50   47.30
   2  -8  -8   55.09   36.10
  -2   8  -8   81.69   49.30
   2   8   8   12.50   37.70
   0   0  -9  -18.10   18.60
   0   0   9    4.00   11.80
   0   0   9   -1.20   15.00
   0   0  -9   12.60   18.80
   1   0   9    4.40   15.40
   1   0  -9   31.60   22.00
   1   0  -9    7.50   19.50
  -1   0  -9   24.80   22.70
  -1   0   9   -5.90   16.70
  -1   0  -9   21.10   19.70
  -1   0   9   11.40   13.20
   2   0  -9   84.49   31.30
   2   0  -9  170.68   31.70
  -2   0  -9  221.68   41.10
   2   0  -9  126.99   32.50
   2   0   9  122.69   32.70
   2   0  -9  156.48   35.10
  -2   0  -9  102.49   32.10
   3   0  -9   14.80   24.40
   3   0  -9   11.60   24.40
   3   0  -9    1.90   24.50
  -3   0  -9    6.00   23.60
   3   0   9   26.80   26.00
  -3   0  -9  -29.50   20.60
   3   0  -9  -22.80   19.50
  -4   0  -9   51.39   36.10
   4   0  -9   46.10   29.60
   4   0  -9   66.59   33.30
   4   0   9   85.49   37.20
  -4   0  -9  -12.70   25.00
   4   0  -9   48.00   29.60
   4   0  -9   69.19   29.70
   5   0  -9  -56.09   21.40
  -5   0  -9   50.59   31.80
  -5   0  -9  -31.50   28.60
   5   0   9  -33.80   25.70
   5   0  -9   21.20   31.20
  -5   0   9   -5.00   26.00
   6   0   9   23.10   37.80
  -6   0  -9   47.60   39.70
  -6   0   9   15.90   32.00
   6   0  -9   56.09   38.70
   0   1  -9  -13.70   17.20
   0   1   9  -12.60   14.10
   0  -1  -9    4.40   14.50
   0   1  -9   19.40   20.30
   0  -1  -9   -2.10   19.60
   0   1   9    3.20   14.10
   0  -1   9    0.30   14.20
  -1  -1  -9  329.57   36.70
  -1   1   9  333.47   36.50
   1  -1   9  295.17   40.50
  -1  -1  -9  273.87   44.40
   1   1  -9  246.08   46.60
   1   1  -9  299.57   43.70
   1  -1  -9  366.96   46.40
  -1   1  -9  283.07   47.10
  -1   1  -9  309.07   41.70
   1   1   9  259.37   33.80
   1  -1  -9  271.97   44.30
   1   1   9  271.77   37.90
  -1  -1   9  276.07   35.80
   1  -1  -9  268.97   39.20
   2   1  -9   25.60   25.70
   2   1  -9   28.00   26.70
  -2   1   9    5.20   18.80
  -2  -1  -9   47.10   26.50
  -2  -1  -9   46.80   24.60
   2   1  -9   41.40   22.70
   2  -1   9   -2.40   17.50
   2   1   9   53.89   19.50
  -2   1  -9   30.30   23.20
   2  -1  -9   21.90   23.40
  -2  -1   9   34.00   19.60
   2  -1  -9   10.60   25.20
  -2   1  -9   11.50   23.90
   2  -1  -9   13.10   19.30
   2   1   9   20.30   22.20
   3   1  -9   12.90   22.60
  -3  -1  -9    8.80   22.80
   3  -1   9   21.40   27.20
   3   1  -9   58.99   31.40
  -3  -1  -9   18.50   24.40
   3   1  -9   22.50   23.90
  -3   1  -9   51.09   33.10
   3  -1  -9   64.69   27.80
   3  -1  -9    9.80   22.50
   3   1   9   25.50   26.80
  -3   1  -9   68.39   27.30
   3  -1  -9    9.80   21.70
  -3  -1   9   29.30   21.50
   3  -1  -9   -0.80   23.10
  -4  -1  -9   57.49   32.60
   4  -1   9   32.10   36.00
   4   1  -9  116.39   32.70
   4   1  -9   72.99   37.40
   4   1  -9  149.79   38.40
  -4   1   9   61.69   28.70
  -4  -1  -9   86.99   32.40
   4  -1  -9   63.59   28.10
   4  -1  -9   18.70   27.40
  -4  -1   9   54.59   28.00
   4   1   9  107.69   36.30
   4  -1  -9   62.39   31.60
  -4   1  -9   77.99   38.70
  -4   1  -9  109.69   31.80
   5  -1   9   30.40   34.90
   5   1  -9   49.00   32.30
   5   1  -9    9.80   35.30
  -5   1   9   94.29   38.00
  -5  -1  -9   96.19   38.10
  -5  -1  -9   51.49   35.30
   5   1   9   86.09   36.50
  -5   1  -9   60.49   41.40
   5  -1  -9   47.40   36.70
  -5  -1   9   58.79   34.30
   5  -1  -9   59.19   30.80
   6   1  -9   18.30   37.40
  -6  -1  -9    1.20   36.00
  -6   1   9   40.50   34.50
   6  -1   9   31.50   37.30
   6   1   9   -0.10   34.70
   6  -1  -9  -28.70   36.50
  -6  -1   9   18.20   33.60
  -6   1  -9  -60.09   35.00
   0   2   9   -1.40   16.50
   0   2  -9   -0.50   22.60
   0  -2   9    1.00   16.00
   0   2   9   -1.90   14.60
   0   2  -9  -14.70   19.00
   0  -2  -9    2.10   19.50
  -1  -2  -9   50.19   22.40
   1   2  -9   62.89   28.20
  -1   2   9   67.69   21.80
   1  -2   9   19.20   21.20
   1   2  -9   90.39   34.40
   1   2   9   83.69   27.80
   1  -2  -9   95.99   29.90
   1   2   9   66.79   22.90
  -1   2  -9   87.19   30.00
   1  -2  -9   53.39   27.80
  -1   2  -9   28.30   24.50
  -1  -2   9   28.30   19.90
  -2  -2  -9   81.49   26.20
   2   2  -9   96.79   35.40
  -2  -2  -9  109.09   33.00
   2   2  -9  127.79   25.50
   2   2  -9   60.59   34.60
  -2   2   9   49.10   23.00
   2  -2   9   52.59   29.90
   2  -2  -9    5.80   24.80
   2   2   9  145.79   32.00
  -2   2  -9   86.69   32.20
   2  -2  -9   47.00   24.70
   2   2   9   47.70   24.30
  -2  -2   9   69.39   20.70
  -2   2  -9  102.59   38.60
   3   2  -9   82.49   29.90
   3   2  -9   38.90   29.40
  -3  -2  -9   44.70   28.00
  -3   2   9   -3.10   22.00
  -3  -2  -9   31.30   22.00
   3  -2   9    2.60   24.70
  -3   2   9   51.19   25.90
   3   2   9   52.79   25.60
  -3  -2   9   44.40   19.50
   3  -2  -9   47.30   26.00
  -3   2  -9   22.60   24.70
  -3  -2   9   54.09   28.40
   3   2   9   21.30   22.60
   3  -2  -9   51.69   30.90
  -3   2  -9   28.40   32.70
  -4   2   9   63.69   27.50
   4   2  -9   62.49   34.90
   4   2  -9   38.60   32.80
  -4  -2  -9   52.79   31.40
   4  -2   9   48.60   36.10
  -4  -2  -9  113.29   35.80
   4   2   9   70.59   30.80
   4   2   9   58.99   29.30
   4  -2  -9   58.89   31.80
  -4   2  -9  119.59   42.30
  -4  -2   9   81.69   35.30
   4  -2  -9   22.90   26.80
  -4   2  -9  107.09   33.30
   4  -2  -9   43.20   29.40
   5  -2   9   17.50   34.20
   5   2  -9   25.00   35.30
  -5  -2  -9   23.50   29.90
  -5   2   9   41.30   30.10
  -5  -2  -9   26.60   34.50
   5   2  -9  -23.50   30.60
  -5   2  -9    0.50   36.80
   5   2   9   -3.30   30.60
   5  -2  -9   38.30   33.00
  -5  -2   9   68.09   37.20
   5  -2  -9  -12.10   28.30
  -6  -2  -9   28.40   38.50
   6  -2   9   -5.50   44.40
   6   2  -9  -30.90   36.00
   6   2  -9    3.90   38.90
   6  -2  -9   35.80   38.60
   6  -2  -9   -6.10   34.60
   6   2   9  -27.70   33.40
  -6   2  -9   -9.10   39.90
   0   3   9    2.90   16.30
   0  -3   9   25.50   21.90
   0  -3  -9  -25.00   15.60
   0  -3  -9   15.00   23.10
   0   3  -9  -12.10   23.00
   0   3  -9   -2.20   22.50
   1   3  -9    2.60   23.80
  -1  -3  -9   29.10   27.20
  -1   3   9   21.40   20.60
   1   3  -9   -7.40   25.50
   1  -3   9   17.50   23.20
  -1   3  -9   -3.20   21.80
   1  -3  -9  -30.80   17.60
   1   3   9  -18.20   19.00
  -1  -3   9   32.20   18.60
   1  -3  -9   15.70   21.50
   1   3   9   12.90   20.90
  -1   3  -9    0.10   22.00
   2   3  -9  206.08   47.80
  -2  -3  -9  284.47   52.09
  -2   3   9  216.98   42.90
   2  -3   9  238.48   49.60
  -2  -3   9  205.18   31.80
  -2   3  -9  324.77   59.39
   2   3   9  211.48   38.50
  -2   3  -9  286.17   51.69
   2  -3  -9  238.28   44.90
   2   3   9  148.79   38.30
  -2  -3   9  222.68   43.90
   2  -3  -9  321.77   49.10
  -3  -3  -9   13.70   26.40
   3   3  -9   -8.30   29.10
  -3   3   9   10.60   22.80
   3   3  -9   12.20   24.90
   3  -3   9   23.60   29.50
   3  -3  -9    1.90   22.30
   3  -3  -9   12.40   22.30
  -3   3  -9   -3.10   25.60
  -3  -3   9  -19.30   22.30
  -3   3  -9   27.50   37.50
   3   3   9   25.40   23.50
   3   3   9  -40.30   18.10
  -4  -3  -9  250.47   52.09
   4   3  -9  116.49   43.30
   4  -3   9  164.68   49.10
  -4   3   9    7.60   25.90
   4   3  -9  280.87   51.49
   4   3   9  144.69   36.90
  -4  -3   9  283.97   53.79
  -4   3  -9  169.18   54.99
   4  -3  -9  119.09   41.50
   4   3   9  176.28   40.90
  -4   3  -9  294.97   51.49
   5  -3   9   72.69   45.00
  -5   3   9   16.40   29.60
   5   3  -9    9.20   34.80
   5   3  -9   39.10   39.00
  -5  -3  -9   76.49   35.40
   5   3   9   35.00   35.80
   5   3   9   -1.30   30.00
  -5  -3   9   90.89   39.70
   5  -3  -9   15.60   29.30
  -5   3  -9   30.90   43.80
   6  -3   9   15.70   45.80
   6   3  -9  -21.20   44.80
  -6   3   9    4.90   33.10
  -6  -3  -9   44.90   43.30
   6   3  -9   14.90   39.00
   6  -3  -9   62.89   38.50
  -6   3  -9  -20.40   53.89
   0  -4   9   45.20   33.80
   0   4  -9   -6.90   21.50
   0  -4   9   51.59   25.30
   0   4   9   12.40   19.80
   0  -4  -9   -5.00   22.30
   0  -4  -9   -1.40   21.50
   1  -4   9  235.98   45.90
  -1  -4  -9  310.47   53.99
   1   4  -9  261.77   54.89
  -1   4   9  327.87   45.40
   1  -4  -9  176.78   44.20
   1  -4  -9  199.38   43.40
  -1  -4   9  255.27   39.50
   1   4   9  243.48   46.60
   1   4   9  310.17   49.60
  -1   4  -9  219.68   51.49
  -1  -4   9  157.28   44.60
   2  -4   9    9.40   27.60
  -2  -4  -9   33.80   29.50
  -2   4   9  -10.00   21.30
   2   4  -9  -12.10   28.90
  -2   4  -9   67.49   38.10
   2  -4  -9   34.40   28.00
   2   4   9   29.40   22.70
  -2   4  -9   45.60   29.40
  -2  -4   9    2.90   24.90
   2   4   9   16.40   26.80
   2  -4  -9   34.40   27.00
  -3   4   9   29.60   29.90
  -3  -4  -9    5.50   25.60
   3   4  -9   12.20   33.00
   3  -4   9    9.50   25.50
  -3   4  -9   18.30   25.90
   3  -4  -9  -17.00   22.10
   3   4   9  -39.70   19.50
  -3  -4   9  -23.20   24.60
  -3   4  -9  -35.00   33.50
   3  -4  -9  -51.59   21.60
   3   4   9   10.50   22.40
   4   4  -9   18.80   36.60
   4  -4   9   28.90   31.80
  -4   4   9   14.90   27.40
  -4  -4  -9   35.30   29.90
   4   4   9    8.20   26.40
  -4  -4   9  103.39   39.30
   4   4   9   17.40   28.90
   4  -4  -9    3.00   27.40
  -4   4  -9   19.80   40.40
   5  -4   9   27.60   36.20
   5   4  -9   -1.70   38.70
  -5   4   9  -11.30   30.50
   5   4  -9   52.39   42.20
  -5  -4  -9   17.50   30.60
   5  -4  -9  121.29   41.60
  -5   4  -9  -10.80   47.10
  -5  -4   9   36.10   37.00
   5   4   9   52.59   35.00
  -6  -4  -9   15.30   40.40
   6   4  -9   20.50   52.39
  -6   4   9  -12.50   33.50
   6   4  -9   51.69   50.09
   6  -4   9   -8.20   45.60
  -6  -4   9   84.09   49.80
   6  -4  -9  -32.70   33.70
  -6   4  -9   61.49   57.89
   6   4   9   51.99   48.00
   0  -5   9   27.60   27.50
   0   5  -9    5.30   30.50
   0   5   9  -11.90   20.80
   0  -5  -9   -7.00   26.90
   0  -5  -9   -0.90   24.40
   0  -5   9   17.40   31.30
   1  -5   9  236.68   51.59
  -1  -5  -9  155.98   45.40
   1  -5   9  189.48   39.10
  -1  -5  -9  164.58   41.30
  -1   5   9  168.58   42.40
   1   5  -9  153.28   48.80
  -1   5  -9  286.47   62.39
   1  -5  -9  235.58   46.50
  -1  -5   9  146.49   45.40
   1   5   9  171.18   40.10
   1  -5  -9  229.08   50.19
   2  -5   9   65.19   35.70
  -2   5   9   92.09   38.20
  -2  -5  -9   97.19   38.50
   2   5  -9   72.19   43.20
   2  -5   9  138.09   37.60
   2   5   9  124.19   33.00
   2  -5  -9  125.59   42.50
  -2   5  -9   56.49   41.00
   2  -5  -9  139.49   37.50
  -2  -5   9   42.10   32.60
   2   5   9   61.19   34.20
  -3  -5  -9   -9.30   23.50
   3  -5   9   47.90   32.10
   3   5  -9  -27.40   29.70
  -3   5   9    5.80   24.80
   3  -5   9   52.59   33.00
  -3   5  -9  -26.40   37.80
   3   5   9   18.00   23.30
   3  -5  -9   20.70   33.80
   3   5   9   -2.70   25.30
  -3  -5   9   -2.10   25.80
  -4  -5  -9   35.50   32.50
  -4   5   9   28.40   34.60
   4  -5   9   28.90   37.20
   4   5  -9   31.60   41.80
   4   5   9   37.60   33.90
   4  -5  -9   -2.70   32.20
  -4  -5   9   41.60   38.60
  -4   5  -9   48.00   48.90
  -5   5   9   -2.10   35.40
   5   5  -9   19.30   44.20
  -5  -5  -9   21.90   36.20
   5  -5   9   82.49   43.60
  -5  -5   9   31.30   42.20
   5   5   9   12.60   37.70
   5  -5  -9   15.90   38.90
  -5   5  -9   49.10   49.90
   0   6  -9   11.90   28.20
   0  -6   9  -46.20   32.20
   0  -6  -9    4.60   27.90
   0   6   9   -4.20   22.40
   0  -6  -9  -20.30   27.60
   1  -6   9   23.10   28.00
  -1  -6  -9   20.50   34.30
  -1   6   9   27.60   26.80
  -1  -6  -9   18.30   28.80
   1   6  -9    6.20   30.80
   1  -6   9    6.30   30.20
  -1   6  -9    6.80   31.40
  -1  -6   9   -0.60   35.10
   1   6   9   12.30   29.10
   1  -6  -9   75.89   38.10
   1  -6  -9   27.60   29.30
  -2  -6  -9  133.69   47.80
  -2   6   9   80.79   39.00
   2   6  -9   65.49   45.10
   2  -6   9  207.48   48.80
   2  -6   9   56.99   32.80
   2   6   9   87.99   33.00
  -2   6  -9  123.39   50.69
   2  -6  -9  166.18   42.70
   2  -6  -9   22.20   33.00
   2   6   9   96.49   41.20
  -2  -6   9  191.78   56.99
   3  -6   9   14.30   34.40
   3   6  -9    5.10   32.40
  -3  -6  -9   49.70   36.60
  -3   6   9   12.20   34.40
   3  -6  -9  -31.20   27.50
   3   6   9  -11.30   28.90
  -3   6  -9  -23.50   34.60
  -3  -6   9  -22.20   28.40
   3   6   9   14.70   26.70
  -4   6   9  142.29   53.39
  -4  -6  -9  130.09   48.10
   4   6  -9  134.89   44.60
   4  -6   9  147.09   45.50
   4  -6  -9   72.19   42.60
   4   6   9    8.00   35.30
  -4  -6   9   68.99   49.90
  -4   6  -9  177.58   63.19
   0  -7   9   10.50   44.80
   0   7   9   -1.10   29.10
   0  -7  -9   -5.30   28.60
   0  -7  -9    4.30   35.20
   0   7  -9   -6.50   33.40
  -1  -7  -9   68.09   41.80
  -1   7   9  147.19   48.10
   1  -7   9  119.19   51.59
  -1  -7  -9   63.89   38.70
   1   7  -9  139.29   51.19
  -1  -7   9   95.89   49.99
   1   7   9   93.39   42.00
   1  -7  -9   64.69   39.40
   1  -7  -9  169.18   48.80
  -1   7  -9  161.08   52.09
  -2  -7  -9   25.00   40.60
   2   7  -9    7.40   37.10
  -2   7   9   34.50   35.50
   2  -7   9   60.49   38.60
   2  -7   9  -48.50   34.40
   2   7   9   56.89   33.80
   2   7   9   39.80   41.50
   2  -7  -9   41.40   36.30
  -2  -7   9  -37.00   42.60
  -2   7  -9   28.30   39.40
   2  -7  -9   25.70   40.00
   3  -7   9    0.50   34.00
  -3  -7  -9    1.60   32.90
   3   7  -9   50.79   41.20
  -3   7   9   51.49   42.10
   3  -7  -9  -34.80   31.30
  -3   7  -9   10.30   41.10
  -3  -7   9   -2.60   39.10
   3   7   9   12.30   36.30
   0   8   9   17.10   37.60
   0  -8  -9   11.10   36.30
   0  -8  -9  -10.10   32.00
   0   8  -9  -27.40   41.80
   0  -8   9  -45.90   41.80
   1   8  -9   44.40   45.90
  -1   8   9  -25.90   33.50
  -1  -8  -9   84.39   42.60
   1  -8   9   26.30   45.10
  -1  -8  -9   69.49   50.89
  -1  -8   9    2.90   48.90
   1  -8  -9   57.79   36.20
  -1   8  -9   31.30   41.40
   1   8   9   35.10   35.70
   1  -8  -9   51.59   42.30
   0   0 -10 1111.99   81.59
   0   0  10  961.70   82.29
   0   0 -10  997.20   88.79
  -1   0  10  -13.30   14.90
   1   0  10  -42.10   13.90
  -1   0 -10   14.60   22.10
   1   0 -10    8.10   23.90
   1   0 -10    4.90   19.40
  -1   0  10    9.20   19.00
  -1   0 -10   18.60   23.20
   2   0 -10  520.25   56.59
  -2   0 -10  442.26   56.49
  -2   0 -10  341.57   56.99
   2   0 -10  315.87   56.89
   2   0  10  336.97   49.00
  -2   0  10  473.05   52.49
   3   0  10   18.60   28.10
  -3   0 -10   34.00   29.30
   3   0 -10   21.50   24.60
  -3   0 -10   -7.50   28.00
   3   0 -10  -54.79   18.20
   3   0 -10   36.20   26.20
   3   0 -10    5.50   28.40
  -4   0 -10  183.78   50.89
   4   0 -10  223.98   46.30
  -4   0 -10  235.68   50.49
   4   0 -10  190.88   48.40
   4   0 -10  276.07   54.49
   4   0  10  212.58   50.09
   4   0 -10  187.88   43.50
  -5   0  10    5.10   31.40
  -5   0 -10    7.60   31.80
   5   0  10   30.60   37.60
   5   0 -10  -20.70   30.00
  -5   0 -10   20.00   34.70
   6   0  10  350.06   69.89
  -6   0  10  256.37   57.29
   6   0 -10  237.68   61.29
  -6   0 -10  167.78   57.69
   0   1 -10  470.55   60.19
   0  -1 -10  535.15   61.29
   0  -1 -10  535.25   51.69
   0   1 -10  429.26   51.59
   0   1  10  382.06   51.19
   0   1  10  499.85   45.90
   0  -1  10  479.65   53.39
  -1   1  10   39.20   24.40
  -1  -1 -10   80.19   26.00
   1  -1  10   72.69   25.60
   1   1 -10   41.90   27.30
   1   1 -10   94.59   30.80
  -1   1  10   42.80   20.50
  -1  -1 -10   93.59   33.20
  -1   1 -10   30.80   25.10
   1   1  10    1.30   19.20
  -1   1 -10   25.50   25.90
   1  -1 -10   38.70   26.00
   1  -1 -10   37.10   25.60
  -1  -1  10   75.09   24.50
  -2  -1 -10   22.60   24.80
  -2   1  10   10.70   20.90
  -2  -1 -10   -0.30   22.90
   2   1 -10  -12.10   26.00
   2   1 -10    4.70   24.80
   2  -1  10   37.10   24.40
  -2   1 -10   41.50   24.60
   2  -1 -10   22.00   25.30
  -2   1 -10  -34.50   23.40
   2   1  10   10.80   22.00
   2  -1 -10    6.90   25.80
   2  -1 -10   26.40   25.10
  -2  -1  10    5.80   20.80
  -3  -1 -10  581.94   68.89
   3   1 -10  545.25   60.19
  -3  -1 -10  542.75   63.59
   3  -1  10  532.35   70.09
   3   1 -10  612.64   73.19
  -3   1 -10  605.14   65.89
  -3  -1  10  708.53   62.79
   3  -1 -10  567.04   67.29
   3  -1 -10  613.44   67.09
   3   1  10  632.74   68.39
   3  -1 -10  643.24   63.89
  -3   1 -10  557.04   71.19
   4   1 -10  -39.60   29.80
  -4  -1 -10    4.70   27.40
   4  -1  10  -17.70   32.70
   4   1 -10    9.50   27.50
  -4  -1 -10   24.30   31.80
   4  -1 -10  -29.40   23.00
   4  -1 -10   59.49   32.40
  -4   1 -10   45.20   31.50
  -4  -1  10   29.80   25.80
   4  -1 -10   41.80   32.00
   4   1  10   77.69   35.60
   4  -1 -10   -8.80   27.00
  -4   1 -10    3.10   29.70
   5  -1  10  113.09   46.30
  -5  -1 -10   -8.50   33.90
  -5   1  10   38.80   32.60
  -5  -1 -10   35.20   34.60
   5   1 -10   19.70   32.20
   5   1 -10   59.49   44.30
   5   1  10    0.10   31.60
   5  -1 -10   99.19   37.80
  -5   1 -10   26.80   43.40
   5  -1 -10   63.29   35.70
  -5  -1  10   27.50   37.50
   6  -1  10   27.90   45.20
  -6  -1 -10  114.09   51.59
   6   1 -10  133.39   47.80
  -6   1  10   56.29   35.60
   6  -1 -10  127.89   51.49
  -6   1 -10   19.70   42.70
   6   1  10   42.50   39.40
  -6  -1  10   39.20   35.40
   0   2 -10   79.99   35.90
   0   2  10   10.60   21.40
   0  -2 -10   85.29   32.10
   0   2  10   61.69   22.10
   0  -2  10   37.80   22.40
   0   2 -10   38.30   25.00
   1  -2  10  366.46   48.50
   1   2 -10  354.46   52.59
  -1   2  10  505.65   50.69
  -1  -2 -10  349.87   50.29
   1   2 -10  328.17   61.69
   1   2  10  352.86   49.30
  -1   2 -10  445.96   57.79
   1  -2 -10  362.46   52.79
   1  -2 -10  445.56   56.49
  -1   2 -10  315.27   55.49
   1   2  10  397.36   46.00
  -1  -2  10  295.47   41.40
  -2  -2 -10   33.90   25.80
   2   2 -10   -8.20   29.40
   2  -2  10   21.70   27.30
  -2   2  10   52.59   27.10
   2   2 -10  -17.60   26.30
  -2   2 -10  -11.70   22.20
  -2   2 -10    5.00   28.20
  -2  -2  10   31.10   20.10
   2   2  10    1.40   20.60
   2   2  10   47.70   22.50
   2  -2 -10   28.20   26.90
   2  -2 -10  -20.40   27.80
   3  -2  10  519.25   68.89
   3   2 -10  597.14   71.19
  -3  -2 -10  614.14   71.09
  -3   2 -10  636.34   76.69
   3   2  10  608.94   64.19
  -3  -2  10  438.76   61.59
   3  -2 -10  559.04   64.49
   3  -2 -10  529.85   61.19
  -3   2 -10  606.84   64.99
  -3  -2  10  487.55   48.80
   4   2 -10    5.30   29.90
  -4  -2 -10   -3.70   25.90
   4   2 -10    9.30   26.00
   4  -2  10   29.60   38.00
  -4   2  10  -12.80   22.60
  -4   2 -10  -45.90   35.90
  -4  -2  10   30.00   27.50
   4   2  10   43.00   30.40
   4  -2 -10   -6.20   38.50
  -4   2 -10   24.40   27.60
   4  -2 -10   22.80   28.90
  -5  -2 -10   92.29   42.50
   5   2 -10   51.29   37.40
   5   2 -10   35.00   35.50
   5  -2  10  106.29   51.39
  -5   2 -10   58.59   45.20
  -5  -2  10   79.79   39.10
   5   2  10   21.70   34.30
   5  -2 -10   78.89   38.10
   5  -2 -10  122.49   42.30
   6   2 -10  -22.40   33.80
   6  -2  10  117.69   53.59
   6   2 -10   29.60   43.20
   6   2  10    5.50   37.90
   6  -2 -10   70.69   40.60
  -6   2 -10    8.50   52.09
   6  -2 -10   32.10   37.60
   0  -3  10  608.14   63.99
   0  -3 -10  855.21   78.99
   0  -3 -10  726.23   73.09
   0   3 -10  721.83   76.29
   0   3  10  713.93   68.39
   0   3 -10  818.92   83.99
   1   3 -10  -24.00   23.30
   1  -3  10   -3.60   23.00
   1   3 -10   21.00   32.70
  -1   3  10    8.10   19.40
  -1  -3 -10   12.60   23.50
   1  -3 -10   21.10   25.20
   1   3  10   10.30   21.70
   1   3  10   29.60   22.70
  -1  -3  10  -22.40   16.50
  -1   3 -10   51.99   32.90
  -1   3 -10   42.20   30.60
   1  -3 -10   14.60   26.20
   2   3 -10   78.89   38.50
  -2  -3 -10  124.59   40.80
  -2   3  10   83.99   30.70
   2  -3  10    8.40   26.70
   2   3  10   28.10   27.10
  -2   3 -10   54.99   33.10
   2  -3 -10  121.99   36.90
   2   3  10   71.09   31.30
   2  -3 -10   49.99   33.80
  -2   3 -10  106.69   42.90
  -2  -3  10   95.79   24.30
  -2  -3  10   70.09   30.90
   3  -3  10    3.60   35.00
   3   3 -10   81.29   38.20
  -3   3  10   -8.00   24.70
  -3  -3 -10   84.09   38.70
   3  -3 -10   36.10   28.50
   3   3  10    7.30   25.30
   3  -3 -10   36.00   31.70
  -3   3 -10   63.99   43.70
   3   3  10   74.99   29.40
  -3   3 -10   51.19   33.80
  -3  -3  10    6.20   25.70
   4  -3  10   13.80   32.10
  -4  -3 -10   58.09   37.90
  -4   3  10   -4.40   20.80
   4   3 -10    4.60   33.90
   4   3  10   16.80   29.10
  -4   3 -10   21.00   30.00
  -4   3 -10  -10.20   38.30
   4  -3 -10   21.90   31.10
  -4  -3  10   31.50   32.00
   5  -3  10  -20.20   38.70
   5   3 -10  -40.80   42.90
  -5   3  10   35.10   32.60
   5   3 -10  -42.70   35.70
  -5  -3 -10   17.60   31.80
  -5   3 -10  -11.00   46.50
   5  -3 -10   -3.20   32.70
  -5  -3  10  -19.20   30.50
   5   3  10   10.10   32.50
   6   3 -10   30.30   42.60
  -6   3  10   66.19   44.50
   6  -3  10  113.89   58.09
  -6  -3 -10  177.18   54.19
   6   3 -10  165.28   64.39
   6  -3 -10  139.99   50.89
  -6   3 -10   32.20   58.39
   0   4  10  221.48   45.20
   0  -4 -10  288.37   51.49
   0  -4  10  333.67   44.90
   0   4 -10  376.46   61.99
   0  -4 -10  397.26   63.49
   0  -4  10  230.98   55.09
   1  -4  10   72.79   31.90
  -1   4  10   42.90   27.70
  -1  -4 -10   41.10   31.40
   1   4 -10   53.29   37.70
   1   4  10   38.70   24.50
   1  -4 -10   20.00   25.60
  -1   4 -10   82.79   40.10
  -1   4 -10   77.99   36.20
   1  -4 -10   50.59   30.50
   1   4  10   63.09   31.00
  -1  -4  10   55.19   33.20
  -1  -4  10   19.50   24.60
   2  -4  10   66.19   37.00
  -2   4  10  147.29   40.10
  -2  -4 -10  191.48   48.50
   2   4 -10  132.99   49.60
  -2   4 -10  157.78   39.80
  -2  -4  10  100.89   37.30
   2  -4 -10   70.69   33.90
   2   4  10   73.99   35.70
  -2   4 -10   71.99   42.00
   2   4  10  158.48   37.00
   2  -4 -10   95.79   38.60
   3   4 -10   74.49   40.30
  -3  -4 -10   50.89   32.60
   3  -4  10  107.49   42.00
  -3   4  10   67.89   33.70
   3   4  10   46.50   29.70
  -3  -4  10   64.99   36.50
  -3   4 -10   76.49   34.00
   3  -4 -10   10.80   31.00
   3  -4 -10   40.50   33.00
  -3   4 -10   38.60   43.40
   3   4  10   64.99   29.70
  -4   4  10   17.50   32.10
   4   4 -10   78.79   41.90
   4  -4  10   48.60   36.70
  -4  -4 -10  100.79   37.70
  -4   4 -10   69.89   54.89
   4  -4 -10   34.30   38.10
  -4  -4  10    4.40   32.60
   4   4  10   79.59   35.70
   4   4  10   69.29   33.70
   5   4 -10   25.00   48.00
   5  -4  10   44.10   42.90
  -5  -4 -10   51.09   36.30
  -5   4  10   91.89   43.40
  -5  -4  10  -47.60   35.00
  -5   4 -10  -32.00   50.29
   5  -4 -10   -6.10   37.90
   0   5 -10    7.80   33.10
   0  -5 -10   92.49   40.60
   0  -5  10   24.20   37.00
   0  -5  10  -42.40   22.70
   0  -5 -10    2.40   29.70
   0   5  10   13.60   24.40
   1  -5  10   48.40   38.60
  -1   5  10   15.20   24.70
   1  -5  10    9.50   29.90
  -1  -5 -10  109.89   42.80
   1   5 -10   31.50   35.30
  -1   5 -10   82.79   42.30
   1  -5 -10   47.60   34.40
   1   5  10   11.10   22.80
   1   5  10   -7.10   22.50
   1  -5 -10  -35.90   24.00
  -1  -5  10   -8.10   34.30
   2   5 -10  -14.30   39.10
   2  -5  10   31.80   30.30
   2  -5  10   10.20   36.00
  -2   5  10   18.90   29.40
  -2  -5 -10    3.10   35.00
  -2  -5  10   21.10   30.80
   2   5  10   20.00   26.20
   2  -5 -10  -31.90   24.80
  -2   5 -10    4.40   38.20
   2  -5 -10   33.80   28.30
   2   5  10   50.39   31.40
   3  -5  10   74.79   39.50
  -3  -5 -10  167.68   46.20
  -3   5  10  235.38   54.59
   3   5 -10  231.18   61.59
   3  -5  10  206.08   52.49
  -3  -5  10  152.38   51.39
   3   5  10  127.19   37.10
   3   5  10  171.68   44.40
  -3   5 -10  371.56   76.69
   3  -5 -10  306.97   64.69
   4   5 -10   -0.30   42.40
  -4   5  10   54.69   40.20
   4  -5  10   20.00   40.70
  -4  -5 -10   17.80   33.20
   4   5  10   18.40   31.30
   4   5  10   29.80   29.50
  -4   5 -10  -33.60   48.80
  -4  -5  10  -36.90   32.30
   4  -5 -10   19.60   38.30
   5   5 -10   92.49   51.99
  -5  -5 -10   15.20   38.40
  -5   5  10   31.00   38.60
   5  -5  10   12.60   44.70
  -5   5 -10   70.39   64.09
  -5  -5  10   34.20   44.30
   5  -5 -10  -10.60   40.40
   5   5  10   74.29   47.60
   0  -6  10   98.59   47.30
   0   6  10   -7.50   26.00
   0   6 -10   44.00   34.60
   0  -6 -10    5.30   31.80
   0  -6 -10   57.39   43.50
   1  -6  10   66.19   33.70
  -1  -6 -10   31.70   41.20
   1  -6  10   90.39   42.40
   1   6 -10   30.70   33.10
  -1   6  10   73.29   35.70
   1  -6 -10  119.49   44.70
  -1  -6  10  118.59   52.79
   1  -6 -10   46.10   39.00
   1   6  10   19.10   25.20
   1   6  10   52.09   31.80
  -1   6 -10  135.79   48.50
   2  -6  10   23.00   31.70
   2   6 -10   42.40   38.70
   2  -6  10   74.69   42.10
  -2   6  10   48.90   37.10
  -2  -6 -10   -8.90   36.70
   2   6  10   38.50   28.60
  -2  -6  10   28.00   45.20
   2  -6 -10   97.79   39.40
   2  -6 -10    6.20   36.90
   2   6  10  -15.50   28.00
  -2   6 -10   -4.80   37.10
   3   6 -10   20.90   36.50
  -3  -6 -10   35.50   36.10
  -3   6  10   -6.70   37.40
   3  -6  10   37.40   39.10
   3   6  10   27.50   35.60
   3  -6 -10  -26.30   26.40
  -3   6 -10   61.29   44.00
  -3  -6  10    6.90   40.80
   3   6  10   49.50   32.00
   4  -6  10  -26.10   36.60
  -4  -6 -10   26.80   37.40
   4   6 -10   15.10   40.70
  -4   6  10  -10.80   34.40
   4  -6 -10   28.40   40.80
  -4   6 -10   25.40   42.00
  -4  -6  10   20.70   42.40
   4   6  10   25.10   36.40
   0   7 -10   81.59   50.49
   0  -7  10  102.09   56.09
   0  -7 -10   29.50   41.10
   0  -7 -10   41.30   39.20
   0   7  10    6.00   33.80
  -1  -7 -10  -11.40   39.30
   1   7 -10   15.10   38.60
   1  -7  10   15.20   41.90
  -1   7  10  -11.00   35.60
  -1  -7  10  -22.20   49.30
   1  -7 -10   26.90   37.90
   1   7  10   11.30   32.20
   1  -7 -10   18.50   36.90
  -1   7 -10   21.70   42.20
   2   7 -10   10.10   39.60
  -2   7  10   47.20   41.70
   2  -7  10  149.19   51.99
   2  -7  10   71.99   38.70
  -2  -7 -10   43.70   43.00
  -2  -7  10   12.50   46.70
   2  -7 -10   -5.90   31.80
   2   7  10   38.50   28.20
  -2   7 -10   15.60   41.30
   2   7  10    5.50   34.40
   0   0 -11  -15.90   19.10
   0   0  11    3.30   20.10
   0   0 -11   24.30   24.70
   1   0 -11   -3.30   27.20
   1   0  11  -11.90   21.10
  -1   0 -11   -6.10   22.80
  -1   0  11   -1.30   21.30
   1   0 -11  -22.50   24.40
  -1   0 -11  -28.80   18.00
  -2   0 -11  351.56   59.19
  -2   0 -11  278.07   47.90
  -2   0  11  341.27   52.29
   2   0 -11  352.66   51.29
   2   0  11  367.56   55.89
   2   0 -11  393.96   62.89
   3   0 -11    4.40   28.70
   3   0  11  -18.60   25.10
   3   0 -11  -29.80   27.40
  -3   0 -11   14.40   28.30
   3   0 -11   36.00   26.60
  -3   0 -11  -12.40   28.00
  -3   0  11   -5.80   23.70
   4   0 -11  298.67   57.19
   4   0 -11  241.48   52.59
  -4   0 -11  350.26   65.69
   4   0 -11  359.16   54.29
  -4   0 -11  412.36   67.09
   4   0 -11  245.08   52.89
   4   0  11  365.96   66.29
   5   0 -11   13.70   35.60
   5   0  11  -25.80   34.00
   5   0 -11   15.80   36.60
  -5   0 -11    0.80   34.70
  -5   0 -11   14.10   41.00
   6   0  11  -76.89   38.30
  -6   0 -11    8.90   42.80
   6   0 -11    0.20   36.00
  -6   0  11   22.10   33.50
   0  -1  11    6.40   20.90
   0   1  11   -4.70   18.20
   0   1 -11  -32.20   19.20
   0  -1 -11   -0.70   25.10
   0   1 -11  -11.20   20.90
   1   1 -11   76.39   35.70
  -1   1  11   75.19   25.80
  -1  -1 -11   68.99   31.60
   1   1 -11  128.09   35.70
  -1   1  11   18.80   27.50
  -1  -1 -11   24.80   39.20
   1  -1  11  131.09   33.30
   1   1  11   52.09   26.00
  -1  -1  11   77.69   29.60
   1  -1 -11  112.89   35.90
  -1   1 -11   90.69   32.60
  -1   1 -11   37.20   30.20
  -2  -1 -11   69.99   37.20
   2  -1  11   28.00   23.50
  -2  -1 -11   69.39   30.80
   2   1 -11   43.90   36.20
  -2   1  11   20.60   23.50
   2   1 -11   15.90   27.10
   2  -1 -11   55.99   32.20
  -2   1 -11   -4.50   23.40
   2  -1 -11   35.60   29.70
  -2   1 -11   35.50   32.20
  -2  -1  11   30.90   24.20
   2   1  11   68.19   31.10
   3  -1  11   -6.80   27.50
  -3  -1 -11   25.80   28.80
   3   1 -11  -53.59   22.50
   3   1 -11   38.80   34.70
  -3   1  11   14.10   22.80
  -3  -1 -11  -15.60   27.40
  -3   1 -11   11.20   26.30
  -3  -1  11   34.60   20.10
   3  -1 -11   35.60   31.10
  -3   1 -11  -11.20   31.50
   3  -1 -11   35.40   33.60
   3   1  11    9.70   29.20
   4   1 -11   27.90   39.00
  -4  -1 -11   24.50   31.20
   4  -1  11   26.60   36.80
  -4  -1 -11   69.49   36.60
   4   1 -11  -50.09   33.50
   4  -1 -11    7.60   33.90
   4  -1 -11   17.30   32.30
  -4   1 -11   41.30   32.00
  -4  -1  11  -40.00   22.70
  -4   1 -11  -27.20   33.50
   4   1  11   -9.20   29.70
  -5  -1 -11   78.09   43.70
  -5  -1 -11   85.19   48.80
   5  -1  11  117.09   51.89
   5   1 -11  -36.90   35.20
   5   1 -11   30.20   36.90
  -5   1 -11   47.00   43.30
  -5  -1  11   32.30   35.90
   5  -1 -11   70.79   41.90
   5  -1 -11   47.70   38.70
   5   1  11   64.09   40.40
   6  -1  11   28.20   46.80
   6   1 -11   -8.00   39.60
   6   1  11  -23.90   40.50
   6  -1 -11   -5.90   34.00
  -6   1 -11   48.30   51.09
  -6  -1  11  -20.30   31.10
   0   2  11   11.50   20.10
   0  -2  11   13.50   20.90
   0   2 -11    1.40   23.40
   0   2 -11  -12.90   23.90
   0   2  11    7.90   19.70
   0  -2 -11  -16.20   24.20
   1  -2  11  385.66   52.09
   1   2 -11  322.47   63.69
   1   2 -11  396.06   56.09
  -1   2  11  356.36   47.80
  -1  -2 -11  415.16   57.59
   1  -2 -11  412.26   63.59
  -1  -2  11  357.76   45.80
   1   2  11  370.46   52.59
  -1   2 -11  322.17   58.29
  -1   2 -11  519.05   64.29
   1  -2 -11  430.26   56.89
  -2  -2 -11   54.39   31.40
   2   2 -11   40.90   33.90
   2   2 -11    4.50   35.40
   2  -2  11  -27.50   24.50
  -2   2  11   28.60   27.60
  -2   2 -11   72.59   31.60
  -2  -2  11   74.89   28.10
   2  -2 -11   41.00   28.00
   2  -2 -11   33.20   34.10
   2   2  11   53.79   30.30
  -2   2 -11   21.90   33.30
   3   2 -11    1.00   34.70
  -3   2  11   40.00   29.00
  -3  -2 -11   17.70   28.80
   3   2 -11   15.70   28.00
   3  -2  11   -6.00   29.80
   3  -2 -11   -4.50   30.20
  -3   2 -11    8.10   33.00
   3   2  11   11.10   26.60
  -3   2 -11    8.80   26.40
   3  -2 -11  -23.70   25.90
   4  -2  11  -33.30   34.60
   4   2 -11  -10.80   33.30
  -4  -2 -11   83.39   40.30
  -4   2  11  -20.20   22.80
  -4  -2  11   26.40   30.30
   4   2  11   69.39   35.00
   4  -2 -11   77.29   37.70
  -4   2 -11   87.39   48.70
  -4   2 -11   37.60   30.90
  -5  -2 -11  100.59   44.60
   5  -2  11  108.69   53.59
   5   2 -11  110.49   48.70
  -5   2  11   41.20   34.80
  -5  -2  11   25.20   38.30
   5  -2 -11   36.90   34.90
  -5   2 -11   27.10   47.90
   5   2  11   70.49   40.50
   0  -3 -11    9.60   26.00
   0   3 -11    0.80   26.70
   0  -3  11    9.50   21.10
   0   3 -11   46.90   39.60
   0   3  11   26.10   23.20
   0   3  11   10.70   26.80
   1   3 -11   30.10   37.80
   1  -3  11   37.80   28.40
  -1  -3 -11   35.50   30.60
  -1   3  11   21.80   21.90
   1   3 -11  -32.60   26.20
  -1  -3  11    4.60   20.00
   1  -3 -11    5.50   27.40
  -1   3 -11    4.90   27.40
  -1   3 -11    4.60   28.00
   1  -3 -11    1.20   25.50
   1   3  11   30.30   22.20
   1   3  11    1.00   22.10
   2   3 -11  134.79   42.50
   2  -3  11   91.89   34.50
  -2  -3 -11  126.29   44.00
  -2   3  11  132.09   36.90
  -2   3 -11   36.30   33.80
   2  -3 -11   59.89   34.70
  -2   3 -11  116.79   44.60
   2   3  11   12.90   26.40
  -2  -3  11   46.10   31.40
   2  -3 -11   90.29   38.00
  -2  -3  11   87.89   26.30
  -3  -3 -11   24.00   30.30
   3   3 -11  -15.40   31.60
   3  -3  11   13.30   34.80
  -3   3  11    3.90   25.80
  -3   3 -11   22.60   41.00
  -3   3 -11  -26.30   26.00
  -3  -3  11  -12.80   28.60
   3  -3 -11   -3.70   30.70
   3   3  11   24.20   30.10
   3  -3 -11   16.20   28.20
  -4   3  11   -1.60   27.30
  -4  -3 -11   59.69   38.00
   4   3 -11   80.79   41.50
   4  -3  11   -8.30   36.30
  -4   3 -11   78.99   48.40
  -4   3 -11   17.00   33.80
   4  -3 -11  -26.20   29.80
   4   3  11    8.20   32.00
  -4  -3  11   78.69   39.20
   5   3 -11    7.90   44.20
  -5  -3 -11   -7.30   34.70
   5  -3  11   44.90   48.00
  -5   3  11   40.30   34.30
   5   3  11  -33.90   33.30
   5  -3 -11  -28.10   33.40
  -5   3 -11   -6.20   49.60
  -5  -3  11   -8.60   33.80
   0  -4 -11   21.40   32.90
   0   4 -11  -14.00   27.80
   0  -4 -11   -6.30   22.40
   0   4  11   30.80   27.30
   0  -4  11  -10.30   22.10
   0  -4  11   20.00   35.00
  -1  -4 -11  104.69   44.70
   1   4 -11  162.38   46.50
  -1   4  11  103.09   37.00
   1  -4  11  128.09   39.50
   1  -4 -11  178.98   46.70
  -1   4 -11  119.79   42.00
  -1   4 -11   87.59   43.00
  -1  -4  11   94.39   32.40
  -1  -4  11  192.28   50.49
   1   4  11  115.59   35.60
   1  -4 -11   75.09   39.40
   1   4  11  111.59   37.70
  -2  -4 -11  102.49   41.20
   2   4 -11   37.90   41.80
   2  -4  11   20.80   32.40
  -2   4  11  136.59   42.00
  -2  -4  11   54.79   34.30
   2  -4 -11  126.09   47.50
   2   4  11   60.79   28.70
  -2   4 -11   72.09   33.70
   2  -4 -11   68.69   37.20
  -2   4 -11   86.09   47.40
   2   4  11    0.90   26.00
  -3  -4 -11    2.90   33.10
   3   4 -11  -15.60   36.00
  -3   4  11   19.00   27.60
   3  -4  11  -12.40   30.30
  -3  -4  11    1.70   30.20
  -3   4 -11   13.90   29.90
  -3   4 -11  -13.80   40.60
   3  -4 -11   56.29   37.00
   3  -4 -11    0.20   33.70
   3   4  11  -21.20   27.20
   3   4  11    0.30   38.60
  -4  -4 -11  101.09   48.50
   4   4 -11  129.19   52.49
   4  -4  11   74.29   44.60
  -4   4  11   83.29   36.80
   4   4  11   25.70   33.20
   4  -4 -11   98.69   46.40
  -4  -4  11  131.69   44.80
  -4   4 -11   93.99   58.89
  -5  -4 -11   61.49   41.90
  -5   4  11   -5.40   34.40
   5  -4  11   -0.60   42.50
   5   4 -11    0.80   47.00
   5  -4 -11   77.89   48.60
   5   4  11  103.39   43.30
  -5   4 -11   55.89   60.09
  -5  -4  11   11.70   40.00
   0  -5 -11   -6.80   34.00
   0  -5  11   21.40   28.00
   0  -5  11  -42.90   34.40
   0   5  11   12.40   26.30
   0   5 -11   12.80   38.60
   0  -5 -11   -1.20   27.10
   1  -5  11   -2.60   41.20
  -1   5  11   31.50   27.90
   1  -5  11  -30.60   27.30
  -1  -5 -11   42.00   41.00
   1   5 -11   23.20   39.70
   1  -5 -11   45.60   35.30
  -1   5 -11   14.80   40.90
  -1  -5  11   28.10   45.20
   1   5  11   17.60   27.60
   1  -5 -11  129.19   45.00
   1   5  11  -11.50   27.70
  -2   5  11    2.00   28.30
   2  -5  11   88.29   46.60
  -2  -5 -11    6.10   38.40
   2   5 -11  -30.40   35.90
   2  -5  11   -2.00   29.40
   2  -5 -11   60.59   38.70
   2  -5 -11   30.20   32.30
   2   5  11   24.70   29.90
   2   5  11    0.70   26.90
  -2  -5  11    6.30   35.90
  -2   5 -11   -2.10   42.70
   3   5 -11  -35.00   35.10
   3  -5  11   33.40   39.20
   3  -5  11   -5.50   30.20
  -3   5  11  -28.70   29.10
  -3  -5 -11   12.00   34.30
   3  -5 -11   74.49   41.20
   3   5  11  -14.10   29.00
   3   5  11   74.39   34.90
  -3   5 -11   34.30   45.70
  -3  -5  11   11.10   37.30
   4  -5  11   68.09   42.70
  -4   5  11   61.49   41.30
   4   5 -11  -31.50   43.70
  -4  -5 -11   69.29   47.10
   4   5  11   40.50   34.10
  -4   5 -11   96.29   62.39
   4   5  11   82.39   57.79
  -4  -5  11   35.10   40.30
   4  -5 -11  117.89   52.19
   0   6 -11  -15.20   40.00
   0  -6  11  -53.79   40.80
   0   6  11   30.30   28.90
   0  -6 -11   11.80   31.40
   0  -6 -11   25.20   42.90
   1  -6  11  -32.90   39.10
  -1  -6 -11  -29.40   38.90
   1  -6  11    3.70   32.10
  -1   6  11   -5.10   26.70
   1   6 -11   79.39   49.90
   1  -6 -11   52.89   37.80
  -1   6 -11   32.80   50.39
   1  -6 -11   74.49   44.90
  -1  -6  11   -1.00   45.80
   1   6  11    9.10   29.50
   1   6  11  -15.40   29.20
   2  -6  11   93.29   50.09
   2  -6  11  100.59   39.80
   2   6 -11   29.10   47.10
  -2  -6 -11   60.09   49.70
  -2   6  11   28.90   37.80
   2   6  11   33.10   30.70
   2   6  11   37.80   36.20
  -2  -6  11   12.10   48.90
   2  -6 -11   17.10   33.30
   2  -6 -11   52.89   42.90
  -2   6 -11   52.09   53.29
   3   6 -11  -16.90   43.00
   3  -6  11   14.50   38.20
  -3   6  11   -5.10   35.20
  -3  -6 -11   23.90   33.20
  -3  -6  11  -15.70   42.00
  -3   6 -11   25.70   53.99
   3   6  11    5.70   28.80
   3  -6 -11   30.90   33.60
   3   6  11  -10.40   30.30
   0   7  11    0.70   30.10
   0  -7 -11   47.80   42.30
   0   7 -11  -16.20   38.60
   0  -7  11   10.00   48.60
   0  -7 -11   11.90   34.80
   1   7 -11   81.99   46.60
  -1   7  11   48.80   40.10
  -1  -7 -11   98.09   51.29
   1  -7  11   72.49   51.29
  -1  -7  11   41.90   54.09
   1   7  11    0.30   35.30
   1   7  11    6.50   31.30
  -1   7 -11   50.89   42.70
   1  -7 -11    8.00   39.20
   1  -7 -11   76.29   47.00
   0   0 -12  -16.30   21.70
   0   0 -12   -3.20   25.60
   0   0  12   -7.40   21.20
  -1   0 -12   12.30   24.40
  -1   0 -12   50.39   27.60
   1   0 -12   19.50   30.90
   1   0 -12   38.80   29.20
   1   0  12   -1.00   22.10
  -1   0  12   -1.20   22.10
   2   0 -12  262.67   55.49
   2   0  12  200.68   44.70
   2   0 -12  253.57   48.20
  -2   0 -12  141.89   40.40
  -2   0  12  191.88   40.90
  -2   0 -12  227.48   51.89
  -3   0 -12   -0.70   29.10
   3   0 -12  -45.40   31.80
  -3   0  12    1.60   26.50
  -3   0 -12  -10.80   32.10
   3   0 -12    5.90   30.60
   3   0  12   -6.20   31.00
  -4   0  12   70.49   31.30
   4   0  12   71.99   43.30
  -4   0 -12  102.19   43.60
  -4   0 -12   42.20   40.90
   4   0 -12   39.90   36.70
   4   0 -12   26.80   36.60
   5   0 -12    6.90   38.60
   5   0 -12  -57.09   33.80
   5   0  12  -32.40   42.50
  -5   0 -12    6.70   43.90
  -5   0 -12  -18.70   33.50
   0  -1  12   51.69   29.60
   0   1  12   52.19   29.20
   0   1 -12   44.80   30.50
   0   1 -12   71.49   32.90
   0  -1 -12   17.80   30.40
  -1  -1 -12   61.09   32.90
  -1   1  12   52.49   26.50
   1  -1  12   42.00   27.90
   1   1 -12   -4.70   33.00
   1   1 -12   21.80   28.40
   1  -1 -12   99.39   37.90
  -1   1 -12   51.49   31.40
  -1   1 -12   16.60   26.50
   1   1  12   10.20   21.70
  -1  -1  12   35.10   26.90
   2   1 -12   37.10   31.80
   2  -1  12  108.69   36.40
  -2   1  12   47.90   27.20
  -2  -1 -12  110.49   42.00
   2   1 -12  117.69   47.80
  -2   1 -12   23.70   31.50
  -2  -1  12   23.20   23.70
   2  -1 -12   95.69   39.50
  -2   1 -12   16.80   28.40
   2   1  12   33.00   30.60
   3  -1  12  195.88   50.59
   3   1 -12  153.18   50.69
  -3  -1 -12  182.48   52.69
  -3   1  12   47.80   27.10
   3   1 -12   97.79   41.60
  -3   1 -12  151.78   45.90
  -3  -1  12  163.38   39.40
  -3   1 -12  152.38   52.69
   3  -1 -12  143.39   45.70
   3   1  12  162.38   45.90
   3  -1 -12   85.19   38.00
  -4   1  12  -29.80   23.50
   4  -1  12  -10.90   38.10
  -4  -1 -12   17.70   37.60
   4   1 -12  -43.40   38.30
   4   1 -12   -7.90   32.80
  -4   1 -12   29.00   38.40
   4   1  12  -20.00   35.10
  -4   1 -12   29.20   34.20
   4  -1 -12   39.10   35.50
   4  -1 -12   23.80   35.20
   5  -1  12   12.50   55.39
   5   1 -12   57.89   48.50
  -5  -1 -12  111.89   49.70
   5  -1 -12   60.49   44.10
   5   1  12   78.89   47.10
  -5   1 -12   25.40   42.70
   0  -2 -12   25.30   31.40
   0   2  12  134.59   37.90
   0   2 -12   86.99   35.90
   0   2 -12   49.30   38.30
   0  -2  12   82.79   32.10
   1   2 -12   77.19   35.90
   1  -2  12   55.59   30.10
   1   2 -12  120.19   48.80
  -1  -2 -12  129.29   43.10
  -1   2  12  154.18   40.70
  -1   2 -12  110.59   40.50
  -1  -2  12  105.09   31.70
  -1   2 -12  101.69   42.90
   1  -2 -12  159.88   43.70
   1   2  12   79.59   31.30
   2   2 -12  -16.50   29.20
   2  -2  12   13.30   29.30
  -2   2  12  -27.70   19.80
   2   2 -12   19.80   39.80
  -2  -2 -12  -33.00   24.40
   2  -2 -12   12.40   28.30
   2  -2 -12   -2.00   30.20
  -2   2 -12   25.70   31.80
  -2  -2  12  -35.30   19.70
  -2   2 -12    6.70   33.80
   2   2  12  -15.00   26.70
  -3  -2 -12   19.70   32.20
   3   2 -12   42.50   35.30
   3  -2  12  -27.40   27.90
   3   2 -12  -29.30   35.70
  -3   2  12  -23.10   27.30
   3  -2 -12    6.70   36.00
   3   2  12  -22.90   23.40
  -3   2 -12  -17.00   32.60
  -3   2 -12   40.00   32.30
   3  -2 -12   26.50   34.10
   4  -2  12   41.40   40.20
   4   2 -12   19.90   34.80
  -4   2  12   27.00   31.90
  -4  -2 -12   18.80   34.50
   4   2  12   19.10   35.30
   4  -2 -12   30.60   39.00
  -4  -2  12    8.50   34.60
  -4   2 -12   22.50   45.10
  -4   2 -12  -45.80   29.20
   5  -2  12   38.20   51.79
   5   2 -12   32.30   43.70
  -5  -2 -12   92.89   48.50
  -5   2  12   25.00   37.10
  -5   2 -12   55.19   50.89
   5  -2 -12    3.00   38.70
  -5  -2  12   55.89   42.80
   5   2  12   56.59   40.40
   0   3  12  200.88   50.69
   0   3  12  239.48   47.70
   0   3 -12  562.64   77.09
   0  -3  12  311.07   51.89
   0  -3 -12  368.66   66.59
   0   3 -12  474.55   72.79
  -1  -3 -12  -13.50   29.20
   1   3 -12   56.49   43.80
   1   3 -12   10.90   32.20
  -1   3  12    3.80   26.40
   1  -3  12   31.80   29.90
  -1   3 -12   97.39   41.50
   1  -3 -12  -26.10   27.70
  -1   3 -12   24.10   35.80
  -1  -3  12   27.20   24.30
   1  -3 -12    1.10   32.10
   1   3  12   32.00   28.30
   2   3 -12   -6.00   36.70
  -2  -3 -12   97.89   40.20
  -2   3  12   72.19   33.50
   2  -3  12  101.59   39.00
   2   3  12   78.29   35.60
  -2   3 -12   38.20   36.90
   2  -3 -12   55.19   41.60
  -2  -3  12   42.10   36.20
  -2   3 -12   43.00   37.10
   2  -3 -12   25.50   33.60
  -3  -3 -12   -2.00   33.90
   3   3 -12   -9.60   36.90
  -3   3  12   -4.40   26.60
   3  -3  12  -29.40   30.60
  -3   3 -12  -19.40   37.70
  -3   3 -12    7.60   34.10
   3  -3 -12   13.90   32.70
  -3  -3  12  -25.30   30.50
   3  -3 -12   -3.20   35.20
   3   3  12   27.40   31.80
   4  -3  12   35.10   45.60
   4   3 -12   57.19   44.70
  -4  -3 -12   30.10   36.40
  -4   3  12   -3.50   31.10
  -4  -3  12    5.20   35.70
   4  -3 -12    6.30   39.70
  -4   3 -12  -19.60   37.50
   4   3  12   38.00   38.30
  -4   3 -12   36.80   49.90
   5  -3  12   27.80   53.19
  -5   3  12   30.70   33.40
   5   3 -12   39.10   49.30
  -5  -3  12   11.50   35.10
  -5   3 -12   35.30   53.09
   5  -3 -12   69.59   46.70
   5   3  12  -39.00   33.90
   0  -4 -12   -3.10   32.90
   0   4 -12   55.89   38.80
   0   4  12    9.90   27.90
   0   4 -12   76.19   42.70
   0   4  12   32.90   35.70
   0  -4  12    1.70   26.20
   1  -4  12   19.90   29.60
  -1  -4 -12   61.39   43.20
   1   4 -12   45.50   38.10
  -1   4  12  -11.70   23.10
   1   4  12   44.20   31.40
  -1   4 -12   89.09   47.00
   1  -4 -12   15.40   33.30
   1   4  12    4.20   30.00
   1  -4 -12  -30.80   21.60
  -1   4 -12   11.00   31.50
  -1  -4  12   30.10   41.60
  -2  -4 -12   46.10   38.70
   2   4 -12   27.40   40.00
  -2   4  12   20.30   31.90
   2  -4  12   57.89   40.10
   2  -4 -12   17.70   40.90
  -2   4 -12   -3.80   41.70
  -2   4 -12   87.99   39.60
  -2  -4  12    6.90   33.80
   2   4  12   47.40   32.90
   2  -4 -12    6.80   37.90
   3   4 -12  115.29   48.70
  -3   4  12   93.69   39.20
  -3  -4 -12  132.29   49.20
   3  -4  12   57.39   44.90
   3  -4 -12   12.40   38.30
   3  -4 -12  120.89   46.30
  -3  -4  12  128.99   43.70
  -3   4 -12   81.29   41.50
  -3   4 -12  146.49   61.29
   3   4  12  -12.40   30.20
  -4   4  12   63.79   39.90
   4  -4  12  -20.10   38.10
  -4  -4 -12   38.50   39.90
   4   4 -12    7.40   44.20
  -4   4 -12    9.40   54.79
   4   4  12    9.80   31.80
   4  -4 -12   25.70   46.10
  -4  -4  12   52.49   39.90
   0  -5 -12   39.00   40.40
   0  -5  12  121.49   43.00
   0  -5  12   81.79   53.09
   0   5 -12  116.29   47.90
   0   5  12   86.49   43.90
   0   5  12   41.00   32.10
   1   5 -12   26.70   42.20
  -1  -5 -12  -51.39   33.50
  -1   5  12   -2.20   27.00
   1  -5  12  -11.30   32.70
   1  -5  12    2.00   44.90
   1  -5 -12    9.20   31.00
   1   5  12   39.40   36.80
  -1   5 -12   33.80   49.20
   1   5  12   -9.50   25.30
   1  -5 -12   44.20   40.60
  -1  -5  12   20.70   44.90
  -2  -5 -12   21.50   46.20
   2  -5  12   24.50   36.10
   2   5 -12   10.50   40.10
  -2   5  12    2.00   31.40
   2  -5  12  -10.60   37.90
  -2   5 -12   18.80   42.70
   2   5  12   -6.30   29.80
  -2  -5  12   41.90   40.70
   2   5  12   28.40   26.70
   2  -5 -12   80.89   41.90
   2  -5 -12  -19.50   30.50
   3  -5  12  193.08   55.69
   3   5 -12  216.48   61.39
  -3   5  12   96.09   46.90
   3  -5  12  165.18   56.09
  -3  -5 -12  169.68   56.19
   3   5  12   93.89   41.20
  -3  -5  12   62.89   42.90
   3  -5 -12   24.90   43.80
  -3   5 -12  178.48   63.69
   0   6  12   81.89   44.20
   0  -6 -12  118.89   44.90
   0   6 -12   78.79   58.09
   0  -6  12   92.19   62.69
   0  -6 -12  118.59   54.49
  -1   6  12   -7.90   34.90
   1   6 -12    9.50   47.90
  -1  -6 -12   -6.30   45.00
   1  -6  12   54.49   51.69
   1  -6  12   12.80   31.50
   1  -6 -12   33.30   40.40
   1   6  12  -13.60   35.00
  -1  -6  12   14.10   49.90
   1   6  12   -2.50   31.30
  -1   6 -12  -54.89   42.80
   1  -6 -12   32.30   39.80
  -2   6  12    8.60   33.30
   2   6 -12   21.20   49.10
  -2  -6 -12   -5.60   41.50
   2  -6  12  -21.10   43.70
   2  -6  12   17.10   36.90
   2   6  12   -5.10   31.20
  -2  -6  12  -26.50   45.60
  -2   6 -12   30.00   54.29
   2  -6 -12   33.70   43.00
   2   6  12    2.90   33.50
   2  -6 -12    0.90   40.00
   0   0  13   43.00   29.80
   0   0 -13   -7.20   28.00
  -1   0 -13   22.20   25.90
   1   0  13  -14.50   22.70
   1   0 -13  -23.10   27.90
  -1   0  13   12.20   25.70
   2   0  13  247.08   52.09
  -2   0  13  172.98   43.20
  -2   0 -13  252.57   57.69
   2   0 -13  254.67   58.69
  -3   0  13   52.39   28.80
   3   0 -13   14.90   35.90
  -3   0 -13  -15.40   27.30
   3   0  13  -17.80   35.40
  -4   0 -13  250.17   59.89
  -4   0  13  215.58   49.60
   4   0  13  179.38   58.59
   4   0 -13  183.48   54.49
   5   0  13    0.20   50.89
   0   1 -13  -20.00   27.20
   0   1 -13  -18.50   23.90
   0  -1 -13   -7.50   29.10
   0   1  13   24.50   25.20
   0  -1  13  -10.10   24.80
  -1   1  13  179.28   45.60
   1  -1  13   77.09   34.90
   1   1 -13   85.99   46.10
  -1  -1 -13  127.09   44.10
   1   1 -13   74.09   36.70
   1   1  13   96.39   33.50
  -1   1 -13  121.29   43.20
  -1   1 -13  112.69   42.50
  -1  -1  13  126.09   35.50
   1  -1 -13  179.18   45.10
   2   1 -13   25.70   33.80
  -2  -1 -13  -18.90   28.20
  -2   1  13   61.39   33.30
   2   1 -13  100.99   49.10
   2  -1  13  106.09   39.60
   2   1  13   82.49   39.20
  -2   1 -13   -2.50   35.60
  -2  -1  13   38.10   28.80
  -2   1 -13   78.59   39.50
   2  -1 -13   34.50   36.20
   3  -1  13    6.60   34.10
   3   1 -13   41.90   40.60
  -3  -1 -13   45.80   43.20
   3   1 -13   19.70   33.10
  -3   1  13  -20.90   24.10
  -3  -1  13   39.10   27.40
   3  -1 -13  -37.30   29.20
  -3   1 -13   14.50   34.70
  -3   1 -13   16.20   40.50
   3   1  13   33.90   36.90
   4   1 -13   62.49   43.80
  -4  -1 -13   10.10   38.20
   4   1 -13   -9.70   41.00
   4  -1  13   42.30   51.69
   4   1  13   44.40   42.10
   4  -1 -13    1.70   38.30
   4  -1 -13   35.30   42.30
  -4   1 -13   50.39   40.70
  -4   1 -13   53.89   45.20
   0  -2 -13   43.80   39.40
   0   2  13   21.20   26.00
   0  -2  13  -22.60   24.10
   0   2 -13   19.30   32.10
   0   2 -13    6.20   31.40
   1   2 -13  214.78   52.09
  -1  -2 -13  231.98   62.69
   1  -2  13  128.89   40.00
   1   2 -13  261.07   65.19
  -1   2  13  263.57   54.69
   1   2  13  173.88   46.40
   1  -2 -13  290.47   56.19
  -1  -2  13  255.97   46.50
  -1   2 -13  207.28   56.89
  -1   2 -13  147.49   48.80
   2   2 -13   78.59   50.69
   2  -2  13  -10.80   31.70
  -2  -2 -13  -27.30   27.50
   2   2 -13  -26.90   27.90
  -2   2  13    9.70   27.80
  -2   2 -13   -3.50   29.60
  -2  -2  13   48.80   31.40
   2  -2 -13   -7.60   29.30
   2   2  13  -11.00   30.40
  -2   2 -13   60.19   43.20
   3   2 -13   -7.20   33.00
  -3  -2 -13   44.10   40.10
   3  -2  13   31.50   36.40
   3   2 -13   11.90   45.80
  -3   2 -13   12.70   42.80
  -3   2 -13  -17.20   29.70
   3  -2 -13   40.30   40.40
   3   2  13   25.00   35.50
   3  -2 -13  -18.60   37.10
  -4   2  13    1.40   29.50
   4   2 -13   41.90   41.90
  -4  -2 -13   45.30   40.90
   4  -2  13   26.10   40.50
  -4   2 -13   -4.90   50.69
  -4  -2  13  -32.40   28.40
  -4   2 -13   -9.40   36.40
   4  -2 -13   -1.70   41.00
   4   2  13   16.70   38.70
   0   3 -13  -46.60   31.80
   0   3 -13   16.90   38.00
   0   3  13   13.10   28.50
   0  -3  13  -19.20   22.00
   0  -3 -13  -11.80   34.90
   1   3 -13   10.80   46.10
  -1   3  13    2.80   26.90
   1   3 -13   15.90   38.90
   1  -3  13   -8.80   29.40
  -1  -3 -13  -14.40   38.90
  -1   3 -13    6.80   36.70
   1   3  13    6.50   25.70
  -1  -3  13   39.10   26.40
   1  -3 -13  -30.00   31.90
  -1   3 -13   50.09   43.80
   2  -3  13   33.50   34.00
  -2   3  13   63.79   37.20
  -2  -3 -13  148.59   47.80
   2   3 -13   47.90   43.40
  -2  -3  13   58.69   36.70
  -2   3 -13  202.28   57.69
   2   3  13   48.90   35.00
   2  -3 -13  191.68   58.09
  -2   3 -13   13.30   36.30
   2  -3 -13  113.39   48.80
   3   3 -13  -39.90   31.20
  -3  -3 -13   13.80   35.60
  -3   3  13    5.00   31.50
   3  -3  13  -23.40   36.30
  -3  -3  13   11.00   34.20
  -3   3 -13  -12.40   34.40
   3   3  13    2.80   32.10
   3  -3 -13    0.50   37.80
   3  -3 -13   18.60   44.20
  -3   3 -13   26.20   44.40
  -4   3  13   74.99   41.40
   4   3 -13  102.29   47.80
   4  -3  13  -52.39   41.10
  -4  -3 -13  103.09   48.70
  -4  -3  13    7.90   40.40
  -4   3 -13   28.90   45.70
   4  -3 -13   21.80   42.50
   4   3  13   35.10   38.50
   0  -4  13   -5.30   28.60
   0   4 -13   48.40   44.20
   0   4  13  -41.00   30.00
   0  -4 -13  -13.10   36.90
   0   4 -13    1.50   36.70
  -1  -4 -13  128.49   52.09
  -1   4  13   24.30   32.10
   1   4 -13   45.30   43.70
   1  -4  13   40.00   35.20
   1  -4 -13   51.79   35.10
  -1   4 -13  -38.40   37.60
   1   4  13   -9.00   32.50
  -1   4 -13   75.69   46.50
   1  -4 -13   31.20   47.60
  -1  -4  13   56.79   42.30
   2   4 -13   86.09   51.99
  -2  -4 -13   25.60   37.90
  -2   4  13   59.59   37.70
   2  -4  13   13.20   38.30
   2  -4 -13   87.09   44.20
  -2   4 -13  140.79   52.69
   2   4  13   43.90   33.10
  -2  -4  13    0.30   38.70
   2  -4 -13   89.29   50.49
  -2   4 -13  144.29   51.29
  -3   4  13  -37.40   30.40
  -3  -4 -13   -1.60   34.40
   3  -4  13  -18.70   39.10
   3   4 -13   32.50   44.80
   3  -4 -13  -15.10   42.00
   3   4  13   55.09   39.90
  -3  -4  13  -10.40   34.70
   3  -4 -13   25.00   41.30
  -3   4 -13   -7.70   51.19
  -3   4 -13   12.20   38.60
   0   5  13  -52.39   31.10
   0   5 -13   54.09   52.39
   0  -5  13    3.40   45.90
   0  -5 -13  -17.30   40.10
   0   5  13    9.60   33.40
  -1  -5 -13    9.70   49.50
  -1   5  13   48.40   40.70
   1   5 -13  -18.20   43.60
   1  -5  13   10.90   39.20
   1  -5  13    3.40   50.69
  -1   5 -13   35.90   49.20
  -1  -5  13   61.39   54.99
   1   5  13   87.49   45.80
   1  -5 -13   -2.80   39.60
   1  -5 -13   22.80   37.40
   2   5 -13  -85.09   41.40
   2  -5  13  -41.90   37.70
   2  -5  13  -57.69   34.60
  -2  -5 -13   -3.20   48.60
  -2   5  13  -40.90   30.50
  -2   5 -13   -1.50   50.39
  -2  -5  13   21.60   42.80
   2  -5 -13  -67.19   34.30
   2   5  13  -17.50   31.90
   2  -5 -13  -33.10   39.60
   0   0 -14  -13.00   35.30
   0   0  14   35.00   36.10
   1   0 -14    3.40   35.10
   1   0  14   -0.40   29.20
  -1   0  14   11.80   27.30
  -1   0 -14   -1.50   29.50
  -2   0 -14   89.59   39.30
  -2   0  14  151.68   41.60
   2   0  14   68.79   40.70
   2   0 -14  119.09   49.90
  -3   0 -14  -41.80   32.20
   3   0  14  -44.90   37.60
   3   0 -14   10.90   42.30
  -3   0  14  -31.90   30.30
   4   0 -14  112.29   53.39
  -4   0 -14   24.40   45.90
   4   0  14   65.49   55.29
   0   1 -14  -14.30   34.10
   0   1  14  -19.10   25.50
   0  -1 -14  -11.90   33.50
   0   1 -14  -17.90   25.90
   0  -1  14   33.10   31.00
  -1  -1 -14   -1.10   31.60
  -1   1  14   -3.00   25.80
   1   1 -14  -17.50   38.00
   1   1 -14   -8.80   32.90
   1  -1  14  -25.20   30.20
  -1  -1  14  -50.29   23.70
  -1   1 -14    5.80   37.70
   1  -1 -14   50.89   41.70
   1   1  14   21.20   32.50
  -1   1 -14   15.60   35.40
  -2   1  14   24.40   29.30
   2   1 -14   22.40   42.60
   2   1 -14   23.70   38.60
   2  -1  14    9.60   35.60
  -2  -1 -14   18.90   39.70
   2   1  14  -25.40   31.50
   2  -1 -14   39.70   44.00
  -2  -1  14   89.49   38.50
  -2   1 -14   61.89   42.20
  -2   1 -14   -8.20   37.50
  -3  -1 -14  -14.30   38.90
   3  -1  14   25.90   40.10
   3   1 -14  -59.89   40.60
  -3   1  14  -21.90   28.60
   3   1 -14  -64.09   37.20
  -3   1 -14   -4.40   37.20
  -3  -1  14    6.20   30.90
  -3   1 -14  -28.30   35.60
   3   1  14   30.70   43.50
   3  -1 -14  -19.40   36.50
   4   1 -14   65.19   50.29
  -4  -1 -14   11.90   44.90
   4  -1  14   46.30   49.10
  -4   1  14    3.20   30.40
  -4   1 -14  113.79   48.90
  -4   1 -14   57.79   45.40
   4   1  14   13.30   44.70
   4  -1 -14  -55.99   37.50
   0  -2  14   37.20   33.90
   0   2  14  105.99   38.70
   0  -2 -14   53.09   40.80
   0   2 -14   20.60   39.30
   0   2 -14   36.60   43.30
   1   2 -14   44.50   40.00
   1  -2  14   65.09   40.10
   1   2 -14  109.89   55.49
  -1   2  14   98.09   40.00
  -1  -2 -14   90.49   52.89
  -1   2 -14   18.90   38.10
  -1  -2  14   62.39   33.60
   1   2  14   49.90   39.30
   1  -2 -14   66.09   41.10
  -1   2 -14   98.49   45.60
   2  -2  14  -29.80   33.80
  -2  -2 -14   57.69   41.30
   2   2 -14  -15.10   46.20
   2   2 -14   24.90   37.70
  -2   2  14  -13.90   33.90
   2   2  14   15.90   35.00
   2  -2 -14  -19.30   32.60
  -2  -2  14    4.20   28.80
  -2   2 -14  -48.30   33.00
  -2   2 -14  -13.00   38.10
   3   2 -14  -18.20   37.20
  -3   2  14   27.40   32.70
   3  -2  14   -7.00   38.00
  -3  -2 -14    0.30   41.30
   3   2 -14   49.00   54.59
   3   2  14  -15.60   38.00
  -3   2 -14   14.50   43.50
   3  -2 -14    5.40   40.60
  -3   2 -14   -0.90   39.40
   0  -3  14   12.70   30.70
   0   3 -14   37.60   41.00
   0  -3 -14   12.90   41.30
   0   3  14   40.70   36.90
   0   3 -14   -3.40   44.10
  -1  -3 -14  -26.50   42.90
  -1   3  14    4.70   31.10
   1   3 -14   19.50   40.00
   1   3 -14    7.80   48.70
   1  -3  14  -21.60   29.20
   1  -3 -14  -67.69   35.80
  -1   3 -14  -20.80   37.50
   1   3  14    9.60   34.10
  -1   3 -14   72.19   46.70
  -1  -3  14    3.90   27.70
   2  -3  14   62.99   41.40
  -2  -3 -14   46.70   43.70
   2   3 -14   31.70   42.10
  -2   3  14   51.09   34.70
  -2  -3  14   47.50   41.00
   2  -3 -14   20.20   38.00
   2   3  14   43.10   39.20
  -2   3 -14   71.89   46.40
  -2   3 -14  -21.60   41.60
  -3  -3 -14   27.70   38.40
   3   3 -14   51.69   41.40
   3  -3  14   21.40   37.10
  -3   3 -14   41.80   44.40
  -3  -3  14  -19.80   38.00
   3  -3 -14   15.90   45.70
  -3   3 -14   -7.20   47.30
   3  -3 -14   -1.30   44.70
   3   3  14   -0.60   34.90
   0  -4  14    0.60   31.20
   0   4 -14   38.70   43.20
   0   4 -14  -42.70   41.90
   0   4  14   61.59   42.50
   0  -4 -14    4.10   48.60
  -1   4  14   10.70   29.50
   1  -4  14   18.60   36.60
   1   4 -14   33.10   46.50
  -1  -4 -14   31.60   51.49
  -1   4 -14   13.90   45.30
   1  -4 -14   -3.60   44.10
  -1  -4  14  108.39   53.19
   1   4  14   20.50   37.10
  -1   4 -14    9.60   42.30
  -2  -4 -14    1.40   35.30
   2  -4  14   82.39   42.90
   2   4 -14   18.60   48.40
  -2  -4  14   21.80   40.60
   2  -4 -14   46.20   48.70
  -2   4 -14   46.50   54.29
   2   4  14  -49.00   33.10
  -2   4 -14   49.30   43.00
   2  -4 -14   59.79   50.29
   0   0  15  -25.30   32.60
   0   0 -15  -28.80   36.90
  -1   0  15    2.90   31.60
   1   0  15    4.00   30.30
   1   0 -15   23.20   43.70
  -1   0 -15  -19.40   32.20
   2   0  15   89.59   43.90
   2   0 -15   37.30   49.20
  -2   0  15   67.69   36.10
  -2   0 -15   62.89   44.20
  -3   0  15   44.50   33.90
   3   0  15  -30.70   47.30
   3   0 -15    2.80   43.70
  -3   0 -15  -10.60   41.10
   0   1  15    9.80   32.10
   0  -1 -15   -6.60   38.20
   0   1 -15  -30.40   33.70
   0  -1  15   16.10   30.90
  -1  -1 -15   89.09   45.60
   1  -1  15   87.19   45.60
  -1   1  15  151.68   47.70
   1   1 -15  119.39   54.79
  -1  -1  15   53.69   38.00
   1   1  15   93.49   44.20
  -1   1 -15  199.38   60.19
   1  -1 -15  155.08   56.39
   2  -1  15   -1.90   40.40
  -2  -1 -15   34.80   39.60
  -2   1  15   21.10   35.00
   2   1 -15   50.59   54.09
  -2  -1  15   48.00   35.90
   2  -1 -15   52.79   44.60
   2   1  15   42.20   43.20
  -2   1 -15   38.30   42.10
   3  -1  15  -30.30   36.50
  -3   1  15   15.50   32.00
   3   1  15    2.00   47.10
   0  -2 -15    2.40   42.70
   0  -2  15    9.70   32.00
   0   2 -15    0.80   36.00
   0   2  15   16.60   33.70
   0   2 -15   16.50   40.50
  -1   2  15   42.60   37.50
   1   2 -15  -22.90   45.90
   1  -2  15   46.10   38.10
  -1  -2 -15   45.00   48.20
   1   2 -15   51.79   45.20
   1   2  15   15.20   32.60
  -1  -2  15   47.00   34.10
  -1   2 -15   86.69   46.00
  -1   2 -15  -50.29   33.00
   1  -2 -15    7.30   41.40
   2   2 -15  -41.80   49.99
  -2  -2 -15    6.80   42.10
   2   2 -15    3.80   36.90
   2  -2  15    6.40   42.60
  -2   2  15   53.09   34.70
  -2   2 -15   54.79   45.20
  -2  -2  15   42.00   47.90
   2   2  15   57.39   47.30
  -2   2 -15  -12.00   37.30
   2  -2 -15   57.29   43.40
   0  -3 -15   39.40   50.99
   0   3  15   13.70   31.90
   0   3 -15    4.60   42.60
   0   3 -15   13.60   44.90
   0  -3  15   24.00   35.00
  -1  -3 -15    2.60   47.50
   1  -3  15  -15.20   34.30
   1   3 -15   32.00   44.10
  -1   3  15   10.00   33.00
   1   3 -15    1.50   50.39
  -1  -3  15   77.79   38.80
   1  -3 -15  -22.00   42.80
  -1   3 -15    3.30   47.80
  -1   3 -15    9.10   37.90
   1   3  15  -33.00   36.20
   0   0  16  279.97   66.29
   0   0 -16  182.38   62.99
  -1   0  16  -11.90   34.60
   1   0  16   -0.30   37.50
   0   1  16   24.40   34.80
   0   1 -16   -5.90   37.50
   0  -1  16   -5.00   32.70
   0  -1 -16  -47.00   41.80
   0   0   0    0.00    0.00

_computing_structure_solution     'SHELXT 2014/5 (Sheldrick, 2014)'
;
_shelx_hkl_checksum              74341
_publcif_info_exptl_table_max_cols 3
_publcif_info_exptl_table_use_headnotes n
_publcif_funding_html
;<span class="funder"><span class="fundref-name" 
data-id="">DOE-NEUP</span><span class="fundref-subname" data-id=""></span> 
(<span class="fundref-grant-group"><span 
class="fundref-grant-type">award</span> No. <span 
class="fundref-grant-id">DE-NE0008449</span></span>).</span>
;
loop_
_space_group_symop_operation_xyz
'x, y, z'
'-x, -y, z+1/2'
'x+1/2, -y, z'
'-x+1/2, y, z+1/2'
loop_
_atom_site_type_symbol
_atom_site_label
_atom_site_fract_x
_atom_site_fract_y
_atom_site_fract_z
_atom_site_U_iso_or_equiv
_atom_site_adp_type
_atom_site_calc_flag
_atom_site_occupancy
Zr Zr1 0.4239(2) 0.3354(2) 0.5000(3) 0.0356(5) Uani d 1
Cl Cl1 0.5702(8) 0.1380(7) 0.6280(4) 0.0515(15) Uani d 1
Cl Cl2 0.0942(7) 0.3905(7) 0.6127(4) 0.0391(12) Uani d 1
Cl Cl3 0.2829(9) 0.1339(7) 0.3731(5) 0.0536(14) Uani d 1
Cl Cl4 0.7504(7) 0.3930(6) 0.3853(4) 0.0407(12) Uani d 1
loop_
_atom_site_aniso_label
_atom_site_aniso_U_11
_atom_site_aniso_U_22
_atom_site_aniso_U_33
_atom_site_aniso_U_12
_atom_site_aniso_U_13
_atom_site_aniso_U_23
Zr1 0.0273(8) 0.0381(9) 0.0413(10) 0.0009(8) 0.0001(10) 0.0002(12)
Cl1 0.047(3) 0.054(3) 0.053(4) 0.006(3) -0.005(3) 0.011(3)
Cl2 0.032(3) 0.046(3) 0.040(3) 0.004(2) 0.004(2) 0.007(2)
Cl3 0.054(3) 0.050(3) 0.056(3) -0.006(3) -0.004(3) -0.009(3)
Cl4 0.033(2) 0.046(3) 0.043(3) -0.004(2) 0.007(2) -0.007(2)
loop_
_atom_type_symbol
_atom_type_description
_atom_type_scat_dispersion_real
_atom_type_scat_dispersion_imag
_atom_type_scat_source
Cl Cl 0.1484 0.1585 'International Tables Vol C Tables 4.2.6.8 and 6.1.1.4'
Zr Zr -2.9673 0.5597 'International Tables Vol C Tables 4.2.6.8 and 6.1.1.4'
loop_
_geom_angle_atom_site_label_1
_geom_angle_atom_site_label_2
_geom_angle_atom_site_label_3
_geom_angle_site_symmetry_1
_geom_angle_site_symmetry_3
_geom_angle
Cl3 Zr1 Cl1 . . 100.6(2)
Cl3 Zr1 Cl4 . . 93.3(2)
Cl1 Zr1 Cl4 . . 98.73(19)
Cl3 Zr1 Cl2 . . 98.5(2)
Cl1 Zr1 Cl2 . . 93.9(2)
Cl4 Zr1 Cl2 . . 160.82(17)
Cl3 Zr1 Cl2 . 3_565 169.0(2)
Cl1 Zr1 Cl2 . 3_565 89.0(2)
Cl4 Zr1 Cl2 . 3_565 79.89(16)
Cl2 Zr1 Cl2 . 3_565 85.99(17)
Cl3 Zr1 Cl4 . 3_465 89.4(2)
Cl1 Zr1 Cl4 . 3_465 169.0(2)
Cl4 Zr1 Cl4 . 3_465 85.34(17)
Cl2 Zr1 Cl4 . 3_465 79.76(16)
Cl2 Zr1 Cl4 3_565 3_465 81.54(17)
Zr1 Cl2 Zr1 . 3_465 100.26(19)
Zr1 Cl4 Zr1 . 3_565 100.08(19)
loop_
_geom_bond_atom_site_label_1
_geom_bond_atom_site_label_2
_geom_bond_site_symmetry_2
_geom_bond_distance
Zr1 Cl3 . 2.310(6)
Zr1 Cl1 . 2.313(6)
Zr1 Cl4 . 2.504(6)
Zr1 Cl2 . 2.504(6)
Zr1 Cl2 3_565 2.664(5)
Zr1 Cl4 3_465 2.670(5)
Cl2 Zr1 3_465 2.664(5)
Cl4 Zr1 3_565 2.670(5)
loop_
_publcif_info_tables.block_id
_publcif_info_tables.reference_item
{2ab7382b-4d62-45ea-9410-959a393c84ad} '_publcif_info_datablock.publ_exptl'
{2ab7382b-4d62-45ea-9410-959a393c84ad} '_geom_extra_table_headB'
{2ab7382b-4d62-45ea-9410-959a393c84ad} '_geom_extra_table_headC'
{2ab7382b-4d62-45ea-9410-959a393c84ad} '_geom_extra_table_headD'
{2ab7382b-4d62-45ea-9410-959a393c84ad} '_geom_extra_table_headE'
loop_
_publcif_info_cif.paper_type
CE
loop_
_publcif_info_datablock.id
_publcif_info_datablock.publ_exptl
_publcif_info_datablock.publ_geom
_publcif_info_datablock.structure
{2ab7382b-4d62-45ea-9410-959a393c84ad} ? ? ?
{3b5a1147-89c4-45b1-94e8-6d0946171556} y y y
{e7ad573b-831c-4b2d-ba94-e9a875cfa1d3} y y y
{d0b15cb4-f480-4a21-830d-047a4a7858b1} y y y
{859555ee-c301-44a0-86d9-d21d6f71eb72} y y y
{ecf92484-f5ff-49db-8e74-55d8ee6010e5} y y y
loop_
_publcif_info_exptl_table_extra_item
sin_theta_over_lambda_max

_cod_database_fobs_code 2021031
