#------------------------------------------------------------------------------
#$Date: 2019-02-14 05:36:51 +0200 (Thu, 14 Feb 2019) $
#$Revision: 213640 $
#$URL: file:///home/coder/svn-repositories/cod/cif/2/02/14/2021492.cif $
#------------------------------------------------------------------------------
#
# This file is available in the Crystallography Open Database (COD),
# http://www.crystallography.net/. The original data for this entry
# were provided by IUCr Journals, http://journals.iucr.org/.
#
# The file may be used within the scientific community so long as
# proper attribution is given to the journal article from which the
# data were obtained.
#
data_2021492
loop_
_publ_author_name
'Losev, Evgeniy A.'
'Boldyreva, Elena'
_publ_section_title
;
 Concomitant cocrystal and salt: no interconversion in the solid state
;
_journal_coeditor_code           KU3233
_journal_issue                   3
_journal_name_full               'Acta Crystallographica Section C'
_journal_page_first
;
;
_journal_paper_doi               10.1107/S2053229619001372
_journal_volume                  75
_journal_year                    2019
_chemical_formula_iupac          'C3 H7.5 N O2 +, C4 H5.5 O6 -'
_chemical_formula_moiety         'C3 H7.5 N O2 +, C4 H5.5 O6 -'
_chemical_formula_sum            'C7 H13 N O8'
_chemical_formula_weight         239.18
_chemical_name_common            '\b-Alanine--<i>DL</i>-tartaric acid (1/1)'
_chemical_name_systematic        '\b-Alaninium <i>DL</i>-tartarate'
_space_group_crystal_system      triclinic
_space_group_IT_number           2
_space_group_name_Hall           '-P 1'
_space_group_name_H-M_alt        'P -1'
_symmetry_space_group_name_Hall  '-P 1'
_symmetry_space_group_name_H-M   'P -1'
_atom_sites_solution_hydrogens   mixed
_audit_creation_method
;
Olex2 1.2
(compiled 2018.05.29 svn.r3508 for OlexSys, GUI svn.r5506)
;
_cell_angle_alpha                108.503(7)
_cell_angle_beta                 96.781(7)
_cell_angle_gamma                92.316(7)
_cell_formula_units_Z            2
_cell_length_a                   4.9001(5)
_cell_length_b                   8.5768(6)
_cell_length_c                   11.9523(9)
_cell_measurement_reflns_used    2759
_cell_measurement_temperature    150
_cell_measurement_theta_max      29.5020
_cell_measurement_theta_min      2.5280
_cell_volume                     471.40(7)
_computing_cell_refinement
;
CrysAlis PRO (Agilent, 2014)
;
_computing_data_collection
;
CrysAlis PRO (Agilent, 2014)
;
_computing_data_reduction
;
CrysAlis PRO (Agilent, 2014)
;
_computing_molecular_graphics
;
OLEX2 (Dolomanov <i>et al.</i>,  2009)
;
_computing_publication_material
;
OLEX2 (Dolomanov <i>et al.</i>,  2009)
;
_computing_structure_refinement
;
SHELXL2018 (Sheldrick, 2015b)
;
_computing_structure_solution
;
olex2.solve (Bourhis <i>et al.</i>,  2015)
;
_diffrn_ambient_temperature      150
_diffrn_detector                 'CCD plate'
_diffrn_measured_fraction_theta_full 0.999
_diffrn_measured_fraction_theta_max 0.999
_diffrn_measurement_device_type  'Stoe IPDS'
_diffrn_measurement_method       '\w scans'
_diffrn_radiation_monochromator  graphite
_diffrn_radiation_probe          x-ray
_diffrn_radiation_type           MoK\a
_diffrn_radiation_wavelength     0.71073
_diffrn_reflns_av_R_equivalents  0.0424
_diffrn_reflns_av_unetI/netI     0.0452
_diffrn_reflns_limit_h_max       5
_diffrn_reflns_limit_h_min       -6
_diffrn_reflns_limit_k_max       10
_diffrn_reflns_limit_k_min       -10
_diffrn_reflns_limit_l_max       14
_diffrn_reflns_limit_l_min       -14
_diffrn_reflns_number            5885
_diffrn_reflns_theta_full        25.242
_diffrn_reflns_theta_max         26.371
_diffrn_reflns_theta_min         2.513
_diffrn_source                   'Enhance (Mo) X-ray Source'
_exptl_absorpt_coefficient_mu    0.156
_exptl_absorpt_correction_T_max  0.995
_exptl_absorpt_correction_T_min  0.963
_exptl_absorpt_correction_type   gaussian
_exptl_absorpt_process_details
;
(CrysAlis PRO; Agilent, 2014)
;
_exptl_crystal_colour            colourless
_exptl_crystal_density_diffrn    1.685
_exptl_crystal_description       ' '
_exptl_crystal_F_000             252
_exptl_crystal_size_max          0.4339
_exptl_crystal_size_mid          0.071
_exptl_crystal_size_min          0.034
_refine_diff_density_max         0.282
_refine_diff_density_min         -0.256
_refine_ls_extinction_method     none
_refine_ls_goodness_of_fit_ref   1.007
_refine_ls_hydrogen_treatment    mixed
_refine_ls_matrix_type           full
_refine_ls_number_parameters     154
_refine_ls_number_reflns         1925
_refine_ls_number_restraints     0
_refine_ls_restrained_S_all      1.007
_refine_ls_R_factor_all          0.0644
_refine_ls_R_factor_gt           0.0397
_refine_ls_shift/su_max          0.000
_refine_ls_shift/su_mean         0.000
_refine_ls_structure_factor_coef Fsqd
_refine_ls_weighting_details
'w=1/[\s^2^(Fo^2^)+(0.0297P)^2^+0.2494P] where P=(Fo^2^+2Fc^2^)/3'
_refine_ls_weighting_scheme      calc
_refine_ls_wR_factor_gt          0.0746
_refine_ls_wR_factor_ref         0.0817
_reflns_number_gt                1434
_reflns_number_total             1925
_reflns_threshold_expression     'I > 2\s(I)'
_cod_data_source_file            ku3233sup1.cif
_cod_data_source_block           150_salt
_cod_database_code               2021492
_shelx_space_group_comment
;
The symmetry employed for this shelxl refinement is uniquely defined
by the following loop, which should always be used as a source of
symmetry information in preference to the above space-group names.
They are only intended as comments.
;
_shelx_estimated_absorpt_t_min   0.935
_shelx_estimated_absorpt_t_max   0.995
_shelx_hkl_file
;
   0   0  -2 71.3976 2.25951   1
   0   0   2 69.2833 2.20555   1
   0   0  -3 116.425 3.45663   1
   0   0   3 117.129 3.41730   1
   0   0   4 68.1778 3.14546   1
   0   0  -4 67.7409 3.17250   1
   0   0   5 290.742 6.77557   1
   0   0  -5 310.253 7.03219   1
   0   0  -6 110.554 4.92058   1
   0   0   6 110.068 4.85713   1
   0   0   7 60.7038 4.21434   1
   0   0  -7 64.3652 4.37161   1
   0   0   8 30.8127 3.80911   1
   0   0  -8 29.0289 3.82266   1
   0   0   9 129.805 6.76225   1
   0   0  -9 136.815 6.99013   1
   0   0  10 9.78234 3.89385   1
   0   0 -10 18.0718 4.36003   1
   0   0  11 74.5838 6.54798   1
   0   0 -11 86.4478 6.97034   1
   0   0 -12 3.16331 4.95961   1
   0   0  12 3.63333 4.97982   1
   0   0 -12 8.52736 5.38150   2
   0   0 -13 3.61659 6.46248   2
   0   0 -13 17.9193 6.51530   1
   0   0  13 14.5581 6.02616   1
   0   0  14 9.42493 7.15886   1
   0   0 -14 23.3662 7.86778   1
   0   0 -14 35.5906 8.80804   2
   0   0 -15-0.64477 8.95900   1
   0   0 -15 9.63021 9.25062   2
   0   0  15-0.50236 8.34713   1
   0   1 -16-4.98059 8.84681   2
   0  -1  16-4.28650 7.36354   1
   0  -1  16 4.60423 7.30599   1
   0  -1  15-3.73834 7.00537   1
   0   1 -15 21.7483 8.84206   2
   0   1 -14 17.4505 6.35848   1
   0   1 -14 15.3382 7.29857   2
   0  -1  14 10.9241 5.78389   1
   0  -1  13 121.734 8.28112   1
   0   1 -13 106.277 9.41060   2
   0   1 -13 113.460 8.34902   1
   0   1 -12 20.4747 5.12491   1
   0   1 -12 15.4569 5.49059   2
   0  -1  12 24.9321 5.21587   1
   0   1 -11 15.3757 4.80471   2
   0  -1  11 15.7213 4.06898   1
   0   1 -11 18.7779 4.50071   1
   0  -1  10 47.7698 4.63675   1
   0   1 -10 45.3914 4.86122   1
   0   1 -10 51.7900 5.65002   2
   0   1  -9 8.14182 3.01587   1
   0  -1   9 5.87302 2.87692   1
   0   1  -9 1.14560 3.30602   2
   0  -1   8 11.2744 2.72811   1
   0   1  -8 9.69642 2.75587   1
   0   1  -8 6.14617 3.11716   2
   0   1  -7 23.5904 3.18409   2
   0  -1   7 19.1402 2.56132   1
   0   1  -7 18.7609 2.69996   1
   0  -1   6 3.35533 1.70318   1
   0   1  -6 2.77284 1.80690   1
   0   1  -6 0.55485 1.97388   2
   0   1  -5 13.2733 1.84780   1
   0   1  -5 10.2917 2.16024   2
   0  -1   5 9.57078 1.74097   1
   0  -1   4 6.69717 1.38427   1
   0   1  -4 6.57175 1.63827   2
   0   1  -4 7.60446 1.39964   1
   0   1  -3 2230.91 14.5978   2
   0  -1   3 2213.20 11.6784   1
   0  -1   3 2188.09 14.5381   2
   0   1  -2 320.552 3.66360   1
   0  -1   2 317.869 4.87064   2
   0   1  -2 317.376 4.79711   2
   0  -1   2 322.511 3.67556   1
   0  -1   1 10.0194 0.97265   1
   0   1  -1 9.35689 0.96087   1
   0  -1   1 11.0947 1.23740   2
   0   1  -1 10.8539 1.24016   2
   0   1   0 201.866 3.44141   1
   0  -1   0 199.788 3.40996   2
   0   1   0 203.112 3.45102   2
   0  -1   0 199.812 3.46552   1
   0  -1  -1 113.696 3.13597   1
   0   1   1 117.262 3.28236   1
   0  -1  -1 112.483 3.00600   2
   0   1   1 114.161 3.04801   2
   0   1   2 41.7757 2.63729   1
   0  -1  -2 41.9607 2.60146   1
   0  -1  -2 43.4597 2.50225   2
   0   1   3 248.378 6.03710   1
   0  -1  -3 263.822 6.15619   1
   0   1   4 161.580 5.45120   1
   0  -1  -4 171.424 5.55054   1
   0   1   5 22.7242 2.98539   1
   0  -1  -5 20.6540 2.91113   1
   0  -1  -6 342.572 9.15939   1
   0   1   6 358.039 9.34902   1
   0  -1  -7 1151.02 17.6739   1
   0   1   7 1070.90 17.0014   1
   0  -1  -8-1.53098 3.18018   1
   0   1   8 0.67553 3.22294   1
   0   1   9 6.88231 3.92869   1
   0  -1  -9 8.83427 4.11578   1
   0   1  10 9.30285 4.59181   1
   0  -1 -10 0.66081 4.18290   1
   0  -1 -11 16.7503 5.52146   1
   0   1  11 14.4923 5.24717   1
   0   1  12 12.8515 5.98162   1
   0  -1 -12 11.4417 6.25175   1
   0   1  13 5.72886 6.71767   1
   0  -1 -13 28.1502 7.74534   2
   0  -1 -13 14.7324 7.21405   1
   0  -1 -14-5.34003 8.39031   2
   0  -1 -14-10.4646 8.09924   1
   0  -1 -14 14.6307 8.48992   2
   0   1  14-8.87486 7.79513   1
   0  -1 -15 18.6311 10.5241   2
   0  -1 -15 5.34003 9.77416   2
   0  -1 -15 27.2747 10.1948   1
   0   1  15 39.4377 10.2303   1
   0  -2  16 117.019 10.1073   1
   0   2 -16 121.918 13.0147   2
   0  -2  16 122.161 10.0710   1
   0   2 -15 61.2661 10.0397   2
   0  -2  15 63.4091 7.68550   1
   0  -2  15 56.7611 7.70086   1
   0  -2  14 24.1570 5.75528   1
   0  -2  14 30.5125 5.68719   1
   0   2 -14 25.6590 7.29277   2
   0  -2  13 58.2873 5.97485   1
   0  -2  13 72.1691 6.45646   1
   0   2 -13 65.3728 7.85970   2
   0  -2  12 3.96065 3.63161   1
   0   2 -12 7.80381 5.04236   2
   0  -2  12 9.51345 3.99679   1
   0  -2  11 245.852 8.58207   1
   0   2 -11 215.651 10.0356   2
   0  -2  11 247.338 8.63399   1
   0   2 -10 120.973 7.26899   2
   0  -2  10 120.185 5.91204   1
   0  -2  10 124.821 5.94531   1
   0  -2   9 6.75957 2.45808   1
   0   2  -9 9.32743 3.49276   2
   0  -2   9 7.99699 2.46057   1
   0  -2   8 112.269 4.75865   1
   0   2  -8 124.927 6.34883   2
   0  -2   8 119.624 4.85453   1
   0   2  -7 58.2707 4.39609   2
   0  -2   7 58.5117 3.37213   1
   0  -2   7 61.7349 3.42897   1
   0  -2   6 192.718 4.96787   1
   0   2  -6 201.913 6.58411   2
   0  -2   6 192.912 4.99379   1
   0  -2   5 97.3980 3.35300   1
   0  -2   5 99.1452 4.54477   2
   0  -2   5 96.2784 3.29853   1
   0   2  -5 95.0708 4.39520   2
   0  -2   4 55.8529 2.35840   1
   0   2  -4 53.5371 3.10021   2
   0  -2   4 54.6620 3.32356   2
   0  -2   3 118.087 3.07113   1
   0   2  -3 116.406 3.08805   1
   0   2  -3 112.428 4.04905   2
   0  -2   3 111.295 3.97262   2
   0  -2   2 2958.58 14.8477   1
   0  -2   2 2981.82 17.8987   2
   0   2  -2 2997.10 17.9369   2
   0   2  -2 2964.64 14.8519   1
   0  -2   1 11.5912 1.69263   1
   0   2  -1 13.6855 1.87581   2
   0  -2   1 10.0601 1.89518   2
   0   2  -1 12.5400 1.67421   1
   0  -2   0 22.5507 2.01360   1
   0  -2   0 23.3424 2.33217   2
   0   2   0 24.5033 2.30929   1
   0   2   0 24.0774 2.23256   2
   0  -2  -1 191.909 5.34823   1
   0   2   1 195.227 5.42898   1
   0   2   1 200.847 5.16141   2
   0  -2  -1 186.433 5.07355   2
   0   2   2 82.5822 4.03586   1
   0   2   2 84.4220 3.89227   2
   0  -2  -2 73.8204 3.95824   1
   0  -2  -2 83.7336 3.84806   2
   0  -2  -3 413.818 8.55699   2
   0  -2  -3 409.326 9.01959   1
   0   2   3 426.778 9.18545   1
   0  -2  -4 1237.95 16.5186   1
   0  -2  -4 1208.02 15.5483   2
   0   2   4 1237.73 16.5082   1
   0   2   5 4.88013 2.75647   1
   0  -2  -5 2.60093 2.66406   1
   0  -2  -5-0.34492 2.40807   2
   0  -2  -6 122.301 6.58286   1
   0   2   6 131.465 6.66743   1
   0  -2  -6 128.138 6.46824   2
   0  -2  -7 7.16644 3.59124   1
   0  -2  -7 0.51954 3.01167   2
   0   2   7 3.40028 3.00920   1
   0  -2  -8 60.4855 5.75276   1
   0  -2  -8 56.9036 5.54064   2
   0   2   8 58.5208 5.69761   1
   0   2   9 50.9969 6.16613   1
   0  -2  -9 51.9285 6.25867   1
   0  -2  -9 44.7424 5.84554   2
   0  -2 -10 87.5793 7.76854   1
   0  -2 -10 98.6471 7.93653   2
   0   2  10 112.533 8.40875   1
   0   2  11 51.3880 7.38132   1
   0  -2 -11 61.5819 7.58204   2
   0  -2 -11 66.9795 8.16931   1
   0  -2 -12 52.4310 8.37337   1
   0  -2 -12 39.8112 7.74125   2
   0   2  12 53.1390 8.18632   1
   0  -2 -13 10.3009 8.67672   1
   0   2  13-4.66209 8.69831   1
   0  -2 -13 16.0936 8.46416   2
   0  -2 -14 22.6959 9.68205   2
   0  -2 -14 30.6763 10.2770   1
   0   2  14 47.1593 10.1978   1
   0   3 -16 2.08773 9.50700   2
   0  -3  16-4.06545 6.55215   1
   0  -3  16 3.61507 6.08956   1
   0  -3  15 97.2226 7.71461   1
   0   3 -15 101.250 10.9544   2
   0  -3  15 96.6628 7.69479   1
   0  -3  14 17.2000 4.87140   1
   0  -3  14 13.2335 4.65798   1
   0  -3  13 118.021 6.80327   1
   0   3 -13 132.920 9.60002   2
   0  -3  13 133.229 7.04873   1
   0  -3  12 29.0657 4.22119   1
   0  -3  12 28.2976 4.17055   1
   0   3 -12 20.3145 5.47641   2
   0  -3  11 8.14087 3.01304   1
   0   3 -11 4.77896 4.18676   2
   0  -3  11 8.43714 3.07248   1
   0  -3  10 17.5914 2.93194   1
   0   3 -10 14.0115 4.22054   2
   0  -3  10 14.8359 2.87903   1
   0  -3   9 35.2641 3.24893   1
   0  -3   9 35.4804 3.21637   1
   0   3  -9 34.5876 4.38280   2
   0   3  -8 20.5823 3.60783   2
   0  -3   8 19.3532 2.49043   1
   0  -3   8 15.8983 2.40085   1
   0  -3   7 593.623 9.23554   1
   0  -3   7 588.252 12.3284   2
   0  -3   7 577.868 8.94202   1
   0   3  -7 611.702 12.4907   2
   0   3  -6 17.8065 2.95265   2
   0  -3   6 25.7474 3.40509   2
   0  -3   6 13.2571 2.04383   1
   0  -3   6 17.8235 2.03862   1
   0   3  -5 91.8002 4.77930   2
   0  -3   5 95.8588 3.46545   1
   0   3  -5 90.2004 3.43924   1
   0  -3   5 100.380 4.80845   2
   0  -3   4 181.368 5.90740   2
   0  -3   4 181.130 4.58940   1
   0   3  -4 175.050 4.55381   1
   0   3  -4 171.909 5.92062   2
   0  -3   3 282.019 7.08866   2
   0  -3   3 279.786 5.77490   1
   0   3  -3 289.256 7.16215   2
   0   3  -3 278.375 5.73888   1
   0  -3   2-1.62547 1.96154   2
   0  -3   2 0.05373 1.47527   1
   0   3  -2-0.20373 2.00729   2
   0   3  -2 1.90666 1.49626   1
   0  -3   1 63.2023 3.35485   1
   0   3  -1 57.8906 3.35358   1
   0  -3   1 65.7654 3.56571   2
   0   3  -1 60.7737 3.61122   2
   0  -3   0 15.8697 2.57492   1
   0  -3   0 18.6029 2.31656   2
   0   3   0 14.9282 2.25750   1
   0   3   0 14.0484 2.51409   2
   0  -3  -1 1247.68 15.0831   2
   0   3   1 1287.73 15.7560   1
   0   3   1 1324.56 15.3947   2
   0  -3  -1 1303.34 15.8326   1
   0   3   2 787.031 12.5487   2
   0   3   2 765.210 13.0577   1
   0  -3  -2 783.455 12.5634   2
   0  -3  -2 742.631 12.8364   1
   0   3   3 6.52382 3.02641   1
   0  -3  -3 3.51949 2.51118   2
   0  -3  -3 4.98418 2.77203   1
   0  -3  -4 50.7568 4.38259   2
   0  -3  -4 58.1902 4.65070   1
   0   3   4 55.6844 4.77955   1
   0  -3  -5 38.5907 4.57443   1
   0   3   5 39.5336 4.80377   1
   0  -3  -5 40.1698 4.21165   2
   0   3   6 35.7769 4.95451   1
   0  -3  -6 45.1940 5.18837   1
   0  -3  -6 39.9175 4.65175   2
   0  -3  -7 68.9842 5.88698   2
   0  -3  -7 76.6900 6.48205   1
   0   3   7 75.9226 6.51920   1
   0  -3  -8 163.346 8.97145   2
   0  -3  -8 186.349 9.72793   1
   0   3   8 166.724 9.29445   1
   0   3   9 4.27691 4.88447   1
   0  -3  -9-0.70467 5.56041   1
   0  -3  -9 4.87790 4.91636   2
   0   3  10 24.6947 7.03471   1
   0  -3 -10 12.7887 5.92274   1
   0  -3 -10 11.0071 5.67652   2
   0   3  11 26.2951 7.80584   1
   0  -3 -11 55.3752 8.09026   2
   0  -3 -11 46.4047 8.92267   1
   0  -3 -12 8.39434 7.84373   1
   0   3  12 17.9982 8.06529   1
   0  -3 -12 9.72531 7.61281   2
   0   3  13-3.59282 9.26425   1
   0  -3 -13 5.16375 10.3140   1
   0  -3 -13 21.5192 9.42926   2
   0   4 -16 3.38510 9.52332   2
   0  -4  16 4.81068 5.27122   1
   0  -4  16 11.0382 5.22462   1
   0  -4  15 70.8564 6.37134   1
   0   4 -15 72.3331 10.3613   2
   0  -4  15 67.4277 6.29291   1
   0   4 -14-4.28390 6.79784   2
   0  -4  14 1.39880 3.97872   1
   0  -4  14 1.43303 3.95161   1
   0   4 -13 4.37204 5.97951   2
   0  -4  13 2.92453 3.38443   1
   0  -4  13 4.68130 3.61348   1
   0   4 -12 5.38427 5.34444   2
   0  -4  12 9.66421 3.28023   1
   0  -4  12 9.60134 3.26780   1
   0   4 -11 51.0293 6.07061   2
   0  -4  11 47.5076 4.03587   1
   0  -4  11 51.9109 4.15688   1
   0  -4  10 29.0932 3.24391   1
   0  -4  10 27.0321 3.19978   1
   0   4 -10 30.3261 5.00541   2
   0   4  -9 26.2464 4.23584   2
   0  -4   9 26.6281 2.89879   1
   0  -4   9 22.3839 2.82765   1
   0   4  -8 15.6146 3.86302   2
   0  -4   8 12.4331 3.48516   2
   0  -4   8 12.2592 2.33263   1
   0  -4   8 9.29474 2.28211   1
   0  -4   7 7.01349 2.09367   1
   0  -4   7 11.9670 3.09247   2
   0  -4   7 11.5464 2.15380   1
   0   4  -7 12.7016 3.38200   2
   0   4  -6 596.711 12.5499   2
   0  -4   6 582.807 12.4786   2
   0   4  -6 596.317 9.45099   1
   0  -4   6 609.142 9.45493   1
   0   4  -5 160.303 6.63382   2
   0  -4   5 177.023 6.77619   2
   0  -4   5 178.124 5.33747   1
   0   4  -5 175.289 5.29679   1
   0  -4   4 6.67298 1.95416   1
   0  -4   4 6.55612 2.59691   2
   0   4  -4 5.89106 2.52936   2
   0   4  -4 6.44726 1.90368   1
   0  -4   3 82.8314 4.10500   1
   0   4  -3 80.8802 4.01679   1
   0   4  -3 79.2400 4.51268   2
   0  -4   3 85.7693 4.76384   2
   0  -4   2 42.5386 3.46551   1
   0   4  -2 47.9977 4.01603   2
   0   4  -2 46.4071 3.53130   1
   0  -4   2 46.3401 4.00479   2
   0   4  -1 391.131 9.11098   1
   0  -4   1 382.405 9.42099   2
   0  -4   1 403.220 9.30558   1
   0   4  -1 390.743 9.48184   2
   0  -4   0 29.9477 3.58792   2
   0  -4   0 30.3060 3.60230   1
   0   4   0 27.9040 3.41659   1
   0   4   0 30.4569 3.29327   2
   0  -4  -1 448.531 10.9163   1
   0   4   1 438.422 10.7955   1
   0   4   1 471.527 10.7854   2
   0  -4  -1 436.690 10.5194   2
   0  -4  -2 75.9778 5.48203   1
   0   4   2 67.1751 4.66695   2
   0   4   2 66.5139 5.24090   1
   0  -4  -2 75.9155 5.10190   2
   0  -4  -3 207.681 8.51414   1
   0   4   3 194.887 7.87788   2
   0   4   3 197.701 8.47342   1
   0  -4  -3 197.352 7.94714   2
   0   4   4 241.415 9.63287   1
   0  -4  -4 224.636 8.81614   2
   0  -4  -4 242.351 9.46270   1
   0  -4  -5 274.356 10.0454   2
   0   4   5 268.990 10.7761   1
   0  -4  -5 289.094 10.9080   1
   0  -4  -6 4.29257 4.47105   1
   0  -4  -6-1.42634 3.63417   2
   0   4   6 2.62006 4.55415   1
   0  -4  -7 118.954 8.68098   1
   0   4   7 123.994 8.70764   1
   0  -4  -7 121.013 8.05905   2
   0   4   8 0.63895 5.69201   1
   0  -4  -8 4.60987 4.76479   1
   0  -4  -8 10.8799 5.20625   2
   0  -4  -9-10.1924 6.82243   1
   0   4   9 9.69865 6.61883   1
   0  -4  -9 1.47417 5.42776   2
   0  -4 -10 8.30884 6.65374   2
   0   4  10 10.2373 7.78171   1
   0  -4 -10 6.98958 6.79305   1
   0  -4 -11-4.39313 8.57443   1
   0   4  11 9.57972 7.63041   1
   0  -4 -11 9.47026 7.85876   2
   0  -4 -12 14.3104 9.29534   2
   0   4  12-4.35988 10.2395   1
   0  -4 -12 12.7342 9.13548   1
   0  -4 -13-3.36218 6.10560   2
   0   4  13 15.0425 7.00563   1
   0  -4 -13 17.7362 6.63431   1
   0  -5  16 15.1718 4.39960   1
   0   5 -16 14.3654 9.97289   2
   0  -5  16 2.68852 4.28945   1
   0  -5  15 3.82483 3.85765   1
   0  -5  15 4.74886 3.95792   1
   0   5 -15 5.64701 8.82821   2
   0   5 -14 25.8760 7.78233   2
   0  -5  14 16.3905 3.88225   1
   0  -5  14 14.7625 3.78806   1
   0   5 -13 1.61180 6.35753   2
   0  -5  13-0.61184 3.10178   1
   0  -5  13-2.72671 3.13578   1
   0   5 -12 64.6739 7.53637   2
   0  -5  12 64.9659 4.71379   1
   0  -5  12 65.3955 4.64205   1
   0  -5  11 3.00040 2.67334   1
   0  -5  11 3.15482 2.73783   1
   0   5 -11-2.01601 4.79975   2
   0   5 -10-0.94941 4.08567   2
   0  -5  10 0.26117 2.41832   1
   0  -5  10 2.67785 2.54863   1
   0  -5   9 55.3223 4.01995   1
   0  -5   9 63.1536 4.04677   1
   0   5  -9 63.3702 5.89910   2
   0  -5   9 61.1959 6.12009   2
   0   5  -8 322.927 11.0952   2
   0  -5   8 315.622 10.7794   2
   0  -5   8 317.739 7.82757   1
   0   5  -7 91.2683 4.51910   1
   0  -5   7 95.6940 6.48681   2
   0   5  -7 90.2123 6.25695   2
   0  -5   7 93.5365 4.62283   1
   0  -5   6 94.2327 6.06560   2
   0   5  -6 100.331 6.25812   2
   0  -5   6 94.6699 4.66198   1
   0   5  -6 95.1081 4.68642   1
   0  -5   5 5.46311 2.30992   1
   0   5  -5 7.73060 2.37623   1
   0  -5   5 6.40095 2.83208   2
   0   5  -5 8.86304 2.92109   2
   0   5  -4 226.350 7.13778   1
   0  -5   4 226.941 8.39778   2
   0   5  -4 230.575 8.39349   2
   0  -5   4 236.099 7.27464   1
   0  -5   3 55.8387 4.13326   1
   0   5  -3 55.1606 4.86236   2
   0  -5   3 52.7616 4.80011   2
   0   5  -3 56.4846 4.23857   1
   0  -5   2 31.5771 3.61923   1
   0   5  -2 37.5264 4.37006   2
   0   5  -2 29.7373 3.43622   1
   0  -5   2 33.8627 4.19158   2
   0  -5   1 112.755 6.34253   2
   0   5  -1 110.412 5.96459   2
   0   5  -1 100.295 5.56881   1
   0  -5   1 106.288 5.96827   1
   0   5   0 776.462 15.1887   1
   0  -5   0 745.280 14.7812   1
   0   5   0 784.871 15.2209   2
   0  -5   0 751.368 14.9180   2
   0   5   1 351.589 10.7472   1
   0  -5  -1 356.957 11.0312   1
   0  -5  -1 343.241 10.6080   2
   0   5   1 355.895 10.6439   2
   0   5   2 17.2069 4.26239   1
   0   5   2 23.1550 3.90370   2
   0  -5  -2 25.3123 4.61970   1
   0  -5  -2 24.0358 3.85914   2
   0  -5  -3 6.44822 4.03081   1
   0  -5  -3-2.15166 3.59544   2
   0   5   3 2.23273 3.66264   2
   0   5   3 5.33210 4.10973   1
   0  -5  -4 10.9154 4.12823   2
   0  -5  -4 12.6382 4.04481   1
   0   5   4 4.90404 4.54100   1
   0  -5  -5 504.899 15.6697   1
   0  -5  -5 499.178 14.6919   2
   0   5   5 492.227 15.2301   1
   0  -5  -6 101.495 7.83911   2
   0  -5  -6 100.159 8.55084   1
   0   5   6 89.9042 8.24908   1
   0   5   7 19.0288 5.87321   1
   0  -5  -7 13.8531 5.58834   2
   0  -5  -7 10.7421 5.96591   1
   0   5   8 69.2606 9.24883   1
   0  -5  -8 91.3532 8.70982   2
   0  -5  -8 70.4691 8.70411   1
   0   5   9 35.2470 9.16189   1
   0  -5  -9 49.9287 8.49549   2
   0  -5  -9 34.0143 8.68467   1
   0  -5 -10 38.2017 9.05214   2
   0  -5 -10 24.3520 8.89475   1
   0   5  10 14.3394 9.44154   1
   0   5  11 5.51804 9.92319   1
   0  -5 -11-1.11354 11.3265   1
   0  -5 -11 8.36605 9.19305   2
   0  -5 -12 61.7916 9.16979   2
   0  -5 -12 54.5680 9.46006   1
   0   6 -16 9.80805 10.7219   2
   0  -6  16-0.92070 2.52250   1
   0  -6  15 10.0586 3.27500   1
   0   6 -15 15.7867 9.43946   2
   0  -6  14 22.3659 3.75464   1
   0   6 -14 25.8016 8.27889   2
   0  -6  14 24.1921 3.93425   1
   0  -6  13 11.4630 3.46410   1
   0   6 -13 8.78641 7.16094   2
   0  -6  13 12.1734 3.53414   1
   0  -6  12 111.336 5.59637   1
   0   6 -12 107.018 9.35592   2
   0  -6  12 103.497 5.51191   1
   0   6 -11 82.4903 8.28902   2
   0  -6  11 88.7272 5.20899   1
   0  -6  11 93.2679 5.26721   1
   0  -6  11 80.7488 8.18597   2
   0   6 -10 6.90188 5.01297   2
   0  -6  10-2.14221 2.72671   1
   0  -6  10 3.66415 4.47190   2
   0  -6  10-3.88153 2.93540   1
   0   6  -9 174.322 9.27802   2
   0  -6   9 161.814 6.37862   1
   0  -6   9 160.621 9.25997   2
   0  -6   8 53.2758 4.20409   1
   0   6  -8 49.7393 4.17511   1
   0   6  -8 57.3905 5.85819   2
   0  -6   8 45.9151 5.85476   2
   0  -6   7 224.365 9.55401   2
   0  -6   7 232.712 7.70998   1
   0   6  -7 214.936 9.79545   2
   0   6  -7 217.187 7.50176   1
   0  -6   6 1.69507 3.72323   2
   0   6  -6 3.05217 2.75794   1
   0   6  -6 3.35247 3.85486   2
   0  -6   6 4.39473 2.75983   1
   0   6  -5 209.409 9.29880   2
   0  -6   5 221.235 9.34169   2
   0  -6   5 220.523 7.85428   1
   0   6  -5 221.002 7.79013   1
   0  -6   4-0.31510 2.81743   1
   0   6  -4 0.65165 3.48315   2
   0  -6   4-0.14442 3.49581   2
   0   6  -4-4.77879 2.99921   1
   0  -6   3 62.7120 5.75047   2
   0   6  -3 68.5661 5.31993   1
   0  -6   3 68.3463 5.38759   1
   0   6  -3 69.9724 5.93345   2
   0  -6   2 99.9054 6.32188   1
   0   6  -2 94.9986 6.21554   1
   0  -6   2 110.576 7.01489   2
   0   6  -2 97.3311 6.79479   2
   0  -6   1 299.212 10.7148   2
   0  -6   1 309.466 10.4442   1
   0   6  -1 334.996 11.1765   2
   0   6  -1 325.129 10.7302   1
   0  -6   0 79.7932 6.35240   1
   0  -6   0 68.6900 6.06884   2
   0   6   0 68.8709 5.97382   2
   0   6   0 75.9179 6.00995   1
   0   6   1 15.5197 4.49027   1
   0  -6  -1 22.8910 5.01472   1
   0  -6  -1 22.6627 4.76630   2
   0   6   1 20.8410 4.82665   2
   0   6   2 2.12411 3.61452   1
   0  -6  -2 4.08180 3.72741   1
   0   6   2 7.58606 4.39018   2
   0  -6  -2 8.43064 4.47008   2
   0  -6  -3 66.5889 7.23742   1
   0   6   3 79.6212 7.27730   2
   0   6   3 81.3808 7.70219   1
   0  -6  -3 83.0952 7.13377   2
   0   6   4 92.4630 8.51387   1
   0  -6  -4 96.2302 8.24684   1
   0  -6  -4 90.1460 7.99734   2
   0  -6  -5 81.5777 8.24911   2
   0   6   5 95.0642 8.30970   1
   0  -6  -5 90.2807 8.67349   1
   0  -6  -6 46.2713 7.05584   2
   0   6   6 38.9789 7.73108   1
   0  -6  -6 51.1450 8.50435   1
   0   6   7 126.917 10.4835   1
   0  -6  -7 121.811 10.2829   2
   0  -6  -7 144.315 11.5266   1
   0  -6  -8 21.2328 7.78630   1
   0   6   8 33.0819 9.27325   1
   0  -6  -8 28.6397 8.05731   2
   0  -6  -9 23.2712 9.27153   2
   0  -6  -9 1.46052 9.92414   1
   0   6   9-0.45687 8.48902   1
   0  -6 -10 13.3801 11.1474   1
   0  -6 -10 16.0693 10.1014   2
   0   6  10 1.22825 10.1843   1
   0   7 -15-6.71204 10.9526   2
   0  -7  15 1.96077 2.55021   1
   0   7 -14-7.43103 7.87043   2
   0  -7  14 5.81118 3.37111   1
   0  -7  13 20.0711 3.84439   1
   0  -7  13 15.9019 3.76764   1
   0   7 -13 21.8651 8.08631   2
   0   7 -12 16.9354 6.83594   2
   0  -7  12 17.5834 3.93229   1
   0  -7  12 7.92064 7.10718   2
   0  -7  12 20.1231 4.11491   1
   0  -7  11 90.5143 5.60321   1
   0  -7  11 76.8657 8.97139   2
   0  -7  11 95.8065 5.88155   1
   0   7 -11 85.5110 8.83633   2
   0  -7  10 646.428 18.4440   2
   0  -7  10 653.111 13.0276   1
   0  -7  10 627.312 13.2438   1
   0   7 -10 628.323 18.4993   2
   0   7  -9 24.0744 4.02531   1
   0  -7   9 22.5197 6.01721   2
   0   7  -9 32.7210 5.92178   2
   0  -7   9 31.1555 4.06464   1
   0  -7   8 1.47799 4.40368   2
   0  -7   8 3.86496 3.21290   1
   0   7  -8 5.66307 3.15613   1
   0   7  -8 8.88207 4.56920   2
   0  -7   7 6.62705 3.38877   1
   0  -7   7 1.63480 4.66930   2
   0   7  -7 3.81670 3.11844   1
   0   7  -7-0.27975 4.80462   2
   0   7  -6 34.1298 4.48399   1
   0   7  -6 30.8749 5.79964   2
   0  -7   6 32.6200 4.52458   1
   0  -7   6 37.6788 5.79121   2
   0  -7   5 138.223 7.32219   1
   0   7  -5 137.875 8.61110   2
   0  -7   5 128.330 8.05890   2
   0   7  -5 131.119 7.14344   1
   0   7  -4 49.5963 6.26412   2
   0   7  -4 59.8450 5.56525   1
   0  -7   4 52.4755 5.32641   1
   0  -7   4 48.5105 6.14483   2
   0   7  -3-2.22427 4.56885   2
   0  -7   3-3.58486 4.16526   2
   0   7  -3-2.53186 3.76539   1
   0  -7   3 1.96553 3.44348   1
   0  -7   2 61.2812 5.91978   1
   0   7  -2 55.6809 5.64131   1
   0   7  -2 58.1616 6.24830   2
   0  -7   2 60.6039 6.44084   2
   0   7  -1-3.42140 3.77106   1
   0   7  -1 4.87620 4.42840   2
   0  -7   1-2.15024 4.17260   1
   0  -7   1-0.80897 4.49175   2
   0   7   0 8.03249 4.50850   2
   0   7   0 3.94062 4.01114   1
   0  -7   0 9.24983 4.99828   1
   0  -7   0 9.94022 4.86545   2
   0   7   1 16.2005 5.46161   2
   0  -7  -1 25.1454 5.89103   1
   0  -7  -1 22.6865 5.82706   2
   0   7   1 13.6404 5.48822   1
   0   7   2 5.94690 5.69496   1
   0   7   2 0.09922 4.77389   2
   0  -7  -2 0.95384 5.16793   2
   0  -7  -2 11.3712 5.43403   1
   0  -7  -3 50.7060 6.89108   1
   0  -7  -3 51.9226 7.13778   2
   0   7   3 38.6043 6.75222   1
   0   7   3 47.6452 6.71832   2
   0  -7  -4 10.1606 5.75345   1
   0  -7  -4-0.95161 6.10028   2
   0   7   4 15.3013 6.82180   1
   0  -7  -5 39.4899 7.83937   2
   0  -7  -5 26.8118 7.68162   1
   0   7   5 38.6865 8.07895   1
   0  -7  -6 20.4622 8.77368   1
   0   7   6 21.9410 8.69971   1
   0  -7  -6 12.8978 7.46858   2
   0  -7  -7 51.6993 9.39152   2
   0  -7  -7 34.7346 10.0600   1
   0  -7  -8-8.53928 10.7759   1
   0   7   8 11.8038 9.43783   1
   0  -7  -8 8.86046 9.95704   2
   0   7   9 1.90719 10.9286   1
   0  -7  -9 5.98036 10.6793   2
   0  -7  -9 23.6387 12.4866   1
   0  -8  15 1.71241 2.05445   1
   0   8 -15 3.77644 10.4236   2
   0   8 -14 49.8579 10.8648   2
   0  -8  14 54.7002 4.44035   1
   0  -8  14 62.1524 4.77414   1
   0  -8  13 145.296 6.91451   1
   0   8 -13 155.467 13.1944   2
   0  -8  13 149.883 7.12141   1
   0  -8  12 24.8271 4.70737   1
   0   8 -12 29.3134 8.04349   2
   0  -8  12 27.6101 4.99744   1
   0  -8  12 20.9489 8.79661   2
   0   8 -11-2.14927 6.67130   2
   0  -8  11-1.40150 3.91364   1
   0  -8  11-1.11879 7.38133   2
   0  -8  11 4.88740 4.25009   1
   0  -8  10 64.9692 8.87791   2
   0   8 -10 60.8425 5.65589   1
   0   8 -10 55.5688 7.83183   2
   0  -8  10 62.9478 5.76505   1
   0  -8   9 41.2245 5.26617   1
   0   8  -9 45.4339 5.41134   1
   0   8  -9 50.2055 8.23764   2
   0  -8   9 42.8175 7.75822   2
   0  -8   8-10.0278 6.27620   2
   0  -8   8 1.90724 4.03149   1
   0   8  -8-0.16682 5.91220   2
   0   8  -8 2.03469 4.11387   1
   0  -8   7 37.2479 6.50217   2
   0  -8   7 32.3979 4.98924   1
   0   8  -7 34.5376 7.00938   2
   0   8  -7 34.2808 5.03746   1
   0   8  -6 6.18837 5.34046   2
   0  -8   6-0.26102 4.84616   2
   0  -8   6 1.21116 3.95216   1
   0   8  -6 0.03832 3.96449   1
   0  -8   5 106.510 8.67385   2
   0   8  -5 102.328 7.38601   1
   0   8  -5 100.511 8.43774   2
   0  -8   5 112.654 7.73305   1
   0   8  -4 5.06422 5.54906   2
   0  -8   4-1.64540 5.18481   2
   0   8  -4 10.2575 4.86242   1
   0  -8   4 0.90621 4.54483   1
   0  -8   3 290.883 11.8705   1
   0   8  -3 310.892 12.8236   2
   0   8  -3 306.111 12.1058   1
   0  -8   3 301.392 12.9388   2
   0   8  -2 92.5310 8.01670   1
   0  -8   2 90.8658 7.92213   1
   0  -8   2 86.3592 8.48994   2
   0   8  -2 79.5153 8.12162   2
   0   8  -1 5.26206 5.43939   1
   0  -8   1 14.3959 5.86182   1
   0   8  -1-2.11643 5.49417   2
   0  -8   1 11.7030 5.84797   2
   0  -8   0 40.3595 7.02816   1
   0   8   0 42.4931 7.25264   1
   0   8   0 41.2483 7.19237   2
   0  -8   0 45.5112 6.61627   2
   0   8   1 11.8011 6.47352   2
   0   8   1 15.6104 6.74247   1
   0  -8  -1 13.5716 5.85065   1
   0  -8  -1 14.1991 5.78262   2
   0   8   2 19.4050 6.93507   2
   0   8   2 7.42658 6.13653   1
   0  -8  -2 3.22250 5.85907   2
   0  -8  -2 4.58864 5.54090   1
   0   8   3 5.21667 7.48908   1
   0   8   3-7.69965 6.55003   2
   0  -8  -3 9.80753 6.91659   1
   0  -8  -3-2.18466 6.78823   2
   0  -8  -4 2.54904 6.69104   2
   0   8   4 6.91325 7.57096   1
   0  -8  -4 18.4965 8.63765   1
   0  -8  -5-5.79249 8.79408   2
   0  -8  -5-6.08276 9.08638   1
   0   8   5 16.3616 9.38819   1
   0  -8  -6 23.7743 8.90490   2
   0   8   6 6.93229 9.77320   1
   0  -8  -6-7.39848 10.6085   1
   0  -8  -7-8.27841 12.7202   1
   0   8   7 11.5458 11.9033   1
   0  -8  -7 14.9656 10.2983   2
   0  -9  14-1.72075 3.93759   1
   0   9 -14-7.08182 11.5205   2
   0  -9  14 6.71073 4.22730   1
   0  -9  13 4.33251 4.81067   1
   0   9 -13 5.03815 10.8192   2
   0  -9  13 8.94279 4.99219   1
   0  -9  12-0.72649 9.25926   2
   0  -9  12 3.57994 5.43634   1
   0  -9  12 2.09923 5.13429   1
   0   9 -12 0.95987 8.31394   2
   0   9 -11-0.28108 5.17934   1
   0  -9  11-6.71752 9.04281   2
   0  -9  11 3.18340 4.92973   1
   0   9 -11 8.62423 8.62064   2
   0  -9  10 55.4327 6.60112   1
   0  -9  10 45.4634 8.56105   2
   0   9 -10 31.5626 5.98627   1
   0   9 -10 34.8663 8.96843   2
   0  -9   9-2.63832 6.76861   2
   0   9  -9 14.0153 7.34788   2
   0   9  -9 0.95715 5.28713   1
   0  -9   9 10.1505 5.19284   1
   0  -9   8 3.08228 5.00985   1
   0  -9   8 7.48689 7.33314   2
   0   9  -8-1.42590 5.19572   1
   0   9  -8-7.73118 6.48579   2
   0  -9   7 77.7381 7.48956   1
   0  -9   7 89.3322 8.87669   2
   0   9  -7 76.5139 7.33673   1
   0   9  -7 80.7912 8.80924   2
   0   9  -6 230.381 13.3176   2
   0  -9   6 216.656 10.8865   1
   0   9  -6 188.409 10.1933   1
   0  -9   6 214.082 12.9019   2
   0   9  -5-2.56259 5.03502   1
   0  -9   5 2.88557 5.44608   2
   0   9  -5-4.24155 5.43947   2
   0  -9   5-2.34927 5.08868   1
   0  -9   4 35.0624 7.39222   2
   0  -9   4 64.2203 7.55641   1
   0   9  -4 43.6428 7.19087   1
   0   9  -4 52.6676 7.37160   2
   0  -9   3 26.5425 6.79206   2
   0  -9   3 24.8767 6.33216   1
   0   9  -3 30.1230 6.79347   2
   0   9  -3 28.2170 6.93096   1
   0  -9   2 113.879 10.3873   2
   0   9  -2 100.305 9.36917   1
   0   9  -2 108.821 10.3916   2
   0  -9   2 108.587 9.68317   1
   0  -9   1 3.26882 6.64038   1
   0  -9   1-3.07139 6.24248   2
   0   9  -1 9.06885 6.10111   1
   0   9  -1 0.31065 6.44413   2
   0  -9   0-1.29415 7.08206   2
   0  -9   0 3.58190 6.19584   1
   0   9   0-2.16995 7.64887   1
   0   9   0 10.3054 7.15810   2
   0   9   1 6.46501 7.06294   2
   0   9   1 5.55013 7.99327   1
   0  -9  -1-1.67692 6.33951   2
   0   9   2 17.2528 8.47365   2
   0  -9  -2 29.5060 9.38468   1
   0   9   2 9.21075 7.49597   1
   0  -9  -2 23.5276 8.47179   2
   0  -9  -3-5.45564 8.47802   2
   0   9   3 5.89183 7.85316   1
   0  -9  -3-4.44629 8.13413   1
   0   9   3 4.52184 7.97996   2
   0  -9  -4-0.91432 8.33348   2
   0   9   4 1.14001 10.3069   1
   0  -9  -4-16.8979 11.7135   1
   0   9   5 2.16640 10.0772   1
   0  -9  -5-4.40247 11.6431   1
   0  -9  -5 2.23977 10.4381   2
   0  -9  -6 22.0975 11.7888   1
   0   9   6 32.7383 12.6136   1
   0  -9  -6-9.92501 12.2203   2
   0 -10  13 6.08815 5.47961   1
   0  10 -13-18.1770 10.2190   2
   0 -10  13-17.4954 10.3577   2
   0 -10  13 6.60573 5.36800   1
   0  10 -12 8.58900 11.1448   2
   0 -10  12 1.49986 6.20033   1
   0 -10  12-2.52776 6.73579   1
   0  10 -11 6.74609 8.98962   2
   0 -10  11 18.8577 7.04476   1
   0 -10  11 32.1011 11.2934   2
   0  10 -11 18.3535 7.00423   1
   0 -10  10 16.2718 9.21993   2
   0  10 -10-5.79029 8.41008   2
   0 -10  10 0.22198 6.26120   1
   0  10 -10-1.33334 6.90843   1
   0 -10   9 48.1617 7.58821   1
   0  10  -9 35.5315 10.0977   2
   0  10  -9 63.3573 8.00898   1
   0 -10   9 46.9881 10.0083   2
   0 -10   8-3.96471 9.21711   2
   0  10  -8 6.62889 6.43128   1
   0  10  -8 6.81364 7.43236   2
   0 -10   8-4.73147 6.54564   1
   0  10  -7 12.8570 7.76427   2
   0 -10   7 26.3878 7.06363   1
   0  10  -7 22.7702 6.81714   1
   0 -10   7 19.9977 8.85613   2
   0 -10   6-0.99071 6.41917   1
   0  10  -6 7.83237 7.55446   2
   0 -10   6 7.21763 8.43050   2
   0  10  -6 3.75197 6.34845   1
   0 -10   5 5.43799 8.32833   2
   0  10  -5 8.20646 6.45627   1
   0  10  -5 14.1700 8.30330   2
   0 -10   5-0.75111 6.43334   1
   0  10  -4 188.182 13.3286   2
   0 -10   4 202.781 12.6753   1
   0 -10   4 180.271 13.1685   2
   0  10  -3 32.4079 8.26694   2
   0  10  -3 30.6573 8.17494   1
   0 -10   3 18.5515 8.35650   1
   0  10  -2 60.8013 9.23908   2
   0  10  -2 56.3949 9.11956   1
   0 -10   2 48.9633 10.0014   2
   0 -10   2 54.9316 9.52670   1
   0 -10   1 10.3411 8.77266   2
   0  10  -1 13.3590 8.68224   1
   0 -10   1 20.2344 8.51230   1
   0  10  -1 10.5355 7.72550   2
   0  10   0 14.0533 7.99411   2
   0  10   0 22.7799 9.91181   1
   0 -10   0 13.2663 9.36246   2
   0 -10   0 2.01394 8.22029   1
   0  10   1 78.9253 12.2498   2
   0  10   1 55.4448 11.5812   1
   0 -10  -1 71.9982 11.9267   2
   0 -10  -1 85.9790 12.8325   1
   0 -10  -2 11.8469 10.1762   2
   0 -10  -2-21.9891 10.6730   1
   0  10   2-5.82157 11.0591   2
   0  10   2 0.74653 11.0638   1
   0 -10  -3-5.62531 11.8868   2
   0  10   3 25.5577 12.4233   1
   0 -10  -3-15.9899 11.7626   1
   0  11 -11 1.57925 6.24815   1
   0 -11  11-10.4555 6.52048   1
   0  11 -10 5.59039 8.05389   1
   0 -11  10 17.2974 11.0954   2
   0  11 -10 16.4118 11.3345   2
   0 -11  10-5.12201 8.68182   1
   0 -11   9 23.2122 10.6200   2
   0  11  -9 18.3377 11.7609   2
   0  11  -9 17.5934 8.22631   1
   0 -11   9 10.4636 8.33451   1
   0 -11   8 33.0518 11.2494   2
   0  11  -8 40.9394 9.05996   1
   0 -11   8 26.6639 8.79508   1
   0  11  -8 37.1558 10.3543   2
   0  11  -7-7.48551 10.7753   2
   0  11  -7 9.27509 8.26784   1
   0 -11   7 17.6967 8.52046   1
   0 -11   7 5.39755 10.9029   2
   0  11  -6 10.2890 8.57257   1
   0 -11   6 30.4706 9.44454   1
   0 -11   6 33.8472 10.1921   2
   0  11  -6 28.7402 11.3487   2
   0 -11   5 62.7551 10.3575   1
   0  11  -5 59.4339 10.2576   1
   0 -11   5 56.1554 12.6498   2
   0  11  -5 50.4166 10.9501   2
   0 -11   4 25.0748 10.7456   2
   0  11  -4 37.5454 11.4673   2
   0 -11   4 23.9161 9.87603   1
   0  11  -4 39.8383 10.5933   1
   0 -11   3-6.94388 9.65346   2
   0  11  -3 2.86371 9.69337   1
   0 -11   3 6.94313 9.13853   1
   0  11  -3 0.97333 10.1901   2
   0 -11   2 97.9406 14.1781   2
   0 -11   2 76.2601 11.4375   1
   0  11  -2 96.0725 13.8161   2
   0  11  -2 79.1457 12.9436   1
   0 -11   1-3.76476 10.0533   1
   0  11  -1 4.03755 10.8136   1
   0  11  -1-1.34234 10.0804   2
   0 -11   1 21.7976 11.5195   2
   0 -11   0 17.3061 10.6173   1
   0  11   0 2.63431 12.4828   1
   0  11   0-17.2881 11.4431   2
   0 -11   0-12.5896 13.4815   2
   0 -11  -1 12.9442 10.4456   1
   0  11   1 17.8346 11.3585   1
   0 -11  -1 17.7120 11.6661   2
   0  11   1 9.40840 10.4330   2
  -1  11   1 13.0906 11.1147   2
  -1  11   1 14.6476 12.8936   1
   1 -11  -1 1.79343 10.6798   2
   1 -11  -1-2.96041 10.6712   1
   1 -11   0 10.1776 11.5632   1
  -1  11   0 19.4754 10.4462   1
   1 -11   0 7.54642 10.3669   2
  -1  11   0 14.0789 10.6684   2
  -1  11  -1 86.5175 12.2412   1
   1 -11   1 88.0780 12.1743   1
  -1  11  -1 72.1645 11.6312   2
  -1  11  -2 20.2595 9.65350   2
   1 -11   2 20.4294 10.1067   1
   1 -11   2 15.2175 9.17965   2
  -1  11  -2-0.43679 9.53214   1
  -1  11  -3 7.11056 8.93807   1
   1 -11   3 12.3413 9.16272   1
   1 -11   3 2.09458 10.2879   2
  -1  11  -3 23.2940 10.3599   2
  -1  11  -4 4.32143 8.37923   1
   1 -11   4 5.53104 8.48816   1
   1 -11   4 22.5799 10.7528   2
  -1  11  -4-0.80493 10.5302   2
   1 -11   5 11.1807 8.20576   1
  -1  11  -5 9.97416 9.15562   2
  -1  11  -5 11.4107 8.60647   1
   1 -11   5 10.8421 9.82602   2
   1 -11   6 14.6842 10.0030   2
  -1  11  -6 9.67399 7.77015   1
   1 -11   6 5.19245 8.03771   1
  -1  11  -6 19.1503 10.7062   2
   1 -11   7-12.5373 7.79811   1
  -1  11  -7-3.19275 7.46005   1
   1 -11   7 7.13439 10.9767   2
  -1  11  -7 2.74861 10.2573   2
   1 -11   8-10.5139 7.30285   1
   1 -11   8 8.77875 9.87003   2
  -1  11  -8-3.81533 10.3871   2
  -1  11  -8 2.63926 7.26178   1
   1 -11   9-6.79706 7.27721   1
  -1  11  -9 12.7597 12.2908   2
  -1  11  -9 0.60718 7.39168   1
   1 -11   9-2.40794 11.4640   2
  -1  11 -10-3.83714 12.5756   2
   1 -11  10 25.0005 13.1342   2
   1 -11  10 12.8733 6.70647   1
  -1  11 -10 4.15391 6.63946   1
   1 -10  -4-22.4265 11.4624   1
  -1  10   4-3.20099 11.4776   1
   1 -10  -4-16.7658 11.9676   2
   1 -10  -3-3.78395 10.6145   1
   1 -10  -3-0.39235 10.6122   2
  -1  10   3-17.7053 11.6673   2
  -1  10   3-9.02646 11.8473   1
  -1  10   2 79.3141 12.2955   2
   1 -10  -2 72.9577 11.9031   1
  -1  10   2 67.4742 12.3538   1
   1 -10  -1 22.2559 10.0931   2
  -1  10   1 20.9737 10.6500   1
   1 -10  -1 20.9676 8.73998   1
  -1  10   1 20.7468 8.86488   2
  -1  10   0 59.6811 10.4029   1
   1 -10   0 35.9687 9.91188   2
  -1  10   0 39.5221 9.87150   2
   1 -10   0 56.5129 9.92117   1
   1 -10   1 35.8339 9.16886   1
  -1  10  -1 37.3741 9.18013   2
  -1  10  -1 34.0548 9.20403   1
   1 -10   1 48.4569 10.2135   2
   1 -10   2-3.21897 7.22494   1
  -1  10  -2 0.06999 7.32178   2
   1 -10   2-3.02334 8.36334   2
  -1  10  -2-9.66066 6.89043   1
  -1  10  -3 5.38129 7.99687   2
  -1  10  -3 2.70276 7.07561   1
   1 -10   3 8.12401 7.06551   1
   1 -10   3-9.22505 8.33754   2
   1 -10   4 13.1557 7.31452   2
  -1  10  -4 0.76851 6.45235   1
  -1  10  -4 5.76558 7.17552   2
   1 -10   4 5.84169 6.44879   1
  -1  10  -5 47.5252 9.61890   2
   1 -10   5 31.7444 9.37329   2
   1 -10   5 39.0122 7.34959   1
  -1  10  -5 39.9683 7.57396   1
  -1  10  -6-4.86177 5.77282   1
  -1  10  -6 2.44208 7.86184   2
   1 -10   6 7.64304 5.83826   1
   1 -10   6-5.41481 7.86242   2
  -1  10  -7 16.6726 5.98366   1
   1 -10   7 36.0517 8.16912   2
   1 -10   7 21.4857 6.19579   1
  -1  10  -7 44.8815 9.77351   2
   1 -10   8 91.3756 7.77985   1
  -1  10  -8 87.9249 7.59693   1
   1 -10   8 98.5629 11.6614   2
  -1  10  -8 97.2676 11.4829   2
   1 -10   9 21.6776 6.02754   1
   1 -10   9 13.2497 9.66660   2
  -1  10  -9 20.4520 10.4402   2
  -1  10  -9 20.7504 5.90313   1
  -1  10 -10-15.9366 8.67388   2
   1 -10  10 1.02616 10.3723   2
  -1  10 -10-5.22005 4.82564   1
   1 -10  10-8.51929 4.86997   1
   1 -10  11 27.1704 4.32572   1
   1 -10  11 28.4667 12.0342   2
   1 -10  11 27.4386 4.47376   1
   1 -10  12 9.91685 11.9485   2
  -1  10 -12 27.6856 12.8323   2
  -1   9   6 19.0892 13.2616   1
   1  -9  -6 0.38804 11.2584   2
   1  -9  -6-15.0671 10.7034   1
   1  -9  -5 28.4201 11.9461   1
   1  -9  -5 8.80628 9.90388   2
  -1   9   5 21.3792 11.6183   1
  -1   9   4 74.7814 12.3118   1
   1  -9  -4 78.2889 11.4468   2
   1  -9  -4 67.0819 12.4865   1
   1  -9  -3 13.0601 7.68905   2
  -1   9   3 7.21848 7.34411   2
  -1   9   3 17.9068 9.34194   1
   1  -9  -3 4.48252 8.90127   1
   1  -9  -2-2.72348 7.26792   1
  -1   9   2 3.44051 6.63656   2
  -1   9   2 3.08428 7.75815   1
   1  -9  -2 1.70310 7.61620   2
  -1   9   1 15.2366 6.94487   2
   1  -9  -1 16.4632 7.47329   2
  -1   9   1 15.8013 8.17380   1
   1  -9  -1 25.7858 7.72787   1
  -1   9   0-2.16191 6.09084   2
   1  -9   0 6.68341 6.84912   2
  -1   9   0-6.86994 7.06003   1
   1  -9   0-1.77559 7.03004   1
   1  -9   1 80.7221 9.04299   1
   1  -9   1 103.433 9.93972   2
  -1   9  -1 90.2406 9.58046   2
  -1   9  -1 75.4668 8.52493   1
   1  -9   2 18.5640 6.11750   1
   1  -9   2 4.78068 6.52424   2
  -1   9  -2 3.31769 6.51876   2
  -1   9  -2 12.4243 5.99729   1
  -1   9  -3 0.19909 5.61489   1
   1  -9   3 7.04007 6.03172   2
  -1   9  -3 9.27003 6.09110   2
   1  -9   3 11.8769 5.85508   1
  -1   9  -4 45.8798 7.44898   2
  -1   9  -4 42.6198 6.56188   1
   1  -9   4 58.9156 8.52738   2
   1  -9   4 43.0269 6.54816   1
   1  -9   5 33.1134 7.74635   2
   1  -9   5 39.3215 6.16075   1
  -1   9  -5 41.7416 7.39664   2
  -1   9  -5 55.6459 6.77655   1
   1  -9   6 1.16572 6.46342   2
  -1   9  -6-2.18785 6.92636   2
   1  -9   6-3.00431 4.78111   1
  -1   9  -6 4.21936 4.75421   1
   1  -9   7-2.84527 4.39145   1
  -1   9  -7 3.41504 4.44710   1
   1  -9   7-2.90673 5.67463   2
  -1   9  -7 8.36873 6.26043   2
  -1   9  -8 72.7858 6.21006   1
   1  -9   8 78.1005 9.78143   2
   1  -9   8 69.8163 6.20953   1
  -1   9  -8 81.5708 9.68940   2
  -1   9  -9 46.5100 9.68322   2
  -1   9  -9 26.5354 4.81996   1
   1  -9   9 41.3471 5.04903   1
   1  -9   9 35.0014 9.27994   2
  -1   9 -10 39.0638 9.95285   2
   1  -9  10 36.9100 4.39691   1
  -1   9 -10 33.9187 4.34105   1
   1  -9  11 53.4559 3.46084   1
  -1   9 -11 58.1226 11.1509   2
   1  -9  11 62.7557 10.1650   2
   1  -9  11 60.7743 3.67070   1
   1  -9  12 69.9593 11.7053   2
  -1   9 -12 81.0843 11.6109   2
  -1   9 -13-13.7722 12.3419   2
   1  -8  -8 19.9940 12.0493   1
  -1   8   8 8.30971 10.8257   1
   1  -8  -8 15.2188 11.3641   2
   1  -8  -7-12.9922 12.1316   1
   1  -8  -7 24.1219 9.77659   2
  -1   8   7 5.43067 12.1303   1
   1  -8  -6 89.0706 11.3088   2
   1  -8  -6 112.134 12.5528   1
  -1   8   6 99.7512 12.7612   1
   1  -8  -5 36.0944 9.94701   1
   1  -8  -5 42.6235 8.43238   2
  -1   8   5 47.5599 9.23304   1
   1  -8  -4-8.13276 7.53152   1
  -1   8   4-7.99177 6.58220   2
   1  -8  -4 8.71604 7.06771   2
  -1   8   4-6.20857 7.82518   1
  -1   8   3 35.2578 7.18300   1
   1  -8  -3 35.2014 7.22237   1
   1  -8  -3 32.9200 6.97309   2
  -1   8   3 31.0603 6.90709   2
   1  -8  -2 13.0957 6.41957   1
   1  -8  -2-1.67856 6.11889   2
  -1   8   2 1.43861 6.11400   2
  -1   8   2 0.78484 5.29442   1
   1  -8  -1 169.567 10.9886   1
   1  -8  -1 165.507 10.6525   2
  -1   8   1 166.736 11.0791   1
  -1   8   1 186.644 10.7268   2
   1  -8   0 2.62343 4.68917   2
   1  -8   0 3.71141 5.45130   1
  -1   8   0-4.80242 5.86151   1
  -1   8   0 9.06925 5.87575   2
  -1   8  -1 52.0115 6.51281   1
  -1   8  -1 48.1750 6.70447   2
   1  -8   1 47.9154 6.54125   1
   1  -8   1 34.9373 6.96315   2
   1  -8   2 90.5489 8.51467   2
  -1   8  -2 86.2672 7.57652   1
  -1   8  -2 96.8346 8.02833   2
   1  -8   2 96.5452 7.60669   1
  -1   8  -3 528.674 16.6352   2
  -1   8  -3 545.461 15.0922   1
   1  -8   3 530.478 16.7306   2
   1  -8   3 520.407 14.8947   1
  -1   8  -4 17.2560 6.12962   2
   1  -8   4 8.26572 5.09779   2
   1  -8   4 1.93015 4.01315   1
  -1   8  -4 7.93337 4.27299   1
  -1   8  -5 21.9115 4.61563   1
  -1   8  -5 26.6492 6.65390   2
   1  -8   5 25.8577 4.77919   1
   1  -8   5 22.1693 6.20097   2
  -1   8  -6 241.362 9.07589   1
   1  -8   6 268.533 9.65804   1
   1  -8   6 264.584 12.5192   2
  -1   8  -6 253.093 12.8664   2
  -1   8  -7-0.79363 4.91316   2
   1  -8   7 1.07436 3.46068   1
   1  -8   7 1.39441 5.30434   2
  -1   8  -7 1.59951 3.35874   1
   1  -8   8 0.27987 3.23778   1
  -1   8  -8 4.88997 3.32525   1
   1  -8   8 2.15706 6.35167   2
  -1   8  -8-2.00477 5.10723   2
  -1   8  -9 0.54608 2.91604   1
   1  -8   9 5.31617 3.01330   1
   1  -8   9 1.03233 5.70953   2
  -1   8  -9 11.3219 6.89991   2
   1  -8  10 54.7995 3.57219   1
   1  -8  10 65.9670 9.41207   2
   1  -8  10 53.3870 3.60998   1
  -1   8 -10 57.0921 8.80641   2
  -1   8 -11 13.1157 8.30316   2
   1  -8  11 16.9868 7.36574   2
  -1   8 -12 6.97237 7.38871   2
  -1   8 -13 0.99095 8.86897   2
  -1   8 -14-6.81647 9.79085   2
  -1   7   9 17.2885 12.4515   1
   1  -7  -9 39.7275 10.5589   2
   1  -7  -9 12.9838 12.1593   1
  -1   7   8 60.7732 12.2615   1
   1  -7  -8 68.8929 10.3920   2
   1  -7  -8 72.0951 13.0366   1
  -1   7   7 98.4303 11.3758   1
   1  -7  -7 101.452 11.2518   1
   1  -7  -7 93.7092 9.92327   2
  -1   7   6 59.6792 9.86663   1
   1  -7  -6 52.1729 8.23592   2
   1  -7  -5 22.3004 6.58840   1
   1  -7  -5 30.5192 6.52835   2
  -1   7   5 30.0088 8.30793   1
  -1   7   4 4.47593 6.04415   1
   1  -7  -4 0.30024 6.55418   1
   1  -7  -4 5.72646 5.44404   2
  -1   7   4 8.09550 5.37970   2
  -1   7   3 6.04557 6.09325   1
   1  -7  -3 7.32968 5.15806   2
  -1   7   3 3.62880 4.60988   2
   1  -7  -3 10.4813 5.73734   1
  -1   7   2 46.1576 6.19531   2
  -1   7   2 41.4013 7.07037   1
   1  -7  -2 47.2216 6.58255   1
   1  -7  -2 44.6274 6.18019   2
  -1   7   1 423.408 14.2499   1
   1  -7  -1 400.605 13.8405   2
  -1   7   1 401.178 13.6532   2
   1  -7  -1 402.737 14.1140   1
  -1   7   0 30.9133 5.49585   2
   1  -7   0 27.5113 5.64394   1
   1  -7   0 35.4515 5.88821   2
  -1   7   0 26.7086 5.36141   1
   1  -7   1 77.8133 6.89169   1
  -1   7  -1 81.9755 6.72212   1
   1  -7   1 79.2568 6.87775   2
  -1   7  -1 87.9982 7.22359   2
  -1   7  -2 0.82747 3.60388   2
   1  -7   2-3.86859 4.81231   2
   1  -7   2 1.08311 3.76950   1
  -1   7  -2 2.92768 3.47763   1
   1  -7   3 1.53628 3.37227   1
  -1   7  -3-5.42898 4.79566   2
  -1   7  -3 3.21969 3.45274   1
   1  -7   3-7.27921 4.73798   2
  -1   7  -4 54.2733 4.97586   1
   1  -7   4 42.7471 6.02415   2
  -1   7  -4 61.7664 6.73395   2
   1  -7   4 59.1822 5.20542   1
  -1   7  -5 4.19762 2.99004   1
  -1   7  -5 7.27269 3.98067   2
   1  -7   5 1.04303 3.09597   1
   1  -7   5-0.58633 4.47617   2
   1  -7   6 164.403 9.63006   2
  -1   7  -6 181.470 9.86618   2
  -1   7  -6 169.387 6.72661   1
   1  -7   6 174.366 7.01407   1
  -1   7  -7 6.29346 5.21549   2
   1  -7   7 16.9006 3.15537   1
   1  -7   7 17.1789 5.66086   2
  -1   7  -7 16.1468 3.07032   1
   1  -7   8 32.2359 6.74716   2
   1  -7   8 23.1908 3.08176   1
  -1   7  -8 23.2883 5.91171   2
  -1   7  -8 25.4554 3.16166   1
   1  -7   9 11.1817 2.21325   1
   1  -7   9 10.2693 6.20756   2
  -1   7  -9 8.74600 6.00360   2
   1  -7  10 316.307 14.4344   2
  -1   7 -10 331.175 14.7463   2
   1  -7  11 4.36218 6.44022   2
  -1   7 -11-5.59835 5.83827   2
  -1   7 -12 25.3754 8.52775   2
  -1   7 -13-1.78540 8.41022   2
  -1   7 -14 10.8551 9.67590   2
  -1   7 -15-9.09733 10.0156   2
   1  -6 -11-2.86486 9.06331   1
   1  -6 -11 17.8296 7.62785   2
  -1   6  10 23.9460 11.4515   1
   1  -6 -10 17.5350 11.2948   1
   1  -6 -10 8.12736 8.64439   2
   1  -6  -9 91.3538 10.2973   2
   1  -6  -9 75.4174 12.5055   1
  -1   6   9 69.8346 11.1281   1
  -1   6   8 54.0910 9.83046   1
   1  -6  -8 53.3918 8.06666   2
   1  -6  -8 70.9246 10.1693   1
   1  -6  -7 68.2705 7.99949   2
   1  -6  -7 75.4122 9.36688   1
  -1   6   7 65.5851 9.64291   1
   1  -6  -6 12.5349 5.69900   2
  -1   6   6 0.43126 5.40729   1
   1  -6  -6 15.7743 7.21904   1
   1  -6  -5 3.48148 4.58548   1
   1  -6  -5 8.50069 4.69606   2
  -1   6   5 11.0111 6.04060   1
   1  -6  -4 81.8929 7.22596   2
  -1   6   4 87.9530 8.09904   1
  -1   6   4 92.1801 7.19947   2
   1  -6  -4 76.6455 7.97872   1
   1  -6  -3 1.13458 3.84358   1
  -1   6   3 5.86546 4.30132   2
  -1   6   3 2.01315 4.91345   1
   1  -6  -3 5.96483 4.20829   2
  -1   6   2 70.0019 6.27366   2
   1  -6  -2 65.2717 6.65168   1
  -1   6   2 75.2955 6.94217   1
   1  -6  -2 77.8775 6.56040   2
   1  -6  -1 125.910 7.55957   2
  -1   6   1 138.434 7.92505   1
  -1   6   1 129.069 7.63034   2
   1  -6  -1 120.050 7.62345   1
  -1   6   0 4.77466 3.85837   1
  -1   6   0 3.31522 3.65857   2
   1  -6   0 3.31620 3.75365   2
   1  -6   0 3.47014 3.22140   1
  -1   6  -1 450.963 12.1005   1
   1  -6   1 468.100 12.9128   2
   1  -6   1 465.934 12.4118   1
  -1   6  -1 462.184 12.9183   2
   1  -6   2 13.1037 3.51332   1
  -1   6  -2 11.5528 3.90478   2
  -1   6  -2 12.8105 3.55272   1
   1  -6   2 13.7607 4.14049   2
  -1   6  -3 26.8867 4.44638   2
   1  -6   3 29.6578 3.85414   1
   1  -6   3 29.6621 4.34552   2
  -1   6  -3 28.4697 3.74778   1
  -1   6  -4 8.15253 4.19862   2
  -1   6  -4 3.43517 2.55283   1
   1  -6   4 6.94222 2.82362   1
   1  -6   4 3.14729 3.25140   2
  -1   6  -5 144.527 8.20502   2
  -1   6  -5 143.120 5.71138   1
   1  -6   5 151.842 5.88972   1
   1  -6   5 137.779 7.89450   2
  -1   6  -6 306.048 7.39030   1
   1  -6   6 314.788 11.6375   2
  -1   6  -6 317.130 11.6636   2
   1  -6   6 311.571 7.60615   1
  -1   6  -7 90.0371 7.28018   2
   1  -6   7 87.8365 7.15749   2
  -1   6  -7 83.8637 3.86650   1
   1  -6   7 88.4858 4.01490   1
  -1   6  -8 36.8307 5.94988   2
   1  -6   8 28.3593 5.16500   2
   1  -6   8 36.1739 2.44223   1
   1  -6   9 34.8704 1.61852   1
  -1   6  -9 43.7443 6.75037   2
   1  -6   9 35.4432 1.61920   1
   1  -6   9 40.0874 6.05525   2
  -1   6 -10 11.1298 6.05479   2
  -1   6 -11 11.8584 5.63029   2
  -1   6 -12-3.15546 5.83646   2
  -1   6 -13 61.5030 9.85363   2
  -1   6 -14 77.0294 11.4202   2
  -1   6 -15-1.71400 11.2822   2
   1  -5 -12 18.0270 9.90424   2
   1  -5 -12 12.2513 13.0977   1
  -1   5  11 16.9707 10.8889   1
   1  -5 -11-4.52251 10.2909   1
   1  -5 -11 4.46528 8.24481   2
   1  -5 -10 90.8666 9.66077   2
   1  -5 -10 101.985 11.2448   1
  -1   5  10 99.8866 11.3042   1
   1  -5  -9 62.1257 8.07517   2
  -1   5   9 48.5509 9.83286   1
   1  -5  -9 48.0321 9.44511   1
  -1   5   8 31.7610 7.88777   1
   1  -5  -8 24.2930 6.21793   2
   1  -5  -8 41.5985 8.35754   1
   1  -5  -7 31.9604 6.23028   1
   1  -5  -7 31.6633 5.76718   2
  -1   5   7 46.8750 7.82601   1
   1  -5  -6 6.81840 4.57244   2
  -1   5   6 9.41706 5.66168   1
   1  -5  -6 7.52782 5.75418   1
  -1   5   5 13.3032 5.14131   1
   1  -5  -5 5.79419 4.85056   1
   1  -5  -5 11.7144 4.10775   2
  -1   5   4 69.9124 6.73082   1
   1  -5  -4 66.2773 5.77751   2
   1  -5  -4 65.8910 6.42309   1
  -1   5   4 69.2633 5.70486   2
  -1   5   3-1.79836 3.44748   2
   1  -5  -3 0.31866 4.02449   1
   1  -5  -3-3.16809 3.17989   2
  -1   5   3 2.62176 3.90275   1
   1  -5  -2 118.464 6.52185   2
  -1   5   2 126.408 7.39420   1
  -1   5   2 130.026 6.84854   2
   1  -5  -2 128.326 7.18728   1
  -1   5   1 131.369 6.62166   2
  -1   5   1 134.810 7.22164   1
   1  -5  -1 125.933 6.92406   1
   1  -5  -1 129.593 6.71619   2
   1  -5   0 22.6341 3.69028   1
  -1   5   0 24.3636 3.54118   2
   1  -5   0 18.6262 3.69754   2
  -1   5   0 20.7479 3.50243   1
   1  -5   1 20.0687 3.59026   2
   1  -5   1 24.7954 3.43863   1
  -1   5  -1 21.7333 3.49906   2
  -1   5  -1 22.6080 3.35243   1
  -1   5  -2 26.8419 3.98329   2
  -1   5  -2 25.4728 3.27063   1
   1  -5   2 27.6153 4.04085   2
   1  -5   2 21.9890 3.15112   1
   1  -5   3 195.558 8.02434   2
  -1   5  -3 203.921 6.50281   1
  -1   5  -3 198.666 8.12264   2
   1  -5   3 201.414 6.51173   1
   1  -5   4 121.636 4.79201   1
  -1   5  -4 114.167 4.64941   1
   1  -5   4 122.191 6.37488   2
  -1   5  -4 120.203 6.69306   2
  -1   5  -5 114.761 4.21344   1
  -1   5  -5 119.684 6.63241   2
   1  -5   5 99.6813 6.49818   2
   1  -5   5 114.115 4.29544   1
  -1   5  -6 8.94166 1.69815   1
  -1   5  -6 10.9068 3.92948   2
   1  -5   6 10.8721 1.82757   1
   1  -5   6 15.5157 4.27000   2
   1  -5   7 5.08986 1.19841   1
   1  -5   7 2.89615 3.89742   2
  -1   5  -7 4.79737 3.72128   2
   1  -5   8 306.470 11.6251   2
  -1   5  -8 302.820 11.5999   2
  -1   5  -9 5.23271 4.60427   2
  -1   5 -10 59.5386 6.92951   2
  -1   5 -11 223.413 11.7319   2
  -1   5 -12 55.9433 8.19410   2
  -1   5 -13 164.544 11.5709   2
  -1   5 -14-3.17876 7.63198   2
  -1   5 -15 20.3306 10.1513   2
  -1   5 -16 6.34646 7.93207   2
  -1   4  13 9.33205 10.6148   1
   1  -4 -13 28.1132 11.5937   1
   1  -4 -13-10.4456 9.31211   2
   1  -4 -12 22.5588 10.3250   1
   1  -4 -12 33.5424 8.79456   2
   1  -4 -11-2.19025 9.31046   1
   1  -4 -11-4.91808 6.94226   2
  -1   4  11 6.60645 8.08230   1
   1  -4 -10 16.5679 8.26351   1
   1  -4 -10 13.9305 6.30960   2
  -1   4  10 17.4917 7.21344   1
  -1   4   9 25.2545 7.45969   1
   1  -4  -9 17.0328 6.11339   1
   1  -4  -9 14.8379 5.47435   2
   1  -4  -8 82.0958 7.03333   2
   1  -4  -8 88.4298 8.72061   1
  -1   4   8 89.8131 8.06333   1
   1  -4  -7 10.7591 5.45565   1
  -1   4   7 7.21374 4.81362   1
   1  -4  -7 13.1719 4.25494   2
   1  -4  -6 31.6182 4.56658   2
   1  -4  -6 30.2850 5.03755   1
  -1   4   6 42.3047 5.64062   1
   1  -4  -5 148.999 8.56021   1
   1  -4  -5 148.416 7.18001   2
  -1   4   5 151.410 8.47015   1
   1  -4  -4 1.29673 2.83740   2
  -1   4   4 2.51845 2.77945   2
  -1   4   4 4.01679 3.08062   1
   1  -4  -4 1.22108 2.94729   1
  -1   4   3 657.895 12.7911   2
   1  -4  -3 601.811 12.3261   2
  -1   4   3 654.171 14.4951   1
   1  -4  -3 657.357 14.5679   1
   1  -4  -2 236.342 7.72209   2
  -1   4   2 233.365 8.37318   1
   1  -4  -2 243.149 8.51535   1
  -1   4   2 242.013 7.79197   2
  -1   4   1 113.719 5.89847   1
  -1   4   1 111.255 5.45107   2
   1  -4  -1 114.165 5.53356   2
   1  -4  -1 105.176 5.71555   1
  -1   4   0 85.1530 4.84880   1
   1  -4   0 81.6596 4.79287   2
  -1   4   0 84.2289 4.82007   2
   1  -4   0 86.5892 4.73233   1
  -1   4  -1 122.498 5.20603   1
   1  -4   1 128.164 5.27069   1
   1  -4   1 122.194 5.66165   2
  -1   4  -1 117.775 5.60287   2
  -1   4  -2 203.869 7.18159   2
   1  -4   2 193.381 5.77630   1
  -1   4  -2 193.749 5.78880   1
   1  -4   2 197.774 6.89054   2
  -1   4  -3 156.391 6.53799   2
   1  -4   3 149.654 4.62529   1
  -1   4  -3 159.609 4.76757   1
   1  -4   3 155.609 6.28756   2
   1  -4   4 61.4219 4.80492   2
   1  -4   4 62.5544 2.82740   1
  -1   4  -4 58.9238 2.72468   1
  -1   4  -4 58.2726 4.46431   2
   1  -4   5 44.8316 2.04193   1
  -1   4  -5 44.2855 2.01127   1
  -1   4  -5 47.7941 4.40238   2
   1  -4   5 42.6676 4.47009   2
  -1   4  -6 203.000 8.33099   2
   1  -4   6 205.657 8.33618   2
   1  -4   6 191.426 2.88488   1
   1  -4   6 204.541 2.94277   1
   1  -4   7 8.34224 3.74576   2
  -1   4  -7 9.25115 3.80871   2
  -1   4  -8 111.907 7.30974   2
  -1   4  -9 12.8318 4.23676   2
  -1   4 -10 27.8110 5.28728   2
  -1   4 -11 52.5868 7.14504   2
  -1   4 -12-4.20157 5.91967   2
  -1   4 -13-3.33218 7.02021   2
  -1   4 -14 23.5494 7.90941   2
  -1   4 -15-1.30495 8.82454   2
  -1   4 -16 35.7607 10.9734   2
   1  -3 -14 2.78981 5.88465   2
  -1   3  14 2.03823 6.57083   1
   1  -3 -13-3.27204 10.4966   1
   1  -3 -13-0.11408 8.20845   2
  -1   3  13 12.5548 10.0422   1
   1  -3 -12 20.7913 7.16069   2
   1  -3 -12 18.0183 9.65882   1
  -1   3  12 13.1816 8.21726   1
   1  -3 -11 11.9183 5.95363   2
   1  -3 -11 4.43666 7.37552   1
  -1   3  11 9.10221 6.87366   1
   1  -3 -10 5.46823 4.76330   2
  -1   3  10 4.91631 5.50428   1
   1  -3 -10 7.08710 5.90294   1
   1  -3  -9 79.3913 8.38856   1
  -1   3   9 67.4265 7.28482   1
   1  -3  -9 79.6918 6.68908   2
   1  -3  -8 19.5323 4.24620   2
   1  -3  -8 15.1940 4.67169   1
  -1   3   8 27.3818 5.68513   1
   1  -3  -7 4.95225 4.61824   1
   1  -3  -7 1.44049 3.00629   2
  -1   3   7-6.66581 4.48771   1
   1  -3  -6 14.7128 3.86587   1
   1  -3  -6 15.6857 3.30048   2
  -1   3   6 11.2622 4.09356   1
   1  -3  -5 289.156 8.41292   2
  -1   3   5 296.552 10.2443   1
   1  -3  -5 274.807 10.0487   1
   1  -3  -4 245.289 8.91818   1
  -1   3   4 247.653 8.96783   1
   1  -3  -4 240.853 7.31846   2
   1  -3  -3 106.135 4.81530   2
  -1   3   3 106.994 4.81515   2
  -1   3   3 108.807 5.61730   1
   1  -3  -3 103.189 5.49374   1
  -1   3   2 39.3066 3.16602   2
   1  -3  -2 39.7526 3.20230   2
  -1   3   2 39.4426 3.82876   1
   1  -3  -2 45.9322 3.87224   1
  -1   3   1 108.509 5.04452   1
   1  -3  -1 121.250 4.71676   2
  -1   3   1 120.411 4.69694   2
   1  -3  -1 116.414 5.14911   1
  -1   3   0 131.166 4.87153   1
  -1   3   0 124.835 4.82489   2
   1  -3   0 133.729 4.88002   2
   1  -3   0 126.632 4.79293   1
  -1   3  -1 332.443 6.76717   1
   1  -3   1 335.162 7.59298   2
  -1   3  -1 334.106 7.55278   2
   1  -3   1 344.631 6.84061   1
  -1   3  -2 2511.68 21.0251   2
   1  -3   2 2587.53 16.1437   1
  -1   3  -2 2511.58 16.0783   1
   1  -3   2 2614.47 21.2081   2
   1  -3   3 52.1377 3.55686   2
  -1   3  -3 52.0530 3.64391   2
  -1   3  -3 50.7056 2.14985   1
   1  -3   3 49.1436 2.12926   1
  -1   3  -4 102.748 5.27787   2
  -1   3  -4 105.751 2.07629   1
   1  -3   4 108.743 5.13821   2
   1  -3   4 109.163 2.12748   1
   1  -3   5 34.2304 3.54437   2
  -1   3  -5 29.2513 3.55741   2
  -1   3  -6 56.9152 4.93144   2
  -1   3  -7 42.1033 4.61665   2
  -1   3  -8 72.4256 5.97332   2
   1  -3   9 110.722 2.63247   1
  -1   3  -9 122.956 7.48758   2
   1  -3   9 109.942 2.58130   1
  -1   3 -10 9.53701 4.79369   2
   1  -3  10 5.35378 1.29872   1
   1  -3  10 6.35766 1.36756   1
   1  -3  11 144.300 4.21567   1
   1  -3  11 162.245 4.33188   1
  -1   3 -11 160.610 9.88341   2
  -1   3 -12 0.38534 5.76833   2
   1  -3  12 3.46068 1.83597   1
   1  -3  12 3.70514 1.95915   1
   1  -3  13-0.70834 2.23090   1
  -1   3 -13 5.03166 6.39815   2
  -1   3 -14-4.12533 7.36813   2
   1  -3  14 3.59186 2.61488   1
  -1   3 -15 159.890 13.8179   2
   1  -3  15 128.470 4.80516   1
  -1   3 -16-12.9388 9.90828   2
   1  -2 -14 48.3012 11.0877   1
   1  -2 -14 34.2587 8.69487   2
   1  -2 -14 38.7648 9.24396   2
  -1   2  14 16.3118 10.1437   1
   1  -2 -13 25.4321 7.34134   2
   1  -2 -13 32.4862 9.95095   1
  -1   2  13 29.4356 8.59550   1
   1  -2 -12 4.82789 5.76418   2
  -1   2  12-2.33234 7.03550   1
   1  -2 -12 4.78973 7.08171   1
  -1   2  11 33.8604 7.09754   1
   1  -2 -11 30.7960 7.11403   1
   1  -2 -11 32.9978 5.79946   2
   1  -2 -10 43.2167 6.89841   1
  -1   2  10 43.4240 6.91750   1
   1  -2 -10 39.5599 5.36126   2
  -1   2   9 265.081 11.3434   1
   1  -2  -9 261.547 11.6794   1
   1  -2  -9 271.204 9.69677   2
  -1   2   8 15.2247 4.56106   1
   1  -2  -8 14.2829 4.08772   1
   1  -2  -8 9.86139 3.34416   2
   1  -2  -7 82.4022 5.12297   2
   1  -2  -7 80.8138 6.21454   1
  -1   2   7 76.7956 6.27091   1
  -1   2   6 73.2782 5.82411   1
   1  -2  -6 76.2290 4.49408   2
   1  -2  -6 63.8494 5.32508   1
   1  -2  -5 892.670 15.8925   1
   1  -2  -5 881.452 12.4674   2
  -1   2   5 861.711 15.5779   1
  -1   2   4 128.471 5.82810   1
   1  -2  -4 122.964 4.57357   2
   1  -2  -4 120.803 5.80321   1
  -1   2   3 199.065 6.80224   1
  -1   2   3 204.378 5.25149   2
   1  -2  -3 184.690 6.63444   1
   1  -2  -3 205.495 5.28253   2
  -1   2   2 2578.67 16.7842   2
  -1   2   2 2532.10 21.0151   1
   1  -2  -2 2640.46 21.5650   1
   1  -2  -2 2625.51 16.9480   2
   1  -2  -1 1131.81 10.8452   2
  -1   2   1 1124.97 12.7331   1
  -1   2   1 1133.98 10.8570   2
   1  -2  -1 1100.22 12.7112   1
   1  -2   0 912.372 10.2659   1
  -1   2   0 931.909 10.0260   2
   1  -2   0 865.482 9.62982   2
  -1   2   0 914.171 10.2381   1
   1  -2   1 501.236 6.59048   1
  -1   2  -1 541.238 8.11646   2
  -1   2  -1 516.230 6.63994   1
   1  -2   1 520.209 7.91626   2
   1  -2   2 1285.80 8.31237   1
   1  -2   2 1265.67 13.3013   2
  -1   2  -2 1265.00 13.2131   2
  -1   2  -2 1277.24 8.20040   1
  -1   2  -3 871.806 12.0509   2
   1  -2   3 885.864 12.1117   2
  -1   2  -4 757.178 12.1956   2
  -1   2  -5 0.26086 2.06079   2
  -1   2  -6 4.48248 2.73269   2
   1  -2   6 7.56251 0.71306   1
   1  -2   6 5.87669 0.71225   1
  -1   2  -7 20.8786 3.74005   2
   1  -2   7 18.6204 1.44718   1
  -1   2  -8 350.171 11.1135   2
   1  -2   8 357.171 6.10728   1
  -1   2  -8 340.875 6.08732   1
   1  -2   9-0.69232 1.76761   1
  -1   2  -9 0.02859 1.82927   1
  -1   2  -9 2.70402 3.28315   2
  -1   2 -10 30.3919 5.62928   2
   1  -2  10 22.9841 2.79748   1
   1  -2  11 17.5541 3.02648   1
  -1   2 -11 20.9015 5.85534   2
   1  -2  12 125.401 5.89767   1
  -1   2 -12 137.849 10.2468   2
   1  -2  12 121.256 5.74879   1
   1  -2  13 13.4429 3.91677   1
   1  -2  13 13.1564 3.91773   1
  -1   2 -13 18.7213 7.13064   2
   1  -2  14 2.54676 4.10742   1
   1  -2  14 1.97591 4.25936   1
   1  -2  15 15.5989 4.85513   1
   1  -2  15 19.9894 5.00928   1
  -1   2 -15 14.7955 8.94494   2
  -1   1  15 16.7485 10.2888   1
   1  -1 -15 25.6392 9.61408   2
   1  -1 -15 22.5578 11.0209   1
   1  -1 -15 16.9104 9.21256   2
   1  -1 -14 58.2355 10.6051   1
   1  -1 -14 68.9833 9.05723   2
  -1   1  14 61.4850 10.3785   1
   1  -1 -14 72.1261 9.18867   2
   1  -1 -13 10.2250 7.71200   1
  -1   1  13-5.82323 7.32147   1
   1  -1 -13 1.38019 5.76037   2
   1  -1 -13 6.96056 5.82308   2
   1  -1 -12 22.6587 5.58109   2
  -1   1  12 14.6348 6.26554   1
   1  -1 -12 10.6758 6.61913   1
   1  -1 -11 26.5725 5.14516   2
   1  -1 -11 23.4942 5.99868   1
  -1   1  11 28.7774 5.99553   1
   1  -1 -10 7.06393 3.82421   2
   1  -1 -10 9.78147 4.88589   1
  -1   1  10 0.44832 4.15499   1
  -1   1   9 29.2292 5.00521   1
   1  -1  -9 36.1884 4.30511   2
   1  -1  -9 36.1850 5.40917   1
  -1   1   8 43.4359 5.08230   1
   1  -1  -8 44.0136 4.07303   2
   1  -1  -8 40.3483 4.85478   1
   1  -1  -7 324.912 8.25220   2
   1  -1  -7 296.897 10.1154   1
  -1   1   7 306.337 10.0078   1
   1  -1  -6 5.70308 2.09932   2
  -1   1   6 4.48743 2.90911   1
   1  -1  -6 3.78217 2.51651   1
  -1   1   5 203.362 7.15556   1
   1  -1  -5 207.234 5.40152   2
   1  -1  -5 202.733 7.23455   1
   1  -1  -4 188.662 4.49415   2
   1  -1  -4 193.704 6.64615   1
  -1   1   4 192.189 6.44300   1
   1  -1  -3 227.681 4.17586   2
   1  -1  -3 228.299 6.57331   1
  -1   1   3 224.357 6.44420   1
   1  -1  -2 1191.36 8.02636   2
  -1   1   2 1129.90 12.6183   1
  -1   1   2 1156.97 7.90100   2
   1  -1  -2 1193.66 13.0188   1
  -1   1   1 1835.10 9.78241   2
  -1   1   1 1843.53 14.2394   1
   1  -1  -1 1868.73 9.78545   2
   1  -1  -1 1841.66 14.3656   1
   1  -1   0 3.46770 1.43752   1
   1  -1   0 6.21771 1.21245   2
  -1   1   0 2.89819 1.24333   1
  -1   1   0 3.47610 1.09704   2
  -1   1  -1 122.884 3.53600   2
  -1   1  -1 116.044 2.71670   1
   1  -1   1 114.072 3.51328   2
  -1   1  -2 77.9379 1.72920   1
  -1   1  -2 80.9411 3.49475   2
  -1   1  -3-0.73038 2.02687   2
  -1   1  -4 8.81320 0.97334   1
   1  -1   4 10.4445 1.01418   1
   1  -1   5 818.719 7.85886   1
  -1   1  -5 825.672 7.92478   1
  -1   1  -6 458.231 6.99894   1
   1  -1   6 451.166 6.91545   1
  -1   1  -7 153.012 4.76940   1
   1  -1   7 154.058 4.80204   1
  -1   1  -8 0.57805 2.00809   1
   1  -1   8 6.58934 2.16562   1
  -1   1  -8 1.62003 3.37648   2
  -1   1  -9 123.145 7.89575   2
   1  -1   9 120.253 5.28442   1
  -1   1  -9 116.066 5.28802   1
  -1   1 -10 1.22262 2.95971   1
   1  -1  10 1.35342 2.78276   1
  -1   1 -10 1.04840 4.34514   2
   1  -1  11 44.9933 4.55522   1
  -1   1 -11 44.1589 4.65029   1
  -1   1 -11 53.5994 7.08778   2
  -1   1 -12 11.4361 4.07052   1
   1  -1  12 9.23711 3.93256   1
  -1   1 -12 4.23313 5.47991   2
   1  -1  13 149.192 8.08506   1
  -1   1 -13 173.836 8.73736   1
  -1   1 -13 138.070 11.0444   2
  -1   1 -14 15.4178 8.49410   2
  -1   1 -14 11.4707 5.85234   1
   1  -1  14 7.90492 5.52435   1
   1  -1  15 54.2252 7.31284   1
  -1   1 -15 43.7622 10.8375   2
  -1   0  15-17.3925 9.31665   1
   1   0 -15 6.58288 7.73885   2
   1   0 -15 4.39030 9.13092   1
   1   0 -15 2.85129 8.41841   2
   1   0 -14 9.64819 6.66546   2
  -1   0  14 18.8738 7.79964   1
   1   0 -14 4.72790 6.64468   2
   1   0 -14 2.97808 8.03052   1
   1   0 -13 55.7490 7.04928   2
  -1   0  13 42.1201 7.64383   1
   1   0 -13 40.0119 7.84233   1
  -1   0  12 22.7466 6.28192   1
   1   0 -12 43.4118 6.01669   2
   1   0 -12 43.2246 6.86827   1
  -1   0  11 511.728 15.1451   1
   1   0 -11 542.328 13.8157   2
   1   0 -11 551.301 16.1733   1
  -1   0  10 24.2210 4.84381   1
   1   0 -10 25.7184 4.13837   2
   1   0 -10 26.0324 5.21642   1
   1   0  -9-3.43822 3.72479   1
  -1   0   9 4.67642 3.71405   1
   1   0  -8 103.660 6.45898   1
  -1   0   8 96.0665 6.15800   1
   1   0  -7 4.98444 3.14130   1
  -1   0   7 3.58693 2.93649   1
  -1   0   6 88.1584 4.93877   1
   1   0  -6 90.9918 5.33900   1
  -1   0   5 16.3845 2.66885   1
   1   0  -5 15.1270 2.59386   1
   1   0  -4 670.247 11.0340   1
  -1   0   4 662.174 10.7832   1
   1   0  -3 770.006 10.7411   1
  -1   0   3 771.585 10.7287   1
  -1   0   2 111.633 4.08759   1
   1   0  -2 113.806 4.00625   1
  -1   0   1 33.6493 2.36655   1
  -1   0   1 39.3014 2.24922   1
   1   0   0 1585.55 11.0517   1
  -1   0   0 1584.88 11.0469   1
   1   0   1 3.08481 1.16155   1
  -1   0  -1 2.44964 1.10367   1
   1   0   2 314.061 4.90341   1
  -1   0  -2 318.997 4.95147   1
  -1   0  -3 7.65293 1.40589   1
   1   0   3 11.8365 1.50566   1
   1   0   4 706.272 8.87087   1
  -1   0  -4 689.798 8.79671   1
  -1   0  -5 21.6552 2.36082   1
   1   0   5 17.0386 2.14884   1
   1   0   6 23.8062 2.66446   1
  -1   0  -6 26.5231 2.77239   1
   1   0   7 115.327 5.15348   1
  -1   0  -7 114.138 5.07687   1
  -1   0  -8 9.01969 2.81972   1
   1   0   8 8.59537 2.87027   1
  -1   0  -9 12.6094 3.31492   1
   1   0   9 16.5172 3.39006   1
  -1   0 -10 104.602 6.53574   1
   1   0  10 95.5723 6.08170   1
  -1   0 -11 28.0286 4.86151   1
   1   0  11 25.1777 4.89934   1
   1   0  12 147.497 8.48411   1
  -1   0 -12 142.003 10.7371   2
  -1   0 -12 142.527 8.55949   1
  -1   0 -13 117.426 11.3546   2
   1   0  13 106.694 8.30438   1
  -1   0 -13 95.4876 8.35826   1
  -1   0 -14 9.33987 6.92925   1
  -1   0 -14 2.07682 8.45700   2
   1   0  14-1.46682 6.15342   1
  -1   0 -15 20.3573 11.5156   2
   1   0  15 31.2373 8.27069   1
  -1   0 -15 21.3948 8.27689   1
  -1  -1  16-2.60856 8.85957   1
   1   1 -16 7.38974 8.90769   2
  -1  -1  16-8.38244 9.08222   1
   1   1 -15-3.04539 6.84911   2
  -1  -1  15 8.24242 7.88460   1
  -1  -1  15-3.17404 7.70018   1
   1   1 -14 54.7991 7.44413   2
  -1  -1  14 49.0064 8.03572   1
  -1  -1  14 51.4177 8.06930   1
  -1  -1  13 19.4057 6.04469   1
   1   1 -13 17.8941 5.59691   2
  -1  -1  12 84.9594 7.52808   1
   1   1 -12 97.3487 8.21187   1
   1   1 -12 78.4456 6.71161   2
   1   1 -11 44.9503 6.01283   1
   1   1 -11 48.1985 5.29503   2
  -1  -1  11 44.3417 5.56998   1
   1   1 -10 74.5690 5.48735   2
   1   1 -10 65.8265 6.17389   1
  -1  -1  10 63.3768 5.86785   1
  -1  -1   9 3.17606 3.29014   1
   1   1  -9 1.36793 2.57603   2
   1   1  -9 2.31268 3.24478   1
   1   1  -8 14.4460 2.76310   2
   1   1  -8 18.1010 3.53815   1
  -1  -1   8 18.2094 3.60965   1
   1   1  -7 28.6062 2.83737   2
   1   1  -7 28.9412 3.77385   1
  -1  -1   7 27.5038 3.52630   1
   1   1  -6 149.923 6.15876   1
  -1  -1   6 151.333 6.10406   1
   1   1  -6 149.454 4.66051   2
  -1  -1   5 652.059 11.1479   1
   1   1  -5 648.138 8.09157   2
   1   1  -4 4082.24 17.2949   2
  -1  -1   4 4031.82 25.6342   1
  -1  -1   4 4093.86 17.3306   2
  -1  -1   4 4055.84 25.0250   1
  -1  -1   3 3987.47 14.5941   2
   1   1  -3 3938.95 14.7361   2
  -1  -1   3 3955.04 23.0076   1
  -1  -1   3 3940.54 23.7279   1
  -1  -1   2 2.65704 0.91379   2
  -1  -1   2 0.21434 1.67132   1
   1   1  -2 1.98515 1.64671   1
   1   1  -2 2.78721 0.96394   2
   1   1  -1 5.17313 1.79744   1
  -1  -1   1 2.70769 1.71813   1
   1   1  -1 0.99585 1.04890   2
  -1  -1   1 1.78552 1.14843   2
   1   1   0 53.3342 2.83974   1
  -1  -1   0 50.7214 2.55959   2
  -1  -1   0 53.6231 2.82879   1
   1   1   1 261.208 5.54855   1
  -1  -1  -1 257.830 5.55818   1
  -1  -1  -2 408.732 7.32216   1
   1   1   2 431.825 7.45505   1
  -1  -1  -3 32.9469 2.76651   1
   1   1   3 31.2363 2.72608   1
   1   1   4 560.803 9.84005   1
  -1  -1  -4 565.291 9.90099   1
   1   1   5 36.3604 3.33788   1
  -1  -1  -5 38.4267 3.45129   1
   1   1   6 145.791 6.15152   1
  -1  -1  -6 137.934 6.01815   1
   1   1   7 11.1161 3.11620   1
  -1  -1  -7 11.9480 3.15765   1
   1   1   8 153.417 7.23910   1
  -1  -1  -8 155.827 7.25198   1
  -1  -1  -9 56.2469 5.40482   1
   1   1   9 65.1443 5.68110   1
   1   1  10 73.4869 6.40878   1
  -1  -1 -10 74.9219 6.48455   1
   1   1  11 19.7255 5.20564   1
  -1  -1 -11 24.4784 5.61690   1
  -1  -1 -12 4.54668 5.78883   1
   1   1  12-2.69091 5.32659   1
  -1  -1 -13 27.2017 7.46532   1
   1   1  13 33.5510 7.50256   1
  -1  -1 -14 9.00489 8.29078   1
  -1  -1 -14 7.65699 10.5360   2
   1   1  14-14.5626 8.41225   1
  -1  -1 -14 0.90630 10.0272   2
   1   2 -16-4.98590 8.60154   2
  -1  -2  16-6.03234 8.72504   1
  -1  -2  16-9.92351 9.00903   1
   1   2 -15 3.16168 7.22528   2
  -1  -2  15 4.17667 6.94337   1
  -1  -2  15-3.56068 6.78132   1
   1   2 -14 13.5517 5.95029   2
  -1  -2  14 9.66857 6.19118   1
  -1  -2  14 15.8533 6.14096   1
  -1  -2  13-1.27903 4.92004   1
  -1  -2  13 3.49327 5.12872   1
   1   2 -13 2.12645 4.60947   2
  -1  -2  12 2.20016 4.33338   1
  -1  -2  12-6.41495 4.46440   1
   1   2 -12-3.75726 4.25067   2
  -1  -2  11 4.55803 3.93802   1
   1   2 -11-3.98548 3.58489   2
  -1  -2  11-1.06091 3.76983   1
  -1  -2  10 23.6928 4.24547   1
  -1  -2  10 23.4068 4.26991   1
   1   2 -10 19.1443 3.83843   2
  -1  -2   9 8.42321 3.28649   1
   1   2  -9 8.20008 2.83118   2
  -1  -2   9 2.43228 3.13050   1
  -1  -2   8-0.89831 2.67995   1
   1   2  -8 4.99911 2.39135   2
  -1  -2   8 8.62261 2.88786   1
  -1  -2   7 68.9747 4.47949   1
   1   2  -7 71.8132 4.00677   2
  -1  -2   7 70.5012 4.63929   1
  -1  -2   6 142.807 5.72445   1
  -1  -2   6 142.267 5.87823   1
   1   2  -6 139.996 4.85347   2
  -1  -2   6 139.044 4.84664   2
   1   2  -5 107.067 3.94495   2
  -1  -2   5 109.283 4.93577   1
  -1  -2   5 102.561 4.69801   1
  -1  -2   5 99.7653 3.80183   2
   1   2  -4 161.676 4.43060   2
   1   2  -4 162.278 5.44606   1
  -1  -2   4 165.357 5.47177   1
  -1  -2   4 160.110 4.37341   2
  -1  -2   3 156.229 4.21636   2
  -1  -2   3 151.485 4.91538   1
   1   2  -3 152.668 4.19459   2
   1   2  -3 151.921 5.06260   1
   1   2  -2 13.0506 2.30830   1
  -1  -2   2 14.7148 2.32184   1
   1   2  -2 15.8882 1.87474   2
  -1  -2   2 15.1214 1.89933   2
  -1  -2   1 359.826 6.74771   2
   1   2  -1 357.875 6.68846   2
   1   2  -1 360.225 7.37310   1
  -1  -2   1 367.496 7.45253   1
  -1  -2   0 1.22361 1.82436   1
  -1  -2   0 2.18840 1.58960   2
   1   2   0 6.10945 2.19065   1
   1   2   0 5.98760 2.06072   2
  -1  -2  -1 1320.97 14.8064   2
  -1  -2  -1 1301.80 14.6397   1
   1   2   1 1293.36 14.5635   1
  -1  -2  -2 3164.68 24.0003   1
  -1  -2  -2 3203.29 24.8501   2
   1   2   2 3181.01 23.9824   1
   1   2   3 843.895 13.1868   1
  -1  -2  -3 815.381 13.6097   2
  -1  -2  -3 846.072 13.2898   1
  -1  -2  -4 41.6474 3.94853   1
  -1  -2  -4 39.7585 4.00717   2
   1   2   4 37.0579 3.79069   1
   1   2   5 13.0409 3.26698   1
  -1  -2  -5 15.4024 3.35797   1
   1   2   6 0.09156 2.72771   1
  -1  -2  -6 3.94721 3.23837   1
   1   2   7 15.4109 4.05711   1
  -1  -2  -7 21.5039 4.17227   1
  -1  -2  -8 17.8428 4.49995   1
   1   2   8 11.5018 4.24617   1
  -1  -2  -9 42.6658 6.84709   2
   1   2   9 44.5817 5.81974   1
  -1  -2  -9 40.7696 5.76017   1
  -1  -2 -10 8.42021 6.22436   2
   1   2  10 9.99833 5.14811   1
  -1  -2 -10 7.12491 5.20135   1
   1   2  11-0.24830 5.50455   1
  -1  -2 -11 2.81555 6.24947   2
  -1  -2 -11-2.38385 5.77692   1
   1   2  12 9.77329 6.83071   1
  -1  -2 -12 11.8949 7.09355   1
  -1  -2 -12 0.67342 8.35025   2
  -1  -2 -13-0.51563 9.21894   2
  -1  -2 -13 14.1912 8.29709   1
   1   2  13-6.70714 8.10805   1
   1   2  14 15.2737 7.79642   1
  -1  -2 -14-4.90349 9.33083   2
  -1  -2 -14-2.87751 7.76664   1
  -1  -3  16 0.82175 7.55138   1
   1   3 -16 17.1314 8.23503   2
  -1  -3  16 8.85061 7.51816   1
  -1  -3  15 39.9453 7.71838   1
  -1  -3  15 19.9367 6.96894   1
   1   3 -15 34.4953 7.68582   2
   1   3 -14-1.08962 5.89333   2
  -1  -3  14 3.75554 5.63053   1
  -1  -3  14-2.56393 5.58242   1
  -1  -3  13 20.6003 5.24958   1
   1   3 -13 22.9110 5.50201   2
  -1  -3  13 17.3121 5.19593   1
  -1  -3  12-3.84701 4.43972   1
  -1  -3  12 0.41594 4.25841   1
   1   3 -12 3.23764 4.22666   2
   1   3 -11 159.213 7.95666   2
  -1  -3  11 175.953 8.41810   1
  -1  -3  11 166.200 8.12391   1
  -1  -3  10 4.13301 3.23759   1
   1   3 -10 6.14196 3.37589   2
  -1  -3  10 4.94708 3.35727   1
   1   3  -9 419.895 10.7125   2
  -1  -3   9 428.416 11.0556   1
  -1  -3   9 406.969 10.9927   1
  -1  -3   8 33.9790 3.94800   1
  -1  -3   8 35.2266 3.91323   1
   1   3  -8 33.7431 3.65837   2
  -1  -3   7 15.6799 2.96820   1
   1   3  -7 16.2489 2.82816   2
  -1  -3   7 12.7522 2.64891   2
  -1  -3   7 17.6650 3.19902   1
   1   3  -6 84.5215 4.36348   2
  -1  -3   6 74.0248 4.16184   2
  -1  -3   6 71.6581 4.42091   1
   1   3  -6 75.8604 4.54565   1
   1   3  -5 246.497 6.69446   2
   1   3  -5 252.723 7.28660   1
  -1  -3   5 241.136 7.09942   1
  -1  -3   5 242.256 6.60209   2
  -1  -3   4 272.837 7.36285   1
  -1  -3   4 282.842 6.91060   2
   1   3  -4 273.743 7.43086   1
   1   3  -4 270.799 6.85095   2
   1   3  -3 577.608 10.3791   1
  -1  -3   3 572.092 9.69573   2
   1   3  -3 577.673 9.70776   2
  -1  -3   3 583.912 10.4519   1
   1   3  -2 578.705 9.91390   2
  -1  -3   2 567.514 9.84978   2
  -1  -3   2 589.578 10.4804   1
   1   3  -2 566.278 10.3641   1
   1   3  -1 12.1468 2.52548   2
   1   3  -1 8.07853 2.55108   1
  -1  -3   1 10.9167 2.52667   2
  -1  -3   1 9.40643 2.62198   1
   1   3   0 1351.81 16.2473   2
  -1  -3   0 1350.52 16.5895   1
   1   3   0 1341.66 16.4747   1
  -1  -3   0 1296.18 15.9724   2
  -1  -3  -1 240.834 7.53304   1
   1   3   1 222.941 7.31222   2
   1   3   1 219.398 7.24322   1
  -1  -3  -1 221.650 7.18366   2
  -1  -3  -2 4.31267 2.76164   1
  -1  -3  -2 5.31107 2.46526   2
   1   3   2 4.89345 2.33510   1
   1   3   3 18.3736 3.58779   1
  -1  -3  -3 16.1810 3.52515   2
  -1  -3  -3 13.1815 3.13829   1
   1   3   4 25.6084 3.73790   1
  -1  -3  -4 30.5808 4.27585   1
  -1  -3  -4 30.3840 4.13324   2
  -1  -3  -5 88.7706 6.20860   1
  -1  -3  -5 87.5794 6.44837   2
   1   3   5 91.6734 6.24055   1
  -1  -3  -6 525.242 14.0552   1
   1   3   6 540.774 14.1826   1
  -1  -3  -6 520.222 14.5272   2
  -1  -3  -7 13.2623 4.77354   1
   1   3   7 12.7328 4.40669   1
  -1  -3  -7 14.8537 4.39567   2
  -1  -3  -8 635.526 17.6837   2
   1   3   8 603.207 16.4608   1
  -1  -3  -8 614.470 16.7296   1
   1   3   9 44.0047 6.87958   1
  -1  -3  -9 39.9033 7.51073   2
  -1  -3  -9 32.3431 6.21281   1
  -1  -3 -10 41.4296 7.50480   2
   1   3  10 45.7883 7.33614   1
  -1  -3 -10 52.2891 8.00815   1
   1   3  11-7.39456 7.35949   1
  -1  -3 -11 6.23353 6.94745   1
  -1  -3 -11-7.57117 7.39236   2
  -1  -3 -12 5.60726 8.26574   1
   1   3  12-3.64826 8.01437   1
  -1  -3 -12 0.50896 8.85383   2
  -1  -3 -13 41.1316 11.3784   1
   1   3  13 48.7846 11.3140   1
  -1  -4  16 12.8389 7.32974   1
   1   4 -16 25.5258 8.64396   2
  -1  -4  16 15.8041 7.37099   1
   1   4 -15 5.69783 7.29531   2
  -1  -4  15 7.21361 6.45621   1
  -1  -4  15 4.85161 6.55866   1
  -1  -4  14 31.6091 6.26867   1
  -1  -4  14 35.1490 6.37347   1
   1   4 -14 23.6727 6.78365   2
  -1  -4  13 17.8808 5.09245   1
  -1  -4  13 11.3265 4.81799   1
   1   4 -13 17.5599 5.65419   2
  -1  -4  12 14.5437 4.49784   1
   1   4 -12 7.51577 4.75664   2
  -1  -4  12 6.37165 4.46977   1
  -1  -4  11 122.626 7.28255   1
  -1  -4  11 127.641 7.21854   1
   1   4 -11 119.967 7.50786   2
   1   4 -10 51.1562 5.25412   2
  -1  -4  10 53.5845 5.05470   1
  -1  -4  10 56.2509 5.23452   1
   1   4  -9 128.495 6.81105   2
  -1  -4   9 140.041 6.70782   1
  -1  -4   9 134.601 6.90831   2
  -1  -4   9 132.855 6.84012   1
  -1  -4   8 113.945 6.18100   1
  -1  -4   8 114.748 5.96938   1
   1   4  -8 113.320 6.09218   2
  -1  -4   8 105.119 5.89404   2
  -1  -4   7 209.199 7.42318   1
  -1  -4   7 204.048 7.49867   2
   1   4  -7 202.941 7.37687   1
   1   4  -7 208.052 7.55205   2
  -1  -4   6 43.5450 3.85151   2
  -1  -4   6 48.9316 4.06097   1
   1   4  -6 49.9690 4.22213   2
   1   4  -6 45.5865 4.04428   1
  -1  -4   5 48.8106 3.99559   2
   1   4  -5 51.0812 4.14810   1
   1   4  -5 49.0588 3.97430   2
  -1  -4   5 52.3322 4.12461   1
   1   4  -4 14.1864 2.96577   2
  -1  -4   4 13.0484 2.85658   2
  -1  -4   4 18.5966 3.10007   1
   1   4  -4 12.3850 2.78925   1
   1   4  -3 33.9600 3.64653   2
   1   4  -3 36.5701 3.72184   1
  -1  -4   3 34.7361 3.55955   2
  -1  -4   3 39.9296 3.53151   1
  -1  -4   2 879.113 14.1983   2
   1   4  -2 899.858 14.2935   2
   1   4  -2 882.709 14.4993   1
  -1  -4   2 892.859 14.5907   1
   1   4  -1 9.31296 2.96825   2
  -1  -4   1 11.7711 2.92637   2
  -1  -4   1 6.13015 2.96655   1
   1   4  -1 7.53519 3.01200   1
   1   4   0 47.3423 3.99587   2
  -1  -4   0 53.4296 4.42313   1
   1   4   0 53.6173 4.56078   1
  -1  -4   0 54.4922 4.37114   2
  -1  -4  -1 21.7883 3.83379   2
  -1  -4  -1 25.6895 3.56756   1
   1   4   1 24.3091 3.56479   1
   1   4   1 21.9442 3.54620   2
   1   4   2 4.39200 3.38999   1
  -1  -4  -2 1.47157 2.63228   2
  -1  -4  -2-1.34498 2.46838   1
  -1  -4  -3 19.6089 4.22748   2
   1   4   3 20.0728 4.15865   1
  -1  -4  -3 15.7677 4.05148   1
   1   4   4 2.06682 3.75797   1
  -1  -4  -4-1.69195 3.24114   1
  -1  -4  -4-1.03997 3.03336   2
  -1  -4  -5 261.193 10.9176   2
   1   4   5 249.989 10.6240   1
  -1  -4  -5 264.554 10.6267   1
   1   4   6 41.3559 6.10461   1
  -1  -4  -6 42.2189 6.11759   1
  -1  -4  -6 56.0691 6.42705   2
  -1  -4  -7 16.5744 5.99513   2
   1   4   7 7.66357 5.31817   1
  -1  -4  -7 17.5055 5.92237   1
  -1  -4  -8 6.37752 5.77691   1
   1   4   8 1.76012 5.78001   1
  -1  -4  -8 8.58261 6.41306   2
   1   4   9 7.74674 6.25427   1
  -1  -4  -9-1.32826 6.18800   1
  -1  -4  -9 8.90437 7.19718   2
  -1  -4 -10-0.33509 7.41770   2
  -1  -4 -10 7.99475 7.32432   1
   1   4  10-4.62752 7.88032   1
  -1  -4 -11 15.4124 9.55951   2
   1   4  11 7.75923 8.70986   1
  -1  -4 -11-9.86979 8.82792   1
  -1  -4 -12 15.3200 11.5399   2
  -1  -4 -12 1.19047 10.5407   1
   1   5 -16-4.40740 9.32398   2
  -1  -5  16-6.64704 6.80405   1
  -1  -5  16 8.13187 6.85695   1
  -1  -5  15 14.0729 6.38794   1
   1   5 -15 23.3247 8.22542   2
  -1  -5  15 11.0718 6.29977   1
  -1  -5  14 5.82322 5.14948   1
   1   5 -14 4.92119 6.34058   2
  -1  -5  14-2.58922 5.00241   1
   1   5 -13 119.840 9.19855   2
  -1  -5  13 131.554 8.03613   1
  -1  -5  13 127.849 8.23502   1
  -1  -5  12 27.0581 4.91341   1
   1   5 -12 33.3855 6.12878   2
  -1  -5  12 32.8664 5.39420   1
   1   5 -11 151.748 8.67367   2
  -1  -5  11 145.762 7.72139   1
  -1  -5  11 128.919 7.55852   1
  -1  -5  10 177.620 7.99716   1
  -1  -5  10 165.229 8.52537   2
   1   5 -10 151.174 8.23503   2
  -1  -5  10 164.310 8.09706   1
  -1  -5   9 0.63987 3.08318   1
  -1  -5   9 2.24289 3.71251   2
   1   5  -9 2.84006 3.52998   2
  -1  -5   9 4.93551 3.46105   1
  -1  -5   8 70.1931 5.27198   1
   1   5  -8 69.1530 5.74244   2
  -1  -5   8 69.6701 5.55609   2
   1   5  -8 64.7577 5.21557   1
   1   5  -7 38.2758 4.29878   1
   1   5  -7 37.9272 4.47324   2
  -1  -5   7 38.5148 4.32234   2
  -1  -5   7 32.0279 3.94020   1
   1   5  -6 122.539 6.46327   2
  -1  -5   6 126.647 6.68499   2
   1   5  -6 133.978 6.56724   1
  -1  -5   6 128.059 6.35663   1
  -1  -5   5 117.863 6.09310   1
  -1  -5   5 113.471 6.16875   2
   1   5  -5 122.399 6.33783   1
   1   5  -5 121.777 6.49472   2
  -1  -5   4-0.40957 2.69370   2
  -1  -5   4 0.37512 2.62284   1
   1   5  -4 1.21372 2.59922   2
   1   5  -4-0.34638 2.82589   1
  -1  -5   3 371.409 10.4714   2
   1   5  -3 359.017 10.3912   2
   1   5  -3 365.524 10.4481   1
  -1  -5   3 363.578 10.4352   1
   1   5  -2 20.8593 3.39804   2
  -1  -5   2 27.3458 4.10886   2
  -1  -5   2 26.8250 3.92422   1
   1   5  -2 17.2445 3.49771   1
   1   5  -1 13.0089 3.78547   2
  -1  -5   1 8.70169 3.56779   2
  -1  -5   1 9.74399 3.21332   1
   1   5  -1 8.24308 3.45451   1
  -1  -5   0 4.63789 3.54141   1
   1   5   0 3.29570 3.25671   2
  -1  -5   0 2.18360 3.30399   2
   1   5   0 1.72622 3.06940   1
   1   5   1 145.356 7.61089   2
  -1  -5  -1 142.016 7.93889   1
  -1  -5  -1 147.229 7.72843   2
   1   5   1 139.470 7.82604   1
  -1  -5  -2 452.441 13.5283   1
  -1  -5  -2 444.293 13.2682   2
   1   5   2 439.091 13.1092   2
   1   5   2 421.243 13.0622   1
  -1  -5  -3 99.7041 7.49900   2
  -1  -5  -3 98.3373 7.22533   1
   1   5   3 103.852 7.66059   1
  -1  -5  -4 216.294 10.5658   1
  -1  -5  -4 205.770 9.98617   2
   1   5   4 196.658 10.1521   1
  -1  -5  -5 61.7952 7.18312   2
   1   5   5 60.6361 7.20453   1
  -1  -5  -5 56.9533 6.90921   1
  -1  -5  -6 13.0304 5.19390   2
   1   5   6 21.7842 5.68943   1
  -1  -5  -6 19.5058 6.33130   1
  -1  -5  -7-4.02261 6.42569   2
   1   5   7 6.29519 5.72029   1
  -1  -5  -7 5.38648 6.54908   1
   1   5   8 16.1324 6.78148   1
  -1  -5  -8-2.91884 6.45791   1
  -1  -5  -8 1.26728 6.12079   2
  -1  -5  -9 39.2984 8.46436   2
  -1  -5  -9 28.3100 8.25278   1
   1   5   9 39.8661 9.16084   1
   1   5  10-0.93889 8.89848   1
  -1  -5 -10-12.7675 9.54766   2
  -1  -5 -10 2.90852 8.49967   1
  -1  -5 -11 88.0638 13.1491   1
   1   5  11 79.8748 13.2747   1
  -1  -6  16 17.2765 7.33997   1
   1   6 -16 17.8539 10.0025   2
  -1  -6  16 17.0235 7.24259   1
  -1  -6  15 26.9312 6.62703   1
  -1  -6  15 23.3974 6.59736   1
   1   6 -15 26.0480 8.45742   2
  -1  -6  14-1.93284 5.09894   1
  -1  -6  14-0.44573 5.44823   1
   1   6 -14-1.91125 7.33562   2
  -1  -6  13 13.1427 5.37180   1
   1   6 -13 24.9400 6.85285   2
  -1  -6  13 7.21952 5.09648   1
  -1  -6  12 56.1673 6.39345   1
   1   6 -12 69.4673 7.63201   2
  -1  -6  12 70.1645 6.56260   1
   1   6 -11 89.8460 7.91884   2
  -1  -6  11 80.8550 6.92440   1
  -1  -6  11 69.4492 6.16598   1
  -1  -6  11 73.5487 7.24101   2
  -1  -6  10 107.201 7.85570   2
  -1  -6  10 111.713 7.24904   1
  -1  -6  10 108.762 6.89635   1
   1   6 -10 105.416 7.76348   2
   1   6  -9 26.0462 4.41737   1
   1   6  -9 25.9030 4.94049   2
  -1  -6   9 36.9658 5.32255   2
  -1  -6   9 31.8842 4.68999   1
  -1  -6   8 15.6769 3.97583   1
   1   6  -8 14.8421 4.69695   2
  -1  -6   8 6.90355 3.91321   2
   1   6  -8 13.6716 3.99809   1
   1   6  -7 113.589 7.31974   2
   1   6  -7 112.395 6.75126   1
  -1  -6   7 109.059 7.03217   2
  -1  -6   7 106.841 6.57051   1
  -1  -6   6 1.30352 3.34829   1
   1   6  -6-0.55371 3.14493   2
  -1  -6   6 3.77399 3.29813   2
   1   6  -6-2.49311 3.17760   1
  -1  -6   5 246.121 9.41162   1
   1   6  -5 233.387 9.21864   1
   1   6  -5 253.541 9.76031   2
  -1  -6   5 239.666 9.55598   2
   1   6  -4 206.119 9.06645   2
  -1  -6   4 197.473 8.67940   1
   1   6  -4 200.245 8.62214   1
  -1  -6   4 223.050 9.16213   2
  -1  -6   3 2.60262 3.06522   1
   1   6  -3 2.33901 3.25748   1
  -1  -6   3 2.26773 3.71433   2
   1   6  -3 3.34246 3.35799   2
  -1  -6   2-2.91432 3.56597   1
   1   6  -2 8.62649 3.94368   1
  -1  -6   2 1.80101 3.56549   2
   1   6  -2 5.02450 4.03656   2
   1   6  -1 14.8562 3.84271   2
  -1  -6   1 9.48300 4.28361   1
  -1  -6   1 13.4586 4.48148   2
   1   6  -1 11.5657 4.22466   1
  -1  -6   0 13.4079 3.95491   2
   1   6   0 11.2543 4.72223   1
   1   6   0 14.2125 4.75027   2
  -1  -6   0 16.7626 4.24158   1
  -1  -6  -1 201.395 10.1660   1
  -1  -6  -1 184.084 9.30432   2
   1   6   1 189.032 9.92982   1
   1   6   1 194.304 9.59797   2
  -1  -6  -2 56.9552 6.56943   2
  -1  -6  -2 53.3901 6.86464   1
   1   6   2 53.3273 5.94449   2
   1   6   2 76.8138 7.29039   1
  -1  -6  -3-2.29958 4.89819   2
   1   6   3-7.27912 5.49241   1
  -1  -6  -3-1.73787 5.16837   1
  -1  -6  -4 23.5068 5.72985   2
   1   6   4 22.6183 5.41917   1
  -1  -6  -4 8.52883 5.25685   1
  -1  -6  -5 17.0725 6.84049   2
   1   6   5 21.9692 6.43655   1
  -1  -6  -5 28.4609 6.72672   1
  -1  -6  -6 3.32832 6.58712   2
   1   6   6 0.68934 6.91489   1
  -1  -6  -6 1.51160 6.39518   1
  -1  -6  -7 2.91556 8.01102   2
   1   6   7 2.15172 7.79949   1
  -1  -6  -7 12.3919 8.38074   1
   1   6   8 65.0610 10.7072   1
  -1  -6  -8 80.6139 10.4533   2
  -1  -6  -8 101.314 11.8257   1
  -1  -6  -9-0.77060 8.82155   2
   1   6   9-5.64412 10.2160   1
  -1  -6 -10-6.99930 10.4571   1
  -1  -6 -10-5.06377 11.2404   2
   1   6  10-1.65434 10.0621   1
   1   7 -15 70.4666 10.9406   2
  -1  -7  15 89.7005 8.44250   1
  -1  -7  15 81.7534 8.29408   1
  -1  -7  14 23.9313 6.31439   1
  -1  -7  14 33.4078 6.90151   1
   1   7 -13 92.7160 9.84486   2
  -1  -7  13 82.4427 7.35695   1
  -1  -7  13 82.5603 7.80876   1
   1   7 -12 17.3337 6.75435   2
  -1  -7  12 7.18819 6.57540   2
  -1  -7  12 9.57539 5.51992   1
  -1  -7  12-1.09880 4.64959   1
  -1  -7  11-4.61694 4.84192   1
  -1  -7  11 0.56456 5.30020   2
   1   7 -11 0.62800 5.44272   2
  -1  -7  11 2.62006 4.84932   1
   1   7 -10-0.07805 4.40200   1
   1   7 -10 4.78854 5.49855   2
  -1  -7  10 3.04271 4.26406   1
  -1  -7  10-2.15635 4.98962   2
  -1  -7   9 19.9111 5.50718   2
   1   7  -9 5.11317 4.91573   2
   1   7  -9 11.2836 4.51338   1
  -1  -7   9 15.5781 4.61997   1
   1   7  -8 27.8717 5.89318   2
  -1  -7   8 30.6607 5.86856   2
  -1  -7   8 24.1518 4.98414   1
   1   7  -8 36.3116 5.40024   1
   1   7  -7 35.5389 5.62755   2
  -1  -7   7 44.0881 5.99984   2
   1   7  -7 39.9804 5.36062   1
  -1  -7   7 40.6859 5.39463   1
   1   7  -6 6.67747 4.10547   1
   1   7  -6 7.46657 4.70546   2
  -1  -7   6 7.43867 4.21662   2
  -1  -7   6 6.23128 4.12228   1
  -1  -7   5 115.702 7.78542   2
   1   7  -5 107.956 8.04610   2
  -1  -7   5 119.577 7.63083   1
   1   7  -5 105.807 7.44224   1
   1   7  -4 81.8609 7.15768   2
   1   7  -4 89.3913 7.08909   1
  -1  -7   4 82.2606 7.01370   1
  -1  -7   4 96.1599 7.53806   2
  -1  -7   3 55.1639 6.09837   2
   1   7  -3 50.0022 6.11589   1
   1   7  -3 49.8980 5.84992   2
  -1  -7   3 60.9977 6.18815   1
  -1  -7   2 22.6701 4.72575   2
  -1  -7   2 24.9233 5.26082   1
   1   7  -2 25.4122 4.94324   2
   1   7  -2 26.3417 5.66256   1
   1   7  -1 5.04028 4.26589   2
  -1  -7   1 11.0738 5.14440   2
   1   7  -1 9.49974 4.86847   1
  -1  -7   1 9.09014 5.16606   1
   1   7   0 46.9313 6.44836   2
   1   7   0 50.2356 6.93605   1
  -1  -7   0 49.4815 6.69492   2
  -1  -7   0 53.3091 6.95080   1
  -1  -7  -1 68.6964 7.20176   1
  -1  -7  -1 70.1498 7.94697   2
   1   7   1 68.6301 7.37602   1
   1   7   1 61.8795 7.55963   2
   1   7   2 259.787 12.6193   2
  -1  -7  -2 273.038 13.0287   2
   1   7   2 254.793 12.5351   1
  -1  -7  -2 263.903 12.9309   1
  -1  -7  -3 56.4069 8.23090   2
   1   7   3 58.7694 8.64960   1
  -1  -7  -3 48.1707 8.47529   1
  -1  -7  -4 3.55419 6.89083   2
   1   7   4 2.86755 7.05805   1
  -1  -7  -4-4.34602 6.36892   1
  -1  -7  -5-7.86099 6.23719   2
   1   7   5-0.47569 7.51001   1
  -1  -7  -5-11.8811 7.91255   1
  -1  -7  -6 31.7889 8.91865   2
  -1  -7  -6 18.0303 9.22116   1
   1   7   6 14.0058 8.73061   1
   1   7   7 158.857 14.3572   1
  -1  -7  -7 174.011 13.7534   1
  -1  -7  -8-2.36257 11.2385   2
   1   7   8-4.71556 11.7574   1
  -1  -7  -8-1.73573 11.3999   1
  -1  -7  -9 15.7903 7.36964   2
   1   7   9 5.91010 6.11548   1
  -1  -7  -9 7.87452 5.51125   1
  -1  -8  15 1.02012 6.92268   1
   1   8 -15-4.24191 9.63700   2
  -1  -8  15 11.4991 7.30930   1
   1   8 -14 32.2823 9.86192   2
  -1  -8  14 41.1429 7.57266   1
  -1  -8  14 33.9322 7.33389   1
   1   8 -13 95.4385 10.9525   2
  -1  -8  13 124.827 11.6517   2
  -1  -8  13 113.064 9.04276   1
  -1  -8  13 108.554 9.34872   1
   1   8 -12 24.8881 8.03598   2
  -1  -8  12 32.7047 6.42414   1
  -1  -8  12 38.6098 8.46318   2
   1   8 -11-6.79375 6.64634   2
  -1  -8  11 8.36675 6.57057   2
  -1  -8  11 2.51050 5.33100   1
  -1  -8  10 26.6700 6.93212   2
  -1  -8  10 16.4926 5.43525   1
   1   8 -10 19.9656 6.28558   2
   1   8 -10 11.5359 5.28341   1
   1   8  -9 9.32450 5.40969   1
  -1  -8   9 0.39494 4.76161   1
   1   8  -9 11.1475 6.20922   2
  -1  -8   9 7.46160 6.15498   2
   1   8  -8 45.3242 7.33469   2
  -1  -8   8 56.2594 6.81233   1
   1   8  -8 61.0917 6.94969   1
  -1  -8   8 57.2773 7.30821   2
  -1  -8   7 51.0884 6.39452   1
  -1  -8   7 58.4233 7.64596   2
   1   8  -7 39.3714 6.15594   1
   1   8  -7 48.8767 6.99556   2
   1   8  -6 230.813 10.9843   1
  -1  -8   6 239.140 11.8548   2
  -1  -8   6 261.304 11.5914   1
   1   8  -6 217.692 11.4124   2
  -1  -8   5 3.37928 4.69295   2
  -1  -8   5-0.76562 4.97612   1
   1   8  -5-2.89852 4.94482   1
   1   8  -5-2.64475 5.32454   2
   1   8  -4 36.3823 5.91100   1
  -1  -8   4 38.4733 6.52933   1
   1   8  -4 39.1757 6.38213   2
  -1  -8   4 37.1187 6.54567   2
   1   8  -3 94.5801 8.49293   1
   1   8  -3 88.5098 8.39396   2
  -1  -8   3 78.8765 8.38425   2
  -1  -8   3 86.2867 8.41235   1
  -1  -8   2 156.020 10.3256   1
  -1  -8   2 139.437 10.1839   2
   1   8  -2 138.589 10.0859   2
   1   8  -2 155.031 9.78885   1
   1   8  -1-0.22323 4.96355   2
  -1  -8   1 2.53737 4.85162   1
  -1  -8   1-1.59122 5.87240   2
   1   8  -1 1.28365 5.33368   1
   1   8   0 2.08294 6.28646   2
  -1  -8   0 13.1038 6.78791   2
  -1  -8   0 6.27836 6.20846   1
   1   8   0 6.96756 5.79207   1
  -1  -8  -1 4.68862 7.09578   1
   1   8   1 15.3419 6.60626   2
  -1  -8  -1 12.9317 7.25873   2
   1   8   1 8.41303 5.71289   1
  -1  -8  -2-3.79126 6.29521   2
  -1  -8  -2 5.82061 6.23305   1
   1   8   2 6.94360 7.00861   1
  -1  -8  -3 13.3593 7.95074   1
  -1  -8  -3-0.74584 6.39502   2
   1   8   3 6.45624 6.82833   1
  -1  -8  -4 24.2279 8.96517   2
  -1  -8  -4 32.5199 9.60719   1
   1   8   4 12.9633 7.71307   1
  -1  -8  -5 2.96801 8.35616   2
  -1  -8  -5 10.9100 8.35751   1
   1   8   5-0.07843 9.82603   1
  -1  -8  -6 57.0987 12.6545   1
   1   8   6 52.3563 10.6911   1
  -1  -8  -7-4.47492 12.0102   2
   1   8   7-5.05216 10.1514   1
  -1  -8  -7-6.02663 13.2444   1
   1   9 -14 1.27880 10.1244   2
  -1  -9  14 10.1911 8.08234   1
  -1  -9  14-10.4113 10.8526   2
  -1  -9  14 1.73135 7.46630   1
  -1  -9  13 25.8721 7.35374   1
   1   9 -13 20.8625 10.0575   2
  -1  -9  13 40.2436 8.17338   1
  -1  -9  13 18.1987 10.0916   2
  -1  -9  12 12.7676 7.16798   1
  -1  -9  12 22.1789 9.18257   2
   1   9 -12 17.2104 8.98318   2
  -1  -9  12 11.6030 7.50177   1
  -1  -9  11 6.96305 6.35972   1
   1   9 -11 3.80775 7.89588   2
   1   9 -11 3.92611 6.29745   1
  -1  -9  11 2.37482 7.74882   2
   1   9 -10 4.09355 6.12401   1
   1   9 -10 2.59008 6.99375   2
  -1  -9  10 8.99271 7.18085   2
  -1  -9  10 21.5120 6.73296   1
   1   9  -9 183.759 12.6405   2
  -1  -9   9 184.185 12.3070   2
  -1  -9   9 162.598 10.5031   1
   1   9  -9 150.895 10.2771   1
  -1  -9   8 44.4993 8.16314   2
  -1  -9   8 28.6125 7.02856   1
   1   9  -8 34.6752 8.13818   2
   1   9  -8 27.9219 6.70023   1
   1   9  -7 77.7906 9.47780   2
  -1  -9   7 83.9592 8.81353   1
   1   9  -7 68.6268 8.08734   1
  -1  -9   7 78.3598 8.77477   2
  -1  -9   6 73.6569 8.83212   2
   1   9  -6 53.9951 7.77339   2
   1   9  -6 67.9096 7.95809   1
  -1  -9   6 55.3881 7.72464   1
  -1  -9   5 78.8407 9.38065   2
   1   9  -5 61.0737 8.85657   2
  -1  -9   5 66.7147 7.96769   1
   1   9  -5 66.0460 7.79671   1
   1   9  -4 118.260 10.6072   2
  -1  -9   4 119.943 10.7311   2
  -1  -9   4 122.213 10.0348   1
   1   9  -4 98.0709 9.02468   1
  -1  -9   3 3.94513 7.00285   2
   1   9  -3-4.97288 6.17864   1
   1   9  -3-0.31048 6.70521   2
  -1  -9   3 4.30481 6.86946   1
   1   9  -2-8.13359 6.39025   1
  -1  -9   2-1.48169 6.32016   2
  -1  -9   2-6.16968 6.87982   1
   1   9  -2 0.50901 6.87222   2
   1   9  -1 8.15444 7.20555   1
   1   9  -1 11.3674 7.53551   2
  -1  -9   1 7.98756 7.81639   2
  -1  -9   1 17.9866 6.75726   1
  -1  -9   0 18.2833 7.99233   2
   1   9   0 31.9721 8.88662   2
  -1  -9   0 12.0472 7.10729   1
   1   9   0 6.69650 6.63798   1
  -1  -9  -1 12.9994 8.48994   2
   1   9   1 28.5657 9.02501   2
  -1  -9  -1 25.9136 7.88466   1
   1   9   1 20.9532 7.62696   1
  -1  -9  -2 3.89732 7.81048   2
  -1  -9  -2 11.4860 7.87376   1
   1   9   2 0.22732 9.09164   1
   1   9   3-6.08610 10.2712   1
  -1  -9  -3 7.19749 10.0974   2
  -1  -9  -4 8.45427 9.95875   2
  -1  -9  -4 20.2179 10.3343   1
   1   9   4 5.58689 11.3894   1
  -1  -9  -5 91.2916 14.5959   1
   1   9   5 105.957 14.2596   1
  -1 -10  13 15.3779 5.41607   1
   1  10 -13 8.03379 6.11411   2
  -1 -10  13-3.24311 6.64234   2
  -1 -10  13 15.2611 5.34096   1
  -1 -10  12 7.73572 9.85851   2
   1  10 -12-6.78468 8.35324   1
   1  10 -12 0.15573 9.96336   2
  -1 -10  12 15.7366 8.43259   1
   1  10 -11-6.20920 10.2758   2
  -1 -10  11 13.8109 7.80519   1
  -1 -10  11 0.97044 9.30174   2
   1  10 -11-15.1264 8.01437   1
  -1 -10  10 75.0778 9.75909   1
  -1 -10  10 71.7333 11.7949   2
   1  10 -10 64.7666 10.9393   2
   1  10 -10 65.9313 9.34408   1
   1  10  -9 11.5562 9.46241   2
   1  10  -9 13.2478 7.55333   1
  -1 -10   9 13.7326 7.86967   1
  -1 -10   9 24.4708 9.34976   2
  -1 -10   8 38.2051 8.70871   1
   1  10  -8 32.0420 8.97726   2
   1  10  -8 42.4124 8.79758   1
  -1 -10   8 25.5454 9.44391   2
  -1 -10   7-1.29378 7.21792   1
  -1 -10   7 0.14100 7.47753   2
   1  10  -7-12.4888 8.28936   2
   1  10  -7-2.86086 7.48304   1
   1  10  -6-2.66469 7.33257   2
  -1 -10   6 8.01255 7.97378   2
   1  10  -6 8.76359 7.57884   1
  -1 -10   6 7.18760 7.34308   1
   1  10  -5 46.9820 9.98019   2
   1  10  -5 34.2151 8.46219   1
  -1 -10   5 32.0123 9.24915   2
  -1 -10   5 31.6104 8.98347   1
   1  10  -4 62.8613 10.1590   2
   1  10  -4 56.2022 9.99733   1
  -1 -10   4 59.4618 9.97028   1
  -1 -10   4 61.8892 9.88229   2
   1  10  -3 59.4292 10.3294   2
  -1 -10   3 72.1222 9.71133   1
  -1 -10   3 67.0498 11.1190   2
   1  10  -3 74.5839 10.4695   1
   1  10  -2 90.9238 11.7664   1
   1  10  -2 102.934 10.9315   2
  -1 -10   2 94.2031 12.1593   2
  -1 -10   2 129.584 12.8690   1
   1  10  -1 9.12576 9.44492   2
   1  10  -1 18.9309 8.35895   1
  -1 -10   1 15.2613 9.59090   2
  -1 -10   1 6.34433 8.25960   1
   1  10   0-7.43603 8.28457   1
  -1 -10   0 10.8646 9.50502   2
  -1 -10   0 8.16713 10.5159   1
   1  10   0 5.27782 10.4699   2
   1  10   1-2.20811 10.5923   2
  -1 -10  -1 9.81066 11.1358   1
  -1 -10  -1 0.24914 9.41379   2
   1  10   1-4.97203 10.9227   1
  -1 -10  -2 9.50011 10.3363   2
  -1 -10  -2 34.3882 10.8103   1
   1  10   2 16.3620 10.1668   1
  -1 -10  -3 106.343 14.6898   1
   1  10   3 122.652 15.0515   1
   1  11 -10-6.62522 11.7864   2
  -1 -11  10-6.73215 11.2905   2
   1  11 -10 2.64252 9.70178   1
  -1 -11  10-0.77760 9.44989   1
   1  11  -9 10.0450 11.4290   2
   1  11  -9 19.9994 9.40130   1
  -1 -11   9 19.1460 11.4692   2
  -1 -11   9 21.9241 9.59609   1
   1  11  -8 58.8818 11.9459   2
  -1 -11   8 45.9699 12.1121   2
   1  11  -8 40.3844 10.0398   1
  -1 -11   8 15.2100 9.19057   1
   1  11  -7 13.5771 9.53965   2
   1  11  -7 19.5078 9.25072   1
  -1 -11   7 37.7701 11.5841   2
  -1 -11   7 33.4420 10.0808   1
   1  11  -6 12.8915 10.5025   2
  -1 -11   6 4.13413 9.75522   2
   1  11  -6 10.9582 9.24048   1
  -1 -11   6-2.10587 9.97099   1
   1  11  -5 51.7416 10.9229   2
  -1 -11   5 54.5820 12.1262   2
   1  11  -5 47.9906 10.1812   1
  -1 -11   5 47.4690 10.5215   1
   1  11  -4-3.62163 9.77199   2
  -1 -11   4 21.3291 9.72696   1
  -1 -11   4 2.90174 9.65752   2
   1  11  -4 4.38973 10.5755   1
   1  11  -3 36.8565 11.8335   2
   1  11  -3 34.1998 11.1263   1
  -1 -11   3 40.0419 11.3295   2
  -1 -11   3 17.0952 10.9010   1
   1  11  -2 37.9475 11.7037   1
   1  11  -2 39.3076 12.0821   2
  -1 -11   2 24.7966 12.1242   2
  -1 -11   2 47.4556 13.2347   1
   1  11  -1-20.6618 11.9734   1
  -1 -11   1-7.33450 13.1538   2
  -1 -11   1-5.35835 11.4294   1
  -1 -11   0-5.31639 10.6565   1
   1  11   0 39.0138 12.6183   1
   2 -11   0-7.24406 11.6470   1
  -2  11   0-4.70517 11.2106   1
   2 -11   0 12.3127 10.4570   2
  -2  11   0 3.76781 10.0034   2
   2 -11   1-9.78290 10.8719   1
  -2  11  -1 7.00509 11.2351   2
  -2  11  -1 23.8452 11.2664   1
   2 -11   1 28.1739 12.3206   2
  -2  11  -2 19.9323 11.3661   2
   2 -11   2-4.75505 10.2299   1
   2 -11   2-14.5632 10.0675   2
  -2  11  -2-11.8268 10.4835   1
   2 -11   3 15.9010 11.6517   2
   2 -11   3-3.74853 10.0627   1
  -2  11  -3 4.15421 11.3825   2
  -2  11  -3 12.0927 9.48838   1
   2 -11   4-13.0203 9.52060   1
  -2  11  -4 2.80177 10.0109   2
  -2  11  -4 0.06055 8.57428   1
   2 -11   4-9.34307 11.2768   2
   2 -11   5 16.3186 8.36750   1
  -2  11  -5 38.4625 12.4140   2
   2 -11   5 4.24104 10.6667   2
  -2  11  -5 22.1959 8.55036   1
  -2  11  -6 29.8566 8.32032   1
   2 -11   6-2.84332 8.45814   1
  -2  11  -6 16.6223 11.7709   2
   2 -11   6 8.85830 11.6107   2
   2 -11   7 10.7324 7.63506   1
  -2  11  -7 3.80485 12.6872   2
  -2  11  -7 9.39373 7.21080   1
   2 -11   7 2.91297 12.2996   2
  -2  11  -8 47.3585 7.57461   1
   2 -11   8 67.5377 13.7860   2
  -2  11  -8 47.7829 13.9347   2
   2 -11   8 69.9345 8.31591   1
   2 -11   9 20.4292 4.23659   1
  -2  11  -9 24.5650 4.14468   1
   2 -10  -3 136.999 13.8389   2
  -2  10   3 116.020 15.4992   1
  -2  10   3 152.703 14.5668   2
   2 -10  -3 139.135 16.2693   1
  -2  10   2 53.3555 10.9659   1
  -2  10   2 52.6204 10.7281   2
   2 -10  -2 69.7490 11.4314   2
   2 -10  -2 86.5631 12.9666   1
   2 -10  -1 6.05310 8.49168   2
   2 -10  -1-8.83168 9.05813   1
  -2  10   1 7.26305 9.70109   1
  -2  10   1 5.25027 8.54764   2
   2 -10   0-7.31249 7.96356   1
  -2  10   0-6.54989 8.12703   2
  -2  10   0 6.00451 8.73853   1
   2 -10   0-10.2506 9.07845   2
   2 -10   1-1.46919 7.87585   1
  -2  10  -1 9.59361 9.40294   2
  -2  10  -1-1.31721 7.76048   1
   2 -10   1 20.3794 9.02452   2
  -2  10  -2 29.9507 8.80202   2
  -2  10  -2 26.3949 8.19943   1
   2 -10   2 18.5525 8.24276   2
   2 -10   2 45.3884 9.28388   1
   2 -10   3 13.4722 7.25868   1
  -2  10  -3 0.71549 8.09567   2
  -2  10  -3-5.26380 7.35187   1
   2 -10   3 11.4117 7.94795   2
   2 -10   4 18.4416 6.97608   1
  -2  10  -4 16.9079 8.00954   2
  -2  10  -4 21.2404 6.89587   1
   2 -10   5 17.4915 6.93068   1
   2 -10   5 5.38303 8.98180   2
  -2  10  -5 0.65874 8.96774   2
  -2  10  -5 17.6240 6.30531   1
  -2  10  -6 37.6693 6.91918   1
   2 -10   6 63.1258 10.4313   2
  -2  10  -6 49.2680 9.47578   2
   2 -10   6 46.6871 7.01521   1
   2 -10   7 12.1493 5.62863   1
  -2  10  -7-0.76861 8.57325   2
  -2  10  -7 11.3915 5.48394   1
   2 -10   7-9.76042 9.34344   2
  -2  10  -8-2.17657 4.58080   1
  -2  10  -8-11.8914 9.59943   2
   2 -10   8 6.27839 9.07007   2
   2 -10   8 4.05303 4.79746   1
   2 -10   9 8.92874 3.89591   1
  -2  10  -9 15.0674 11.3253   2
   2 -10   9-2.03230 11.0860   2
  -2  10 -10-7.23675 12.1772   2
   2 -10  10 0.59475 10.1771   2
  -2  10 -11 1.07998 10.9996   2
   2 -10  11 29.4389 13.5413   2
   2  -9  -6 43.0412 9.35280   2
  -2   9   5 14.8165 10.1396   1
   2  -9  -5 8.24814 9.00485   2
   2  -9  -5 18.8541 10.2919   1
  -2   9   4 11.8023 9.33048   1
  -2   9   4 25.9169 9.54087   2
   2  -9  -4 35.1395 9.88399   2
   2  -9  -4 1.82671 11.0512   1
  -2   9   3 75.0390 11.8356   1
  -2   9   3 62.2087 9.52029   2
   2  -9  -3 89.5598 12.0900   1
   2  -9  -3 47.8699 9.62081   2
   2  -9  -2-13.6956 9.31991   1
  -2   9   2 8.05794 7.70568   2
   2  -9  -2 11.7179 7.57395   2
  -2   9   2 4.03312 8.25223   1
  -2   9   1-3.55575 7.70057   1
  -2   9   1 9.64448 7.15378   2
   2  -9  -1-7.20692 7.58169   1
   2  -9  -1-15.5891 7.85479   2
  -2   9   0 67.2919 8.75005   2
   2  -9   0 68.7669 9.37481   2
  -2   9   0 58.1680 8.70369   1
   2  -9   0 55.1131 8.51457   1
   2  -9   1 78.4484 9.65439   2
  -2   9  -1 78.2604 9.05131   1
   2  -9   1 93.0694 9.55325   1
  -2   9  -1 75.7701 8.94640   2
  -2   9  -2 4.18731 6.82094   2
   2  -9   2 1.65366 5.80656   1
   2  -9   2 0.18285 6.53248   2
  -2   9  -2 6.79118 6.02190   1
  -2   9  -3 25.4078 7.60474   2
  -2   9  -3 23.7391 6.23030   1
   2  -9   3 37.0490 7.87063   2
   2  -9   3 22.4717 6.29686   1
  -2   9  -4 25.3773 5.97016   1
   2  -9   4 26.1789 7.66734   2
   2  -9   4 26.7061 6.19914   1
  -2   9  -5 66.3488 9.52436   2
   2  -9   5 52.9475 8.97547   2
  -2   9  -5 58.7594 6.54816   1
   2  -9   5 62.4609 6.90079   1
  -2   9  -6 2.99626 4.51671   1
   2  -9   6-1.53545 4.30843   1
   2  -9   6 7.99239 6.62342   2
   2  -9   7-1.23422 4.09801   1
  -2   9  -7 6.04707 7.07125   2
   2  -9   7 8.06359 7.12167   2
  -2   9  -7 8.92843 4.05354   1
  -2   9  -8 65.8676 10.4876   2
   2  -9   8 73.0539 11.0154   2
  -2   9  -8 46.2479 4.40144   1
   2  -9   8 52.8430 4.60680   1
  -2   9  -9 20.3238 8.43698   2
   2  -9   9 3.45330 9.12888   2
   2  -9   9 3.75530 1.62277   1
  -2   9 -10-8.64581 9.25719   2
   2  -9  10 0.69647 9.79896   2
  -2   9 -11 24.5759 10.3142   2
   2  -9  11 11.4945 9.73990   2
  -2   9 -12 67.8576 13.4780   2
  -2   8   7 27.1225 12.0795   1
   2  -8  -7 14.7552 12.4761   1
   2  -8  -7 29.5187 9.53187   2
  -2   8   6 4.06261 10.1824   1
   2  -8  -6 1.59907 11.2978   1
   2  -8  -6-2.99730 8.01811   2
  -2   8   5 76.9092 10.7423   1
   2  -8  -5 81.7183 9.51130   2
   2  -8  -5 94.8326 12.2740   1
  -2   8   4 4.78819 6.84628   2
   2  -8  -4 14.6681 6.87816   2
  -2   8   4 12.5477 7.61148   1
   2  -8  -4 3.42148 7.15316   1
  -2   8   3 10.9180 8.14281   1
   2  -8  -3 11.8972 7.71842   1
  -2   8   3-2.34825 6.21043   2
   2  -8  -3 6.29875 6.60310   2
   2  -8  -2 62.1611 8.05532   2
  -2   8   2 66.6877 8.17114   2
   2  -8  -2 50.7791 7.75046   1
  -2   8   2 80.5322 9.08589   1
  -2   8   1 133.148 9.91478   2
   2  -8  -1 114.631 9.44119   2
  -2   8   1 122.828 10.2661   1
   2  -8  -1 114.621 9.50915   1
  -2   8   0 14.4973 5.79063   1
   2  -8   0 19.0006 5.85841   1
  -2   8   0 2.86987 5.67463   2
   2  -8   0 13.1276 5.88846   2
   2  -8   1 49.7069 7.30174   2
  -2   8  -1 44.9408 6.99141   2
  -2   8  -1 41.4882 6.64841   1
   2  -8   1 49.7552 6.76605   1
   2  -8   2 4.23164 4.68939   1
  -2   8  -2 4.85157 4.97553   2
   2  -8   2-2.56384 4.98178   2
  -2   8  -2 2.50874 4.64251   1
  -2   8  -3 19.6912 4.95711   1
  -2   8  -3 5.34461 4.99431   2
   2  -8   3 8.94528 5.20963   2
   2  -8   3 25.6252 5.33799   1
  -2   8  -4 20.8553 6.52800   2
  -2   8  -4 14.3198 4.36853   1
   2  -8   4 10.3070 5.25646   2
   2  -8   4 15.1686 4.50831   1
   2  -8   5 22.7649 6.03258   2
  -2   8  -5 34.7491 7.25275   2
  -2   8  -5 30.8780 4.68089   1
   2  -8   5 22.4633 4.60488   1
  -2   8  -6 5.84134 3.53091   1
   2  -8   6 1.97594 3.21862   1
  -2   8  -6-0.05869 5.85992   2
   2  -8   6-1.21724 5.23910   2
   2  -8   7 58.2356 8.29228   2
  -2   8  -7 60.3282 8.78971   2
  -2   8  -7 46.4950 4.12221   1
   2  -8   7 50.2138 4.19208   1
   2  -8   8 1.79119 1.88610   1
  -2   8  -8-5.53783 5.94475   2
  -2   8  -8-0.10885 1.78013   1
  -2   8  -9-6.86974 7.58565   2
   2  -8   9 0.06683 7.60973   2
  -2   8 -10 1.75979 8.45598   2
   2  -8  10-11.9624 7.75701   2
  -2   8 -11 1.42004 7.73655   2
  -2   8 -12 46.8420 10.5526   2
  -2   8 -13 48.0794 11.4414   2
   2  -7  -9 16.5149 9.32945   2
  -2   7   9 55.8163 14.6959   1
   2  -7  -9 28.7537 13.6513   1
   2  -7  -8 50.0125 13.3089   1
  -2   7   8 84.6327 13.6427   1
   2  -7  -8 55.6728 9.33017   2
   2  -7  -7 1.14949 6.98564   2
   2  -7  -7 6.81039 10.0649   1
  -2   7   7-18.0695 10.0142   1
   2  -7  -6-4.45225 8.70449   1
   2  -7  -6-4.16713 6.09781   2
  -2   7   6-3.82288 6.95179   1
   2  -7  -5 10.9155 7.20044   1
  -2   7   5-3.25727 5.83405   2
   2  -7  -5 14.4708 6.12685   2
  -2   7   5-3.13064 7.37793   1
  -2   7   4 77.3159 7.72524   2
   2  -7  -4 60.6176 7.30542   2
  -2   7   4 60.5351 9.08091   1
   2  -7  -4 64.1697 8.97575   1
   2  -7  -3 9.70293 6.22946   1
   2  -7  -3-1.46707 4.88447   2
  -2   7   3 2.20359 4.79507   2
  -2   7   3 0.17430 5.52137   1
   2  -7  -2-5.68356 5.97339   1
  -2   7   2-1.52397 4.53760   2
   2  -7  -2-0.17961 4.53187   2
  -2   7   2 7.86937 5.96234   1
  -2   7   1 350.600 12.8423   2
   2  -7  -1 377.973 13.1354   2
  -2   7   1 355.992 13.6404   1
   2  -7  -1 333.275 13.2839   1
  -2   7   0 154.153 9.22875   1
  -2   7   0 164.327 9.18196   2
   2  -7   0 173.860 9.31547   2
   2  -7   0 150.685 9.14368   1
  -2   7  -1 33.3793 5.20078   1
  -2   7  -1 35.9320 5.66389   2
   2  -7   1 31.7276 5.32225   2
   2  -7   1 35.6118 5.34331   1
  -2   7  -2 2.56453 3.84227   1
   2  -7   2 1.92383 3.71760   1
  -2   7  -2-0.71744 3.96300   2
   2  -7   2 0.97966 4.56262   2
  -2   7  -3 205.607 10.5263   2
   2  -7   3 192.139 9.84843   2
  -2   7  -3 204.871 8.51868   1
   2  -7   3 198.121 8.47246   1
   2  -7   4 9.71333 3.38426   1
  -2   7  -4 16.6137 3.74129   1
  -2   7  -4 12.8034 4.76850   2
   2  -7   4 5.50673 4.75645   2
  -2   7  -5 31.5613 6.33578   2
   2  -7   5 30.9161 6.18225   2
  -2   7  -5 31.5305 3.85690   1
   2  -7   5 29.7109 3.85345   1
  -2   7  -6 149.324 9.62841   2
   2  -7   6 143.436 9.30958   2
   2  -7   6 132.424 5.49844   1
  -2   7  -6 135.462 5.46873   1
  -2   7  -7 14.0469 2.03114   1
  -2   7  -7 15.8684 5.97870   2
   2  -7   7 24.5431 6.71084   2
   2  -7   7 14.6163 2.12863   1
  -2   7  -8 155.645 10.3144   2
   2  -7   8 161.574 11.0701   2
  -2   7  -9-0.79444 6.32583   2
   2  -7   9 0.48921 6.06323   2
  -2   7 -10 23.0662 7.09719   2
  -2   7 -11 48.5669 9.59814   2
  -2   7 -12 3.34852 9.02577   2
  -2   7 -13 119.877 12.5337   2
  -2   7 -14 41.8546 12.5270   2
   2  -6 -10 2.34828 12.7994   1
   2  -6 -10 4.03110 8.18956   2
  -2   6  10-5.29627 10.1315   1
   2  -6  -9 6.90985 10.4686   1
   2  -6  -9 8.93967 7.18359   2
  -2   6   9 24.8159 11.4015   1
   2  -6  -8 4.74615 6.05740   2
   2  -6  -8 10.4281 9.04309   1
  -2   6   8-11.2166 9.24890   1
   2  -6  -7 16.8924 8.64792   1
   2  -6  -7 16.0035 5.80071   2
  -2   6   7 25.1449 8.71457   1
   2  -6  -6 11.7102 7.24652   1
   2  -6  -6 8.77664 4.99348   2
  -2   6   6 17.2866 7.47846   1
  -2   6   5-1.39132 4.64368   2
  -2   6   5 9.19556 5.47244   1
   2  -6  -5 18.2228 5.14750   2
   2  -6  -5 7.00402 6.21032   1
  -2   6   4 28.5039 5.18446   2
   2  -6  -4 29.9352 6.59496   1
   2  -6  -4 37.3571 5.53758   2
  -2   6   4 27.7880 6.57569   1
  -2   6   3 63.4109 6.02748   2
   2  -6  -3 77.5255 6.44000   2
   2  -6  -3 79.1049 7.63546   1
  -2   6   3 63.5655 7.20462   1
   2  -6  -2 5.47210 4.57877   1
  -2   6   2 5.60426 4.03698   2
   2  -6  -2 2.76949 3.88751   2
  -2   6   2 8.30825 4.71519   1
   2  -6  -1-3.04576 4.04828   1
  -2   6   1 1.06264 3.32756   2
   2  -6  -1 2.12094 3.45551   2
  -2   6   1 9.26482 4.53984   1
  -2   6   0 31.4682 4.72050   1
  -2   6   0 30.3464 4.85430   2
   2  -6   0 29.9607 4.49540   2
   2  -6   0 29.5122 4.58974   1
   2  -6   1 135.589 7.55973   2
  -2   6  -1 177.107 8.17863   1
  -2   6  -1 175.850 8.63071   2
   2  -6   1 167.767 7.93831   1
  -2   6  -2 22.9212 4.61813   2
   2  -6   2 14.0770 3.44818   1
   2  -6   2 14.5087 4.02859   2
  -2   6  -2 8.78755 3.42928   1
   2  -6   3 261.410 10.2822   2
  -2   6  -3 270.553 10.7059   2
  -2   6  -3 279.188 8.67504   1
   2  -6   3 269.256 8.48332   1
   2  -6   4-0.86736 2.58122   1
  -2   6  -4 0.19653 2.47019   1
  -2   6  -4 6.48538 4.14736   2
   2  -6   4 1.59358 4.00732   2
  -2   6  -5 86.6058 6.97629   2
   2  -6   5 87.7617 7.29936   2
  -2   6  -5 81.2746 4.12484   1
   2  -6   5 80.1919 4.19284   1
  -2   6  -6 13.8608 1.84895   1
  -2   6  -6 14.2949 4.73486   2
   2  -6   6 15.4228 5.05462   2
   2  -6   6 12.0080 1.91246   1
   2  -6   7 40.8522 6.27027   2
  -2   6  -7 52.0826 6.39148   2
  -2   6  -8 35.1149 6.70623   2
   2  -6   8 38.2376 6.39799   2
  -2   6  -9 3.87091 6.12103   2
  -2   6 -10 15.8374 6.34255   2
  -2   6 -11 2.41096 6.27270   2
  -2   6 -12-1.05460 8.49622   2
  -2   6 -13-0.30352 8.13714   2
  -2   6 -14-17.9294 10.5219   2
   2  -5 -12 7.92014 5.42697   1
  -2   5  12 16.7353 7.73069   1
   2  -5 -11 28.4997 11.0657   1
   2  -5 -11 19.7266 7.34350   2
  -2   5  11 16.3954 11.2874   1
  -2   5  10 51.6791 10.2564   1
   2  -5 -10 44.2399 11.5143   1
   2  -5 -10 62.2471 8.28535   2
   2  -5  -9 0.39199 5.49999   2
  -2   5   9 2.53452 8.30361   1
   2  -5  -9-3.56276 8.67142   1
   2  -5  -8 9.05592 5.03389   2
  -2   5   8 14.6637 7.20261   1
   2  -5  -8 16.6268 7.86226   1
   2  -5  -7 13.3067 4.67435   2
  -2   5   7 4.91132 6.91637   1
   2  -5  -7 10.7250 6.56621   1
   2  -5  -6 155.821 8.11217   2
   2  -5  -6 153.281 10.2454   1
  -2   5   6 159.728 10.7570   1
   2  -5  -5 118.382 6.95527   2
  -2   5   5 125.682 9.33332   1
  -2   5   5 117.881 6.89516   2
   2  -5  -5 118.244 9.29653   1
   2  -5  -4 3.33063 4.18275   1
  -2   5   4 3.04506 3.32682   2
   2  -5  -4 2.06608 3.30119   2
  -2   5   4-0.51676 3.87957   1
  -2   5   3 287.722 9.47363   2
   2  -5  -3 281.646 9.47896   2
  -2   5   3 287.787 11.3005   1
   2  -5  -3 282.162 11.1146   1
  -2   5   2 9.29821 3.33188   2
   2  -5  -2 13.5900 3.48713   2
  -2   5   2 8.62692 3.79438   1
   2  -5  -2 7.79766 3.56472   1
  -2   5   1 25.6108 3.86474   2
   2  -5  -1 19.7439 3.79226   2
   2  -5  -1 17.4769 4.23688   1
  -2   5   1 16.7766 3.68707   1
  -2   5   0 735.538 14.5741   2
   2  -5   0 733.170 14.5187   2
  -2   5   0 744.128 14.9750   1
   2  -5   0 759.630 15.1844   1
  -2   5  -1 141.713 7.06359   2
   2  -5   1 145.177 7.00194   2
  -2   5  -1 153.512 6.78004   1
   2  -5   1 124.777 6.23726   1
  -2   5  -2 242.140 8.88363   2
   2  -5   2 253.938 8.98827   2
  -2   5  -2 249.927 7.78668   1
   2  -5   2 245.940 7.76989   1
  -2   5  -3 36.5262 3.32545   1
   2  -5   3 33.7064 4.69322   2
   2  -5   3 34.4768 3.35014   1
  -2   5  -3 36.4838 4.49878   2
  -2   5  -4 39.7507 5.02441   2
   2  -5   4 51.2955 5.25300   2
  -2   5  -4 50.4862 3.23852   1
   2  -5   4 45.9139 3.20869   1
  -2   5  -5 132.368 7.60253   2
   2  -5   5 134.754 7.65415   2
  -2   5  -5 128.761 3.72060   1
   2  -5   5 119.835 3.72832   1
  -2   5  -6 28.2424 5.19776   2
   2  -5   6 29.1803 5.23235   2
   2  -5   7 31.3517 5.77101   2
  -2   5  -7 29.4262 5.47691   2
  -2   5  -8 12.9404 5.22445   2
  -2   5  -9 78.4769 7.52118   2
  -2   5 -10 161.694 10.3326   2
  -2   5 -11 183.272 12.0966   2
  -2   5 -12 42.6282 8.28208   2
  -2   5 -13 13.0923 7.74408   2
  -2   5 -14 14.2028 10.6127   2
  -2   5 -15-12.4524 10.3112   2
   2  -4 -12 79.9612 9.07079   2
   2  -4 -12 81.7224 12.3138   1
   2  -4 -11-2.99720 6.02032   2
   2  -4 -11-12.6157 10.1626   1
  -2   4  11-5.41977 9.39083   1
   2  -4 -10 38.9963 9.65983   1
   2  -4 -10 29.4551 5.86609   2
  -2   4  10 47.1756 9.70526   1
   2  -4  -9-1.31269 4.33547   2
   2  -4  -9-7.14244 7.47891   1
  -2   4   9-15.8222 7.85899   1
   2  -4  -8 18.0180 6.19548   1
   2  -4  -8 9.97110 4.11165   2
  -2   4   8 27.8216 6.82295   1
   2  -4  -7 4.58096 5.45548   1
   2  -4  -7 7.41194 3.55524   2
  -2   4   7 5.29374 5.42644   1
  -2   4   6 0.68886 4.62133   1
   2  -4  -6-0.15071 4.89814   1
   2  -4  -6 0.05644 3.09518   2
  -2   4   5 30.1889 5.65782   1
   2  -4  -5 38.2337 5.93523   1
   2  -4  -5 39.4220 4.19351   2
   2  -4  -4 2.26766 4.05463   1
  -2   4   4 0.17001 2.60585   2
   2  -4  -4 1.15604 2.50347   2
  -2   4   4 1.98107 4.03264   1
  -2   4   3 128.717 5.79662   2
  -2   4   3 139.670 7.55348   1
   2  -4  -3 131.904 5.82242   2
   2  -4  -3 143.217 7.91302   1
  -2   4   2 56.8581 5.21529   1
  -2   4   2 55.7631 4.13791   2
   2  -4  -2 55.0384 4.16103   2
   2  -4  -2 51.3484 4.77820   1
  -2   4   1 312.001 8.49803   2
   2  -4  -1 317.421 8.52207   2
  -2   4   1 323.348 9.70225   1
   2  -4  -1 315.833 9.65433   1
  -2   4   0 87.3325 5.16556   1
  -2   4   0 99.0830 5.26139   2
   2  -4   0 91.0291 5.00748   2
   2  -4   0 98.5365 5.36725   1
  -2   4  -1 734.313 13.2728   2
   2  -4   1 729.709 13.0845   2
  -2   4  -1 725.981 12.3215   1
   2  -4   1 724.041 12.4270   1
   2  -4   2 10.0501 2.41101   1
  -2   4  -2 7.72319 2.66671   2
   2  -4   2 13.3882 3.19040   2
  -2   4  -2 9.18810 2.21771   1
   2  -4   3 323.783 6.92171   1
  -2   4  -3 320.565 9.70926   2
  -2   4  -3 332.064 6.86145   1
   2  -4   3 323.149 9.72493   2
  -2   4  -4 208.736 8.41032   2
   2  -4   4 218.579 8.45433   2
  -2   4  -4 222.467 4.70215   1
   2  -4   4 223.067 4.82364   1
  -2   4  -5 67.8336 5.64831   2
   2  -4   5 74.8002 5.56285   2
  -2   4  -6 51.7492 5.32727   2
  -2   4  -7 593.300 15.3846   2
  -2   4  -8 2.24441 4.59343   2
  -2   4  -9 7.45348 5.19012   2
  -2   4 -10 82.0865 8.46926   2
  -2   4 -11 2.25507 6.63076   2
  -2   4 -12 14.0447 7.98398   2
  -2   4 -13 8.54930 7.30404   2
  -2   4 -14 6.29447 9.63420   2
  -2   4 -15-5.98740 11.5826   2
   2  -3 -13 40.7443 12.1951   1
  -2   3  13-12.8788 9.19904   1
   2  -3 -12 31.4338 10.7362   1
   2  -3 -12 26.9564 6.60775   2
  -2   3  12 35.9610 10.6586   1
   2  -3 -11-4.57920 8.51384   1
   2  -3 -11 4.83289 5.09757   2
  -2   3  11 2.88777 7.19273   1
   2  -3 -10 3.99211 7.43286   1
   2  -3 -10 2.31430 4.02133   2
  -2   3  10 0.12588 6.53677   1
   2  -3  -9 11.8977 6.45361   1
   2  -3  -9 9.13948 3.87106   2
  -2   3   9 1.37866 6.20695   1
   2  -3  -8 56.6051 4.81841   2
  -2   3   8 52.0569 7.23954   1
   2  -3  -8 55.3756 7.48853   1
   2  -3  -7 121.081 5.72557   2
   2  -3  -7 131.430 9.06495   1
  -2   3   7 118.945 8.60185   1
   2  -3  -6 162.323 6.10262   2
  -2   3   6 165.438 9.07918   1
   2  -3  -6 160.514 9.26857   1
   2  -3  -5-1.24581 3.90119   1
   2  -3  -5 3.44526 2.25677   2
  -2   3   5 0.74090 3.85060   1
   2  -3  -4 26.3226 2.75356   2
  -2   3   4 25.3736 2.82999   2
   2  -3  -4 18.9500 3.80225   1
  -2   3   4 29.5413 4.20368   1
  -2   3   3 10.6623 2.21669   2
   2  -3  -3 6.07752 2.96757   1
  -2   3   3 10.8789 3.44176   1
   2  -3  -3 10.3052 2.25646   2
  -2   3   2 47.1402 3.24940   2
   2  -3  -2 45.9270 3.17673   2
   2  -3  -2 45.5484 4.42635   1
  -2   3   2 50.8111 4.39189   1
  -2   3   1 50.8437 3.42461   2
   2  -3  -1 45.7452 3.22710   2
   2  -3  -1 48.7529 4.23407   1
  -2   3   1 50.5782 4.12050   1
  -2   3   0 25.7142 2.82909   2
   2  -3   0 24.7021 2.74645   2
   2  -3   0 27.4991 3.13399   1
  -2   3   0 24.6163 2.92743   1
   2  -3   1 47.7790 3.62655   2
  -2   3  -1 47.1828 3.63698   2
   2  -3   1 42.6188 3.26794   1
  -2   3  -1 45.7312 3.23470   1
  -2   3  -2 37.3825 3.64369   2
   2  -3   2 37.0291 3.46866   2
   2  -3   2 38.9086 2.76467   1
  -2   3  -2 35.7334 2.61917   1
   2  -3   3 240.160 7.90684   2
  -2   3  -3 227.108 4.82339   1
  -2   3  -3 226.323 7.64604   2
  -2   3  -4 763.542 6.18158   1
  -2   3  -4 757.005 6.31553   1
  -2   3  -4 777.658 14.5284   2
  -2   3  -5 6.93302 3.40142   2
  -2   3  -6-2.27312 3.06571   2
  -2   3  -7 241.064 10.1776   2
  -2   3  -8 6.13033 4.42293   2
  -2   3  -9 32.3735 6.06427   2
  -2   3 -10 75.8979 8.18969   2
  -2   3 -11 15.7576 6.86432   2
  -2   3 -12 12.2714 7.71467   2
  -2   3 -13 1.20387 8.51158   2
  -2   3 -14 74.0465 12.1863   2
  -2   3 -15-7.67226 11.7616   2
   2  -2 -14 16.0172 6.98777   2
   2  -2 -14 23.2432 7.29919   2
  -2   2  14 21.3954 10.6869   1
   2  -2 -14 14.4388 10.5390   1
   2  -2 -13 61.6952 7.36702   2
  -2   2  13 60.5797 10.5512   1
   2  -2 -13 57.4358 7.29901   2
   2  -2 -13 44.5175 10.7231   1
   2  -2 -12 0.85114 7.53824   1
   2  -2 -12 11.2735 4.85683   2
  -2   2  12 6.75941 7.44163   1
   2  -2 -11 4.60164 6.17918   1
   2  -2 -11 18.0405 4.50966   2
  -2   2  11-0.49518 7.23559   1
  -2   2  10 84.1012 9.04733   1
   2  -2 -10 93.0547 5.94959   2
   2  -2 -10 94.3272 9.56570   1
   2  -2  -9 150.573 6.49088   2
  -2   2   9 146.103 9.39214   1
   2  -2  -9 146.853 9.72698   1
   2  -2  -8 10.6741 5.27631   1
  -2   2   8 8.82557 4.70383   1
   2  -2  -8 15.0230 2.92454   2
   2  -2  -7 9.74803 4.50339   1
  -2   2   7 10.6727 4.49282   1
   2  -2  -7 15.8749 2.60591   2
   2  -2  -6 4.59110 3.32313   1
   2  -2  -6 4.93314 1.86091   2
  -2   2   6 3.99988 3.10878   1
   2  -2  -5 202.277 5.12217   2
   2  -2  -5 225.188 9.26979   1
  -2   2   5 214.002 8.86015   1
  -2   2   4 10.2346 1.69316   2
   2  -2  -4 9.65993 2.96117   1
   2  -2  -4 10.7554 1.70750   2
  -2   2   4 11.5836 3.55246   1
   2  -2  -3 6.49584 2.85230   1
  -2   2   3 8.13487 2.46523   1
  -2   2   3 6.49870 1.48330   2
   2  -2  -3 4.16927 1.40485   2
  -2   2   2 38.4554 2.37918   2
   2  -2  -2 43.7468 2.41342   2
   2  -2  -2 39.0046 3.94051   1
  -2   2   2 42.0653 3.96673   1
  -2   2   1 748.488 9.36324   2
   2  -2  -1 753.950 9.38344   2
   2  -2  -1 789.310 12.7712   1
  -2   2   1 759.826 12.3616   1
  -2   2   0 77.2392 3.60403   2
   2  -2   0 68.4093 3.42385   2
   2  -2   0 75.1551 4.07283   1
  -2   2   0 75.1364 3.93605   1
  -2   2  -1 351.509 7.61616   2
   2  -2   1 358.286 7.36927   1
   2  -2   1 347.157 7.67659   2
  -2   2  -1 340.783 7.05471   1
  -2   2  -2 6.69966 1.57688   1
  -2   2  -2 6.25461 1.62582   1
  -2   2  -2 3.83670 2.04191   2
  -2   2  -3 58.6375 4.04877   2
  -2   2  -3 54.6476 2.33893   1
  -2   2  -3 56.3657 2.48849   1
  -2   2  -4 359.303 9.72734   2
  -2   2  -4 354.150 4.46400   1
  -2   2  -4 334.434 4.51844   1
  -2   2  -5 14.1745 3.23399   2
  -2   2  -6 6.65603 3.51506   2
  -2   2  -7-7.17393 3.96360   2
  -2   2  -8 329.064 12.2141   2
  -2   2  -9 1.15480 4.82454   2
  -2   2 -10 5.97112 5.49551   2
   2  -2  10 2.27296 0.92314   1
  -2   2 -11 198.745 11.8827   2
   2  -2  11 125.224 3.25757   1
  -2   2 -12 81.3215 10.1580   2
   2  -2  12 48.8493 2.40110   1
  -2   2 -13 14.6468 8.80781   2
   2  -2  13 3.90650 0.93315   1
  -2   2 -14 62.3380 11.1988   2
  -2   2 -15-20.8213 10.6158   2
   2  -1 -15 3.11336 6.95697   2
   2  -1 -15-5.30327 7.11012   2
  -2   1  15-15.8910 10.9310   1
   2  -1 -15 12.9076 11.5578   1
   2  -1 -14 1.59644 5.74896   2
  -2   1  14-6.27560 8.84146   1
   2  -1 -14 1.36291 5.80131   2
   2  -1 -14 14.9218 10.0710   1
   2  -1 -13 5.46604 5.04687   2
  -2   1  13 0.26820 8.45004   1
   2  -1 -13 2.31641 4.79737   2
   2  -1 -13 6.88809 7.77967   1
  -2   1  12 210.035 13.0636   1
   2  -1 -12 215.775 8.90460   2
   2  -1 -12 231.509 9.12601   2
   2  -1 -12 225.754 13.6159   1
   2  -1 -11 9.05400 3.63455   2
   2  -1 -11 7.10337 3.65709   2
  -2   1  11 5.24145 5.63101   1
   2  -1 -11 1.90010 6.26748   1
   2  -1 -10 14.0742 6.34314   1
  -2   1  10 22.2606 5.34693   1
   2  -1 -10 19.5245 3.53683   2
   2  -1 -10 14.1824 3.35069   2
   2  -1  -9 200.235 6.48388   2
   2  -1  -9 202.341 10.7768   1
  -2   1   9 192.105 10.1146   1
   2  -1  -8 154.824 5.17348   2
   2  -1  -8 169.302 9.39108   1
  -2   1   8 154.062 8.77365   1
   2  -1  -7 151.979 4.46983   2
   2  -1  -7 156.475 8.55453   1
  -2   1   7 132.481 7.54729   1
   2  -1  -6 274.770 5.00495   2
   2  -1  -6 281.834 10.3603   1
  -2   1   6 280.179 10.1524   1
   2  -1  -5 192.404 3.41041   2
   2  -1  -5 203.931 8.18460   1
  -2   1   5 194.079 8.12285   1
   2  -1  -4 79.2051 1.75874   2
   2  -1  -4 81.8838 5.51354   1
  -2   1   4 78.0873 5.20244   1
   2  -1  -3 84.3593 1.81931   2
  -2   1   3 89.3586 1.86518   2
   2  -1  -3 97.0137 5.48893   1
  -2   1   3 88.9320 5.19662   1
  -2   1   2 217.022 3.63143   2
   2  -1  -2 218.901 7.18194   1
  -2   1   2 219.103 6.98162   1
  -2   1   1 3.01944 1.87186   1
  -2   1   1 2.49518 1.20383   2
  -2   1   0 226.405 6.00721   1
  -2   1   0 202.844 5.00103   2
  -2   1   0 220.736 6.14249   1
  -2   1  -1 13.8554 2.16970   2
  -2   1  -1 16.1160 2.04205   1
  -2   1  -1 16.4888 2.18900   1
  -2   1  -2 2.73716 2.13725   2
  -2   1  -2-0.03605 1.34222   1
   2  -1   3 147.621 4.07962   1
  -2   1  -3 148.427 4.05192   1
   2  -1   4 934.322 9.63081   1
  -2   1  -4 907.667 9.50159   1
  -2   1  -5 107.402 3.58428   1
   2  -1   5 112.916 3.62406   1
  -2   1  -6 87.2749 3.41922   1
   2  -1   6 82.9822 3.30895   1
   2  -1   7 26.5887 2.42333   1
  -2   1  -7 28.8232 2.49223   1
   2  -1   8 139.248 4.79128   1
  -2   1  -8 132.134 8.30215   2
  -2   1  -8 130.011 4.73256   1
  -2   1  -9 27.4444 6.04790   2
  -2   1  -9 21.3339 2.92324   1
   2  -1   9 25.0092 3.00265   1
  -2   1 -10 142.284 10.1981   2
  -2   1 -10 136.464 5.64160   1
   2  -1  10 136.010 5.49918   1
   2  -1  11 1.29022 2.90615   1
  -2   1 -11 4.36182 3.09942   1
  -2   1 -11-1.27102 6.04828   2
  -2   1 -12 0.53453 3.58380   1
  -2   1 -12 8.13373 7.40960   2
   2  -1  12 0.93674 3.34190   1
  -2   1 -13 9.08020 9.50896   2
   2  -1  13 6.68810 4.04414   1
  -2   1 -13 7.54440 4.31923   1
   2  -1  14-1.68765 4.33149   1
  -2   1 -14 11.2024 11.3256   2
  -2   1 -14 3.32538 4.75480   1
  -2   0  15-1.23676 10.6495   1
   2   0 -15 1.52383 6.54061   2
   2   0 -15 3.38177 6.54891   2
  -2   0  15-6.02309 10.3786   1
   2   0 -14 0.68847 5.34488   2
  -2   0  14-0.20193 8.73820   1
   2   0 -14 7.20442 5.64336   2
   2   0 -13-1.84322 4.29291   2
  -2   0  13 4.39044 6.45591   1
   2   0 -13 4.17791 4.47786   2
   2   0 -13-4.20857 6.91962   1
  -2   0  12 18.1771 6.76302   1
   2   0 -12 1.13842 3.59402   2
   2   0 -12 1.27816 3.72523   2
   2   0 -12 5.66401 6.62590   1
   2   0 -11 47.9886 4.46705   2
   2   0 -11 46.1314 4.38871   2
   2   0 -11 50.3977 7.66115   1
  -2   0  11 43.1075 7.04899   1
   2   0 -10 28.3033 3.38370   2
   2   0 -10 34.8263 3.61175   2
   2   0 -10 36.7884 6.38895   1
  -2   0  10 38.0704 6.11367   1
  -2   0   9-2.80770 3.85144   1
   2   0  -9 2.82101 2.07902   2
   2   0  -9 1.52789 2.10877   2
   2   0  -9 3.55265 4.50414   1
   2   0  -8 109.487 3.97289   2
   2   0  -8 105.573 3.92843   2
   2   0  -8 115.143 7.54864   1
  -2   0   8 105.754 7.28784   1
   2   0  -7 578.726 7.08767   2
   2   0  -7 587.034 7.17311   2
   2   0  -7 606.079 14.9693   1
  -2   0   7 599.410 14.5637   1
   2   0  -6 6.38219 0.83297   2
   2   0  -6 4.65036 0.78101   2
  -2   0   6 1.55873 2.79247   1
   2   0  -6 3.47332 3.51574   1
   2   0  -5 731.872 14.6568   1
  -2   0   5 706.299 14.0886   1
  -2   0   4 0.58760 2.68627   1
  -2   0   3 5.64493 2.59465   1
  -2   0   3 6.75032 2.16677   1
  -2   0   2 199.208 6.53072   1
  -2   0   2 187.964 3.07326   2
  -2   0   2 200.654 6.75097   1
  -2   0   1 74.5881 4.08184   1
  -2   0   1 71.9055 4.02824   1
   2   0   0 1540.91 15.5783   1
  -2   0   0 1519.89 15.4801   1
  -2   0  -1 1314.12 13.8462   1
   2   0   1 1289.45 13.8250   1
   2   0   2 80.4617 3.73054   1
  -2   0  -2 90.6595 3.91305   1
   2   0   3 250.480 6.16636   1
  -2   0  -3 256.068 6.25095   1
   2   0   4 375.461 7.64846   1
  -2   0  -4 369.034 7.60919   1
   2   0   5 0.42879 1.81284   1
  -2   0  -5-3.66345 1.93403   1
  -2   0  -6 61.9398 3.94193   1
   2   0   6 55.9586 3.74190   1
  -2   0  -7 28.2144 3.28369   1
   2   0   7 26.7507 3.22684   1
  -2   0  -8-0.79875 2.68335   1
   2   0   8-0.18591 2.63389   1
  -2   0  -9 15.3042 3.44587   1
   2   0   9 22.2275 3.61702   1
   2   0  10 252.819 8.83854   1
  -2   0 -10 259.985 9.06395   1
   2   0  11 18.7001 4.60387   1
  -2   0 -11 22.5280 4.73728   1
  -2   0 -12 4.47889 4.71189   1
  -2   0 -12 4.65845 8.14494   2
   2   0  12 7.32118 4.68240   1
  -2   0 -13 9.79958 5.86126   1
  -2   0 -13 5.26159 8.79308   2
   2   0  13 3.22209 5.29702   1
  -2   0 -14 6.36111 6.87075   1
  -2   0 -14-0.50053 9.89367   2
   2   0  14 6.06175 6.48326   1
   2   1 -16 20.2265 5.03243   2
  -2  -1  16 3.55285 6.71156   1
  -2  -1  16 17.2747 7.40140   1
   2   1 -15 59.6040 7.34113   2
  -2  -1  15 51.8324 10.2413   1
   2   1 -15 48.2504 7.33972   2
  -2  -1  15 54.7296 10.4063   1
   2   1 -14 67.5836 6.56653   2
  -2  -1  14 54.7736 9.04191   1
   2   1 -14 66.3310 6.73100   2
  -2  -1  14 55.3713 9.13882   1
   2   1 -13 45.2465 5.39456   2
  -2  -1  13 38.3266 7.59266   1
  -2  -1  13 42.0178 7.63774   1
   2   1 -12 36.5143 4.54195   2
  -2  -1  12 25.2374 6.41815   1
  -2  -1  12 29.2675 6.49157   1
  -2  -1  11-0.38884 5.21074   1
  -2  -1  11 3.72488 5.14831   1
   2   1 -11 6.68662 2.99454   2
   2   1 -10 38.9570 3.50350   2
  -2  -1  10 36.2807 5.55226   1
  -2  -1  10 36.1079 5.49608   1
  -2  -1   9 122.148 7.83822   1
   2   1  -9 122.127 4.66220   2
  -2  -1   9 114.012 7.72171   1
  -2  -1   8 2.56639 3.10162   1
  -2  -1   8 3.98536 3.88911   1
   2   1  -8 3.06067 1.64973   2
   2   1  -7 363.646 5.73605   2
  -2  -1   7 357.557 10.9608   1
  -2  -1   7 367.260 11.3548   1
   2   1  -6 224.562 3.72384   2
  -2  -1   6 213.127 8.27744   1
  -2  -1   6 219.088 8.58806   1
   2   1  -5 209.320 2.82770   2
  -2  -1   5 206.048 7.74359   1
  -2  -1   5 210.302 8.05645   1
  -2  -1   4 5.44732 2.78061   1
  -2  -1   4 5.41313 0.67264   2
  -2  -1   4 3.76614 2.41983   1
  -2  -1   3 297.766 4.26441   2
  -2  -1   3 294.328 8.22477   1
   2   1  -2 302.271 8.09987   1
  -2  -1   2 291.908 5.14395   2
  -2  -1   2 306.039 8.09537   1
  -2  -1   1 1282.83 12.3137   2
  -2  -1   1 1330.94 15.8210   1
   2   1  -1 1312.68 15.8543   1
  -2  -1   0 103.963 4.60604   1
   2   1   0 105.379 4.79987   1
   2   1   1 1143.07 14.4129   1
  -2  -1  -1 1166.90 14.4923   1
   2   1   2 24.6178 2.85169   1
  -2  -1  -2 27.2242 2.90468   1
   2   1   3 65.6998 4.08068   1
  -2  -1  -3 63.1732 4.01442   1
  -2  -1  -4 187.283 6.55979   1
   2   1   4 183.506 6.50807   1
   2   1   5 2.71983 2.46993   1
  -2  -1  -5 5.36113 2.63657   1
  -2  -1  -6 138.632 6.38516   1
   2   1   6 131.237 6.14710   1
  -2  -1  -7 262.116 8.88185   1
   2   1   7 242.843 8.48065   1
  -2  -1  -8 731.509 14.9866   1
   2   1   8 759.753 15.1874   1
   2   1   9 27.7518 4.57263   1
  -2  -1  -9 33.7686 5.01312   1
  -2  -1 -10-0.93577 4.50856   1
   2   1  10-4.79946 4.54353   1
   2   1  11 18.3605 5.68228   1
  -2  -1 -11 40.3601 6.35665   1
  -2  -1 -12 15.7775 6.67910   1
   2   1  12 21.9052 6.63510   1
  -2  -1 -13 17.7513 7.12118   1
   2   1  13 4.72529 6.90812   1
  -2  -2  16 49.2620 11.4856   1
   2   2 -16 58.4981 8.51697   2
  -2  -2  16 68.8942 11.9216   1
  -2  -2  15 34.9510 9.07248   1
  -2  -2  15 32.5447 9.07465   1
   2   2 -15 31.4261 6.56059   2
  -2  -2  14 1.76352 6.98251   1
  -2  -2  14-5.59814 7.55016   1
   2   2 -14 12.1070 4.93333   2
  -2  -2  13 12.1311 6.17747   1
  -2  -2  13 4.82867 6.06978   1
   2   2 -13 4.37228 4.14628   2
  -2  -2  12 6.86351 5.27353   1
  -2  -2  12 0.44989 5.35533   1
   2   2 -12 1.08296 3.34885   2
  -2  -2  11 65.4379 6.96772   1
   2   2 -11 75.0676 4.95425   2
  -2  -2  11 77.0186 7.22161   1
  -2  -2  10 210.970 9.81895   1
   2   2 -10 213.372 6.86230   2
  -2  -2  10 212.719 9.98005   1
  -2  -2   9 270.912 10.5160   1
   2   2  -9 248.758 6.75365   2
  -2  -2   9 251.402 10.3820   1
   2   2  -8 267.686 6.34571   2
  -2  -2   8 261.641 9.86685   1
  -2  -2   8 263.970 10.0126   1
   2   2  -7 236.875 5.55044   2
  -2  -2   7 231.356 9.00768   1
  -2  -2   7 217.665 8.73991   1
  -2  -2   6 461.858 6.98700   2
   2   2  -6 456.580 7.05793   2
  -2  -2   6 468.147 12.1984   1
  -2  -2   6 441.876 11.5153   1
   2   2  -5 122.311 3.69612   2
  -2  -2   5 115.965 3.54546   2
  -2  -2   5 122.330 6.23537   1
  -2  -2   5 113.973 6.34377   1
  -2  -2   4 119.625 3.73559   2
   2   2  -4 122.462 6.05372   1
  -2  -2   4 114.173 5.77641   1
   2   2  -4 127.783 3.85399   2
   2   2  -3 3.89075 1.49100   2
   2   2  -3 8.23773 2.74459   1
  -2  -2   3 2.40019 1.56253   2
  -2  -2   3 1.69973 2.40736   1
  -2  -2   2 170.328 5.11064   2
  -2  -2   2 172.502 6.60328   1
   2   2  -2 165.622 6.58571   1
  -2  -2   1 44.7896 3.26037   2
  -2  -2   1 40.6497 3.67130   1
   2   2  -1 46.0951 3.66740   1
   2   2   0 114.752 5.44119   1
  -2  -2   0 110.459 5.00528   2
  -2  -2   0 112.895 5.43082   1
   2   2   1 359.035 9.23010   1
  -2  -2  -1 359.205 9.25044   1
  -2  -2  -1 359.301 9.21126   2
  -2  -2  -2 27.8646 3.62714   2
  -2  -2  -2 20.0074 3.34546   1
   2   2   2 20.3432 3.29900   1
   2   2   3 3.22421 2.49785   1
  -2  -2  -3 4.23271 2.63300   1
  -2  -2  -4 38.8563 4.28418   1
   2   2   4 41.2119 4.18194   1
  -2  -2  -5 219.162 8.42274   1
   2   2   5 218.853 8.38128   1
  -2  -2  -6 236.146 9.19075   1
   2   2   6 246.550 9.25126   1
  -2  -2  -7 63.8331 5.83779   1
   2   2   7 67.2207 5.91020   1
  -2  -2  -8 6.67699 4.34916   1
   2   2   8 1.65361 4.07598   1
  -2  -2  -9 12.2826 5.15050   1
   2   2   9 17.8091 5.33081   1
  -2  -2 -10-1.30990 6.82616   2
  -2  -2 -10 2.57094 5.44246   1
   2   2  10 0.04638 5.27808   1
  -2  -2 -11 9.62898 7.36910   2
  -2  -2 -11 10.3209 6.19849   1
   2   2  11-0.34854 6.65246   1
  -2  -2 -12-3.85378 10.2749   2
  -2  -2 -12-0.21643 7.43298   1
   2   2  12-2.91846 7.30624   1
  -2  -2 -13-0.28836 8.77061   1
  -2  -2 -13 5.14445 10.8849   2
   2   2  13 5.66648 8.55788   1
  -2  -3  16 12.0397 9.68314   1
  -2  -3  16-5.01598 9.25395   1
   2   3 -16-11.5849 7.08713   2
   2   3 -15-0.76818 5.74271   2
  -2  -3  15-0.24069 7.63150   1
  -2  -3  15 15.1168 8.15662   1
   2   3 -14-1.43773 4.98329   2
  -2  -3  14 6.73685 6.85628   1
  -2  -3  14 11.1263 7.01538   1
  -2  -3  13 50.1597 7.44428   1
   2   3 -13 35.9121 5.47192   2
  -2  -3  13 38.2686 7.14246   1
  -2  -3  12 22.9490 6.00080   1
   2   3 -12 19.1558 4.20782   2
  -2  -3  12 25.6724 5.85182   1
   2   3 -11 120.186 6.21094   2
  -2  -3  11 125.096 8.48368   1
  -2  -3  11 118.081 8.38418   1
   2   3 -10 11.2551 3.19211   2
  -2  -3  10 2.90169 4.31992   1
  -2  -3  10 10.4629 4.44275   1
   2   3  -9 100.716 5.02830   2
  -2  -3   9 102.297 6.91347   1
  -2  -3   9 97.7624 7.04322   1
  -2  -3   8 179.534 6.05236   2
   2   3  -8 188.307 6.23389   2
  -2  -3   8 179.560 8.35416   1
  -2  -3   8 163.189 8.43984   1
  -2  -3   7-3.14603 3.00686   1
   2   3  -7-2.95977 1.95336   2
  -2  -3   7-1.85969 2.01602   2
  -2  -3   7 1.21481 3.33640   1
  -2  -3   6 2.98164 3.14557   1
   2   3  -6 5.16914 3.35808   1
   2   3  -6 5.78031 2.03289   2
  -2  -3   6 3.31272 1.98300   2
   2   3  -5 635.258 10.1426   2
  -2  -3   5 616.274 9.95748   2
   2   3  -5 617.409 13.4648   1
  -2  -3   5 632.365 13.3934   1
  -2  -3   4 51.1579 4.35158   1
  -2  -3   4 44.7392 3.31682   2
   2   3  -4 44.3625 3.20238   2
   2   3  -4 51.0893 4.64641   1
   2   3  -3 1433.00 15.9339   2
  -2  -3   3 1538.84 19.9770   1
   2   3  -3 1507.62 19.9911   1
  -2  -3   3 1428.77 15.9494   2
   2   3  -2 116.807 5.14008   2
  -2  -3   2 112.541 5.13859   2
   2   3  -2 113.965 5.99752   1
  -2  -3   2 109.289 5.95857   1
  -2  -3   1 108.728 5.26454   2
   2   3  -1 111.102 6.02842   1
  -2  -3   1 107.765 5.88485   1
   2   3   0 242.035 8.43682   1
  -2  -3   0 246.412 8.03386   2
  -2  -3   0 230.459 8.30600   1
  -2  -3  -1 0.72098 2.80643   2
   2   3   1 1.20483 3.04051   1
  -2  -3  -1-1.65628 2.83855   1
  -2  -3  -2 6.94068 3.33642   2
  -2  -3  -2 9.06016 2.99642   1
   2   3   2 2.76130 3.13675   1
  -2  -3  -3 49.3299 5.30071   2
  -2  -3  -3 43.8179 4.59057   1
   2   3   3 38.2284 4.65942   1
  -2  -3  -4 94.0481 6.56958   1
   2   3   4 84.1322 6.20921   1
  -2  -3  -4 83.8168 6.79684   2
  -2  -3  -5 41.0582 5.19098   1
  -2  -3  -5 39.8957 6.01297   2
   2   3   5 43.2862 5.45753   1
  -2  -3  -6 148.056 9.04225   2
  -2  -3  -6 152.711 8.61469   1
   2   3   6 146.709 8.41286   1
  -2  -3  -7-4.94072 4.86625   2
  -2  -3  -7 6.23460 4.64590   1
   2   3   7 3.90281 4.40368   1
  -2  -3  -8-7.67606 6.20140   2
  -2  -3  -8 3.58318 5.14673   1
   2   3   8-3.45797 5.17152   1
  -2  -3  -9 70.5962 9.58314   2
   2   3   9 67.4996 8.12212   1
  -2  -3  -9 71.0371 8.11584   1
  -2  -3 -10 13.4709 8.56864   2
  -2  -3 -10 9.48976 6.74351   1
   2   3  10 4.08669 6.62904   1
  -2  -3 -11 15.8679 10.3748   2
  -2  -3 -11-4.38126 7.57433   1
   2   3  11-9.78784 7.66412   1
  -2  -3 -12 3.36763 11.2612   2
  -2  -3 -12-9.25239 8.92357   1
   2   3  12-3.38593 9.06270   1
  -2  -4  16 39.7518 10.1256   1
   2   4 -16 31.5588 8.07277   2
  -2  -4  16 49.7996 10.2309   1
  -2  -4  15 14.7059 8.26936   1
  -2  -4  15 37.0510 8.98166   1
   2   4 -15 26.7156 6.90035   2
  -2  -4  14 0.27169 6.57247   1
  -2  -4  14 4.93269 6.86271   1
   2   4 -14 9.73019 5.10393   2
  -2  -4  13 25.2505 6.64745   1
   2   4 -13 27.9842 5.30971   2
  -2  -4  13 11.9074 6.12557   1
   2   4 -12 42.7184 5.18365   2
  -2  -4  12 43.5744 6.53740   1
  -2  -4  12 42.3726 6.60076   1
  -2  -4  11 10.5964 4.71514   1
  -2  -4  11 2.98813 4.81749   1
   2   4 -11 9.00373 3.85466   2
  -2  -4  10 18.8598 5.09017   1
   2   4 -10 12.9031 3.62262   2
  -2  -4  10 12.4712 4.76021   1
   2   4  -9 23.4323 3.69236   2
  -2  -4   9 20.1716 3.55744   2
  -2  -4   9 28.3780 5.05731   1
  -2  -4   9 20.3135 4.90807   1
   2   4  -8 8.28350 2.85477   2
  -2  -4   8 11.1254 2.94189   2
  -2  -4   8 7.50845 3.68892   1
  -2  -4   8 14.5794 4.23111   1
  -2  -4   7 60.7483 4.26350   2
   2   4  -7 52.7089 4.18830   2
  -2  -4   7 62.1463 5.60861   1
   2   4  -7 59.5358 5.64270   1
   2   4  -6 523.300 10.9375   2
  -2  -4   6 535.434 13.2226   1
   2   4  -6 531.271 13.3728   1
  -2  -4   6 537.261 10.9792   2
  -2  -4   5 26.2881 4.16512   1
  -2  -4   5 32.6449 3.49850   2
   2   4  -5 31.3280 3.48892   2
   2   4  -5 31.7848 4.14372   1
  -2  -4   4 117.194 6.59618   1
   2   4  -4 110.973 5.50928   2
  -2  -4   4 107.207 5.45645   2
   2   4  -4 111.060 6.60507   1
   2   4  -3 84.7628 5.15691   2
  -2  -4   3 89.9271 5.24729   2
   2   4  -3 95.0318 5.95391   1
  -2  -4   3 77.7233 5.75416   1
   2   4  -2 70.6104 4.90224   2
   2   4  -2 68.0927 5.33893   1
  -2  -4   2 64.9126 4.70177   2
  -2  -4   2 72.6992 5.50760   1
  -2  -4   1 8.80414 2.94805   2
  -2  -4   1 8.36660 3.36897   1
   2   4  -1 0.03317 3.26989   1
   2   4  -1 1.05241 2.94647   2
  -2  -4   0 151.702 7.43920   2
   2   4   0 144.179 7.56235   1
  -2  -4   0 150.939 7.64954   1
   2   4   1 87.5725 6.49427   1
  -2  -4  -1 92.8235 6.08388   2
  -2  -4  -1 95.8134 6.55741   1
  -2  -4  -2 238.166 9.82741   1
  -2  -4  -2 213.525 9.39484   2
   2   4   2 205.329 8.95693   1
  -2  -4  -3 36.1242 4.98839   2
  -2  -4  -3 30.4549 4.92272   1
   2   4   3 35.8836 5.01551   1
  -2  -4  -4 576.605 16.2493   2
   2   4   4 561.368 15.3332   1
  -2  -4  -4 561.264 15.4417   1
  -2  -4  -5 10.6362 4.73896   2
   2   4   5 11.2393 4.82957   1
  -2  -4  -5 16.2142 5.30311   1
  -2  -4  -6 11.4606 6.11214   2
  -2  -4  -6 19.8001 5.46225   1
   2   4   6 8.84062 4.91729   1
  -2  -4  -7 8.32998 5.52427   2
  -2  -4  -7 12.9843 5.66552   1
   2   4   7 4.47756 5.80459   1
  -2  -4  -8-3.33643 5.93415   2
  -2  -4  -8 6.96172 6.24162   1
   2   4   8 7.44685 6.30552   1
  -2  -4  -9 52.2062 9.89993   2
   2   4   9 44.7305 8.25556   1
  -2  -4  -9 66.9716 9.20118   1
   2   4  10 20.6019 9.18526   1
  -2  -4 -10 33.6511 9.51974   2
  -2  -4 -10 53.5206 10.0391   1
  -2  -4 -11 0.33743 11.1224   2
  -2  -4 -11-0.06907 9.69987   1
   2   4  11 14.0570 9.91502   1
   2   5 -16 42.6570 9.22595   2
  -2  -5  16 58.6831 10.5124   1
  -2  -5  16 28.6909 9.98861   1
  -2  -5  15 27.1514 8.16903   1
   2   5 -15 29.2531 7.48723   2
  -2  -5  15 28.0555 8.57808   1
  -2  -5  14 2.80985 6.84676   1
   2   5 -14 9.10329 6.07285   2
  -2  -5  14 5.93108 6.75145   1
  -2  -5  13 17.1430 6.40925   1
   2   5 -13 12.5243 5.32115   2
  -2  -5  13 8.74760 6.18202   1
   2   5 -12 4.07019 4.52434   2
  -2  -5  12 4.69018 5.27566   1
  -2  -5  12-4.85344 5.57292   1
   2   5 -11-2.12161 3.96280   2
  -2  -5  11 8.48406 5.37514   1
  -2  -5  11 7.30103 5.03138   1
   2   5 -10 4.87891 3.95133   2
  -2  -5  10 4.56872 4.74699   1
  -2  -5  10 6.53480 3.82206   2
  -2  -5  10 2.63380 4.61318   1
   2   5  -9 2.43321 3.34967   2
  -2  -5   9 0.98793 4.12931   1
  -2  -5   9 0.56768 3.27770   2
  -2  -5   9-3.92870 4.41198   1
   2   5  -8-2.31816 3.20728   2
  -2  -5   8 4.66179 4.33291   1
  -2  -5   8 0.78068 3.09421   2
   2   5  -8 1.05006 3.71887   1
  -2  -5   7 273.080 10.5348   1
   2   5  -7 270.783 9.26523   2
  -2  -5   7 272.606 9.20150   2
   2   5  -7 280.192 10.8288   1
  -2  -5   6 30.6668 4.18541   2
   2   5  -6 34.6903 4.31065   2
   2   5  -6 34.0641 4.78001   1
  -2  -5   6 32.8745 4.84536   1
  -2  -5   5 59.7866 4.97680   2
   2   5  -5 64.4826 5.19792   2
   2   5  -5 54.3873 5.73542   1
  -2  -5   5 60.2129 5.67311   1
   2   5  -4-2.47795 3.80997   1
   2   5  -4 0.34004 2.89215   2
  -2  -5   4 1.96830 3.03587   2
  -2  -5   4-1.62769 3.51377   1
  -2  -5   3 36.2219 4.41118   2
   2   5  -3 33.3646 4.55868   2
   2   5  -3 39.4546 4.77424   1
  -2  -5   3 30.7290 4.80956   1
  -2  -5   2 323.635 10.7048   2
   2   5  -2 311.883 11.0807   1
  -2  -5   2 310.874 11.1914   1
   2   5  -2 322.857 10.5096   2
   2   5  -1 26.1901 4.72015   1
   2   5  -1 36.4646 4.53983   2
  -2  -5   1 36.6378 5.34023   1
  -2  -5   1 35.7543 4.54819   2
   2   5   0 13.0174 4.34026   1
  -2  -5   0 11.1530 4.54097   1
  -2  -5   0 7.64292 3.96854   2
   2   5   0 14.5024 3.73980   2
  -2  -5  -1 146.646 8.63833   2
  -2  -5  -1 139.045 8.36970   1
   2   5   1 142.050 8.31681   1
  -2  -5  -2-1.64210 3.75152   1
   2   5   2-3.60323 3.96592   1
  -2  -5  -2 2.19771 4.47230   2
  -2  -5  -3 5.78442 4.32154   2
  -2  -5  -3 9.33698 4.41009   1
   2   5   3 9.67230 4.85415   1
  -2  -5  -4 13.2381 5.02461   2
  -2  -5  -4 13.0051 5.05024   1
   2   5   4 15.2904 5.09119   1
  -2  -5  -5 6.28759 5.99759   2
  -2  -5  -5-0.65315 5.07974   1
   2   5   5 3.77634 5.72660   1
  -2  -5  -6 3.59245 5.60367   2
  -2  -5  -6-3.88239 6.35660   1
   2   5   6 0.46051 6.02089   1
  -2  -5  -7 1.74454 7.77760   2
  -2  -5  -7 0.80178 6.94982   1
   2   5   7 4.85324 7.18479   1
  -2  -5  -8 89.6985 11.5194   2
  -2  -5  -8 89.2875 10.2997   1
   2   5   8 82.5570 10.0201   1
  -2  -5  -9 93.2312 13.1076   2
   2   5   9 90.6049 11.9724   1
  -2  -5  -9 93.8453 12.3709   1
  -2  -5 -10 2.04892 10.5074   2
  -2  -5 -10 36.1944 10.8676   1
   2   5  10 22.5778 10.5184   1
  -2  -6  16 13.5924 6.17259   1
  -2  -6  16 8.14377 5.50559   1
   2   6 -16 12.1015 5.36553   2
  -2  -6  15 0.23201 8.70734   1
   2   6 -15-3.33069 8.06602   2
  -2  -6  15 4.92773 8.04643   1
  -2  -6  14 5.72698 7.57011   1
   2   6 -14-1.08201 6.68367   2
  -2  -6  14 7.84394 7.14029   1
  -2  -6  13 20.5754 6.69926   1
   2   6 -13 16.6469 6.17500   2
  -2  -6  13 0.27302 6.41814   1
  -2  -6  12 8.06416 5.97751   1
  -2  -6  12-2.02581 5.55689   1
   2   6 -12-0.39609 5.32302   2
  -2  -6  12-4.98339 5.15294   2
  -2  -6  11-1.99747 5.31868   1
   2   6 -11-3.58461 4.77225   2
  -2  -6  11 2.62514 4.66451   2
  -2  -6  11-4.49212 5.77961   1
  -2  -6  10 36.9567 6.20143   1
   2   6 -10 42.0684 5.79703   2
  -2  -6  10 33.0711 5.37602   2
  -2  -6  10 30.7218 6.60256   1
   2   6  -9 7.26365 4.28881   2
  -2  -6   9 15.9589 4.59999   2
  -2  -6   9 14.8323 4.95561   1
   2   6  -9 5.36235 4.83844   1
   2   6  -8 27.2709 4.95188   2
   2   6  -8 29.6890 5.33711   1
  -2  -6   8 24.6124 4.72776   2
  -2  -6   8 23.4398 4.91534   1
   2   6  -7 98.1604 6.93192   2
  -2  -6   7 82.2851 6.52059   2
  -2  -6   7 87.9502 7.01045   1
   2   6  -7 96.3916 7.66156   1
   2   6  -6 6.73242 3.85677   2
   2   6  -6 15.3281 4.93944   1
  -2  -6   6 5.36018 3.89882   2
  -2  -6   6 14.7101 4.66392   1
   2   6  -5 75.5922 6.23289   2
  -2  -6   5 79.3006 6.43724   2
   2   6  -5 73.1094 6.46555   1
  -2  -6   5 87.7209 6.82268   1
  -2  -6   4 76.9010 6.47564   2
   2   6  -4 77.4759 6.93997   1
   2   6  -4 79.0896 6.53455   2
  -2  -6   4 82.0042 6.79128   1
   2   6  -3 176.175 8.85396   2
  -2  -6   3 176.027 8.99098   2
  -2  -6   3 193.993 9.46827   1
   2   6  -3 175.828 9.37782   1
   2   6  -2 257.924 10.4916   2
  -2  -6   2 253.076 10.4845   2
   2   6  -2 235.307 10.8466   1
  -2  -6   2 244.987 10.9534   1
   2   6  -1 231.358 10.5732   2
  -2  -6   1 234.414 11.0443   1
  -2  -6   1 235.809 10.6858   2
   2   6  -1 222.931 10.8742   1
   2   6   0 363.594 13.5355   1
  -2  -6   0 380.877 13.5440   2
  -2  -6   0 367.970 13.5298   1
   2   6   0 374.775 13.2443   2
  -2  -6  -1 22.9111 6.09867   1
  -2  -6  -1 18.8889 5.29501   2
   2   6   1 27.4683 6.26803   1
  -2  -6  -2 49.4524 6.68321   2
  -2  -6  -2 47.4849 6.86493   1
   2   6   2 39.0641 6.35271   1
  -2  -6  -3-0.73505 5.34399   2
  -2  -6  -3-3.95764 6.34548   1
   2   6   3 10.8834 5.88811   1
  -2  -6  -4 2.35887 6.06289   2
  -2  -6  -4-0.59856 5.33602   1
   2   6   4 1.00842 6.32428   1
  -2  -6  -5 79.4886 9.84395   1
  -2  -6  -5 70.6306 8.83790   2
   2   6   5 63.4643 8.99006   1
  -2  -6  -6 135.020 11.4634   2
  -2  -6  -6 113.188 11.3692   1
   2   6   6 117.902 10.8025   1
  -2  -6  -7 2.86520 9.58226   2
  -2  -6  -7-5.74279 8.04674   1
   2   6   7 12.4134 9.19870   1
  -2  -6  -8 166.013 15.0948   2
  -2  -6  -8 166.014 14.6352   1
  -2  -6  -9-3.75988 12.2840   2
  -2  -6  -9-17.6348 11.9323   1
   2   6   9 12.7324 10.8828   1
   2   7 -15 85.2021 10.9376   2
  -2  -7  15 64.9161 10.6217   1
  -2  -7  15 68.6447 10.4349   1
  -2  -7  14-5.05746 7.76439   1
  -2  -7  14-9.91368 8.14332   1
   2   7 -14-4.78079 7.63551   2
  -2  -7  13 15.6329 7.26473   1
  -2  -7  13 17.2689 7.47436   1
   2   7 -13 29.0743 7.42730   2
  -2  -7  13 7.84259 6.61055   2
  -2  -7  12 4.45350 6.34434   1
   2   7 -12 2.01553 6.04448   2
  -2  -7  12-4.41190 6.15365   2
  -2  -7  12 6.68483 6.66236   1
   2   7 -11 64.1726 7.64817   2
  -2  -7  11 67.4945 7.67185   2
  -2  -7  11 67.4933 8.48702   1
  -2  -7  11 69.4265 8.03610   1
   2   7 -10 11.4052 5.94598   1
   2   7 -10 12.7879 5.56511   2
  -2  -7  10 5.81648 5.23589   2
  -2  -7  10 5.82355 5.35115   1
   2   7  -9 114.784 8.54548   2
   2   7  -9 107.951 8.81085   1
  -2  -7   9 105.369 8.15604   2
  -2  -7   9 127.674 9.08309   1
   2   7  -8-2.57387 5.21586   1
   2   7  -8 1.80762 4.81200   2
  -2  -7   8 2.54038 4.55840   2
  -2  -7   8-3.20380 5.12227   1
  -2  -7   7 28.9605 5.57442   2
   2   7  -7 27.3915 5.42986   2
  -2  -7   7 21.5138 5.35544   1
   2   7  -7 34.5720 6.58979   1
   2   7  -6-0.98357 4.23497   1
   2   7  -6 5.33789 4.38217   2
  -2  -7   6 6.97179 4.78365   2
  -2  -7   6 5.29792 4.91175   1
   2   7  -5 19.5362 5.18926   1
   2   7  -5 9.26182 4.90149   2
  -2  -7   5 13.7916 5.72871   1
  -2  -7   5 14.2699 5.22212   2
   2   7  -4 45.4376 6.48853   2
  -2  -7   4 46.4623 6.10412   2
   2   7  -4 40.4709 6.33097   1
  -2  -7   4 39.8127 5.95107   1
   2   7  -3 6.88589 5.29070   2
  -2  -7   3 7.29063 5.51987   1
  -2  -7   3 0.33785 4.64981   2
   2   7  -3-0.71398 4.19148   1
  -2  -7   2-2.10427 5.40530   1
  -2  -7   2 7.31815 4.90183   2
   2   7  -2 0.26180 4.95890   1
   2   7  -2-3.34668 4.55144   2
   2   7  -1 203.446 10.7742   2
   2   7  -1 211.028 11.3899   1
  -2  -7   1 205.275 11.3209   1
  -2  -7   1 200.349 10.9606   2
   2   7   0 44.5958 6.59688   1
  -2  -7   0 37.4246 7.12788   2
  -2  -7   0 46.7719 6.96794   1
   2   7   0 48.9999 7.23244   2
  -2  -7  -1 33.1056 7.45885   2
  -2  -7  -1 33.7688 6.76465   1
   2   7   1 35.7523 7.74325   1
   2   7   2-5.96838 6.46122   1
  -2  -7  -2-3.89006 6.65349   2
  -2  -7  -2 10.6459 5.90051   1
   2   7   3 28.0795 7.55356   1
  -2  -7  -3 38.5529 8.37971   2
  -2  -7  -3 33.3517 7.37114   1
  -2  -7  -4 6.57877 8.34145   2
  -2  -7  -4-4.52770 6.83159   1
   2   7   4 5.92010 6.90371   1
  -2  -7  -5 112.940 11.4458   1
  -2  -7  -5 122.124 12.9272   2
   2   7   5 122.430 11.7281   1
  -2  -7  -6 126.664 14.0245   2
  -2  -7  -6 120.971 12.5571   1
  -2  -7  -7 91.3450 12.6221   1
  -2  -7  -7 82.7855 12.9582   2
   2   8 -14 27.3186 9.50086   2
  -2  -8  14 34.7015 10.0132   1
  -2  -8  14 28.5647 8.83612   1
  -2  -8  13 7.48842 8.30784   1
   2   8 -13 3.34143 7.87178   2
  -2  -8  13 1.26297 7.70559   1
  -2  -8  13 9.23468 8.12217   2
   2   8 -12 3.29489 7.23569   2
  -2  -8  12-4.24137 6.99531   2
  -2  -8  12-3.56106 7.07564   1
  -2  -8  12 6.81441 7.80475   1
  -2  -8  11 74.2776 8.98523   2
   2   8 -11 77.0267 9.10461   2
   2   8 -11 73.5066 8.98923   1
  -2  -8  11 77.0200 8.83308   1
   2   8 -10 5.71999 6.58307   2
   2   8 -10 2.40335 6.50113   1
  -2  -8  10-10.7754 6.23973   1
  -2  -8  10 2.40515 6.13743   2
  -2  -8   9 32.9632 7.01612   1
   2   8  -9 37.1950 7.41674   1
   2   8  -9 21.2995 6.77915   2
  -2  -8   9 17.9591 6.32837   2
   2   8  -8 47.4429 7.37268   2
  -2  -8   8 46.4520 7.25342   2
  -2  -8   8 47.5800 7.31619   1
   2   8  -8 47.4420 7.72026   1
   2   8  -7 16.0848 6.41349   2
   2   8  -7 7.56796 6.24850   1
  -2  -8   7 19.7001 6.82405   1
  -2  -8   7 8.63270 5.80552   2
   2   8  -6 7.56746 6.39089   1
   2   8  -6 12.8821 5.74151   2
  -2  -8   6 15.1577 6.18803   1
  -2  -8   6 9.30591 6.10375   2
   2   8  -5 107.760 9.10416   2
  -2  -8   5 96.3672 9.03904   2
   2   8  -5 107.812 9.05241   1
  -2  -8   5 109.021 9.23751   1
   2   8  -4 33.6763 7.17369   1
   2   8  -4 25.0840 6.93732   2
  -2  -8   4 33.8268 7.08402   2
  -2  -8   4 35.3441 7.03249   1
   2   8  -3 109.082 9.28878   1
   2   8  -3 105.173 9.47493   2
  -2  -8   3 125.119 9.89728   2
  -2  -8   3 119.609 10.1679   1
   2   8  -2 307.898 14.4604   1
  -2  -8   2 306.810 14.4287   2
  -2  -8   2 304.430 14.5542   1
   2   8  -2 306.490 14.0938   2
   2   8  -1 5.39565 5.65108   2
  -2  -8   1 3.69419 6.39239   2
   2   8  -1 13.4864 6.08807   1
  -2  -8   1 8.43782 6.51606   1
   2   8   0 10.3390 6.76394   2
   2   8   0 24.5743 8.13038   1
  -2  -8   0 13.8728 7.22438   2
  -2  -8   0 17.3891 7.72029   1
   2   8   1-11.7686 7.78052   1
  -2  -8  -1-4.31082 6.76516   2
  -2  -8  -1 2.63062 7.53560   1
  -2  -8  -2 74.3384 10.5759   1
  -2  -8  -2 77.0316 9.68644   2
   2   8   2 83.1030 10.7098   1
   2   8   3 14.7108 9.95472   1
  -2  -8  -3 30.0290 8.90880   2
  -2  -8  -3 28.7072 9.94879   1
  -2  -8  -4 104.430 13.2655   2
  -2  -8  -4 92.1769 11.8638   1
   2   8   4 88.2770 12.8387   1
  -2  -8  -5-0.25450 11.6770   2
  -2  -8  -5-17.7283 11.7514   1
   2   8   5 18.3875 10.5568   1
  -2  -8  -6 3.79457 11.3584   2
  -2  -8  -6 8.13044 13.2071   1
   2   8   6 20.2652 13.6003   1
   2   9 -13 10.1823 10.1278   2
  -2  -9  13 16.4083 9.49582   1
  -2  -9  13 8.77388 9.59097   2
  -2  -9  13 5.63314 9.67096   1
   2   9 -12 5.89889 8.79429   2
  -2  -9  12 31.5458 9.25031   1
  -2  -9  12 3.82334 8.95046   2
  -2  -9  12 18.6056 9.22878   1
   2   9 -11 65.9026 10.3074   2
   2   9 -11 57.8848 10.0619   1
  -2  -9  11 64.7703 10.4290   2
  -2  -9  11 83.0012 10.6016   1
   2   9 -10 18.9075 8.62846   2
  -2  -9  10 19.9806 7.99958   1
   2   9 -10 21.3746 7.90144   1
  -2  -9  10 40.7655 8.48974   2
   2   9  -9 56.2703 8.83597   2
  -2  -9   9 80.8690 10.0402   2
  -2  -9   9 63.4859 8.80994   1
   2   9  -9 93.9478 10.6988   1
  -2  -9   8 16.7283 7.01141   1
   2   9  -8 4.49524 6.78189   2
   2   9  -8 24.2798 8.32564   1
  -2  -9   8 19.3131 7.87358   2
  -2  -9   7 4.62866 6.75608   1
   2   9  -7-6.82385 7.34900   1
  -2  -9   7 0.06172 6.85469   2
   2   9  -7 11.0011 6.82513   2
   2   9  -6 2.99920 6.54024   1
  -2  -9   6 2.54364 7.25053   1
   2   9  -6 3.72680 6.52808   2
  -2  -9   6 9.74403 7.72146   2
   2   9  -5 86.6716 10.1350   2
  -2  -9   5 80.6233 9.49133   2
   2   9  -5 72.6354 9.20735   1
  -2  -9   5 75.4923 9.35176   1
  -2  -9   4 14.3401 6.86446   1
   2   9  -4 16.1142 7.48559   2
  -2  -9   4 4.65203 7.64439   2
   2   9  -4 13.5261 7.65148   1
  -2  -9   3 5.78304 7.54161   1
   2   9  -3-1.97027 7.12723   2
  -2  -9   3-5.73995 6.95232   2
   2   9  -3-4.22108 6.44240   1
   2   9  -2 24.9920 8.63754   2
  -2  -9   2 13.5626 8.10614   2
   2   9  -2 26.8002 8.07122   1
  -2  -9   2 3.64096 8.04667   1
   2   9  -1 4.23710 8.46310   2
   2   9  -1 20.6836 9.25269   1
  -2  -9   1 4.23247 8.34092   2
  -2  -9   1 3.68875 8.36390   1
   2   9   0 13.4994 9.33936   1
  -2  -9   0 21.8188 9.34793   2
  -2  -9   0 13.5247 7.77734   1
   2   9   1-3.64298 9.96789   1
  -2  -9  -1-4.42969 9.52450   2
  -2  -9  -1 18.7435 9.81417   1
   2   9   2-17.3146 10.0640   1
  -2  -9  -2-6.35523 10.5234   2
  -2  -9  -2-6.35394 10.8450   1
   2   9   3 33.4704 11.0509   1
  -2  -9  -3 6.27117 11.2486   2
  -2  -9  -3 4.90732 11.4951   1
  -2  -9  -4-18.3794 12.8028   2
  -2  -9  -4-8.81252 11.0119   1
  -2 -10  12-8.20419 7.93323   1
   2  10 -12 4.45302 7.70846   1
   2  10 -12 25.9126 8.41404   2
  -2 -10  12 22.5965 7.73092   2
  -2 -10  11 12.4019 9.89259   1
   2  10 -11-1.46897 10.2635   2
  -2 -10  11 1.23048 9.82736   2
   2  10 -11 1.03003 9.73516   1
   2  10 -10 78.9764 12.1321   2
   2  10 -10 40.8912 10.3828   1
  -2 -10  10 61.7197 10.5413   1
  -2 -10  10 28.6705 9.76831   2
  -2 -10   9 19.2747 9.85467   1
   2  10  -9 5.36873 8.81521   2
  -2 -10   9 8.19235 8.95177   2
   2  10  -9 27.0898 10.1027   1
   2  10  -8 79.2163 11.9065   2
  -2 -10   8 85.8672 11.7297   2
  -2 -10   8 55.7276 10.5122   1
   2  10  -8 70.8171 10.9912   1
  -2 -10   7 49.7555 10.3933   2
   2  10  -7 64.9568 10.5173   2
  -2 -10   7 66.2251 10.7659   1
   2  10  -7 77.8063 11.6985   1
   2  10  -6 17.5002 9.65462   1
   2  10  -6 0.07210 7.97955   2
  -2 -10   6-1.45397 9.26000   2
  -2 -10   6 0.21859 9.13245   1
  -2 -10   5 22.5750 9.78691   1
   2  10  -5 22.2799 9.05763   2
  -2 -10   5 12.3218 9.83620   2
   2  10  -5 22.5640 9.78469   1
  -2 -10   4 4.23004 8.53611   1
   2  10  -4 11.6144 9.16907   2
  -2 -10   4 13.0192 8.95548   2
   2  10  -4 6.45544 9.74211   1
   2  10  -3 6.94951 10.1830   2
  -2 -10   3 14.5219 10.4974   2
   2  10  -3 0.46842 9.90637   1
  -2 -10   3-1.98050 9.48776   1
   2  10  -2 14.9847 10.6724   2
  -2 -10   2-0.07986 10.4751   2
   2  10  -2 14.9018 9.23477   1
  -2 -10   2 38.2395 11.8373   1
   2  10  -1 30.4356 9.78991   2
   2  10  -1 41.7121 12.1820   1
  -2 -10   1 24.7528 10.9024   2
  -2 -10   1 26.7097 10.9134   1
   2  10   0-8.57194 11.2794   1
  -2 -10   0 5.15851 11.9518   2
  -2 -10   0 23.0500 10.5582   1
  -2 -10  -1 30.4776 13.5367   2
  -2 -10  -1 24.7805 11.9788   1
  -2 -11   9 14.5443 7.70734   1
   2  11  -9 19.8175 7.92683   2
  -2 -11   9 19.2781 7.37852   2
   2  11  -9 8.00104 7.70674   1
  -2 -11   8 39.5871 11.6079   1
   2  11  -8 60.7525 13.1534   2
  -2 -11   8 78.8364 13.4607   2
   2  11  -8 68.4842 12.6888   1
   2  11  -7 37.6163 11.7606   1
   2  11  -7-1.64683 11.2318   2
  -2 -11   7 10.0675 11.6931   2
  -2 -11   7 7.16287 10.5803   1
   2  11  -6 32.3135 12.5451   1
   2  11  -6 6.58374 10.3434   2
  -2 -11   6 2.75786 10.4994   2
  -2 -11   6 1.16728 10.8405   1
   2  11  -5 14.4879 11.2832   2
  -2 -11   5 30.1025 12.8780   2
   2  11  -5 16.9218 10.8761   1
  -2 -11   5 14.4206 10.9643   1
   2  11  -4-12.2013 11.9454   2
  -2 -11   4 0.08613 12.4121   2
   2  11  -4 4.49998 10.8777   1
  -2 -11   4 12.6661 11.0987   1
   2  11  -3 27.7807 12.5618   2
  -2 -11   3 5.74976 12.1718   2
   2  11  -3-0.26694 12.7332   1
  -3  10   2-1.99889 10.8367   1
  -3  10   2 8.38758 9.62000   2
   3 -10  -2-2.29058 9.81796   2
  -3  10   1-2.09552 10.4132   1
   3 -10  -1 2.41976 10.8702   1
  -3  10   1-5.84618 9.23997   2
   3 -10  -1 7.46417 10.3757   2
   3 -10   0 3.61782 10.1105   1
  -3  10   0 14.2097 9.28462   2
  -3  10   0-14.7118 10.7145   1
   3 -10   0 1.12722 9.89625   2
   3 -10   1-0.13945 9.13974   1
  -3  10  -1 16.6504 9.08777   1
  -3  10  -1 7.41119 8.94711   2
   3 -10   1 8.32739 9.04199   2
  -3  10  -2 33.4627 9.01362   1
  -3  10  -2 28.0963 10.2819   2
   3 -10   2 34.9697 10.1191   2
   3 -10   2 45.1226 9.96044   1
   3 -10   3 11.0586 8.08197   1
  -3  10  -3-0.14842 9.74994   2
  -3  10  -3 8.53782 7.64018   1
   3 -10   3 0.80385 9.85163   2
   3 -10   4-6.81584 7.58405   1
  -3  10  -4-2.56514 10.0236   2
  -3  10  -4-1.80266 6.95390   1
   3 -10   4-12.5668 10.1765   2
   3 -10   5 4.85374 6.93645   1
   3 -10   5 6.28280 9.95358   2
  -3  10  -5 16.2728 7.05394   1
  -3  10  -6-1.82324 5.73440   1
   3 -10   6-4.50740 6.06103   1
  -3  10  -6 17.4087 10.9524   2
   3 -10   6-8.01293 10.7052   2
   3 -10   7 1.53705 5.06895   1
  -3  10  -7-4.22416 11.3811   2
  -3  10  -7 13.2854 4.80920   1
   3 -10   7-8.70655 11.9710   2
  -3  10  -8 42.6460 11.4451   2
   3 -10   8 10.3479 11.8561   2
  -3  10  -9 0.44839 11.3478   2
   3 -10   9 33.6263 12.4556   2
  -3   9   5 34.9317 10.5579   1
   3  -9  -5 21.0915 6.90765   2
  -3   9   4-14.5114 13.0073   1
   3  -9  -4 18.2684 10.8994   1
  -3   9   4-3.76782 9.53765   2
   3  -9  -4 12.3518 9.00922   2
   3  -9  -3 33.6929 10.6516   1
  -3   9   3 4.36986 9.82626   1
  -3   9   3 16.7528 8.92360   2
   3  -9  -3 41.6889 9.36874   2
  -3   9   2 4.95261 9.96633   1
  -3   9   2-5.79100 7.82093   2
   3  -9  -2-12.9661 8.02189   2
  -3   9   1 9.32034 8.73342   1
   3  -9  -1 6.16163 8.23381   1
  -3   9   1 6.53645 7.70069   2
   3  -9  -1 5.03113 7.63874   2
  -3   9   0-5.31463 7.84239   1
   3  -9   0 1.43961 7.47419   1
  -3   9   0 5.51381 7.83751   2
   3  -9   0 0.67027 7.71791   2
  -3   9  -1 26.2628 7.78895   1
   3  -9   1 20.0289 7.90478   1
  -3   9  -1 9.37661 7.29108   2
   3  -9   1 21.3896 7.99210   2
   3  -9   2 5.35664 6.69061   1
  -3   9  -2-6.57452 6.57381   1
  -3   9  -2 1.01970 7.58826   2
   3  -9   2-7.25432 7.89984   2
   3  -9   3 15.1020 6.50392   1
  -3   9  -3 25.1421 6.71567   1
  -3   9  -3 42.3894 8.67305   2
   3  -9   3 42.4277 9.01730   2
   3  -9   4 3.38008 5.66510   1
  -3   9  -4-1.35451 5.66071   1
  -3   9  -4 1.99305 7.94378   2
   3  -9   5 15.9122 5.82897   1
  -3   9  -5 6.98203 7.63393   2
  -3   9  -5 7.79231 4.92650   1
   3  -9   5 19.0327 8.47129   2
   3  -9   6 0.36898 4.78003   1
  -3   9  -6 7.23793 8.95441   2
   3  -9   6 10.2787 7.66125   2
  -3   9  -6 0.28956 4.54814   1
  -3   9  -7 11.4902 9.88842   2
  -3   9  -7 4.29026 3.24360   1
   3  -9   7 13.6723 9.22111   2
   3  -9   7-1.92258 3.53958   1
  -3   9  -8 28.1322 9.43772   2
   3  -9   8 12.9495 10.2671   2
  -3   9  -9 11.7881 9.48312   2
   3  -9   9-7.61275 9.03322   2
  -3   9 -10 59.7319 12.0288   2
  -3   9 -11 43.5193 13.5243   2
   3  -8  -7-9.44082 11.2754   1
   3  -8  -7 2.10711 6.95436   2
   3  -8  -6 5.45761 7.93612   2
  -3   8   6 3.15576 12.8113   1
  -3   8   5-11.5702 7.13054   2
   3  -8  -5-12.6324 10.4935   1
  -3   8   5 1.87674 9.27267   1
   3  -8  -4 47.1953 10.9342   1
  -3   8   4 53.0991 10.1608   1
   3  -8  -4 54.1886 8.68830   2
  -3   8   4 49.9220 8.33136   2
   3  -8  -3 19.8467 9.11437   1
  -3   8   3 11.0938 6.59906   2
   3  -8  -3 7.52554 6.43667   2
  -3   8   3 9.36437 7.94740   1
   3  -8  -2 4.45962 6.96304   1
  -3   8   2 4.99917 6.17085   2
   3  -8  -2-7.73153 6.60148   2
  -3   8   2-4.57382 7.38860   1
  -3   8   1 62.3136 8.22074   2
   3  -8  -1 59.3445 7.92083   2
  -3   8   1 61.8652 9.01240   1
   3  -8  -1 70.8497 9.25932   1
  -3   8   0 0.66442 6.19290   1
   3  -8   0 1.12757 6.19887   1
  -3   8   0-6.21028 5.97667   2
   3  -8   0-12.7547 6.18428   2
  -3   8  -1 72.7039 8.25957   2
   3  -8   1 75.8313 8.40762   2
  -3   8  -1 62.7963 7.73000   1
   3  -8   1 74.7901 8.16929   1
  -3   8  -2-9.65666 5.48492   1
   3  -8   2-2.38216 5.33397   1
  -3   8  -2-3.20840 6.44075   2
   3  -8   2-2.23939 6.26693   2
  -3   8  -3 21.4340 6.79684   2
  -3   8  -3 30.0245 5.68919   1
   3  -8   3 25.3117 6.51396   2
   3  -8   3 31.0203 5.82644   1
   3  -8   4 9.21914 4.61543   1
  -3   8  -4 12.7048 4.71307   1
  -3   8  -4 9.16770 6.95452   2
   3  -8   4 22.1502 7.22394   2
  -3   8  -5 60.2735 8.81087   2
   3  -8   5 59.7279 8.07150   2
  -3   8  -5 42.7843 5.07350   1
   3  -8   5 47.2997 5.40929   1
  -3   8  -6 1.85568 6.71379   2
   3  -8   6 7.21545 7.44030   2
  -3   8  -6 5.35841 3.26385   1
   3  -8   6 1.62163 3.38520   1
  -3   8  -7 6.28635 1.58541   1
  -3   8  -7 14.8316 7.50280   2
  -3   8  -7 4.59839 1.60159   1
   3  -8   7 5.94026 6.73033   2
  -3   8  -8-5.26092 7.73917   2
   3  -8   8-4.29393 8.40046   2
  -3   8  -9 5.40683 9.39299   2
  -3   8 -10 27.2899 9.46540   2
  -3   8 -11-3.26250 11.9361   2
  -3   8 -12 17.6397 13.2390   2
   3  -7  -8 41.0833 8.58042   2
   3  -7  -8 61.3857 13.3705   1
  -3   7   8 53.3111 13.4202   1
   3  -7  -7 29.8716 7.72729   2
  -3   7   7 23.5848 10.8235   1
   3  -7  -6 44.9518 7.48220   2
   3  -7  -6 58.8412 11.3747   1
  -3   7   6 29.8773 8.96501   1
  -3   7   5 54.1923 7.46702   2
   3  -7  -5 43.4793 7.00455   2
   3  -7  -5 67.8839 10.3829   1
  -3   7   5 40.3924 9.86133   1
   3  -7  -4-12.6013 7.74819   1
  -3   7   4 8.72712 5.52810   2
   3  -7  -4 4.74202 5.32131   2
  -3   7   4-6.86464 6.29014   1
  -3   7   3 45.3849 6.56926   2
   3  -7  -3 35.9161 8.12633   1
   3  -7  -3 44.7171 6.60735   2
  -3   7   3 46.7969 7.61573   1
  -3   7   2 76.8436 7.35263   2
   3  -7  -2 80.5094 7.42975   2
  -3   7   2 64.5760 8.52424   1
   3  -7  -2 74.0007 8.98182   1
  -3   7   1 63.8743 6.92556   2
   3  -7  -1 65.7659 7.01152   2
  -3   7   1 68.1443 7.95209   1
   3  -7  -1 55.2141 7.65215   1
   3  -7   0 2.29164 4.99445   1
  -3   7   0-2.50216 4.63864   2
   3  -7   0-5.36412 4.40108   2
  -3   7   0 8.99737 5.39072   1
   3  -7   1-2.78779 4.89961   1
  -3   7  -1-4.69673 5.10730   2
   3  -7   1-5.29497 5.01962   2
  -3   7  -1 1.90541 4.64954   1
  -3   7  -2 292.698 12.3845   2
   3  -7   2 304.165 12.4186   2
  -3   7  -2 295.396 11.0930   1
   3  -7   2 301.233 11.3698   1
  -3   7  -3 227.521 11.3218   2
   3  -7   3 229.685 11.3555   2
  -3   7  -3 234.108 9.41460   1
   3  -7   3 221.057 9.24884   1
  -3   7  -4 30.2504 6.76246   2
  -3   7  -4 23.7862 4.17820   1
   3  -7   4 19.0949 4.15497   1
   3  -7   4 16.9996 6.11085   2
  -3   7  -5 95.5231 9.01489   2
   3  -7   5 87.8463 8.42105   2
  -3   7  -5 89.1882 5.26736   1
   3  -7   5 78.2123 5.19392   1
  -3   7  -6 0.40618 1.98597   1
  -3   7  -6-0.74311 5.80162   2
   3  -7   6-4.70643 5.75052   2
  -3   7  -6 1.47961 2.02254   1
  -3   7  -7 8.75586 6.97029   2
   3  -7   7 0.66965 6.90394   2
  -3   7  -8 0.71277 6.05386   2
  -3   7  -9 23.8952 7.65951   2
  -3   7 -10 36.2739 10.1526   2
  -3   7 -11 34.9190 11.2185   2
  -3   7 -12-2.09512 11.6039   2
   3  -6 -10 10.2491 6.80778   2
   3  -6  -9-8.89519 13.1549   1
   3  -6  -9 9.76957 6.37339   2
  -3   6   9 7.58343 11.8810   1
   3  -6  -8-1.26108 8.78875   1
   3  -6  -8-0.28294 5.89141   2
  -3   6   8-4.69207 9.39981   1
   3  -6  -7 45.9699 10.2919   1
   3  -6  -7 30.8625 6.30387   2
  -3   6   7 40.1992 8.68836   1
   3  -6  -6-3.87907 8.12615   1
   3  -6  -6 1.60629 4.75911   2
  -3   6   6 10.0473 6.82540   1
  -3   6   5 69.7860 6.67557   2
  -3   6   5 60.5410 8.53180   1
   3  -6  -5 60.0453 6.21486   2
   3  -6  -5 53.2214 8.84915   1
  -3   6   4 38.8651 7.89948   1
   3  -6  -4 50.9730 5.66750   2
  -3   6   4 54.8392 5.93893   2
   3  -6  -4 51.1052 7.93628   1
  -3   6   3 83.1228 6.53967   2
  -3   6   3 73.8092 8.21015   1
   3  -6  -3 87.2932 6.82864   2
   3  -6  -3 88.2380 8.58892   1
   3  -6  -2 3.53020 5.03121   1
  -3   6   2 6.04755 3.92882   2
   3  -6  -2 4.05684 3.87954   2
  -3   6   2-0.59625 5.10965   1
   3  -6  -1 22.3458 5.40943   1
  -3   6   1 17.2963 4.52235   2
   3  -6  -1 13.1183 4.31318   2
  -3   6   1 13.9553 4.93571   1
  -3   6   0 241.511 10.0087   2
  -3   6   0 266.753 10.8425   1
   3  -6   0 234.728 9.76576   2
   3  -6   0 234.192 10.4765   1
  -3   6  -1 262.816 10.6284   2
  -3   6  -1 260.093 10.1361   1
   3  -6   1 247.641 10.2560   2
   3  -6   1 250.185 10.1606   1
  -3   6  -2 107.678 7.59321   2
  -3   6  -2 103.527 6.56854   1
   3  -6   2 107.880 7.54112   2
   3  -6   2 103.588 6.61473   1
  -3   6  -3 23.3522 3.86528   1
  -3   6  -3 22.8511 5.40386   2
   3  -6   3 16.6074 4.96934   2
   3  -6   3 23.6479 4.11481   1
  -3   6  -4 74.3491 7.09865   2
   3  -6   4 69.8482 7.19831   2
  -3   6  -4 68.9125 4.69161   1
   3  -6   4 65.2785 4.75842   1
  -3   6  -5 155.886 9.39918   2
   3  -6   5 152.854 9.81686   2
  -3   6  -5 159.456 5.41576   1
  -3   6  -6 55.2874 7.29033   2
   3  -6   6 50.2725 6.99774   2
  -3   6  -7 0.38992 4.99083   2
  -3   6  -8 31.7837 6.95740   2
  -3   6  -9 127.894 11.0912   2
  -3   6 -10 14.6044 7.24725   2
  -3   6 -11 14.2183 9.17425   2
  -3   6 -12 23.0921 10.4719   2
  -3   6 -13-1.29401 12.2764   2
   3  -5 -11-12.2660 12.4966   1
   3  -5 -11 2.30942 6.32186   2
  -3   5  11-9.25954 12.7144   1
   3  -5 -10-0.28201 5.71156   2
  -3   5  10 8.16522 10.8784   1
   3  -5  -9-4.67404 10.1306   1
   3  -5  -9 3.43454 5.05289   2
  -3   5   9-13.6285 8.97533   1
   3  -5  -8-2.27031 7.53190   1
   3  -5  -8 1.25580 4.33494   2
  -3   5   8 14.1075 8.63320   1
   3  -5  -7 6.69367 7.49803   1
   3  -5  -7 8.08063 4.05879   2
  -3   5   7-5.29698 7.00646   1
   3  -5  -6 10.0735 6.52609   1
   3  -5  -6 10.8980 3.82871   2
  -3   5   6 5.79434 6.77065   1
   3  -5  -5 9.13738 6.11632   1
  -3   5   5 9.95464 3.78259   2
   3  -5  -5 6.57552 3.58949   2
  -3   5   5 0.17004 6.06430   1
   3  -5  -4 19.5276 5.66421   1
  -3   5   4 17.6160 3.83841   2
   3  -5  -4 16.5948 3.59557   2
  -3   5   4 11.5467 6.04738   1
   3  -5  -3 1.88049 4.41845   1
  -3   5   3 7.49642 3.32141   2
   3  -5  -3 2.55815 3.24215   2
  -3   5   3 9.65694 4.76427   1
   3  -5  -2 14.5619 5.01274   1
  -3   5   2 12.9442 3.49391   2
  -3   5   2 16.9816 5.23404   1
   3  -5  -2 5.39034 3.11776   2
  -3   5   1 118.668 7.61383   1
  -3   5   1 117.274 6.63513   2
   3  -5  -1 108.716 6.35177   2
   3  -5  -1 97.6608 7.25429   1
  -3   5   0 272.555 9.61767   2
   3  -5   0 267.632 9.40547   2
  -3   5   0 263.590 9.91752   1
   3  -5   0 269.235 10.2061   1
  -3   5  -1 166.273 7.61220   1
  -3   5  -1 160.160 7.81787   2
   3  -5   1 170.838 7.99133   2
   3  -5   1 149.291 7.46222   1
   3  -5   2 1.77147 3.07249   1
  -3   5  -2 3.75696 3.62070   2
  -3   5  -2-2.10241 2.73770   1
   3  -5   2-0.89154 3.45564   2
  -3   5  -3 4.81951 3.84950   2
   3  -5   3 9.70656 4.01712   2
  -3   5  -3 7.13676 2.74588   1
   3  -5   3 10.1322 3.11362   1
  -3   5  -4 6.45422 2.39346   1
  -3   5  -4 9.49425 4.37493   2
   3  -5   4 5.58592 4.12606   2
  -3   5  -4 5.29716 2.31470   1
  -3   5  -5 20.5631 2.05487   1
  -3   5  -5 28.9513 5.61394   2
  -3   5  -5 23.9681 2.07655   1
  -3   5  -6 36.8162 6.48940   2
  -3   5  -7 60.9969 7.31239   2
  -3   5  -8 4.41745 6.33564   2
  -3   5  -9 72.1473 8.98843   2
  -3   5 -10 21.4386 8.16692   2
  -3   5 -11 6.42531 7.35837   2
  -3   5 -12 11.8549 9.22721   2
  -3   5 -13 31.5408 10.3805   2
   3  -4 -12 48.9664 6.73329   2
   3  -4 -12 85.4793 14.2607   1
   3  -4 -11 10.5285 5.19435   2
  -3   4  11 38.6405 11.7441   1
   3  -4 -11 19.9922 12.0387   1
   3  -4 -10 164.825 7.66372   2
  -3   4  10 170.647 13.3065   1
   3  -4 -10 158.067 13.4719   1
   3  -4  -9 4.75788 8.69424   1
   3  -4  -9 4.24380 3.83318   2
  -3   4   9-5.68054 6.49155   1
   3  -4  -8 21.8290 8.33164   1
   3  -4  -8 8.04733 3.45935   2
  -3   4   8 19.4171 6.68618   1
  -3   4   7 56.5134 8.32397   1
   3  -4  -7 50.8609 4.48639   2
   3  -4  -7 54.6310 8.87702   1
  -3   4   6 63.1155 7.97350   1
   3  -4  -6 55.8340 4.33507   2
   3  -4  -6 59.0360 7.41461   1
   3  -4  -5 19.8894 6.01272   1
   3  -4  -5 16.8051 3.10612   2
  -3   4   5 21.2990 3.28942   2
  -3   4   5 20.6867 5.13910   1
  -3   4   4 97.7839 5.01411   2
   3  -4  -4 84.9576 4.74911   2
   3  -4  -4 104.978 8.11146   1
  -3   4   4 97.5249 7.91886   1
  -3   4   3 194.086 6.72854   2
   3  -4  -3 173.201 6.34365   2
   3  -4  -3 188.861 9.70942   1
  -3   4   3 188.365 9.49396   1
   3  -4  -2 5.35794 4.13424   1
  -3   4   2 0.83583 3.79471   1
  -3   4   2 4.43907 2.61968   2
   3  -4  -2-0.71024 2.40689   2
  -3   4   1 163.426 6.70497   2
   3  -4  -1 154.119 6.43255   2
   3  -4  -1 163.903 8.13860   1
  -3   4   1 150.525 7.55397   1
   3  -4   0 1.16089 3.04873   1
  -3   4   0 1.55709 2.99387   1
  -3   4   0-0.21432 2.60657   2
   3  -4   0 0.71248 2.71212   2
  -3   4  -1 23.7514 3.78507   2
   3  -4   1 21.6304 3.73070   2
   3  -4   1 23.0034 3.75283   1
  -3   4  -1 22.4874 3.52076   1
  -3   4  -2 3.50092 2.64207   1
  -3   4  -2 4.76144 3.26414   2
   3  -4   2 5.45922 3.31192   2
   3  -4   2 2.25265 2.69212   1
  -3   4  -3 17.8188 2.77741   1
  -3   4  -3 21.5604 4.07622   2
  -3   4  -3 21.8656 2.92820   1
  -3   4  -4 2.38543 1.78805   1
  -3   4  -4 4.74136 3.92044   2
  -3   4  -4 2.72463 1.78773   1
  -3   4  -5 21.1454 1.53879   1
  -3   4  -5 21.9383 1.62173   1
  -3   4  -5 19.4947 4.79708   2
  -3   4  -6 268.877 11.1571   2
  -3   4  -7 259.508 11.6423   2
  -3   4  -8 55.4349 6.93571   2
  -3   4  -9 15.9243 6.39615   2
  -3   4 -10 2.22650 6.96495   2
  -3   4 -11 0.76235 7.93585   2
  -3   4 -12 8.90051 8.11682   2
  -3   4 -13 39.0193 11.8384   2
   3  -3 -13 5.93097 4.47447   2
   3  -3 -13 4.96540 4.51708   2
  -3   3  13-4.54554 12.1848   1
   3  -3 -13 11.9412 12.6164   1
   3  -3 -12 3.19222 3.96075   2
  -3   3  12-5.59783 9.73336   1
   3  -3 -12 1.82893 4.04496   2
   3  -3 -12 5.03971 11.4805   1
   3  -3 -11-6.50099 9.83681   1
   3  -3 -11 5.99577 3.65590   2
   3  -3 -10 13.1667 7.46171   1
   3  -3 -10-0.83655 2.93661   2
  -3   3  10-3.80548 6.99733   1
   3  -3  -9 4.54824 6.21524   1
   3  -3  -9 2.48654 2.52743   2
  -3   3   9 4.59933 6.81297   1
   3  -3  -8 0.93386 5.49151   1
  -3   3   8-2.72596 6.21396   1
   3  -3  -8 0.25768 2.24145   2
   3  -3  -7-1.99783 6.02156   1
  -3   3   7 2.22477 5.11240   1
   3  -3  -7 2.86853 2.00319   2
  -3   3   6 7.51125 4.27514   1
   3  -3  -6 7.47178 2.02967   2
   3  -3  -5 14.7798 5.46710   1
   3  -3  -5 17.8318 2.26903   2
  -3   3   5 22.1600 4.79577   1
  -3   3   4 104.734 4.14488   2
   3  -3  -4 101.826 4.09864   2
   3  -3  -4 102.483 7.43998   1
  -3   3   4 105.014 7.21063   1
  -3   3   3 28.6319 2.76880   2
   3  -3  -3 29.8173 2.75067   2
   3  -3  -3 32.6219 5.06214   1
  -3   3   3 37.2698 4.71574   1
   3  -3  -2 8.94088 3.80515   1
  -3   3   2 3.30475 3.56397   1
  -3   3   2 7.21827 2.31177   2
   3  -3  -2 9.49559 2.22641   2
  -3   3   1 252.138 7.12431   2
   3  -3  -1 234.792 6.88054   2
   3  -3  -1 235.674 8.89225   1
  -3   3   1 257.793 9.07839   1
  -3   3   0 5.62316 3.02979   1
  -3   3   0 2.81479 2.36236   2
   3  -3   0 7.65186 2.65800   2
   3  -3   0 2.21148 2.76861   1
  -3   3  -1 360.712 9.24348   1
  -3   3  -1 374.085 9.69978   2
  -3   3  -1 368.558 9.44363   1
  -3   3  -2 152.248 5.79389   1
  -3   3  -2 128.329 6.43946   2
  -3   3  -2 150.898 5.82311   1
  -3   3  -3 184.127 7.85090   2
  -3   3  -3 180.325 5.67659   1
  -3   3  -3 191.205 5.93129   1
  -3   3  -4 47.7102 2.89030   1
  -3   3  -4 48.4715 5.27388   2
  -3   3  -4 46.7530 2.93945   1
  -3   3  -5 7.70950 3.99649   2
  -3   3  -5 9.19678 1.33678   1
  -3   3  -5 9.13417 1.37329   1
  -3   3  -6 8.88203 4.03973   2
  -3   3  -7 55.2093 6.26977   2
  -3   3  -8 16.2232 5.98390   2
  -3   3  -9 17.0060 5.98141   2
  -3   3 -10 3.60117 6.77214   2
  -3   3 -11 1.86733 8.23225   2
  -3   3 -12 29.2308 10.4652   2
  -3   3 -13 16.8024 10.7917   2
   3  -2 -13 1.06876 3.32877   2
   3  -2 -13-4.01099 11.8771   1
   3  -2 -12 16.8666 3.11240   2
  -3   2  12 5.40488 9.74013   1
   3  -2 -12 12.9872 3.08320   2
   3  -2 -12 11.3595 9.14382   1
   3  -2 -11 2.42193 2.23890   2
  -3   2  11-2.38338 7.97847   1
   3  -2 -11 4.12937 2.29432   2
   3  -2 -11 13.5742 8.55669   1
   3  -2 -10 147.163 4.34516   2
   3  -2 -10 156.684 4.48552   2
   3  -2 -10 143.656 11.6213   1
  -3   2  10 156.343 11.1918   1
   3  -2  -9 24.3189 1.93606   2
   3  -2  -9 25.1175 2.01773   2
  -3   2   9 26.4063 6.58770   1
   3  -2  -9 24.6569 6.71279   1
  -3   2   8 8.21211 5.73888   1
   3  -2  -8 1.99781 0.94738   2
   3  -2  -8 3.57681 1.07725   2
   3  -2  -8-0.86192 5.95471   1
  -3   2   7 24.8629 5.99899   1
   3  -2  -7 10.0608 5.69400   1
   3  -2  -6 32.7133 5.83408   1
  -3   2   6 29.7641 5.43642   1
   3  -2  -5 13.0494 0.96709   2
  -3   2   5 13.7206 3.96748   1
   3  -2  -5 8.95090 4.80673   1
  -3   2   4 2.87679 3.70770   1
  -3   2   4 0.01440 0.90902   2
   3  -2  -4-1.53318 3.64883   1
  -3   2   3 114.870 3.50376   2
   3  -2  -3 112.067 6.93325   1
  -3   2   3 102.041 6.74977   1
  -3   2   2 18.7990 2.16293   2
  -3   2   2 15.5363 3.62775   1
   3  -2  -2 20.5985 3.94688   1
  -3   2   1 143.074 6.66626   1
  -3   2   1 140.671 6.69081   1
  -3   2   1 137.081 4.86046   2
  -3   2   0 288.849 7.47178   2
  -3   2   0 308.260 8.83259   1
  -3   2   0 304.714 8.99909   1
  -3   2  -1 141.152 5.89880   2
  -3   2  -1 143.140 6.02713   1
  -3   2  -1 135.909 5.80287   1
  -3   2  -2 285.508 8.82179   2
  -3   2  -2 279.470 7.46380   1
  -3   2  -2 295.648 7.88271   1
  -3   2  -3 699.197 10.7221   1
  -3   2  -3 723.712 14.4849   2
  -3   2  -3 714.114 11.2126   1
  -3   2  -4 33.2492 4.64088   2
  -3   2  -4 34.5930 2.91057   1
  -3   2  -4 36.1812 2.80296   1
  -3   2  -5 206.120 9.10055   2
  -3   2  -5 195.078 5.00010   1
  -3   2  -5 190.460 5.14491   1
  -3   2  -6 45.7084 2.45488   1
  -3   2  -6 49.3739 2.61194   1
  -3   2  -6 60.3141 6.32456   2
  -3   2  -7 37.4032 1.80022   1
  -3   2  -7 40.1120 5.82023   2
  -3   2  -7 33.5821 1.81670   1
  -3   2  -8 402.340 14.5906   2
  -3   2  -9 22.9032 6.98484   2
  -3   2 -10 116.524 10.1207   2
  -3   2 -11 10.2116 7.07053   2
  -3   2 -12-2.27872 7.95383   2
  -3   2 -13-10.9445 10.6165   2
   3  -1 -14 24.1105 3.08252   2
  -3   1  14-16.2847 11.1224   1
  -3   1  14 1.07202 12.2497   1
   3  -1 -13 24.1360 2.68939   2
  -3   1  13-0.53445 8.34845   1
  -3   1  12 15.8431 8.07995   1
   3  -1 -12 3.14487 1.63072   2
   3  -1 -12 2.93134 8.20481   1
  -3   1  11-4.21004 7.18122   1
   3  -1 -11-0.69085 0.98444   2
  -3   1  10-4.24959 6.25233   1
   3  -1 -10-1.02047 6.74490   1
  -3   1   9 35.6388 6.23994   1
   3  -1  -9 33.1602 7.04481   1
   3  -1  -8 61.4301 7.45979   1
  -3   1   8 59.0832 7.21645   1
  -3   1   7 6.97747 5.00753   1
   3  -1  -7 0.64322 4.91127   1
  -3   1   6 2.48257 3.31192   1
   3  -1  -6 3.13054 4.67476   1
  -3   1   5 12.3645 4.45916   1
   3  -1  -5 5.99176 3.62720   1
  -3   1   4 141.954 7.44002   1
  -3   1   4 148.893 7.66423   1
  -3   1   3 1.97868 3.31984   1
  -3   1   3 1.46160 0.80520   2
  -3   1   3 1.46441 2.88816   1
  -3   1   2 396.481 6.42647   2
  -3   1   2 419.501 11.0336   1
  -3   1   2 410.107 11.3294   1
  -3   1   1 15.0174 3.46557   1
  -3   1   1 15.4624 2.25240   2
  -3   1   1 15.3895 3.19363   1
  -3   1   0-0.97917 2.63017   1
  -3   1   0-0.47102 2.35795   1
  -3   1   0-0.77814 1.87671   2
  -3   1  -1 32.6418 3.36399   2
  -3   1  -1 35.7130 3.53482   1
  -3   1  -1 36.1662 3.68538   1
  -3   1  -2 6.83431 2.40371   1
  -3   1  -2 4.56491 2.59499   2
  -3   1  -2 8.53465 2.59847   1
  -3   1  -3 94.6333 5.78129   2
   3  -1   3 90.9882 4.56406   1
  -3   1  -3 92.2154 4.52311   1
   3  -1   4 11.6634 2.43659   1
  -3   1  -4 9.69569 2.35441   1
  -3   1  -4 11.6680 3.44525   2
   3  -1   5 506.395 9.36691   1
  -3   1  -5 488.437 13.8443   2
  -3   1  -5 510.327 9.40251   1
  -3   1  -6 376.543 13.0166   2
  -3   1  -6 379.557 8.19016   1
   3  -1   6 389.034 8.19293   1
  -3   1  -7 176.272 5.76769   1
  -3   1  -7 177.015 10.0597   2
   3  -1   7 174.196 5.71013   1
  -3   1  -8 48.7996 3.64634   1
  -3   1  -8 49.2811 6.64607   2
   3  -1   8 49.0003 3.52322   1
  -3   1  -9 300.159 13.9052   2
   3  -1   9 263.464 6.90725   1
  -3   1  -9 287.980 7.20440   1
  -3   1 -10 29.7149 7.76767   2
  -3   1 -10 28.1088 3.20402   1
  -3   1 -11 1.47707 2.69187   1
   3  -1  11-1.13900 2.70515   1
  -3   1 -11 3.14856 8.40434   2
  -3   1 -12 4.81785 2.61420   1
   3  -1  12 0.93770 2.43669   1
  -3   1 -13-3.74863 11.6512   2
  -3   0  15-19.0407 9.58506   1
  -3   0  15-11.3223 10.2851   1
  -3   0  14 10.7746 9.03186   1
   3   0 -14-1.91163 2.01937   2
  -3   0  14 2.78379 9.10129   1
   3   0 -13 14.3508 1.78370   2
  -3   0  13 16.8809 9.27986   1
  -3   0  13 25.0150 8.73042   1
  -3   0  12 169.560 12.0921   1
  -3   0  12 171.263 12.6347   1
  -3   0  11 66.5987 8.88996   1
  -3   0  11 64.6682 8.35341   1
  -3   0  10 19.7879 6.94398   1
  -3   0  10 12.9106 5.97603   1
  -3   0   9 0.63720 5.45277   1
  -3   0   9 0.93510 5.24729   1
  -3   0   8 524.538 15.9337   1
  -3   0   8 532.873 16.1336   1
  -3   0   7 158.468 9.02020   1
  -3   0   7 138.900 8.30419   1
  -3   0   6 35.8034 5.18941   1
  -3   0   6 43.9472 5.27166   1
  -3   0   5 10.7754 4.08732   1
  -3   0   5 11.9627 4.09409   1
  -3   0   4 3.64072 3.69065   1
  -3   0   4-4.10157 3.51132   1
  -3   0   3 44.4951 4.64980   1
  -3   0   3 45.2486 1.80925   2
  -3   0   3 43.5444 1.71980   2
  -3   0   3 42.7293 4.70109   1
  -3   0   2 4.62175 2.73853   1
  -3   0   2 2.43508 1.38582   2
  -3   0   2 3.82367 2.96135   1
  -3   0   1 6.65706 2.88742   1
  -3   0   1 6.92999 3.13386   1
   3   0   0 5.51644 2.81613   1
  -3   0   0 5.98771 2.82085   1
  -3   0  -1 483.430 10.7574   1
   3   0   1 499.090 10.9676   1
  -3   0  -2 5.90591 2.54052   1
   3   0   2 2.34824 2.47679   1
  -3   0  -3 103.276 5.27945   1
   3   0   3 101.175 5.26751   1
  -3   0  -4 59.7631 4.36807   1
   3   0   4 61.2817 4.32387   1
  -3   0  -5 141.843 6.14764   1
   3   0   5 148.010 6.19905   1
  -3   0  -6 132.165 6.15258   1
   3   0   6 129.796 6.01042   1
  -3   0  -7 80.7830 5.26258   1
   3   0   7 78.9545 5.14808   1
  -3   0  -8 4.58673 3.32644   1
   3   0   8 2.73593 3.19452   1
  -3   0  -9-2.01120 3.55283   1
   3   0   9 0.40879 3.55467   1
   3   0  10 43.5310 5.12347   1
  -3   0 -10 44.7472 5.27527   1
  -3   0 -11 20.6643 5.08648   1
   3   0  11 20.2960 4.90878   1
  -3   0 -11 15.9319 9.12495   2
   3   0  12 63.7290 6.58157   1
  -3   0 -12 77.1008 12.9316   2
  -3   0 -12 79.9561 6.95866   1
   3   0  13 36.9963 5.94269   1
  -3   0 -13 47.0344 13.5503   2
  -3   0 -13 42.4358 6.27368   1
   3   1 -15 13.0884 2.41556   2
  -3  -1  15 1.81151 10.3799   1
  -3  -1  14 17.3454 9.90930   1
   3   1 -14 5.10056 1.95404   2
  -3  -1  14 1.39151 8.37614   1
   3   1 -13 1.44530 1.37894   2
  -3  -1  13 1.22367 8.22229   1
  -3  -1  12 14.0817 7.89119   1
  -3  -1  12 8.94316 7.17875   1
  -3  -1  11 34.1347 7.64801   1
  -3  -1  11 36.0214 7.32208   1
  -3  -1  10 398.937 15.0569   1
  -3  -1  10 440.659 16.0106   1
  -3  -1   9 81.7929 7.96205   1
  -3  -1   9 89.3275 8.18260   1
  -3  -1   8 9.91345 4.45804   1
  -3  -1   8 4.57319 4.70597   1
  -3  -1   7 16.6854 5.15449   1
  -3  -1   7 18.2143 4.43493   1
  -3  -1   6 1.00740 3.73102   1
  -3  -1   6 3.38540 3.22074   1
  -3  -1   5 579.120 14.8218   1
  -3  -1   5 592.376 14.6038   1
  -3  -1   4 339.669 4.30316   2
  -3  -1   4 340.027 11.0207   1
  -3  -1   4 344.950 11.2358   1
  -3  -1   3 20.1443 1.94896   2
  -3  -1   3 26.3355 3.71805   1
  -3  -1   3 21.9161 3.73473   1
   3   1  -2 7.80121 2.99457   1
  -3  -1   2 3.00725 1.78748   2
  -3  -1   1 105.672 4.75105   2
   3   1  -1 103.082 6.05891   1
  -3  -1   1 106.487 5.99990   1
   3   1   0 58.1306 4.82701   1
  -3  -1   0 70.3868 4.92871   1
   3   1   1 193.104 7.61476   1
  -3  -1  -1 205.329 7.70924   1
   3   1   2 30.1615 3.93087   1
  -3  -1  -2 26.2050 3.68393   1
   3   1   3 5.91130 3.00862   1
  -3  -1  -3 2.93261 2.77480   1
   3   1   4 21.9560 3.76909   1
  -3  -1  -4 20.5507 3.69632   1
  -3  -1  -5 7.16543 3.43147   1
   3   1   5 2.97306 3.20621   1
   3   1   6 93.0658 6.13454   1
  -3  -1  -6 83.7784 6.01147   1
   3   1   7 20.2856 4.27064   1
  -3  -1  -7 18.3409 4.32354   1
   3   1   8 3.12869 4.00488   1
  -3  -1  -8 4.20249 4.23936   1
  -3  -1  -9 8.33975 4.75027   1
   3   1   9 0.76079 4.40252   1
  -3  -1 -10 14.0586 5.43537   1
   3   1  10-6.67332 5.52223   1
  -3  -1 -11 5.11793 6.14437   1
   3   1  11-10.5332 5.42873   1
   3   1  12 47.8014 7.68092   1
  -3  -1 -12 77.8769 8.68882   1
   3   2 -15 1.55882 2.62624   2
  -3  -2  15 10.4201 10.1406   1
   3   2 -15 2.87399 2.82418   2
  -3  -2  15-9.65896 11.0502   1
   3   2 -14-0.89963 2.37827   2
  -3  -2  14-7.68670 8.03101   1
   3   2 -14 1.71633 2.41320   2
  -3  -2  14-2.53410 8.07825   1
  -3  -2  13-9.76700 8.51535   1
   3   2 -13 1.52358 1.89938   2
  -3  -2  13 0.79521 8.17417   1
   3   2 -13-0.26110 2.09030   2
   3   2 -12 11.8555 1.86276   2
  -3  -2  12 3.96288 7.02814   1
  -3  -2  12 18.2119 7.64662   1
  -3  -2  11 15.4758 6.58184   1
   3   2 -11 19.0864 1.62896   2
  -3  -2  11 17.4698 6.08579   1
   3   2 -10 124.605 2.34338   2
  -3  -2  10 122.702 9.60317   1
  -3  -2  10 116.490 8.81744   1
  -3  -2   9 11.7611 5.42362   1
  -3  -2   9 13.2149 5.08354   1
  -3  -2   8 34.2849 5.51887   1
  -3  -2   8 42.0086 6.07003   1
  -3  -2   7 15.7301 4.39393   1
  -3  -2   7 16.3534 4.62617   1
  -3  -2   6 41.4832 1.78584   2
  -3  -2   6 46.5383 5.66222   1
  -3  -2   6 42.6092 5.32156   1
  -3  -2   5 490.665 6.80765   2
  -3  -2   5 491.437 13.6246   1
  -3  -2   5 489.897 14.0132   1
  -3  -2   4 336.971 6.67637   2
  -3  -2   4 337.160 11.0732   1
   3   2  -4 333.143 11.0842   1
  -3  -2   3 467.250 8.73566   2
   3   2  -3 460.199 12.6945   1
  -3  -2   3 463.225 12.6250   1
   3   2  -2 85.1271 6.05007   1
  -3  -2   2 84.2369 5.71060   1
  -3  -2   2 77.9246 4.36452   2
  -3  -2   1 49.1163 4.04132   2
  -3  -2   1 43.8781 4.61227   1
   3   2  -1 47.1130 4.72651   1
  -3  -2   0-1.26739 2.86009   2
   3   2   0 4.13377 2.96591   1
  -3  -2   0 4.97864 3.13152   1
  -3  -2  -1 0.89340 3.05272   2
   3   2   1 2.18522 3.35559   1
  -3  -2  -1 0.51490 2.77941   1
  -3  -2  -2 347.313 11.0199   2
   3   2   2 353.452 10.8719   1
  -3  -2  -2 335.191 10.5945   1
   3   2   3 32.8483 4.65738   1
  -3  -2  -3 33.7862 5.21995   2
  -3  -2  -3 33.1367 4.59917   1
   3   2   4 254.073 9.70367   1
  -3  -2  -4 251.180 9.65320   1
   3   2   5 36.6071 5.03890   1
  -3  -2  -5 32.5656 5.00035   1
   3   2   6 7.37687 4.20864   1
  -3  -2  -6 6.87454 4.17405   1
   3   2   7 5.48480 4.72511   1
  -3  -2  -7 0.78402 4.48402   1
   3   2   8 3.32464 5.06568   1
  -3  -2  -8 6.69329 4.99427   1
  -3  -2  -9 4.86134 8.66951   2
   3   2   9 3.38686 5.61095   1
  -3  -2  -9 1.28923 5.76886   1
  -3  -2 -10 10.3937 9.89057   2
   3   2  10 8.19901 6.25588   1
  -3  -2 -10-7.68952 6.79313   1
  -3  -2 -11 10.9170 10.4339   2
  -3  -2 -11 1.72234 7.66993   1
   3   2  11 1.40047 7.64049   1
  -3  -3  15 8.49850 9.45816   1
  -3  -3  15 14.7094 9.85205   1
   3   3 -15 13.4109 3.92104   2
   3   3 -14 19.8759 3.80376   2
  -3  -3  14 7.86649 9.25109   1
  -3  -3  14 21.9130 9.42838   1
  -3  -3  13-0.06530 7.65013   1
   3   3 -13-0.78809 2.94057   2
  -3  -3  13 5.49381 7.23061   1
  -3  -3  12 7.55954 6.75093   1
   3   3 -12 11.1140 2.76268   2
  -3  -3  12 11.4735 7.29180   1
   3   3 -11 62.3043 3.67970   2
  -3  -3  11 66.8050 7.83661   1
  -3  -3  11 54.9369 8.26204   1
   3   3 -10 54.3800 3.25338   2
  -3  -3  10 57.8398 7.02151   1
  -3  -3  10 61.4080 7.89753   1
   3   3  -9 27.9533 2.57857   2
  -3  -3   9 28.6927 6.18785   1
  -3  -3   9 28.3330 6.48788   1
   3   3  -8 28.6461 2.59519   2
  -3  -3   8 29.6654 2.53906   2
  -3  -3   8 26.9383 5.78021   1
  -3  -3   8 36.6906 6.25142   1
  -3  -3   7-3.98675 4.09823   1
   3   3  -7-0.58704 1.77931   2
  -3  -3   7 1.26332 1.73632   2
  -3  -3   7-0.09420 4.69207   1
   3   3  -6 3.83575 1.99710   2
  -3  -3   6 4.25455 2.04922   2
  -3  -3   6 2.70113 3.66847   1
   3   3  -5 3.27465 3.14160   1
  -3  -3   5 2.62771 2.14874   2
  -3  -3   5 0.99512 3.88360   1
   3   3  -4 29.9771 4.80921   1
  -3  -3   4 28.1216 4.88443   1
  -3  -3   4 26.5876 3.02882   2
   3   3  -3 7.28182 4.09731   1
  -3  -3   3 2.01964 2.46838   2
  -3  -3   3 9.50522 3.94668   1
  -3  -3   2 95.2593 6.81400   1
  -3  -3   2 109.419 5.74168   2
   3   3  -2 108.588 7.19154   1
  -3  -3   1 55.4911 4.74580   2
   3   3  -1 60.0627 5.48341   1
  -3  -3   1 53.4945 5.28830   1
  -3  -3   0 1.57513 2.96107   2
   3   3   0 0.82114 3.67045   1
  -3  -3   0 3.28503 3.57952   1
  -3  -3  -1 32.0625 4.66885   2
   3   3   1 28.2220 4.88667   1
  -3  -3  -1 31.5389 4.97029   1
  -3  -3  -2 92.0998 7.05704   2
   3   3   2 98.9265 6.97411   1
  -3  -3  -2 102.538 6.96996   1
  -3  -3  -3 249.126 11.0080   2
   3   3   3 260.175 10.5805   1
  -3  -3  -3 260.081 10.6636   1
  -3  -3  -4 5.37671 4.24920   1
  -3  -3  -4 12.6553 5.17188   2
   3   3   4 11.3005 4.28167   1
  -3  -3  -5 24.4298 6.37073   2
   3   3   5 21.1723 5.16270   1
  -3  -3  -5 26.4960 5.60432   1
  -3  -3  -6 3.26156 5.25241   2
   3   3   6 7.04542 5.17758   1
  -3  -3  -6 1.17040 4.86282   1
  -3  -3  -7-2.67740 6.33490   2
   3   3   7 7.95009 5.67009   1
  -3  -3  -7-2.82337 5.70720   1
  -3  -3  -8 95.4896 11.1970   2
   3   3   8 105.495 9.29689   1
  -3  -3  -8 90.7183 8.98418   1
   3   3   9 112.343 10.1230   1
  -3  -3  -9 112.544 11.8910   2
  -3  -3  -9 136.935 10.7695   1
   3   3  10 206.772 13.2251   1
  -3  -3 -10 218.310 16.1152   2
  -3  -3 -10 183.554 12.9006   1
  -3  -3 -11 84.5144 14.0422   2
   3   3  11 102.366 11.5486   1
  -3  -3 -11 70.6209 10.6173   1
  -3  -4  15 29.0706 10.9857   1
  -3  -4  15 5.17228 9.76825   1
   3   4 -15 7.39176 4.89187   2
  -3  -4  14 13.5703 8.76585   1
  -3  -4  14-2.48087 8.10282   1
   3   4 -14-1.52218 4.16058   2
  -3  -4  13 8.03768 7.72048   1
  -3  -4  13-6.92935 8.08110   1
   3   4 -13 5.85057 3.81142   2
  -3  -4  12 1.07234 6.08800   1
  -3  -4  12 7.13176 6.98682   1
   3   4 -12 0.68405 3.39988   2
  -3  -4  11-5.27896 5.76278   1
  -3  -4  11 6.29496 6.16136   1
   3   4 -11 5.47668 3.19132   2
   3   4 -10 36.9020 3.96321   2
  -3  -4  10 44.2076 6.94855   1
  -3  -4  10 35.0914 6.71286   1
   3   4  -9 204.351 6.89205   2
  -3  -4   9 207.598 6.85570   2
  -3  -4   9 216.054 10.9437   1
  -3  -4   9 205.885 11.1906   1
   3   4  -8 1.42085 2.63187   2
  -3  -4   8 4.18680 2.62504   2
  -3  -4   8 1.00652 4.52764   1
  -3  -4   8 6.58309 5.25641   1
   3   4  -7 285.404 8.08119   2
  -3  -4   7 309.987 8.32723   2
  -3  -4   7 334.625 12.6556   1
   3   4  -7 330.129 12.7935   1
   3   4  -6 6.60810 4.69797   1
   3   4  -6 11.4751 3.05754   2
  -3  -4   6 9.82467 2.75446   2
  -3  -4   6 11.9834 4.05808   1
   3   4  -5 11.5113 2.91576   2
   3   4  -5 4.99345 4.39949   1
  -3  -4   5 8.94403 4.62612   1
  -3  -4   5 5.65265 2.87058   2
   3   4  -4 4.22171 2.95401   2
  -3  -4   4 4.13505 4.30240   1
  -3  -4   4 6.56284 2.98819   2
   3   4  -4 7.99324 4.49144   1
  -3  -4   3 331.159 9.96173   2
   3   4  -3 328.994 12.1322   1
  -3  -4   3 321.306 11.6068   1
  -3  -4   2 64.9174 5.50576   2
   3   4  -2 74.9801 6.36085   1
  -3  -4   2 74.2576 6.20378   1
  -3  -4   1 73.5530 6.07014   2
   3   4  -1 87.2214 7.16885   1
  -3  -4   1 78.2276 6.51184   1
  -3  -4   0 5.35582 3.60767   2
  -3  -4   0 0.94310 4.23708   1
   3   4   0-3.98858 4.37966   1
  -3  -4  -1 148.192 8.62873   2
   3   4   1 152.593 8.99465   1
  -3  -4  -1 137.493 8.32691   1
  -3  -4  -2 119.959 8.39331   2
   3   4   2 125.441 8.42971   1
  -3  -4  -2 123.436 8.49682   1
  -3  -4  -3 88.5204 8.18308   2
   3   4   3 104.305 8.20105   1
  -3  -4  -3 93.7667 7.98362   1
  -3  -4  -4-2.66842 5.40814   2
   3   4   4 1.47539 5.19241   1
  -3  -4  -4-8.52898 5.18233   1
   3   4   5 33.1184 6.56808   1
  -3  -4  -5 30.9724 6.72135   1
  -3  -4  -5 27.8623 7.15479   2
   3   4   6 156.428 10.5245   1
  -3  -4  -6 127.095 11.1336   2
  -3  -4  -6 140.734 10.3499   1
   3   4   7 7.94936 6.67474   1
  -3  -4  -7-1.26385 8.42563   2
  -3  -4  -7 10.6348 6.69811   1
   3   4   8 0.06158 7.67632   1
  -3  -4  -8 2.97533 9.38688   2
  -3  -4  -8 13.3334 7.98358   1
   3   4   9 12.4939 9.13079   1
  -3  -4  -9 9.60225 9.32309   2
  -3  -4  -9 25.4574 9.59058   1
   3   4  10 3.42570 9.80764   1
  -3  -4 -10 17.5963 12.2695   2
  -3  -4 -10 5.02539 9.99727   1
  -3  -5  15-4.21760 9.88440   1
   3   5 -15 8.50272 6.14755   2
  -3  -5  15-13.3214 9.98016   1
  -3  -5  14 6.46755 8.77103   1
   3   5 -14 3.50996 5.36425   2
  -3  -5  14-14.8664 8.72189   1
  -3  -5  13 31.1871 8.72455   1
   3   5 -13 10.6301 4.75105   2
  -3  -5  13 18.1259 7.84142   1
  -3  -5  12 12.4413 7.79170   1
   3   5 -12 3.99651 4.24146   2
  -3  -5  12 4.71424 6.65381   1
  -3  -5  11 18.7520 7.40176   1
   3   5 -11 29.4557 4.71943   2
  -3  -5  11 21.1659 6.44285   1
   3   5 -10 44.7789 4.95723   2
  -3  -5  10 36.4068 7.48837   1
  -3  -5  10 41.5730 4.87093   2
  -3  -5  10 37.0158 7.56382   1
   3   5  -9 1.50102 3.41217   2
  -3  -5   9 8.90120 5.70691   1
  -3  -5   9 14.7373 3.68008   2
  -3  -5   9 3.77428 5.30874   1
   3   5  -8 45.0988 4.82905   2
  -3  -5   8 48.8362 4.84729   2
   3   5  -8 41.3042 6.24744   1
  -3  -5   8 60.4438 7.30943   1
   3   5  -7 18.1649 3.96087   2
   3   5  -7 10.5762 4.99519   1
  -3  -5   7 17.0541 5.70007   1
  -3  -5   7 12.3318 3.66807   2
  -3  -5   6 33.2099 6.10710   1
   3   5  -6 41.0309 4.66450   2
   3   5  -6 41.3197 6.04883   1
  -3  -5   6 35.9935 4.56857   2
  -3  -5   5-2.69872 4.07909   1
   3   5  -5 0.64404 3.36673   2
  -3  -5   5 1.03900 3.35162   2
   3   5  -5 1.35323 3.89243   1
   3   5  -4 9.41504 3.74907   2
  -3  -5   4 11.0585 3.93647   2
   3   5  -4 13.3783 5.18155   1
  -3  -5   4 9.96872 4.71885   1
  -3  -5   3 520.673 13.7698   2
   3   5  -3 538.774 15.9404   1
  -3  -5   3 550.960 15.8941   1
  -3  -5   2 309.645 11.2366   2
   3   5  -2 309.011 12.5253   1
  -3  -5   2 298.110 12.4013   1
  -3  -5   1 4.31225 3.94568   2
  -3  -5   1 10.0631 4.28134   1
   3   5  -1 6.97318 4.07726   1
  -3  -5   0 278.626 11.5136   2
   3   5   0 284.254 12.4709   1
  -3  -5   0 281.614 12.2078   1
  -3  -5  -1 6.38627 5.40784   1
  -3  -5  -1 5.34408 5.22949   2
   3   5   1 3.21300 5.03446   1
  -3  -5  -2 3.88353 5.44778   1
  -3  -5  -2 3.04932 4.60412   2
   3   5   2 2.79910 5.31662   1
  -3  -5  -3 18.8127 6.51374   1
  -3  -5  -3 15.9338 5.72053   2
   3   5   3 10.9366 5.52421   1
  -3  -5  -4 53.3258 8.51198   2
   3   5   4 48.3083 8.18958   1
  -3  -5  -4 38.5180 7.59719   1
   3   5   5 2.24946 6.66154   1
  -3  -5  -5-0.33191 7.59846   2
  -3  -5  -5-5.81016 6.42766   1
  -3  -5  -6 63.2546 9.27946   2
  -3  -5  -6 67.5296 9.31102   1
   3   5   6 58.6328 9.38511   1
   3   5   7-8.11639 8.44449   1
  -3  -5  -7 0.07763 9.83187   2
  -3  -5  -7-10.3247 8.63674   1
   3   5   8 12.4269 10.0560   1
  -3  -5  -8 16.7749 11.2561   2
  -3  -5  -8 15.6408 9.77103   1
  -3  -5  -9 70.7726 12.1643   1
   3   5   9 52.5622 11.8875   1
   3   6 -15 36.8748 7.53352   2
  -3  -6  15 34.7252 11.3750   1
  -3  -6  15 12.3285 10.0294   1
  -3  -6  14 45.2915 10.1503   1
   3   6 -14 29.8859 7.02407   2
  -3  -6  14 27.4988 9.39428   1
  -3  -6  13 37.4878 9.76856   1
   3   6 -13 25.0977 6.41424   2
  -3  -6  13 38.7148 9.75278   1
   3   6 -12 50.1250 6.35335   2
  -3  -6  12 73.7267 9.66815   1
  -3  -6  12 47.5814 9.38936   1
  -3  -6  11 37.1628 8.14552   1
  -3  -6  11 46.2181 6.22849   2
   3   6 -11 36.4677 5.94765   2
  -3  -6  11 29.6088 8.47460   1
   3   6 -10 74.1871 6.56321   2
  -3  -6  10 70.6814 8.79920   1
  -3  -6  10 67.2153 6.32091   2
  -3  -6  10 68.5947 8.73488   1
  -3  -6   9 12.6359 6.43748   1
   3   6  -9 11.6714 4.66417   2
  -3  -6   9 10.8895 4.23704   2
   3   6  -9 4.54057 5.64672   1
   3   6  -8 3.07199 5.37955   1
  -3  -6   8-2.96700 5.75666   1
   3   6  -8-0.95724 4.21583   2
  -3  -6   8 0.36507 4.17593   2
  -3  -6   7 18.5974 6.25030   1
   3   6  -7 12.7362 4.55715   2
   3   6  -7 17.5128 5.98086   1
  -3  -6   7 9.51459 4.15778   2
   3   6  -6 3.23136 3.95944   2
  -3  -6   6 6.01640 4.35756   2
   3   6  -6 4.50087 5.85483   1
  -3  -6   6 0.52934 5.43332   1
   3   6  -5 418.218 13.1181   2
  -3  -6   5 432.973 13.3883   2
   3   6  -5 438.826 15.5446   1
  -3  -6   5 399.308 14.9614   1
   3   6  -4 125.706 8.14059   2
  -3  -6   4 130.384 8.35206   2
   3   6  -4 107.691 9.13247   1
  -3  -6   4 121.745 9.06855   1
  -3  -6   3 90.8400 7.40701   2
   3   6  -3 99.3386 8.95769   1
  -3  -6   3 93.2857 7.96630   1
   3   6  -3 92.2118 7.34759   2
  -3  -6   2 2.58003 4.59329   2
  -3  -6   2 3.47349 4.64863   1
   3   6  -2 6.75931 4.69348   1
  -3  -6   1 13.3101 5.78478   1
  -3  -6   1 12.1304 5.52885   2
   3   6  -1 22.0324 6.46602   1
  -3  -6   0 17.2954 6.70300   1
  -3  -6   0 14.0254 5.55866   2
   3   6   0 19.9857 6.41012   1
  -3  -6  -1 5.09550 5.77443   1
  -3  -6  -1 9.92902 5.89097   2
   3   6   1-1.00258 6.07020   1
  -3  -6  -2 17.0094 6.92411   1
  -3  -6  -2 16.1795 6.95636   2
   3   6   2 21.4001 6.86780   1
  -3  -6  -3 56.7126 8.91940   1
  -3  -6  -3 31.2588 7.39558   2
   3   6   3 32.1286 8.37863   1
   3   6   4 27.6006 8.09925   1
  -3  -6  -4 23.5954 8.97070   2
  -3  -6  -4 14.5802 8.27054   1
   3   6   5 34.2136 8.75208   1
  -3  -6  -5 49.9898 10.4616   2
  -3  -6  -5 28.5920 8.47936   1
   3   6   6 37.9041 10.8804   1
  -3  -6  -6 25.2628 10.9269   2
  -3  -6  -6 41.7064 10.8474   1
   3   6   7-12.5215 10.5490   1
  -3  -6  -7-17.7787 13.0969   2
  -3  -6  -7-0.54710 10.0781   1
  -3  -7  14 28.4234 11.1740   1
  -3  -7  14 21.4388 10.8058   1
   3   7 -14 6.52300 7.69300   2
  -3  -7  13 23.4567 9.23506   1
   3   7 -13 10.6441 6.55999   2
  -3  -7  13 11.9729 9.48339   1
  -3  -7  12-3.49735 7.51217   1
   3   7 -12 5.26038 6.27468   2
  -3  -7  12 3.60897 6.23416   2
  -3  -7  12-0.77846 8.35360   1
   3   7 -11 8.84087 5.58972   2
  -3  -7  11 1.85694 7.83078   1
  -3  -7  11 10.3574 5.61290   2
  -3  -7  11 15.4608 8.16329   1
  -3  -7  10 4.23596 6.36857   1
   3   7 -10 2.84941 5.78345   2
  -3  -7  10 3.79791 5.66604   2
   3   7 -10 8.14472 6.70709   1
   3   7  -9 7.27552 6.42494   1
   3   7  -9-1.20398 5.41826   2
  -3  -7   9 2.63533 5.04994   2
  -3  -7   9 1.46158 6.12800   1
   3   7  -8 3.13854 5.14604   2
   3   7  -8 7.04190 6.45167   1
  -3  -7   8-0.67054 5.26795   2
  -3  -7   8-8.08850 6.70240   1
   3   7  -7 5.25462 5.06095   2
  -3  -7   7-5.10947 5.28447   2
  -3  -7   7 2.19986 6.12316   1
   3   7  -7-3.94418 6.65379   1
   3   7  -6 65.7366 7.31115   2
  -3  -7   6 59.5766 7.24182   2
  -3  -7   6 53.2877 8.20936   1
   3   7  -6 57.2197 7.95283   1
   3   7  -5 274.809 12.2452   2
  -3  -7   5 291.554 12.6081   2
   3   7  -5 261.325 13.1458   1
  -3  -7   5 285.469 14.0550   1
   3   7  -4 14.1832 5.79103   1
   3   7  -4 5.30660 5.30844   2
  -3  -7   4 10.1027 5.65737   2
  -3  -7   4 11.4608 6.18289   1
   3   7  -3 125.551 9.57265   2
  -3  -7   3 129.748 9.50337   2
   3   7  -3 116.164 10.5974   1
  -3  -7   3 115.399 10.4298   1
  -3  -7   2 19.2726 6.27886   1
  -3  -7   2 6.79043 6.15794   2
   3   7  -2 4.41388 6.44627   1
  -3  -7   1 21.3406 7.31967   1
  -3  -7   1 15.6346 6.19466   2
   3   7  -1 16.7615 7.26431   1
   3   7   0 49.5166 8.48420   1
  -3  -7   0 38.8770 7.85593   2
  -3  -7   0 53.9147 9.34066   1
  -3  -7  -1 17.2579 8.60863   1
  -3  -7  -1 4.27182 6.85771   2
   3   7   1 9.43955 7.89922   1
  -3  -7  -2 197.017 13.1708   2
   3   7   2 185.499 13.1260   1
  -3  -7  -2 194.220 14.0663   1
  -3  -7  -3 1.55875 8.69527   2
   3   7   3 8.74878 9.36473   1
  -3  -7  -3 27.3087 9.36863   1
  -3  -7  -4 26.8858 9.78924   2
   3   7   4 8.08642 10.0044   1
  -3  -7  -4 20.0085 10.2140   1
   3   7   5 11.3096 11.0144   1
  -3  -7  -5 9.94795 10.5982   2
  -3  -7  -5 8.13334 9.53207   1
   3   7   6 17.0981 11.2829   1
  -3  -7  -6 14.5863 12.4710   2
  -3  -7  -6 31.2854 11.8413   1
   3   8 -13 24.2395 8.73373   2
  -3  -8  13 12.9266 8.27378   2
  -3  -8  13 11.6091 10.5007   1
  -3  -8  13 36.8485 12.4221   1
   3   8 -12-1.81469 7.79527   2
  -3  -8  12 1.05192 7.55544   2
  -3  -8  12 3.57680 9.46195   1
  -3  -8  12 11.7720 10.0862   1
   3   8 -11 5.04910 7.38473   2
  -3  -8  11 20.7229 7.61107   2
  -3  -8  11 9.85244 9.20220   1
   3   8 -10 12.3651 6.85944   2
   3   8 -10 14.1522 8.81607   1
  -3  -8  10 19.7552 7.09215   2
  -3  -8  10 8.40816 8.04109   1
   3   8  -9 20.3794 7.17811   2
  -3  -8   9 22.3757 7.33577   2
  -3  -8   9 18.5578 7.73338   1
   3   8  -9-0.06813 8.00580   1
   3   8  -8-10.0809 7.20827   1
   3   8  -8 3.74914 6.49702   2
  -3  -8   8 11.8644 6.71972   2
  -3  -8   8 1.26565 7.51095   1
   3   8  -7 13.6768 6.76027   2
  -3  -8   7 16.4563 6.85364   2
  -3  -8   7 26.5184 8.60795   1
   3   8  -7 28.3325 8.42021   1
   3   8  -6 35.4274 7.84649   2
   3   8  -6 28.3649 8.58634   1
  -3  -8   6 33.5845 7.19906   2
  -3  -8   6 50.5118 8.96147   1
   3   8  -5 19.7490 7.10620   1
   3   8  -5 18.0182 7.33928   2
  -3  -8   5 7.98008 6.56208   1
  -3  -8   5 27.2827 7.23363   2
   3   8  -4-4.92565 7.63059   1
   3   8  -4 2.54043 6.84757   2
  -3  -8   4-8.49092 6.82383   1
  -3  -8   4 0.95717 6.38584   2
   3   8  -3 11.8431 6.41942   2
  -3  -8   3 13.7670 7.47970   1
  -3  -8   3 8.15051 6.83424   2
   3   8  -3 28.0942 8.69115   1
  -3  -8   2 6.80651 8.13282   1
  -3  -8   2 30.7742 7.89138   2
   3   8  -2 6.73667 7.92231   1
  -3  -8   1 7.02537 7.44847   1
  -3  -8   1-0.20261 6.92000   2
   3   8  -1 21.7837 8.51200   1
  -3  -8   0 19.1848 9.44895   1
  -3  -8   0 14.2424 7.89981   2
   3   8   0 7.43425 9.22217   1
  -3  -8  -1 32.8047 10.2408   2
   3   8   1 9.18463 9.43276   1
  -3  -8  -1 37.8896 9.61464   1
  -3  -8  -2 117.803 13.4602   2
   3   8   2 144.169 14.1694   1
  -3  -8  -2 153.462 14.9013   1
  -3  -8  -3 4.47101 10.6427   2
   3   8   3-2.60266 9.69037   1
  -3  -8  -3 0.33920 11.7917   1
  -3  -8  -4 77.7156 13.4261   2
  -3  -8  -4 84.3095 14.6279   1
   3   9 -12 14.8756 9.69173   2
  -3  -9  12-2.12915 10.8381   1
  -3  -9  12-0.24659 8.99172   2
  -3  -9  12-2.29662 11.1658   1
   3   9 -11 5.03123 11.0795   1
   3   9 -11-11.1954 9.26241   2
  -3  -9  11 19.0323 11.1187   1
  -3  -9  11 0.55046 8.99281   2
   3   9 -10-9.64228 10.1417   1
   3   9 -10 7.26021 8.63489   2
  -3  -9  10-14.1022 9.49370   1
  -3  -9  10-4.38862 8.74645   2
   3   9  -9 22.1836 8.90246   2
   3   9  -9 21.0322 10.4907   1
  -3  -9   9 34.3680 10.5575   1
  -3  -9   9 22.9374 8.91618   2
   3   9  -8 0.18924 8.02737   2
  -3  -9   8 7.92419 9.45085   1
  -3  -9   8 5.15243 8.31423   2
   3   9  -8 6.15662 8.63589   1
   3   9  -7 18.3091 8.72862   2
  -3  -9   7-1.48488 8.00111   1
  -3  -9   7-10.4459 7.77305   2
   3   9  -7 1.87741 8.09602   1
   3   9  -6 23.2946 8.10017   2
  -3  -9   6 25.8845 10.0663   1
   3   9  -6 16.1770 9.46110   1
  -3  -9   6 27.7681 8.52569   2
   3   9  -5 24.9238 9.90109   1
  -3  -9   5 19.9935 8.62438   1
   3   9  -5 23.0349 8.15622   2
  -3  -9   5-3.48626 8.47117   2
   3   9  -4 43.6059 10.9780   1
  -3  -9   4 18.1984 10.2019   1
   3   9  -4 25.0302 8.36813   2
  -3  -9   4 33.2145 9.84273   2
   3   9  -3 2.49716 7.99768   2
  -3  -9   3 8.83236 10.1414   1
  -3  -9   3 5.85815 8.62195   2
   3   9  -3 4.95967 9.93021   1
  -3  -9   2 25.7103 11.2180   1
  -3  -9   2 12.6387 10.1622   2
   3   9  -2 9.84009 8.64595   1
  -3  -9   1 1.17457 10.8021   1
  -3  -9   1 20.4829 10.3675   2
   3   9  -1 16.1025 10.0020   1
  -3  -9   0 4.24757 10.4630   2
   3   9   0-2.82382 10.0291   1
  -3  -9   0-2.08014 9.68551   1
  -3  -9  -1 136.436 14.4276   2
  -3  -9  -1 138.334 15.4400   1
  -3  -9  -2 108.717 15.3135   2
   3   9   2 77.5810 13.1562   1
  -3  -9  -2 90.8550 15.3707   1
   3  10  -9 5.90030 12.2263   1
  -3 -10   9 8.54090 10.3295   1
   3  10  -9 6.59925 10.1056   2
  -3 -10   9-20.9605 11.0596   2
   3  10  -8 45.2709 11.2957   2
  -3 -10   8 31.9007 11.2196   1
  -3 -10   8 47.3358 11.8025   2
   3  10  -8 29.3851 12.3581   1
  -3 -10   7 10.7364 10.1350   1
   3  10  -7 1.62770 10.4827   2
   3  10  -7 3.69184 11.3395   1
  -3 -10   7 11.9008 9.82873   2
  -3 -10   6 3.03268 10.2629   1
   3  10  -6 0.15109 9.90290   2
   3  10  -6-11.2025 12.8121   1
  -3 -10   6-6.29490 10.9843   2
  -3 -10   5 6.68322 12.0725   1
   3  10  -5 4.90143 11.4037   1
   3  10  -5 4.03035 11.0855   2
  -3 -10   5 20.5012 11.2863   2
   3  10  -4 6.63610 11.9607   1
  -3 -10   4-0.61325 10.2690   1
   3  10  -4 4.46249 11.2872   2
  -3 -10   4-2.32263 10.1226   2
  -3 -10   3 34.9108 13.9214   1
   3  10  -3 65.4936 14.0500   1
  -3 -10   3 46.6118 12.0023   2
  -3 -10   2 24.6185 11.5855   2
   3  10  -2 25.2291 13.6909   1
  -3 -10   2 41.1106 14.0464   1
  -3 -10   1 54.3327 9.61542   2
   4 -10   3 20.5658 6.53735   1
  -4  10  -3 13.2965 5.75906   1
  -4  10  -3 4.68081 6.44120   2
   4 -10   3 11.5327 6.78756   2
  -4  10  -4 16.6766 6.67112   2
  -4  10  -4 18.9255 5.00070   1
   4 -10   4 11.0988 6.21267   2
   4 -10   4 22.5544 5.29733   1
   4  -9  -2 9.16380 10.9247   1
  -4   9   2 23.1646 9.57222   2
   4  -9  -2 16.3426 9.45863   2
  -4   9   2 23.7490 11.3923   1
  -4   9   1 38.7406 11.0136   1
   4  -9  -1 26.3090 11.6363   1
  -4   9   1 41.6647 9.65525   2
   4  -9  -1 23.0061 9.26961   2
  -4   9   0-1.07921 9.59698   1
   4  -9   0 8.21519 9.75045   1
  -4   9   0 4.06915 9.12548   2
   4  -9   0 0.06310 8.97637   2
  -4   9  -1 109.944 11.6299   2
   4  -9   1 103.465 11.8684   2
  -4   9  -1 106.036 11.2255   1
   4  -9   1 87.0148 11.1331   1
   4  -9   2 35.4543 9.00980   1
  -4   9  -2 23.8689 8.55621   1
  -4   9  -2 41.5115 10.0416   2
   4  -9   2 32.2908 9.94924   2
   4  -9   3 3.62456 7.46837   1
  -4   9  -3 10.4738 7.74162   1
  -4   9  -3-9.77691 9.36292   2
   4  -9   3 19.4406 9.85443   2
  -4   9  -4 127.322 13.2875   2
  -4   9  -4 140.265 9.73741   1
   4  -9   4 125.316 9.88933   1
  -4   9  -5 24.4383 10.1550   2
  -4   9  -5 8.25019 5.58716   1
   4  -9   5 1.55811 9.81873   2
  -4   9  -6 21.5963 10.4867   2
  -4   9  -6 9.02478 4.04641   1
   4  -9   6-0.85274 11.1187   2
  -4   9  -6 3.72403 3.96064   1
  -4   9  -7 71.9832 12.1549   2
  -4   9  -8 7.44778 12.1418   2
   4  -8  -5 7.34228 12.6761   1
  -4   8   5 6.00792 7.87027   2
   4  -8  -5 19.8368 8.00412   2
  -4   8   5 24.3069 12.2033   1
   4  -8  -4 1.62249 10.4895   1
  -4   8   4-12.4548 8.32574   2
   4  -8  -4-13.6726 8.02554   2
   4  -8  -3-0.31712 9.63340   1
  -4   8   3-4.33736 7.47373   2
   4  -8  -3 6.96256 7.16924   2
  -4   8   3 18.9218 10.2744   1
  -4   8   2 97.7985 10.0358   2
   4  -8  -2 86.6995 9.49967   2
  -4   8   2 90.0822 11.2341   1
   4  -8  -2 71.4175 11.3866   1
   4  -8  -1 5.95831 8.37990   1
  -4   8   1 10.2537 7.39345   2
   4  -8  -1 4.58456 6.94452   2
  -4   8   1 19.2546 8.66458   1
   4  -8   0 19.9877 8.17810   1
  -4   8   0 11.7944 7.26517   2
   4  -8   0 21.1334 7.37233   2
  -4   8   0 10.7954 7.76792   1
   4  -8   1 41.2573 8.39216   1
  -4   8  -1 50.5999 8.26616   1
  -4   8  -1 36.4976 8.13544   2
   4  -8   1 39.9838 8.28804   2
   4  -8   2 3.92978 6.34866   1
  -4   8  -2 24.6350 7.79370   2
   4  -8   2 7.84202 7.03849   2
  -4   8  -2 22.8344 6.71748   1
  -4   8  -3 18.0443 5.99828   1
  -4   8  -3 3.84880 7.85062   2
   4  -8   3 2.13998 7.42146   2
   4  -8   3 2.43332 6.18781   1
  -4   8  -4 10.4990 5.51592   1
  -4   8  -4-8.95922 8.18192   2
   4  -8   4 7.74761 8.33121   2
   4  -8   4 5.11730 5.37589   1
  -4   8  -5 37.6526 5.16852   1
  -4   8  -5 36.9764 9.76010   2
  -4   8  -5 39.0981 5.28870   1
   4  -8   5 40.1931 9.58413   2
  -4   8  -6-12.5452 8.81675   2
  -4   8  -6 2.30940 2.60955   1
  -4   8  -7 7.97251 9.57452   2
  -4   8  -8 28.6580 11.0678   2
  -4   8  -9 4.49944 11.8653   2
  -4   8 -10-6.19764 8.44598   2
   4  -7  -7 10.9657 12.9221   1
   4  -7  -7 6.77164 6.54581   2
  -4   7   7 3.64317 13.0119   1
   4  -7  -6 3.01723 10.0652   1
   4  -7  -6 13.9946 6.11610   2
  -4   7   6 11.8055 11.6750   1
   4  -7  -5 0.90737 10.5440   1
  -4   7   5 11.8124 6.46396   2
   4  -7  -5 0.12054 6.12537   2
  -4   7   5 23.2250 10.5850   1
  -4   7   4 56.8828 7.09408   2
  -4   7   4 81.4277 11.5467   1
   4  -7  -4 61.8320 7.69190   2
   4  -7  -4 49.6798 11.5368   1
   4  -7  -3 2.90577 8.64842   1
  -4   7   3-1.24356 6.00231   2
   4  -7  -3 5.33098 5.77536   2
  -4   7   3 17.5885 7.96358   1
  -4   7   2 77.2554 7.77756   2
  -4   7   2 91.5998 10.2370   1
   4  -7  -2 61.7894 7.21325   2
   4  -7  -2 77.7989 10.0678   1
  -4   7   1 47.6626 7.17395   2
  -4   7   1 60.3164 8.60118   1
   4  -7  -1 62.7615 7.48263   2
   4  -7  -1 50.8850 8.82034   1
   4  -7   0 8.15712 6.63546   1
  -4   7   0 2.58315 5.65893   2
   4  -7   0 0.47139 5.43006   2
  -4   7   0-3.64194 5.94915   1
   4  -7   1 0.40064 5.66097   1
  -4   7  -1 0.09992 5.80438   2
   4  -7   1-1.97313 5.59624   2
  -4   7  -1 1.76764 5.57898   1
  -4   7  -2 71.1059 8.30647   2
  -4   7  -2 51.4701 6.72699   1
   4  -7   2 53.5035 7.66853   2
   4  -7   2 51.7269 7.02896   1
  -4   7  -3-7.40320 6.70265   2
   4  -7   3 2.95413 6.36819   2
   4  -7   3 8.45605 5.21334   1
  -4   7  -3 4.66431 4.96563   1
  -4   7  -4 6.14039 4.39234   1
  -4   7  -4 10.1405 6.94251   2
  -4   7  -4 20.2448 4.70393   1
   4  -7   4 18.3956 6.98393   2
  -4   7  -5 0.20023 3.40376   1
  -4   7  -5-2.68806 3.38981   1
  -4   7  -5-2.80564 7.11850   2
  -4   7  -6 10.9364 7.64189   2
  -4   7  -6 8.47627 1.63008   1
  -4   7  -7-1.31297 7.29393   2
  -4   7  -8 71.7986 10.5475   2
  -4   7  -9 14.3209 9.66146   2
  -4   7 -10 2.66921 9.74519   2
   4  -6  -8 21.4414 11.3882   1
   4  -6  -8 16.3428 5.16687   2
  -4   6   8 25.2653 12.2208   1
   4  -6  -7 1.47034 11.0356   1
   4  -6  -7 1.63594 4.92907   2
  -4   6   7 22.2347 11.2807   1
   4  -6  -6 39.7558 10.0374   1
  -4   6   6 55.7073 11.5804   1
   4  -6  -6 49.6144 5.91058   2
   4  -6  -5 10.9480 8.86193   1
  -4   6   5 12.5789 4.89354   2
   4  -6  -5 18.2681 4.86714   2
  -4   6   5 2.70300 8.69350   1
   4  -6  -4 31.0246 8.45830   1
  -4   6   4 36.8271 5.76708   2
   4  -6  -4 35.6199 5.34984   2
  -4   6   4 39.1311 8.89260   1
   4  -6  -3-7.51407 7.85109   1
  -4   6   3 2.50235 4.39996   2
  -4   6   3-0.30396 6.45823   1
   4  -6  -3 0.97998 4.40440   2
  -4   6   2 158.121 8.60666   2
  -4   6   2 165.359 10.7565   1
   4  -6  -2 153.771 8.38851   2
   4  -6  -2 154.116 11.0323   1
   4  -6  -1 21.7790 6.62055   1
  -4   6   1 22.9280 5.36539   2
  -4   6   1 24.5419 6.35551   1
   4  -6  -1 22.1549 5.20845   2
  -4   6   0 114.634 8.57890   1
  -4   6   0 120.521 8.27304   2
   4  -6   0 125.396 8.26526   2
   4  -6   0 132.461 9.36113   1
  -4   6  -1 121.160 8.59217   2
  -4   6  -1 106.886 7.91453   1
   4  -6   1 119.800 8.38958   2
   4  -6   1 119.420 8.56379   1
  -4   6  -2 47.5910 6.64192   2
  -4   6  -2 50.9185 5.83935   1
   4  -6   2 42.2702 6.62198   2
   4  -6   2 46.1889 6.03074   1
  -4   6  -3 2.06160 5.11744   2
  -4   6  -3 8.15644 4.22971   1
  -4   6  -3 4.27973 3.90058   1
  -4   6  -4-0.74675 3.37261   1
  -4   6  -4 4.40727 5.30182   2
  -4   6  -4-3.19785 3.55235   1
  -4   6  -5 8.96755 2.90062   1
  -4   6  -5 6.79028 2.66189   1
  -4   6  -5 6.30186 6.29936   2
  -4   6  -6 7.68218 7.15729   2
  -4   6  -7-4.69582 6.60855   2
  -4   6  -8 18.7908 8.11481   2
  -4   6  -9-7.19405 9.45995   2
  -4   6 -10-7.01052 9.97413   2
  -4   6 -11 58.4750 11.7819   2
   4  -5  -9-3.17765 2.81234   2
  -4   5   9-10.3617 12.6361   1
   4  -5  -9-16.2669 12.5014   1
   4  -5  -8 14.5948 9.96967   1
   4  -5  -8 24.3424 3.59710   2
  -4   5   8 30.6628 10.6954   1
   4  -5  -7 15.7603 9.73010   1
  -4   5   7 9.93777 8.78358   1
   4  -5  -7-5.85014 3.44317   2
   4  -5  -6 19.9558 9.34856   1
  -4   5   6 11.1123 7.75310   1
   4  -5  -6 12.9160 3.62511   2
   4  -5  -5 39.2517 9.06296   1
  -4   5   5 45.6662 4.54971   2
   4  -5  -5 46.2443 4.61542   2
  -4   5   5 31.2388 8.38525   1
   4  -5  -4 31.1392 7.06670   1
  -4   5   4 35.6997 4.35705   2
   4  -5  -4 34.3120 4.35617   2
  -4   5   4 24.3073 7.47651   1
  -4   5   3 6.69946 3.74071   2
  -4   5   3 1.81748 5.83983   1
   4  -5  -3 2.29157 3.33903   2
   4  -5  -3 6.71614 6.07582   1
  -4   5   2 1.93144 3.58426   2
  -4   5   2 0.91016 5.05434   1
   4  -5  -2 8.33648 3.73387   2
   4  -5  -2 4.89914 5.81034   1
  -4   5   1 43.2505 6.19467   1
  -4   5   1 39.1567 5.08588   2
   4  -5  -1 36.3985 4.99507   2
   4  -5  -1 39.6532 6.57297   1
  -4   5   0 0.89884 3.90282   2
  -4   5   0-1.30289 4.52455   1
   4  -5   0-0.28328 3.97609   2
   4  -5   0-10.8848 5.00446   1
  -4   5  -1 66.7279 6.24084   1
  -4   5  -1 78.7896 6.52303   2
  -4   5  -2-2.56783 3.76174   1
  -4   5  -2 3.26389 4.48446   2
  -4   5  -2 0.77026 3.72015   1
  -4   5  -3-3.12787 3.44800   1
  -4   5  -3-1.56945 4.52232   2
  -4   5  -3 2.64222 3.27463   1
  -4   5  -4 44.3307 4.27974   1
  -4   5  -4 39.6779 6.51650   2
  -4   5  -4 42.1831 4.12460   1
  -4   5  -5 200.754 11.3584   2
  -4   5  -5 214.684 6.08495   1
  -4   5  -5 210.834 5.90884   1
  -4   5  -6 33.5415 7.00852   2
  -4   5  -7 8.57190 6.44343   2
  -4   5  -8 47.4944 9.26287   2
  -4   5  -9-9.15773 9.01419   2
  -4   5 -10-3.65283 9.92776   2
  -4   5 -11 18.8216 11.5821   2
  -4   4  11-3.52165 11.9723   1
   4  -4 -11-9.05887 11.2827   1
  -4   4  10 13.4813 11.7213   1
   4  -4 -10 12.3314 10.4236   1
  -4   4   9 12.2921 10.5373   1
   4  -4  -9 23.7870 11.4841   1
  -4   4   8 42.3698 9.94065   1
   4  -4  -8 26.1493 8.73779   1
  -4   4   7-4.54629 7.32682   1
   4  -4  -7-0.94607 8.28012   1
   4  -4  -6 17.7707 2.23330   2
  -4   4   6 16.9363 6.30274   1
   4  -4  -6 6.87249 7.33314   1
  -4   4   5 28.5628 2.97133   2
   4  -4  -5 29.8550 3.04420   2
  -4   4   5 23.8344 7.28310   1
   4  -4  -5 33.2088 7.69971   1
  -4   4   4 191.107 6.30890   2
   4  -4  -4 183.118 6.18021   2
   4  -4  -4 195.641 11.3343   1
  -4   4   4 197.088 11.1199   1
  -4   4   3 7.79052 2.87757   2
  -4   4   3-3.44902 5.48771   1
   4  -4  -3 8.67761 5.78129   1
  -4   4   2 79.0455 5.22485   2
   4  -4  -2 63.9666 7.45216   1
  -4   4   2 77.7973 7.45861   1
  -4   4   1 10.6891 4.72863   1
  -4   4   1 5.65825 3.37607   2
  -4   4   0 0.30407 3.83564   1
  -4   4   0 1.64657 3.76265   1
  -4   4   0 0.43205 3.09385   2
  -4   4  -1 32.6916 4.82279   2
  -4   4  -1 38.9233 4.90814   1
  -4   4  -1 44.9248 5.18867   1
  -4   4  -2 193.488 9.01335   2
  -4   4  -2 191.239 8.06296   1
  -4   4  -2 204.354 8.28704   1
  -4   4  -3 182.889 9.44412   2
  -4   4  -3 185.688 7.36117   1
  -4   4  -3 188.737 7.41708   1
  -4   4  -4 0.17318 2.75552   1
  -4   4  -4 6.16856 4.54519   2
  -4   4  -4 0.99430 2.73393   1
  -4   4  -5 105.929 4.44603   1
  -4   4  -5 112.626 8.46998   2
  -4   4  -5 103.527 4.31324   1
  -4   4  -6 42.4235 6.86609   2
  -4   4  -7 60.9212 8.70509   2
  -4   4  -8 118.166 11.1374   2
  -4   4  -9 28.7400 8.04762   2
  -4   4 -10 50.3787 11.2155   2
  -4   4 -11 40.3596 12.0098   2
  -4   4 -12 47.8100 12.2287   2
  -4   3  12 13.0852 12.6190   1
   4  -3 -12 50.9013 13.8177   1
  -4   3  11 17.3254 10.7329   1
   4  -3 -11 24.4694 11.0965   1
  -4   3  10-5.99403 9.13838   1
   4  -3 -10 12.0703 9.86984   1
  -4   3   9 8.55831 8.83610   1
   4  -3  -9-11.7494 9.50819   1
  -4   3   8 17.6680 7.42064   1
   4  -3  -8 4.81831 8.45234   1
  -4   3   7 36.8404 7.31268   1
   4  -3  -7 28.3406 8.54150   1
   4  -3  -6 64.7171 8.21186   1
  -4   3   6 74.8183 8.94511   1
  -4   3   5 8.54435 5.86795   1
   4  -3  -5 6.33116 5.48583   1
  -4   3   4 100.767 3.63586   2
   4  -3  -4 98.9788 8.65139   1
  -4   3   4 104.142 8.79412   1
  -4   3   3 62.2106 3.73735   2
  -4   3   3 71.0941 7.03659   1
  -4   3   2 9.71653 4.38732   1
  -4   3   2 6.98308 4.54032   1
  -4   3   2 12.7218 2.84913   2
  -4   3   1 7.78715 4.42434   1
  -4   3   1 2.41612 3.75505   1
  -4   3   1 6.80387 2.73928   2
  -4   3   0-0.32998 3.67293   1
  -4   3   0 0.71171 3.55816   1
  -4   3   0 3.23030 3.04191   2
  -4   3  -1 6.65503 3.67892   1
  -4   3  -1 13.1279 3.78540   2
  -4   3  -1 15.9241 3.79320   1
  -4   3  -2 38.5149 4.94137   2
  -4   3  -2 48.4524 4.75458   1
  -4   3  -2 53.6081 4.97843   1
  -4   3  -3 491.540 13.7930   2
  -4   3  -3 523.764 11.4164   1
  -4   3  -3 520.493 11.6733   1
  -4   3  -4 5.74361 2.99480   1
  -4   3  -4 5.41548 2.74398   1
  -4   3  -4 12.8647 4.80799   2
  -4   3  -5 31.6858 6.09785   2
  -4   3  -5 35.0231 3.27502   1
  -4   3  -5 37.5369 3.45643   1
  -4   3  -6 2.16756 1.64101   1
  -4   3  -6 1.15503 1.68286   1
  -4   3  -7 105.311 9.64255   2
  -4   3  -8 52.6385 8.82281   2
  -4   3  -9 43.4364 9.28321   2
  -4   3 -10 24.5653 9.87655   2
  -4   3 -11 10.3125 9.38192   2
  -4   3 -12 92.3407 15.0424   2
  -4   2  12-14.7880 10.5478   1
  -4   2  12 0.86222 11.5167   1
  -4   2  11 19.2063 11.0669   1
  -4   2  11 24.9901 10.4297   1
  -4   2  10 40.4803 9.76996   1
  -4   2   9 163.677 11.8988   1
  -4   2   8 167.502 12.0511   1
  -4   2   7 4.28145 6.51343   1
  -4   2   7 3.09216 5.52301   1
  -4   2   6 57.3710 7.05436   1
  -4   2   6 48.4392 6.92434   1
  -4   2   5 50.2712 7.14391   1
  -4   2   5 54.2832 7.55546   1
  -4   2   4 113.773 8.29256   1
  -4   2   4 98.3219 7.73299   1
  -4   2   3 102.737 3.71684   2
  -4   2   3 100.914 7.74001   1
  -4   2   3 99.4226 7.93977   1
  -4   2   2 33.1345 3.08018   2
  -4   2   2 35.0938 5.12650   1
  -4   2   2 32.9901 5.41926   1
  -4   2   1 1.64746 3.65614   1
  -4   2   1 8.68492 3.91791   1
  -4   2   1 1.27351 2.39016   2
  -4   2   0 89.0744 5.34817   2
  -4   2   0 86.5539 6.32004   1
  -4   2   0 81.1355 6.30697   1
  -4   2  -1 41.1278 4.48831   2
  -4   2  -1 37.9421 4.54252   1
  -4   2  -1 39.6051 4.69015   1
  -4   2  -2 1.23375 3.25734   1
  -4   2  -2 3.36382 3.50455   2
  -4   2  -2 0.83755 2.92458   1
  -4   2  -3 27.7591 3.86637   1
  -4   2  -3 19.6108 4.53735   2
  -4   2  -3 24.8080 3.86382   1
  -4   2  -4 8.88626 2.96676   1
  -4   2  -4 1.17592 3.00683   1
  -4   2  -4 9.19784 4.72343   2
  -4   2  -5 17.5545 3.37557   1
  -4   2  -5 26.0845 3.38526   1
  -4   2  -5 22.1458 5.55250   2
  -4   2  -6 5.98447 2.80863   1
  -4   2  -6 12.3056 2.77279   1
  -4   2  -6 0.46849 5.52465   2
  -4   2  -7 10.2213 2.39698   1
  -4   2  -7 2.17582 5.80081   2
  -4   2  -7 6.73697 2.22247   1
  -4   2  -8 1.85687 1.25244   1
  -4   2  -8-10.7390 6.59749   2
  -4   2  -9-5.63439 8.63447   2
  -4   2 -10-3.22277 8.12617   2
  -4   2 -11-2.93927 9.64418   2
  -4   2 -12 20.9055 10.7995   2
  -4   1  13 3.06691 12.5138   1
  -4   1  13-15.5086 11.5786   1
  -4   1  12 74.5475 11.9100   1
  -4   1  12 61.7620 12.3231   1
  -4   1  11 12.6145 9.70720   1
  -4   1  11 11.3069 9.32312   1
  -4   1  10-13.7321 8.39389   1
  -4   1  10 12.9739 8.16230   1
  -4   1   9 43.6871 8.66120   1
  -4   1   9 55.7197 9.21358   1
  -4   1   8 23.9434 7.58661   1
  -4   1   8 16.7209 6.59047   1
  -4   1   7 13.5810 6.40032   1
  -4   1   7-2.25768 5.92104   1
  -4   1   6 106.723 8.34540   1
  -4   1   6 100.258 8.99294   1
  -4   1   5 13.3725 5.54770   1
  -4   1   5 19.4665 5.46294   1
  -4   1   4 58.8540 6.49221   1
  -4   1   4 54.3039 6.55552   1
  -4   1   3 15.0938 4.80960   1
  -4   1   3 10.0150 4.51006   1
  -4   1   3 9.16089 1.56989   2
  -4   1   2 416.633 8.09749   2
  -4   1   2 394.708 12.9864   1
  -4   1   2 416.567 12.8923   1
  -4   1   1 28.9492 3.28772   2
  -4   1   1 41.0634 4.97798   1
  -4   1   1 35.2035 5.09350   1
  -4   1   0 52.7810 4.43637   2
  -4   1   0 57.0167 5.34642   1
  -4   1   0 55.1736 5.55557   1
  -4   1  -1 165.151 7.38725   2
  -4   1  -1 178.612 7.97727   1
  -4   1  -1 182.591 8.42075   1
  -4   1  -2 5.34904 3.34607   1
  -4   1  -2 4.99096 3.50580   2
  -4   1  -2 4.05646 3.37773   1
  -4   1  -3 127.844 7.69337   2
  -4   1  -3 132.518 7.11197   1
  -4   1  -3 130.592 6.66224   1
  -4   1  -4 139.921 8.58657   2
  -4   1  -4 141.873 7.04415   1
  -4   1  -4 145.745 6.75756   1
  -4   1  -5 208.299 10.7515   2
  -4   1  -5 206.195 7.68391   1
  -4   1  -5 221.957 8.38315   1
  -4   1  -6 10.5270 3.45930   1
  -4   1  -6 8.74953 5.82275   2
  -4   1  -7 54.9532 4.58785   1
  -4   1  -7 52.8980 8.24315   2
  -4   1  -8-0.60661 3.13444   1
  -4   1  -8 8.00449 6.32486   2
  -4   1  -9 0.11329 2.97993   1
  -4   1  -9 9.17889 7.26973   2
  -4   1 -10 27.1049 3.32323   1
  -4   1 -10 28.9855 3.14912   1
  -4   1 -11-6.12680 10.2992   2
  -4   0  14 46.7310 9.49019   1
  -4   0  14 35.8253 9.25340   1
  -4   0  13-13.7478 11.4230   1
  -4   0  13-4.50290 10.4662   1
  -4   0  12 47.0395 11.5777   1
  -4   0  12 31.7641 9.87336   1
  -4   0  11 26.9927 9.46214   1
  -4   0  11 0.36212 8.25782   1
  -4   0  10 24.3806 7.77428   1
  -4   0  10 9.03879 7.77019   1
  -4   0   9 6.63945 6.91813   1
  -4   0   9-3.89481 6.23365   1
  -4   0   8 9.71958 6.80063   1
  -4   0   8-0.29289 6.19493   1
  -4   0   7 15.1547 5.18764   1
  -4   0   7 9.19150 4.94821   1
  -4   0   6 21.7010 6.31442   1
  -4   0   6 25.2911 6.18642   1
  -4   0   5 53.4007 6.31220   1
  -4   0   5 44.5899 5.69767   1
  -4   0   4 15.5265 5.35888   1
  -4   0   4 22.4292 4.76975   1
  -4   0   3 2.38121 3.73301   1
  -4   0   3 1.00935 1.54904   2
  -4   0   3 2.49834 4.31249   1
  -4   0   3 0.44064 1.48935   2
  -4   0   2 13.2384 2.54828   2
  -4   0   2 8.76679 4.07769   1
  -4   0   2 10.4350 2.35753   2
  -4   0   2 14.8790 4.85751   1
  -4   0   1 153.356 6.13467   2
  -4   0   1 156.625 8.06200   1
  -4   0   1 154.188 8.37056   1
  -4   0   0 59.5110 5.48576   1
  -4   0   0 52.7861 4.52639   2
  -4   0   0 56.8377 6.02198   1
  -4   0  -1 227.962 9.13265   1
   4   0   2-0.03390 3.37895   1
  -4   0  -2 0.10040 3.38318   1
   4   0   3 52.2620 5.28360   1
  -4   0  -3 43.2767 4.92561   1
  -4   0  -4 8.29283 3.87716   1
   4   0   4 2.71343 3.29661   1
   4   0   5 292.654 9.97239   1
  -4   0  -5 301.593 10.0162   1
  -4   0  -6 6.27214 3.97097   1
   4   0   6 1.48302 3.79931   1
   4   0   7 7.52273 4.14946   1
  -4   0  -7 15.9456 4.57651   1
  -4   0  -8 1.28883 4.25998   1
   4   0   8 5.62347 4.08531   1
  -4   0  -9 39.5557 5.53360   1
  -4   0  -9 25.7192 9.05431   2
   4   0   9 35.2077 5.51212   1
   4   0  10 40.7373 5.71540   1
  -4   0 -10 47.3532 6.04537   1
  -4   0 -11 43.0205 13.2357   2
  -4   0 -11 47.0830 6.08006   1
  -4  -1  14 10.1505 11.8831   1
  -4  -1  14 33.9086 13.3627   1
  -4  -1  13 11.9872 10.0437   1
  -4  -1  13-6.08258 10.2844   1
  -4  -1  12 77.0422 11.0798   1
  -4  -1  12 93.5284 12.2764   1
  -4  -1  11 17.2119 8.41968   1
  -4  -1  11 21.3991 9.27971   1
  -4  -1  10 23.1832 7.44529   1
  -4  -1  10 23.6547 7.63829   1
  -4  -1   9 12.5229 6.52213   1
  -4  -1   9 3.01095 5.19708   1
  -4  -1   8 8.62873 6.73755   1
  -4  -1   8 8.63834 5.84621   1
  -4  -1   7 12.1131 6.20269   1
  -4  -1   7 20.1582 5.76863   1
  -4  -1   6 115.561 8.32107   1
  -4  -1   6 110.544 8.77927   1
  -4  -1   5 3.47093 3.98260   1
  -4  -1   5 5.09131 5.01193   1
  -4  -1   4 39.2153 2.29381   2
  -4  -1   4 36.1252 2.13875   2
  -4  -1   4 40.8792 5.56190   1
  -4  -1   4 39.6544 6.19533   1
  -4  -1   3 0.38922 3.80105   1
  -4  -1   3 4.65468 2.19741   2
  -4  -1   3 0.37357 4.72433   1
  -4  -1   2 81.1114 4.60617   2
  -4  -1   2 83.3975 6.95242   1
  -4  -1   2 82.0046 7.38569   1
  -4  -1   1 80.7465 5.16769   2
  -4  -1   1 86.6960 6.85279   1
   4   1  -1 84.2011 6.55861   1
  -4  -1   0 123.844 6.69655   2
  -4  -1   0 126.519 7.75176   1
   4   1   0 135.119 8.01906   1
   4   1   1 67.5180 6.09581   1
  -4  -1  -1 73.8618 6.24943   1
   4   1   2-2.31417 4.01717   1
  -4  -1  -2-3.20777 3.85108   1
  -4  -1  -3 149.729 8.15169   1
   4   1   3 144.769 8.13914   1
  -4  -1  -4 5.07736 4.15857   1
   4   1   4 0.15138 4.13672   1
  -4  -1  -5 31.4134 5.26579   1
   4   1   5 32.8606 5.35870   1
  -4  -1  -6-5.67719 4.87897   1
   4   1   6-2.58618 4.68386   1
  -4  -1  -7 52.3131 6.67540   1
   4   1   7 61.7611 6.58818   1
  -4  -1  -8 426.315 13.6306   1
   4   1   8 417.703 13.4132   1
   4   1   9 15.0828 6.44756   1
  -4  -1  -9 7.02233 6.10363   1
   4   1  10 6.86130 6.28849   1
  -4  -1 -10-1.39001 6.59857   1
  -4  -2  14 3.71814 11.9111   1
  -4  -2  14 13.0874 12.1797   1
  -4  -2  13-1.99852 10.3259   1
  -4  -2  13 45.3701 10.9088   1
  -4  -2  12-0.37639 9.21061   1
  -4  -2  12-0.07339 8.61246   1
  -4  -2  11 17.5290 8.65506   1
  -4  -2  11 13.9126 8.24654   1
  -4  -2  10 5.73833 7.30038   1
  -4  -2  10 5.88944 7.23393   1
  -4  -2   9 101.339 10.1834   1
  -4  -2   9 107.642 10.2826   1
  -4  -2   8 3.46360 6.04386   1
  -4  -2   8-0.51714 5.24544   1
  -4  -2   7 29.4078 6.87107   1
  -4  -2   7 36.6679 6.29641   1
  -4  -2   6 34.7925 6.59844   1
  -4  -2   6 22.2770 6.42177   1
  -4  -2   5 187.298 4.64158   2
  -4  -2   5 194.855 10.5887   1
  -4  -2   5 189.379 10.8902   1
  -4  -2   4 37.7290 3.27548   2
  -4  -2   4 40.7982 5.77291   1
  -4  -2   4 43.6536 6.57730   1
  -4  -2   3 4.00147 2.73644   2
   4   2  -3 0.32266 3.97267   1
  -4  -2   3 2.89803 4.25754   1
  -4  -2   2 116.057 5.99221   2
  -4  -2   2 113.699 8.04989   1
   4   2  -2 131.265 8.19519   1
  -4  -2   1 25.6714 5.03977   1
  -4  -2   1 22.5448 3.96912   2
   4   2  -1 29.6694 5.39212   1
  -4  -2   0 17.4159 4.89351   1
   4   2   0 5.70157 4.48023   1
  -4  -2   0 11.4811 3.87642   2
  -4  -2  -1 35.6896 5.27186   2
  -4  -2  -1 26.0448 5.20643   1
   4   2   1 31.9659 5.57377   1
  -4  -2  -2 18.7811 5.18941   2
  -4  -2  -2 15.1511 4.69964   1
   4   2   2 14.5554 5.07208   1
  -4  -2  -3 10.3629 5.24954   2
   4   2   3 5.19459 4.65700   1
  -4  -2  -3-0.21548 4.61395   1
  -4  -2  -4 6.40498 4.96880   1
  -4  -2  -4 8.87655 5.34600   2
   4   2   4 11.1854 5.11906   1
  -4  -2  -5 29.8254 5.88740   1
   4   2   5 25.1965 5.79480   1
  -4  -2  -5 28.7411 7.59197   2
   4   2   6 13.7942 5.83606   1
  -4  -2  -6 27.6468 7.90406   2
  -4  -2  -6 27.2936 6.41159   1
   4   2   7 20.7066 6.44625   1
  -4  -2  -7 34.6197 9.47656   2
  -4  -2  -7 14.8423 6.09015   1
   4   2   8 20.4969 7.17140   1
  -4  -2  -8 23.3323 9.05694   2
  -4  -2  -8 13.0445 7.02374   1
   4   2   9 36.5355 7.82550   1
  -4  -2  -9 31.8722 11.4533   2
  -4  -2  -9 29.5536 7.81871   1
   4   2  10-3.38832 7.96028   1
  -4  -2 -10 24.3988 8.44790   1
  -4  -3  14 23.6999 12.4845   1
  -4  -3  14 25.7349 11.0366   1
  -4  -3  13-4.12256 10.0341   1
  -4  -3  13 23.7961 9.68619   1
  -4  -3  12 24.7895 9.26487   1
  -4  -3  12 9.10642 9.01330   1
  -4  -3  11 24.2034 7.93404   1
  -4  -3  11 3.64281 7.01574   1
  -4  -3  10 4.17583 6.85022   1
  -4  -3  10 12.3976 6.69602   1
  -4  -3   9 18.6995 7.52753   1
  -4  -3   9 9.03253 6.88268   1
  -4  -3   8 488.757 17.4061   1
  -4  -3   8 479.195 18.0108   1
  -4  -3   7 40.7425 2.29804   2
  -4  -3   7 47.7590 8.11411   1
  -4  -3   7 37.3705 7.16298   1
  -4  -3   6 88.1053 4.05099   2
  -4  -3   6 86.4429 8.42666   1
  -4  -3   6 92.6347 8.86526   1
  -4  -3   5-1.83974 2.49653   2
  -4  -3   5-0.15384 5.27637   1
   4   3  -5 5.48716 5.37051   1
  -4  -3   4 69.8013 4.80178   2
  -4  -3   4 62.1232 6.53684   1
   4   3  -4 75.3506 7.63271   1
  -4  -3   3 202.977 10.3305   1
  -4  -3   3 193.185 7.76529   2
   4   3  -3 191.287 10.4889   1
   4   3  -2 272.142 12.1091   1
  -4  -3   2 286.372 9.77296   2
  -4  -3   2 277.603 12.1238   1
  -4  -3   1 29.2119 4.78284   2
   4   3  -1 29.0471 5.36814   1
  -4  -3   1 21.4614 5.54841   1
  -4  -3   0 185.056 9.16538   2
   4   3   0 191.829 10.3766   1
  -4  -3   0 174.914 10.0215   1
  -4  -3  -1 12.9172 4.90198   2
   4   3   1 15.3072 5.68260   1
  -4  -3  -1 18.4045 5.02877   1
  -4  -3  -2 12.9704 5.35602   2
   4   3   2-1.07605 4.78299   1
  -4  -3  -2 14.7615 5.10787   1
   4   3   3 15.1813 5.95029   1
  -4  -3  -3 5.89485 5.40357   1
  -4  -3  -3 8.65447 5.53185   2
   4   3   4 30.2917 6.70712   1
  -4  -3  -4 35.0813 7.29623   2
  -4  -3  -4 42.6229 6.88027   1
  -4  -3  -5 2.81113 5.93974   1
  -4  -3  -5 8.70564 6.47097   2
   4   3   5 4.92343 5.97855   1
  -4  -3  -6 19.1125 8.08487   2
  -4  -3  -6 29.9162 7.38500   1
   4   3   6 32.2160 7.52663   1
  -4  -3  -7 38.0996 8.50998   1
  -4  -3  -7 31.7907 10.2711   2
   4   3   7 37.9103 8.23476   1
  -4  -3  -8 30.2721 9.67079   2
  -4  -3  -8 38.7889 9.05824   1
   4   3   8 38.2789 8.95137   1
  -4  -3  -9 40.0805 13.7921   2
   4   3   9 34.8052 10.1850   1
  -4  -3  -9 21.7515 9.89397   1
  -4  -4  14-1.17242 11.8367   1
  -4  -4  14 109.401 13.6854   1
  -4  -4  13 6.89429 10.2995   1
  -4  -4  13 26.2927 10.3953   1
  -4  -4  12 6.00020 8.48866   1
  -4  -4  12-0.65532 8.10065   1
  -4  -4  11 18.5825 8.97594   1
  -4  -4  11 10.4331 7.59781   1
  -4  -4  10-0.07026 8.16893   1
  -4  -4  10 5.13467 6.22175   1
  -4  -4   9 19.8116 2.36371   2
  -4  -4   9 10.5051 6.94731   1
  -4  -4   9 23.5827 7.41217   1
  -4  -4   8 17.6852 2.88795   2
  -4  -4   8 14.7034 7.03908   1
  -4  -4   8 14.2259 6.50729   1
  -4  -4   7 60.2668 7.36484   1
  -4  -4   7 53.4440 4.14278   2
  -4  -4   7 70.8899 9.14515   1
  -4  -4   6-2.24411 3.03895   2
   4   4  -6 2.29413 5.85496   1
  -4  -4   6-2.07269 5.55889   1
   4   4  -5 15.5025 6.14579   1
  -4  -4   5 7.85662 4.75981   1
  -4  -4   5 16.5108 3.71831   2
  -4  -4   4 29.4717 4.44814   2
   4   4  -4 35.2175 6.68044   1
  -4  -4   4 34.6585 6.89283   1
   4   4  -3 29.6550 5.81365   1
  -4  -4   3 31.4007 6.53979   1
  -4  -4   3 31.9585 4.91954   2
  -4  -4   2 69.4456 6.42602   2
  -4  -4   2 76.0268 8.01397   1
   4   4  -2 67.6463 8.07938   1
  -4  -4   1 114.464 8.01746   2
   4   4  -1 119.565 9.25058   1
  -4  -4   1 103.553 8.59134   1
  -4  -4   0-2.02394 5.17273   2
   4   4   0-0.48532 5.01205   1
  -4  -4   0 2.98834 4.74616   1
   4   4   1 15.7448 6.54533   1
  -4  -4  -1 17.8983 6.07262   2
  -4  -4  -1 15.5017 5.59726   1
   4   4   2-3.83862 5.21768   1
  -4  -4  -2-6.75239 5.67599   1
  -4  -4  -2-1.58087 5.28233   2
  -4  -4  -3 40.0039 7.74812   2
   4   4   3 49.0221 7.50137   1
  -4  -4  -3 50.6899 8.02778   1
  -4  -4  -4 24.9426 7.19085   1
  -4  -4  -4 27.1125 7.31384   2
   4   4   4 33.9306 7.49729   1
  -4  -4  -5 36.1648 9.05975   2
   4   4   5 18.3042 7.60466   1
  -4  -4  -5 38.0216 8.42114   1
  -4  -4  -6 8.88679 9.06678   2
   4   4   6 17.6780 8.42364   1
  -4  -4  -6 7.80305 7.97711   1
  -4  -4  -7-1.23333 10.9089   2
  -4  -4  -7 11.8185 8.73669   1
   4   4   7 30.6172 9.10690   1
  -4  -4  -8 19.3786 11.4649   2
  -4  -4  -8 37.2752 10.9961   1
   4   4   8 31.3272 10.5835   1
  -4  -5  14-2.38744 10.7789   1
  -4  -5  14 37.6117 12.4358   1
  -4  -5  13 1.07053 11.6234   1
  -4  -5  13 18.2754 10.1563   1
  -4  -5  12 11.5487 9.75746   1
  -4  -5  12 26.4467 10.6661   1
  -4  -5  11 76.0028 10.9287   1
  -4  -5  11 67.8684 10.8043   1
  -4  -5  10 57.5345 9.01579   1
  -4  -5  10 45.7130 4.41068   2
  -4  -5  10 39.1802 10.2507   1
  -4  -5   9-0.78600 7.16303   1
  -4  -5   9 7.64629 3.70093   2
  -4  -5   9-4.34207 7.25564   1
  -4  -5   8 12.9016 6.90323   1
  -4  -5   8 10.3116 3.70200   2
  -4  -5   7 168.916 11.5407   1
  -4  -5   7 163.758 7.62406   2
   4   5  -7 177.284 11.4685   1
   4   5  -6 15.6603 5.97211   1
  -4  -5   6 18.2693 5.97617   1
  -4  -5   6 11.1418 4.08315   2
  -4  -5   5-2.90539 4.90320   1
   4   5  -5 8.40669 5.80088   1
  -4  -5   5 4.99168 4.02903   2
   4   5  -4 8.02763 6.69001   1
  -4  -5   4 13.9419 4.84288   2
  -4  -5   4 11.3495 6.83062   1
  -4  -5   3 5.47266 4.78124   2
   4   5  -3 2.68233 5.58282   1
  -4  -5   3 5.36338 6.16221   1
  -4  -5   2 61.7148 6.99254   2
   4   5  -2 74.7837 9.17720   1
  -4  -5   2 65.4367 8.28468   1
  -4  -5   1 93.4586 8.43658   2
   4   5  -1 84.3200 9.40627   1
  -4  -5   1 83.2242 9.28048   1
   4   5   0 17.7532 6.43020   1
  -4  -5   0 11.6766 5.85538   2
  -4  -5   0-2.34806 5.74601   1
   4   5   1 25.5140 7.79738   1
  -4  -5  -1 15.3051 7.31728   1
  -4  -5  -1 33.2122 7.16506   2
  -4  -5  -2 79.1242 9.20236   2
   4   5   2 95.0862 10.2092   1
  -4  -5  -2 77.2254 9.36721   1
  -4  -5  -3 88.4939 10.5014   2
   4   5   3 88.0757 10.5934   1
  -4  -5  -3 77.1860 9.40077   1
  -4  -5  -4 0.40887 7.77463   1
   4   5   4-3.55563 7.78725   1
  -4  -5  -5 49.4346 9.98172   1
  -4  -5  -5 26.7235 9.50979   2
   4   5   5 38.7841 9.48960   1
  -4  -5  -6-7.00390 12.1542   2
   4   5   6 17.6707 9.51184   1
  -4  -5  -6 12.3354 9.32384   1
  -4  -5  -7 25.1440 12.4853   2
   4   5   7 6.18661 10.0929   1
  -4  -5  -7 4.17562 9.49025   1
  -4  -6  13 14.3026 12.3495   1
   4   6 -13-5.44513 4.83202   2
  -4  -6  13 20.7107 11.6186   1
  -4  -6  12-7.22833 10.8062   1
   4   6 -12 5.29164 4.80300   2
  -4  -6  12-11.1801 9.83204   1
   4   6 -11 8.02603 5.08161   2
  -4  -6  11-4.29044 9.05286   1
  -4  -6  11 2.30220 4.74896   2
  -4  -6  11-9.41164 9.87598   1
  -4  -6  10-4.30654 8.33821   1
   4   6 -10 4.24597 4.66015   2
  -4  -6  10-2.94059 4.89187   2
  -4  -6  10-4.42939 8.33179   1
   4   6  -9-1.58523 5.03586   2
  -4  -6   9 3.14328 8.16602   1
  -4  -6   9-3.23789 4.65651   2
  -4  -6   8 31.7578 8.86613   1
  -4  -6   8 37.6937 5.99938   2
   4   6  -8 41.4532 8.11084   1
  -4  -6   7 163.177 8.99345   2
   4   6  -7 159.988 11.7484   1
  -4  -6   7 175.001 12.2418   1
   4   6  -6 10.9641 6.82100   1
  -4  -6   6 0.20510 4.98989   2
  -4  -6   6-2.81101 6.35530   1
  -4  -6   5 56.0049 6.77460   2
  -4  -6   5 67.3786 8.75232   1
   4   6  -5 54.4653 9.24366   1
  -4  -6   4 38.0793 6.56177   2
  -4  -6   4 37.7713 7.46759   1
   4   6  -4 47.7129 7.83909   1
  -4  -6   3 8.35607 5.57969   2
   4   6  -3 23.8422 7.69628   1
  -4  -6   3 12.7783 7.67203   1
   4   6  -2-0.93133 7.01782   1
  -4  -6   2 6.32130 6.15079   2
  -4  -6   2-0.26332 7.24256   1
  -4  -6   1 36.3093 7.90386   2
  -4  -6   1 32.2803 8.14535   1
   4   6  -1 38.0164 7.95337   1
  -4  -6   0 170.635 12.0385   2
   4   6   0 146.250 12.5919   1
  -4  -6   0 140.906 11.9112   1
  -4  -6  -1-6.56484 8.32018   1
  -4  -6  -1-4.51192 7.84824   2
   4   6   1 2.16705 8.25226   1
  -4  -6  -2 2.88897 8.17702   1
  -4  -6  -2 23.9203 9.25873   2
   4   6   2 8.61557 8.92414   1
  -4  -6  -3 0.44982 8.88074   1
  -4  -6  -3-0.74735 9.39470   2
   4   6   3-4.96207 7.98544   1
  -4  -6  -4-5.52199 10.8874   2
  -4  -6  -4-22.3491 10.6504   1
   4   6   5-2.87579 10.0714   1
  -4  -6  -5 20.9103 11.6027   1
  -4  -7  12-4.60204 11.5121   1
   4   7 -12-2.62133 6.93318   2
  -4  -7  12-4.50383 6.30444   2
  -4  -7  12 6.32444 11.0874   1
  -4  -7  11-0.94061 9.34431   1
   4   7 -11 5.12915 6.48949   2
  -4  -7  11 9.85766 6.09512   2
  -4  -7  11-2.71232 11.3245   1
  -4  -7  10 1.44995 9.91023   1
   4   7 -10 18.5320 6.45013   2
  -4  -7  10 10.9417 6.10179   2
  -4  -7  10 13.2020 10.8869   1
   4   7  -9 90.4372 8.35492   2
  -4  -7   9 90.3289 8.50929   2
   4   7  -9 95.2150 12.5990   1
  -4  -7   9 97.4578 12.2454   1
   4   7  -8 48.3984 7.10041   2
  -4  -7   8 58.6665 7.57117   2
   4   7  -8 45.0330 10.4870   1
  -4  -7   8 55.0919 10.6774   1
  -4  -7   7 5.03359 6.11055   2
   4   7  -7 10.9285 8.62106   1
  -4  -7   7 22.9657 8.80785   1
   4   7  -6-3.88746 7.25210   1
  -4  -7   6 1.74523 6.33167   2
  -4  -7   6-2.51910 8.75013   1
  -4  -7   5 2.32891 6.35146   2
  -4  -7   5 9.78780 7.95655   1
   4   7  -5 9.14587 8.71201   1
  -4  -7   4 4.97517 6.53080   2
  -4  -7   4-2.60169 8.01666   1
   4   7  -4 1.97504 8.70983   1
   4   7  -3 2.35714 8.82487   1
  -4  -7   3 3.24146 6.67403   2
  -4  -7   3-4.73377 8.62010   1
   4   7  -2-3.58134 8.62473   1
  -4  -7   2 4.42687 7.30538   1
  -4  -7   2 0.68501 7.26053   2
  -4  -7   1 267.401 14.8037   2
   4   7  -1 257.064 16.0615   1
  -4  -7   1 271.833 16.3840   1
   4   7   0 38.0747 10.2326   1
  -4  -7   0 16.6412 9.88862   1
  -4  -7   0 27.6470 8.95696   2
  -4  -7  -1 22.8870 10.2202   1
  -4  -7  -1 33.8521 10.9702   2
   4   7   1 26.0225 10.6328   1
  -4  -7  -2-5.67979 9.77667   1
  -4  -7  -2 5.96583 10.9463   2
   4   7   2-7.73696 11.2150   1
  -4  -7  -3 133.998 14.3789   2
  -4  -7  -3 74.0303 13.3130   1
   4   7   4 17.2607 7.86300   1
  -4  -7  -4 10.5209 7.10172   1
   4   8 -11 27.1559 8.69737   2
  -4  -8  11 34.8656 13.4085   1
  -4  -8  11 3.26573 12.7642   1
   4   8 -10 37.7434 12.5043   1
   4   8 -10 57.1345 8.82377   2
  -4  -8  10 28.4771 8.21483   2
  -4  -8  10 57.4560 11.4264   1
   4   8  -9 71.4595 9.50684   2
  -4  -8   9 69.6590 9.67493   2
  -4  -8   9 70.3020 12.4222   1
   4   8  -8 16.1910 7.88760   2
  -4  -8   8 28.3653 8.58576   2
  -4  -8   8 23.7765 10.2056   1
   4   8  -8 21.1047 9.71663   1
   4   8  -7 75.6628 12.8219   1
  -4  -8   7 73.2749 9.70557   2
  -4  -8   7 62.2965 10.9368   1
  -4  -8   6 11.1739 7.89385   2
  -4  -8   6-15.6326 10.2171   1
   4   8  -6 7.19916 9.42400   1
  -4  -8   5 7.43469 9.75870   1
  -4  -8   5 13.0692 8.39539   2
   4   8  -5-5.26580 10.0835   1
  -4  -8   4 11.9134 9.00590   1
   4   8  -4 18.7282 10.7537   1
  -4  -8   4 7.52790 8.75125   2
  -4  -8   3 114.614 12.3626   2
  -4  -8   3 98.9878 12.2682   1
   4   8  -3 126.685 13.1078   1
  -4  -8   2 156.451 13.5358   2
   4   8  -2 148.406 15.1166   1
  -4  -8   2 148.635 14.7769   1
   4   8  -1-13.9622 11.8820   1
  -4  -8   1 2.46114 11.7823   1
  -4  -8   1 7.78119 9.44711   2
  -4  -8   0 28.3905 10.4366   1
  -4  -8   0 2.07558 10.8194   2
   4   8   0 21.8536 12.0939   1
  -4  -8  -1-16.7060 12.3992   1
  -4  -8  -1 15.8838 11.2523   2
   4   8   1 11.8960 11.8140   1
   4   9  -9 12.4226 6.62127   2
  -4  -9   9 6.96246 6.54421   2
  -4  -9   9 46.6980 9.42697   1
   4   9  -9 32.2242 9.74440   1
   4   9  -8 10.3618 9.89343   2
   4   9  -8 33.1785 12.1327   1
  -4  -9   8 29.6334 11.9771   1
  -4  -9   8 11.8703 9.64315   2
   4   9  -7 6.33559 13.5300   1
  -4  -9   7 15.4025 10.6001   1
  -4  -9   7 28.4051 10.5474   2
  -4  -9   6 1.50015 12.3020   1
  -4  -9   6 8.15001 9.97565   2
   4   9  -6 11.2725 13.0919   1
  -4  -9   5 1.95511 11.8279   1
  -4  -9   5 3.96763 10.0900   2
   4   9  -5-6.10956 12.9511   1
  -4  -9   4 9.08318 13.1324   1
   4   9  -4-5.17239 12.4130   1
  -4  -9   4-16.2432 10.8841   2
  -4  -9   3 58.4640 13.3472   2
   4   9  -3 49.2274 13.6856   1
  -4  -9   3 78.4752 14.9329   1
  -4  -9   2 4.71478 10.7386   2
  -5   8   1-2.44438 8.64477   2
   5  -8  -1-3.18827 8.31566   2
  -5   8   1 1.50177 10.1850   1
   5  -8  -1-21.8323 11.0244   1
  -5   8   0 12.2335 8.80900   2
   5  -8   0 16.2763 8.62430   2
   5  -8   0 30.4260 11.2220   1
  -5   8   0 23.9261 10.3083   1
  -5   8  -1 25.1392 9.27571   2
  -5   8  -1 25.5545 9.09158   1
  -5   8  -1 19.1205 9.30218   1
  -5   8  -2 23.5267 8.30525   1
  -5   8  -2 36.8183 8.68523   1
  -5   8  -3 7.12179 9.80652   2
  -5   8  -3-3.68982 7.72943   1
  -5   8  -3 9.58251 7.40575   1
  -5   8  -4 74.0803 12.0518   2
  -5   8  -4 51.1824 7.61806   1
  -5   8  -4 79.4577 8.30319   1
  -5   8  -5 2.63136 4.67073   1
  -5   8  -5 7.37795 11.0465   2
  -5   7   4 5.84949 6.53075   2
  -5   7   4 22.2363 12.4934   1
  -5   7   3 31.8470 7.44806   2
  -5   7   3 39.6849 10.9547   1
   5  -7  -3 31.6434 11.7016   1
  -5   7   2-3.24209 6.90002   2
  -5   7   2 3.82042 9.35843   1
   5  -7  -2 9.95984 10.1629   1
  -5   7   1 10.4692 6.62557   2
  -5   7   1 6.46108 8.32716   1
   5  -7  -1 11.2089 9.33480   1
  -5   7   0 22.0247 8.41439   1
  -5   7   0 16.9113 7.57235   2
  -5   7   0 7.35340 8.11368   1
  -5   7  -1-0.10851 7.52872   2
  -5   7  -1 2.29072 7.22919   1
  -5   7  -1 21.7199 7.95071   1
  -5   7  -2 10.1479 8.15646   2
  -5   7  -2 2.64433 6.45724   1
  -5   7  -2-5.79299 6.40925   1
  -5   7  -3 14.7159 8.76114   2
  -5   7  -3 21.9407 6.64190   1
  -5   7  -3 33.7835 6.83186   1
  -5   7  -4 45.6875 6.47854   1
  -5   7  -4 40.9152 9.65180   2
  -5   7  -4 54.4510 6.66096   1
  -5   7  -5 17.5725 4.52059   1
  -5   7  -5 26.6086 4.42307   1
  -5   7  -5 22.6984 9.22074   2
  -5   7  -6 24.6241 10.0376   2
  -5   7  -7 41.8541 12.7803   2
  -5   6   6 42.0656 13.8238   1
   5  -6  -6 34.2998 13.4093   1
  -5   6   5 9.91443 11.2082   1
   5  -6  -5-15.2646 11.6716   1
  -5   6   4 17.8436 5.30895   2
   5  -6  -4 15.3488 9.84609   1
  -5   6   3 12.4877 5.51769   2
  -5   6   3 28.7367 10.0337   1
   5  -6  -3 8.76939 9.45699   1
  -5   6   2-1.87088 5.38078   2
  -5   6   2 14.3147 8.33323   1
  -5   6   1 7.51350 5.60637   2
  -5   6   1 7.34720 7.16550   1
  -5   6   1-0.53153 7.37612   1
  -5   6   0-6.39388 5.98559   2
  -5   6   0-6.15303 7.32351   1
  -5   6   0 13.9764 6.92233   1
  -5   6  -1 41.3589 7.58909   2
  -5   6  -1 51.6513 7.84376   1
  -5   6  -1 42.4958 7.60985   1
  -5   6  -2 16.5459 5.99481   1
  -5   6  -2 11.7387 6.60622   2
  -5   6  -2 13.3364 6.07595   1
  -5   6  -3 44.3455 6.57606   1
  -5   6  -3 37.8327 7.99846   2
  -5   6  -3 33.5921 5.98828   1
  -5   6  -4 31.4693 8.33109   2
  -5   6  -4 33.4488 5.71063   1
  -5   6  -4 39.8428 5.56405   1
  -5   6  -5 24.5520 4.09429   1
  -5   6  -5 23.7843 4.25401   1
  -5   6  -5 15.1871 8.65888   2
  -5   6  -6 33.9967 9.37633   2
  -5   6  -7 72.4317 11.3996   2
  -5   6  -8 18.6541 11.3734   2
  -5   5   8 28.8030 11.1143   1
   5  -5  -8 33.4514 11.8981   1
  -5   5   7 39.0157 12.6159   1
   5  -5  -7 62.9425 13.0414   1
  -5   5   6 122.045 13.4101   1
   5  -5  -6 137.676 15.4855   1
  -5   5   5 38.7402 9.65474   1
  -5   5   4 4.61918 3.36833   2
  -5   5   4-1.31947 7.98862   1
  -5   5   3 110.122 6.54004   2
  -5   5   3 96.4639 10.8356   1
  -5   5   3 107.280 10.6046   1
  -5   5   2 51.1192 5.81294   2
  -5   5   2 43.6842 8.33364   1
  -5   5   2 57.7704 8.88117   1
  -5   5   1 21.3971 5.56233   2
  -5   5   1 21.5762 7.05307   1
  -5   5   1 24.9907 7.03071   1
  -5   5   0 30.9227 6.19935   2
  -5   5   0 33.1534 7.22102   1
  -5   5   0 31.4452 6.87129   1
  -5   5  -1 37.5246 6.56181   2
  -5   5  -1 38.8522 6.93893   1
  -5   5  -1 37.0257 6.62984   1
  -5   5  -2 0.28862 4.97136   1
  -5   5  -2 6.97306 5.60819   2
  -5   5  -2 2.83961 5.39966   1
  -5   5  -3 45.4417 5.91677   1
  -5   5  -3 45.6450 7.71274   2
  -5   5  -3 40.3374 5.85034   1
  -5   5  -4-3.43976 6.83379   2
  -5   5  -4 7.84438 4.33497   1
  -5   5  -4 3.79248 4.27298   1
  -5   5  -5 11.0464 3.50886   1
  -5   5  -5 17.8662 7.81074   2
  -5   5  -5 3.17719 3.37985   1
  -5   5  -6 17.4578 8.08817   2
  -5   5  -7 20.2350 9.52725   2
  -5   5  -8 8.05616 9.61353   2
  -5   5  -9 54.7697 12.3058   2
  -5   4   9 139.352 15.1800   1
  -5   4   9 106.563 14.7177   1
  -5   4   8 41.2799 12.0524   1
  -5   4   8 45.8034 11.0339   1
  -5   4   7 9.93514 10.4507   1
  -5   4   7-1.83115 8.66509   1
  -5   4   6 8.32071 9.28572   1
  -5   4   6 19.5252 9.95039   1
  -5   4   5 40.8633 9.44593   1
  -5   4   5 17.5377 7.59663   1
  -5   4   4 1.79802 2.08261   2
  -5   4   4 9.43775 7.78213   1
  -5   4   4 8.51411 6.62059   1
  -5   4   3-4.60976 6.10971   1
  -5   4   3 0.16863 3.06791   2
  -5   4   3 2.53330 7.14908   1
  -5   4   2 2.75030 6.31468   1
  -5   4   2 9.39938 3.92067   2
  -5   4   2 8.71642 6.41230   1
  -5   4   1 12.6278 6.05481   1
  -5   4   1 0.25720 6.02261   1
  -5   4   1-2.28383 3.93241   2
  -5   4   0 19.8201 5.97086   1
  -5   4   0 13.8997 4.98984   2
  -5   4   0 20.0035 5.75886   1
  -5   4  -1-0.74600 5.11578   1
  -5   4  -1-0.76992 4.70682   2
  -5   4  -1 1.94379 5.05327   1
  -5   4  -2 53.8715 6.98599   2
  -5   4  -2 58.0728 6.51354   1
  -5   4  -2 62.1780 6.70851   1
  -5   4  -3 3.24961 4.57131   1
  -5   4  -3-4.97647 5.56766   2
  -5   4  -3-1.57158 4.51816   1
  -5   4  -4 3.14877 4.21338   1
  -5   4  -4-0.37534 3.91268   1
  -5   4  -4-5.80787 6.28695   2
  -5   4  -5-2.23133 3.48702   1
  -5   4  -5-2.57063 6.67564   2
  -5   4  -5 0.02258 3.47265   1
  -5   4  -6-0.16905 2.16359   1
  -5   4  -6 2.28870 2.12051   1
  -5   4  -6 1.26167 7.30392   2
  -5   4  -7 9.69381 9.09970   2
  -5   4  -8 34.1027 10.8805   2
  -5   4  -9 18.0717 9.97273   2
  -5   3  10 22.7860 13.7192   1
  -5   3  10 15.3401 11.7834   1
  -5   3   9 17.1367 9.86100   1
  -5   3   9 31.2543 10.5066   1
  -5   3   8 119.711 13.6839   1
  -5   3   8 104.337 12.3128   1
  -5   3   7 33.4463 9.48647   1
  -5   3   7 46.0703 9.87144   1
  -5   3   6 4.89224 8.12895   1
  -5   3   6 29.4191 8.74789   1
  -5   3   5 20.4747 7.20671   1
  -5   3   5 11.5226 6.70597   1
  -5   3   4 83.0074 9.34892   1
  -5   3   4 78.6529 9.04935   1
  -5   3   3 51.6505 7.56098   1
  -5   3   3 53.4722 3.65397   2
  -5   3   3 50.6777 8.30370   1
  -5   3   2 46.3225 7.03498   1
  -5   3   2 53.0700 4.57533   2
  -5   3   2 53.5263 7.51246   1
  -5   3   1 27.1751 4.34494   2
  -5   3   1 24.4937 6.56248   1
  -5   3   1 36.5001 6.62769   1
  -5   3   0 52.3533 5.61876   2
  -5   3   0 42.3011 6.36334   1
  -5   3   0 44.1349 6.94311   1
  -5   3  -1 14.1528 5.05688   1
  -5   3  -1 16.3314 5.65294   1
  -5   3  -1 19.4377 4.99774   2
  -5   3  -2 65.5714 6.82071   2
  -5   3  -2 74.5249 6.56272   1
  -5   3  -2 81.7194 7.02144   1
  -5   3  -3 4.14960 4.56369   1
  -5   3  -3 6.14432 4.23366   1
  -5   3  -3 11.0208 5.57391   2
  -5   3  -4 2.11234 4.03315   1
  -5   3  -4 0.66978 4.27918   1
  -5   3  -4-7.51121 6.45643   2
  -5   3  -5 45.0434 8.27873   2
  -5   3  -5 43.3058 4.93249   1
  -5   3  -5 42.9730 5.09906   1
  -5   3  -6 14.9194 3.40408   1
  -5   3  -6 15.5261 3.58314   1
  -5   3  -6 4.63541 6.81123   2
  -5   3  -7-3.28480 7.52827   2
  -5   3  -7-0.98832 1.39061   1
  -5   3  -8 26.5152 10.6469   2
  -5   3  -9 89.6348 13.4003   2
  -5   2  11 18.1836 12.0512   1
  -5   2  11 59.8731 14.2834   1
  -5   2  10 24.5842 11.7634   1
  -5   2  10 19.7858 12.0520   1
  -5   2   9 10.7373 9.04461   1
  -5   2   9 20.4845 10.2598   1
  -5   2   8-12.0255 10.1231   1
  -5   2   8-0.68463 9.16643   1
  -5   2   7 11.5519 8.21898   1
  -5   2   7-0.92717 7.54580   1
  -5   2   6 6.64790 7.33097   1
  -5   2   6 1.13503 7.59381   1
  -5   2   5-5.65682 7.42033   1
  -5   2   5 10.7660 6.28511   1
  -5   2   4 10.1544 6.10288   1
  -5   2   4 7.06952 7.04103   1
  -5   2   3 6.08165 6.21099   1
  -5   2   3-0.05465 1.93029   2
  -5   2   3 6.49788 5.40145   1
  -5   2   2 4.49183 5.98247   1
  -5   2   2 5.98887 3.02575   2
  -5   2   2 11.7499 5.89241   1
  -5   2   1 100.104 5.97132   2
  -5   2   1 96.3591 8.40949   1
  -5   2   1 114.201 8.99370   1
  -5   2   0 175.466 8.09922   2
  -5   2   0 184.142 10.0021   1
  -5   2   0 190.498 10.3969   1
  -5   2  -1 19.9974 5.40309   1
  -5   2  -1 26.6443 5.56768   1
  -5   2  -1 15.0396 4.90383   2
  -5   2  -2 0.08355 4.70041   1
  -5   2  -2 0.82175 4.64961   1
  -5   2  -2 8.99109 4.94242   2
  -5   2  -3 150.020 8.26686   1
  -5   2  -3 144.365 9.40535   2
  -5   2  -3 150.809 8.59830   1
  -5   2  -4 4.52215 4.45595   1
  -5   2  -4 20.5225 6.73168   2
  -5   2  -4 12.3737 4.66742   1
  -5   2  -5 0.16021 4.19743   1
  -5   2  -5 7.51587 4.31767   1
  -5   2  -5-2.98928 5.97522   2
  -5   2  -6 29.9087 4.73521   1
  -5   2  -6 20.6590 4.66353   1
  -5   2  -6 12.1606 7.16373   2
  -5   2  -7 8.43185 3.86782   1
  -5   2  -7 0.89506 8.43589   2
  -5   2  -7 5.75877 3.51776   1
  -5   2  -8 1.12102 2.10497   1
  -5   2  -8-4.87669 9.83718   2
  -5   2  -9 83.8457 12.6560   2
  -5   1  11 53.0419 13.6203   1
  -5   1  11 47.1252 13.5908   1
  -5   1  10 11.3985 11.0911   1
  -5   1  10 26.5141 11.2922   1
  -5   1   9-8.21977 8.83414   1
  -5   1   9 14.3849 9.05499   1
  -5   1   8 29.7172 8.38811   1
  -5   1   8 34.8914 9.75014   1
  -5   1   7 9.71705 6.91996   1
  -5   1   7 6.23075 8.40038   1
  -5   1   6 60.6123 8.61814   1
  -5   1   6 42.1346 8.54454   1
  -5   1   5 3.78992 6.88794   1
  -5   1   5 10.6167 6.79983   1
  -5   1   4 1.31706 5.61381   1
  -5   1   4 1.54916 5.50277   1
  -5   1   3 37.3389 2.94340   2
  -5   1   3 33.7638 2.78402   2
  -5   1   3 32.4672 6.83377   1
  -5   1   3 43.0493 7.60271   1
  -5   1   2 201.897 6.90412   2
  -5   1   2 233.868 11.6279   1
  -5   1   2 214.602 11.5615   1
  -5   1   1 110.238 6.09304   2
  -5   1   1 121.993 8.99882   1
  -5   1   1 119.140 9.11620   1
  -5   1   0-2.29898 4.97930   1
  -5   1   0 4.50961 3.80317   2
  -5   1   0-4.93616 5.03369   1
  -5   1  -1 21.9997 5.74531   1
  -5   1  -1 24.5151 5.04258   2
  -5   1  -1 23.3557 5.58339   1
  -5   1  -2 111.268 7.89556   1
  -5   1  -2 117.950 8.15008   2
  -5   1  -2 121.708 8.48365   1
  -5   1  -3 30.6166 5.62612   1
  -5   1  -3 31.2507 6.27965   2
  -5   1  -3 29.0229 5.33463   1
  -5   1  -4 1.92569 4.67915   1
  -5   1  -4 2.79017 4.60523   1
  -5   1  -4 6.57611 6.28805   2
  -5   1  -5 3.06915 4.61559   1
  -5   1  -5 3.74632 6.23910   2
  -5   1  -5-0.03781 4.93164   1
  -5   1  -6 26.9371 5.39770   1
  -5   1  -6 8.03094 7.48294   2
  -5   1  -6 14.9587 5.17215   1
  -5   1  -7 2.38893 8.29125   2
  -5   1  -7 1.15766 4.64193   1
  -5   1  -7-0.89775 5.01448   1
  -5   1  -8 23.6762 5.12044   1
  -5   1  -8 30.8004 10.4178   2
  -5   1  -8 20.6478 4.85049   1
  -5   1  -9 37.2166 12.3049   2
  -5   1  -9 23.7699 4.21485   1
  -5   0  12-8.42061 10.8349   1
  -5   0  12-3.66620 11.5070   1
  -5   0  11 18.1446 10.5371   1
  -5   0  11 20.3204 9.89661   1
  -5   0  10-9.51652 9.41780   1
  -5   0  10-16.1013 9.97818   1
  -5   0   9-2.41961 7.84056   1
  -5   0   9-1.90242 7.44020   1
  -5   0   8 76.5507 9.77461   1
  -5   0   8 66.9361 9.42805   1
  -5   0   7 23.9582 7.66881   1
  -5   0   7 29.1067 8.91448   1
  -5   0   6 182.422 12.4007   1
  -5   0   6 183.672 12.4300   1
  -5   0   5 13.7404 7.02655   1
  -5   0   5 14.4133 6.72692   1
  -5   0   4 20.4926 7.42817   1
  -5   0   4 7.21728 6.55609   1
  -5   0   3 51.8126 3.62473   2
  -5   0   3 46.7476 3.45573   2
  -5   0   3 55.0814 7.41812   1
  -5   0   3 45.1376 7.74352   1
  -5   0   2 63.0276 4.85421   2
  -5   0   2 63.6578 4.74146   2
  -5   0   2 63.5446 7.43801   1
  -5   0   2 68.4562 7.82817   1
  -5   0   1 27.5780 6.75983   1
  -5   0   1 32.1937 4.49251   2
  -5   0   1 43.2038 6.79688   1
  -5   0   1 30.1472 4.57725   2
  -5   0   0-1.42328 5.09091   1
  -5   0   0-4.85952 4.10240   2
  -5   0   0-4.82725 5.20034   1
  -5   0  -1 100.921 8.21141   1
  -5   0  -1 100.730 7.33995   2
  -5   0  -1 110.257 8.83497   1
  -5   0  -2 53.5434 6.61195   2
  -5   0  -2 66.5126 7.37480   1
  -5   0  -2 56.8291 6.62963   1
  -5   0  -3 19.4009 5.52428   1
  -5   0  -3 16.4379 6.02012   2
  -5   0  -3 20.6632 6.08056   1
  -5   0  -4 32.3212 7.65943   2
  -5   0  -4 21.1927 5.81969   1
  -5   0  -4 12.6559 5.84847   1
  -5   0  -5 13.6305 5.85388   1
  -5   0  -5 30.3934 8.00524   2
  -5   0  -6 38.7614 6.30118   1
  -5   0  -6 39.8016 8.90719   2
   5   0   7 58.2999 6.99444   1
  -5   0  -7 38.7325 10.6621   2
  -5   0  -7 28.0616 6.54468   1
  -5   0  -8-4.54563 10.6132   2
  -5   0  -8 10.5221 6.06870   1
  -5   0  -9 141.977 7.98354   1
  -5   0  -9 106.986 13.3635   2
  -5  -1  12 16.7939 11.9799   1
  -5  -1  12-4.81577 12.4777   1
  -5  -1  11 1.55103 11.7227   1
  -5  -1  11-10.9246 10.5536   1
  -5  -1  10 6.77588 10.6263   1
  -5  -1  10-6.41985 9.99705   1
  -5  -1   9 22.2920 8.84369   1
  -5  -1   9 17.5825 9.36012   1
  -5  -1   8 8.91589 6.98205   1
  -5  -1   8 10.6898 8.60245   1
  -5  -1   7 0.70735 7.25092   1
  -5  -1   7 0.53740 7.51881   1
  -5  -1   6 28.2232 8.20219   1
  -5  -1   6 16.5976 7.61030   1
  -5  -1   5 1.22701 7.08784   1
  -5  -1   5-1.39536 5.56795   1
  -5  -1   4 242.836 5.75323   2
  -5  -1   4 224.512 5.36766   2
  -5  -1   4 246.555 12.7748   1
  -5  -1   4 258.254 13.9464   1
  -5  -1   3 115.094 5.57657   2
  -5  -1   3 107.476 5.30068   2
  -5  -1   3 100.694 9.14112   1
  -5  -1   3 105.399 10.0402   1
  -5  -1   2 5.11180 3.45021   2
  -5  -1   2 10.1620 5.96156   1
  -5  -1   2 5.34744 3.44618   2
  -5  -1   2 3.30622 6.15646   1
  -5  -1   1 14.7827 4.29273   2
  -5  -1   1 13.9446 5.78456   1
  -5  -1   1 22.3573 6.13643   1
  -5  -1   0 312.288 13.2221   1
  -5  -1   0 307.932 11.3618   2
  -5  -1   0 294.827 13.6052   1
  -5  -1  -1 71.2174 7.25387   2
   5   1   1 85.5066 8.04010   1
  -5  -1  -1 78.1112 7.79116   1
  -5  -1  -2 12.4361 5.87807   2
   5   1   2 1.13510 5.29018   1
  -5  -1  -2 11.3164 5.51949   1
   5   1   3 28.8885 6.53656   1
  -5  -1  -3 32.6474 6.69428   1
   5   1   4 5.85683 5.54730   1
  -5  -1  -4 10.0444 6.06675   1
   5   1   5 59.4698 7.82521   1
  -5  -1  -5 63.2739 8.03625   1
  -5  -1  -6 24.6088 7.05326   1
   5   1   6 5.43886 6.85643   1
   5   1   7 5.84547 6.51753   1
  -5  -1  -7 19.9111 7.13349   1
  -5  -1  -8 32.6415 8.10625   1
   5   1   8 17.2405 7.81774   1
  -5  -2  12-0.18067 11.8490   1
  -5  -2  12 5.10497 12.4175   1
  -5  -2  11 14.5392 11.7334   1
  -5  -2  11 13.2381 9.48214   1
  -5  -2  10 48.0178 9.90781   1
  -5  -2  10 45.2105 10.5262   1
  -5  -2   9 26.1507 10.0085   1
  -5  -2   9 17.9399 7.82968   1
  -5  -2   8 12.7179 8.30717   1
  -5  -2   8 7.09506 8.39272   1
  -5  -2   7 40.4760 9.19783   1
  -5  -2   7 44.4307 8.94598   1
  -5  -2   6-13.3303 7.86163   1
  -5  -2   6-3.54853 6.13374   1
  -5  -2   5 4.89039 1.82554   2
  -5  -2   5 4.50543 1.68025   2
  -5  -2   5-0.12411 6.70144   1
  -5  -2   5 1.80496 7.50274   1
  -5  -2   4 22.2038 3.55091   2
  -5  -2   4 22.9004 6.68647   1
  -5  -2   4 15.1269 7.22386   1
  -5  -2   3 52.1453 5.02788   2
  -5  -2   3 58.9442 8.29991   1
  -5  -2   3 52.6948 8.30672   1
  -5  -2   2 59.5064 5.75298   2
  -5  -2   2 59.6622 8.07207   1
  -5  -2   1 32.9129 5.22124   2
   5   2  -1 33.9460 7.27800   1
  -5  -2   1 40.8280 6.85198   1
  -5  -2   0-1.58842 4.82165   2
   5   2   0 3.54982 5.42559   1
  -5  -2   0 0.87006 5.79124   1
  -5  -2  -1-1.00464 5.55311   2
  -5  -2  -1 5.66731 5.81212   1
   5   2   1-9.80070 6.60359   1
  -5  -2  -2 71.1900 8.41440   2
   5   2   2 51.9573 7.92933   1
  -5  -2  -2 67.8992 8.37701   1
  -5  -2  -3 16.8334 7.26031   2
   5   2   3 34.9118 7.31443   1
  -5  -2  -3 14.3294 6.73307   1
   5   2   4 97.2444 9.48023   1
  -5  -2  -4 102.796 10.7003   2
  -5  -2  -4 102.464 9.61605   1
  -5  -2  -5 110.350 11.6017   2
  -5  -2  -5 91.7933 9.77355   1
   5   2   5 89.5913 9.71906   1
  -5  -2  -6-1.56435 7.58849   1
  -5  -2  -6-1.06774 8.90211   2
   5   2   6 9.88633 7.46269   1
  -5  -2  -7 86.5485 13.0563   2
  -5  -2  -7 88.0975 10.5031   1
   5   2   7 92.4890 10.7747   1
  -5  -3  12-7.34423 11.5473   1
  -5  -3  12 28.3857 11.9249   1
  -5  -3  11 37.6170 11.7902   1
  -5  -3  11 33.8188 12.1461   1
  -5  -3  10-2.59641 9.28171   1
  -5  -3  10 3.00093 10.0087   1
  -5  -3   9 3.13505 9.84885   1
  -5  -3   9 18.9754 8.27010   1
  -5  -3   8 15.5023 8.56233   1
  -5  -3   8 25.1809 8.29735   1
  -5  -3   7 7.41556 6.73134   1
  -5  -3   7 6.04221 8.54158   1
  -5  -3   6 7.87710 7.63110   1
  -5  -3   6 10.6985 7.24528   1
  -5  -3   5 2.27273 3.22311   2
  -5  -3   5-6.32950 6.98452   1
  -5  -3   5 8.37200 7.39324   1
  -5  -3   4 42.9265 8.59472   1
  -5  -3   4 40.1794 4.83270   2
  -5  -3   3 20.9149 6.61511   1
  -5  -3   3 22.7747 4.72481   2
   5   3  -3 22.0407 7.18132   1
  -5  -3   2 4.72554 6.03811   1
  -5  -3   2 8.42402 4.75448   2
   5   3  -2 14.0668 6.38007   1
  -5  -3   1 3.52459 4.96787   2
   5   3  -1-4.26060 6.58386   1
  -5  -3   1 0.59733 6.34410   1
  -5  -3   0-4.92349 5.44515   2
   5   3   0 7.14496 7.03343   1
  -5  -3   0-0.59606 5.93694   1
   5   3   1 21.8489 7.84530   1
  -5  -3  -1 30.4196 7.22965   2
  -5  -3  -1 33.6469 7.55925   1
  -5  -3  -2 55.6882 8.82078   2
  -5  -3  -2 60.4628 8.83711   1
   5   3   2 54.3979 8.68519   1
  -5  -3  -3 30.0321 8.28030   2
  -5  -3  -3 18.6592 7.97737   1
   5   3   3 19.4790 7.86914   1
  -5  -3  -4 21.0558 8.47298   1
  -5  -3  -4 24.0292 9.65634   2
   5   3   4 23.6019 8.52603   1
  -5  -3  -5 82.9351 11.4865   2
  -5  -3  -5 72.1234 10.3107   1
   5   3   5 73.5269 10.4866   1
  -5  -3  -6 8.58053 11.9431   2
   5   3   6 8.26642 9.05051   1
  -5  -4  12-0.09320 13.0660   1
  -5  -4  12 51.8985 13.3418   1
  -5  -4  11 22.4534 11.3434   1
  -5  -4  11 22.9098 11.9339   1
  -5  -4  10 90.9189 13.1182   1
  -5  -4  10 115.564 13.4026   1
  -5  -4   9-1.58204 10.7429   1
  -5  -4   9 5.80419 9.42454   1
  -5  -4   8 19.2398 7.77380   1
  -5  -4   8 2.65365 8.04066   1
  -5  -4   7-0.07198 7.93896   1
  -5  -4   7 4.67305 2.94465   2
  -5  -4   7-0.31322 9.41169   1
  -5  -4   6-7.55372 7.68520   1
  -5  -4   6 4.49465 3.80648   2
  -5  -4   6-12.9955 8.73807   1
   5   4  -5 5.72708 7.11196   1
  -5  -4   5-3.63549 7.64899   1
  -5  -4   5 7.34154 4.47305   2
  -5  -4   4 0.60545 7.38063   1
  -5  -4   4 10.0842 4.82263   2
   5   4  -4 7.26348 6.81926   1
  -5  -4   3-0.33075 6.86998   1
   5   4  -3 0.06736 6.36627   1
  -5  -4   3 2.36560 4.98127   2
  -5  -4   2 26.0289 6.24014   2
   5   4  -2 29.8864 8.67401   1
  -5  -4   2 22.3470 7.30332   1
   5   4  -1 36.4541 8.82991   1
  -5  -4   1 52.8436 7.79307   2
  -5  -4   1 38.6305 8.25922   1
   5   4   0 10.5540 8.15126   1
  -5  -4   0 18.7338 6.83716   2
  -5  -4   0 36.0896 8.71730   1
  -5  -4  -1 37.6338 8.32970   2
  -5  -4  -1 47.2258 9.11691   1
   5   4   1 37.9007 8.94074   1
  -5  -4  -2 24.2938 8.26083   1
  -5  -4  -2 31.0615 8.42784   2
   5   4   2 22.1151 8.95473   1
  -5  -4  -3 20.2086 8.75547   1
  -5  -4  -3 9.47394 9.58731   2
   5   4   3 12.1624 9.01900   1
  -5  -4  -4 134.509 13.8790   2
  -5  -4  -4 142.716 12.9230   1
   5   4   4 122.684 13.1839   1
  -5  -4  -5 5.09096 11.9085   2
   5   4   5 6.33967 10.2279   1
  -5  -4  -5 5.91051 10.4208   1
  -5  -5  11 18.9398 13.5770   1
  -5  -5  11-25.7488 13.3693   1
  -5  -5  10 76.2042 12.9966   1
  -5  -5  10 85.2017 12.8448   1
  -5  -5   9-7.30671 10.0120   1
  -5  -5   9 17.9294 11.4696   1
  -5  -5   8 0.62543 9.18408   1
  -5  -5   8-2.67315 3.67490   2
  -5  -5   8 10.6140 10.0798   1
  -5  -5   7 13.7474 9.77493   1
  -5  -5   7 21.7508 4.93481   2
  -5  -5   7 22.4312 10.3314   1
   5   5  -6 20.4807 9.06247   1
  -5  -5   6 10.5336 7.69861   1
  -5  -5   6 17.2245 5.37708   2
  -5  -5   5 12.1590 8.45210   1
  -5  -5   5 6.63286 5.12989   2
   5   5  -5 18.7738 7.88406   1
  -5  -5   4-5.98195 6.04707   2
  -5  -5   4 5.85192 7.41542   1
   5   5  -4-4.64594 7.94957   1
  -5  -5   3 34.7582 7.12474   2
   5   5  -3 38.6338 9.63782   1
  -5  -5   3 30.0212 9.30378   1
   5   5  -2 17.4935 8.88997   1
  -5  -5   2 20.4640 6.91511   2
  -5  -5   2 15.5190 7.64763   1
  -5  -5   1 103.355 10.0305   2
  -5  -5   1 112.760 11.6233   1
   5   5  -1 110.657 11.9914   1
  -5  -5   0 27.2175 8.63431   2
  -5  -5   0 3.72975 7.72972   1
   5   5   0 15.3844 8.39132   1
  -5  -5  -1 174.606 13.3961   2
  -5  -5  -1 179.416 14.3099   1
  -5  -5  -2 42.1143 10.6078   1
  -5  -5  -2 20.8237 9.87517   2
   5   5   2 14.7020 10.3682   1
  -5  -5  -3-14.1424 11.1193   1
  -5  -5  -3-9.02168 10.6453   2
   5   5   3 11.1906 9.81536   1
  -5  -5  -4 11.3745 10.2155   1
   5   5   4 9.86395 10.3801   1
  -5  -6  11 49.1427 10.8132   1
  -5  -6  11 84.9309 10.9874   1
  -5  -6  10 16.3779 12.2385   1
  -5  -6  10 15.8226 12.6294   1
  -5  -6   9 17.3785 11.3289   1
  -5  -6   9-0.05724 5.24291   2
  -5  -6   9 14.9281 12.8077   1
  -5  -6   8 13.8680 10.7990   1
  -5  -6   8 4.89656 5.69972   2
  -5  -6   8 15.5464 11.2328   1
  -5  -6   7-6.81957 5.71159   2
   5   6  -7-2.32560 8.65900   1
  -5  -6   7-11.2982 10.4622   1
  -5  -6   6-3.39794 6.14538   2
  -5  -6   6 8.31005 8.74542   1
  -5  -6   5-1.06310 6.40234   2
  -5  -6   5 21.6585 10.2239   1
   5   6  -5 5.89243 9.62597   1
  -5  -6   4 21.3721 7.55753   2
   5   6  -4 25.7876 9.68654   1
  -5  -6   4 23.7845 10.3820   1
   5   6  -3 3.53285 10.3052   1
  -5  -6   3 1.24476 7.42348   2
  -5  -6   3 12.5177 8.99843   1
  -5  -6   2 142.251 11.9185   2
  -5  -6   2 115.787 13.8822   1
   5   6  -2 139.815 13.5988   1
  -5  -6   1 18.7726 10.0201   1
  -5  -6   1-1.18520 8.74987   2
   5   6  -1 2.84206 10.5818   1
  -5  -6   0 106.211 12.1353   2
  -5  -6   0 107.901 12.6066   1
  -5  -6  -1 3.06358 10.2303   1
  -5  -6  -1-5.29803 10.6322   2
   5   6   1 12.4020 10.0882   1
  -5  -6  -2-0.42387 10.8176   1
   5   6   2 3.56319 11.9436   1
  -5  -6  -2 28.2044 11.9156   2
  -5  -7   9 17.1270 6.96185   2
  -5  -7   9 38.5566 14.5910   1
  -5  -7   9 44.7320 13.1287   1
  -5  -7   8 89.6265 9.39936   2
   5   7  -8 89.4400 15.2130   1
  -5  -7   8 66.5733 13.8037   1
  -5  -7   7-1.66595 7.96378   2
   5   7  -7 25.1937 11.5740   1
  -5  -7   7-7.62650 13.0930   1
  -5  -7   6 41.3124 8.99196   2
  -5  -7   6 50.8901 11.7169   1
   5   7  -6 37.0109 11.2104   1
   5   7  -5 89.2260 13.7792   1
  -5  -7   5 62.9201 9.81878   2
  -5  -7   5 55.1098 13.3135   1
   5   7  -4 13.0234 12.3885   1
  -5  -7   4 6.84857 8.84846   2
  -5  -7   4-11.0358 12.6751   1
  -5  -7   3 35.0795 10.1539   2
  -5  -7   3 25.7295 12.4076   1
   5   7  -3 45.3151 11.4320   1
  -5  -7   2 36.8377 12.5961   1
  -5  -7   2 29.6641 10.7427   2
   5   7  -2 8.36628 10.8132   1
  -5  -7   1 20.6439 11.9381   1
   5   7  -1 0.71852 11.6350   1
  -5  -7   0 8.84675 6.78183   2
  -6   6   1 14.6229 7.14968   1
  -6   6   1 20.8294 5.18118   2
  -6   6   1 10.0931 7.14185   1
  -6   6   0 19.1500 7.61645   2
  -6   6   0 14.6906 9.39017   1
  -6   6   0-4.28439 8.54347   1
  -6   6  -1 24.9065 9.02039   2
  -6   6  -1 19.2455 9.06598   1
  -6   6  -1 12.2664 8.91466   1
  -6   6  -2-8.24410 7.05665   1
  -6   6  -2 13.0613 7.74321   2
  -6   6  -2 0.25748 7.10011   1
  -6   5   4-4.13280 9.75732   1
  -6   5   4-1.29081 10.0566   1
  -6   5   3 8.82339 11.2514   1
  -6   5   3 4.91915 3.88287   2
  -6   5   3 21.0166 11.5751   1
  -6   5   2-6.19003 10.3095   1
  -6   5   2 2.03691 5.61871   2
  -6   5   2 13.1154 9.68239   1
  -6   5   1 25.0147 6.60547   2
  -6   5   1 40.4737 9.82650   1
  -6   5   1 33.0134 9.74955   1
  -6   5   0 7.91610 7.10021   2
  -6   5   0 8.28017 8.78175   1
  -6   5   0 2.69823 8.76112   1
  -6   5  -1 1.36739 7.89004   1
  -6   5  -1 16.3343 8.16787   1
  -6   5  -1 7.91644 7.42070   2
  -6   5  -2 2.44606 7.58311   1
  -6   5  -2 5.58285 8.17418   2
  -6   5  -2 8.39891 7.08504   1
  -6   5  -3 1.65994 7.01550   1
  -6   5  -3-1.85980 8.58866   2
  -6   5  -3 6.41112 6.97008   1
  -6   5  -4 32.3498 7.02176   1
  -6   5  -4 27.9900 10.2629   2
  -6   5  -5 11.6686 6.00363   2
  -6   5  -5 5.74575 2.62957   1
  -6   5  -5 8.91579 2.67244   1
  -6   4   6 23.9838 7.73189   1
  -6   4   6 26.4863 8.24263   1
  -6   4   5 34.0501 12.6072   1
  -6   4   5 0.32799 11.4887   1
  -6   4   4 24.5109 10.7498   1
  -6   4   4 29.1614 10.9880   1
  -6   4   3-1.64972 2.74213   2
  -6   4   3 11.5883 9.76126   1
  -6   4   3 2.01721 10.0737   1
  -6   4   2 47.5929 5.61392   2
  -6   4   2 49.4758 10.5082   1
  -6   4   1-7.28793 8.06155   1
  -6   4   1 5.06800 8.40776   1
  -6   4   1 1.95328 5.48420   2
  -6   4   0 24.0465 8.52895   1
  -6   4   0 27.7165 8.69293   1
  -6   4   0 31.9514 6.71160   2
  -6   4  -1 2.16899 7.45146   1
  -6   4  -1 4.40318 6.72000   2
  -6   4  -1 22.2821 7.95396   1
  -6   4  -2 1.33248 6.98893   1
  -6   4  -2-4.53663 7.64395   2
  -6   4  -2 1.20609 7.11498   1
  -6   4  -3 7.41077 6.82148   1
  -6   4  -3 0.21332 6.47152   1
  -6   4  -3 12.2704 8.27230   2
  -6   4  -4 3.15702 6.09701   1
  -6   4  -4 11.7467 6.21461   1
  -6   4  -4-9.17873 9.39620   2
  -6   4  -5 88.3433 12.4241   2
  -6   4  -5 88.0232 7.23303   1
  -6   4  -5 86.8262 7.29982   1
  -6   3   7 16.0454 12.8430   1
  -6   3   7-29.7427 13.3783   1
  -6   3   6-5.51239 10.9772   1
  -6   3   6 13.6243 11.3962   1
  -6   3   5 22.5224 10.4112   1
  -6   3   5 24.2943 11.2062   1
  -6   3   4 53.2106 11.5353   1
  -6   3   4 52.3940 11.9423   1
  -6   3   3-1.50717 1.93626   2
  -6   3   3 6.88777 9.05607   1
  -6   3   3-0.71003 1.85347   2
  -6   3   3 4.09832 8.53971   1
  -6   3   2-4.89204 7.98526   1
  -6   3   2 6.39395 8.42417   1
  -6   3   2 6.78246 4.17761   2
  -6   3   1 26.3556 5.66463   2
  -6   3   1 26.3012 8.58780   1
  -6   3   1 11.9304 8.37395   1
  -6   3   0 30.6796 8.68120   1
  -6   3   0 33.8863 8.46039   1
  -6   3   0 27.4593 6.35549   2
  -6   3  -1 11.3386 7.83707   1
  -6   3  -1 12.6301 6.89331   2
  -6   3  -1 7.45770 7.21623   1
  -6   3  -2 3.30343 7.23818   1
  -6   3  -2 6.16658 6.70910   1
  -6   3  -2-0.40632 6.82033   2
  -6   3  -3 15.7486 6.76211   1
  -6   3  -3 5.09006 6.59777   1
  -6   3  -3 9.51653 8.02363   2
  -6   3  -4 16.5818 7.00411   1
  -6   3  -4 13.5950 8.62875   2
  -6   3  -4 31.3294 6.59684   1
  -6   3  -5 20.0501 6.24630   1
  -6   3  -5 10.7554 6.14915   1
  -6   3  -5 29.0162 10.5294   2
  -6   3  -6 18.7475 4.53095   1
  -6   3  -6 20.2640 4.62680   1
  -6   2   8 51.1580 14.8075   1
  -6   2   8 72.2036 14.9197   1
  -6   2   7 41.8767 13.1396   1
  -6   2   7 11.2146 12.5004   1
  -6   2   6 3.72659 11.7442   1
  -6   2   6 45.5504 10.3819   1
  -6   2   5 21.1489 11.0965   1
  -6   2   5 13.0279 9.32148   1
  -6   2   4 39.6467 10.4784   1
  -6   2   4 15.1075 9.39745   1
  -6   2   3 26.7724 8.67235   1
  -6   2   3 13.2144 8.15577   1
  -6   2   3 10.4377 1.96398   2
  -6   2   2 6.33149 4.03798   2
  -6   2   2-4.30497 7.75959   1
  -6   2   2 4.19033 3.89010   2
  -6   2   1 6.75454 7.86796   1
  -6   2   1 3.58664 4.81475   2
  -6   2   1-2.66068 7.91176   1
  -6   2   0 37.8266 8.64226   1
  -6   2   0 46.4291 6.73231   2
  -6   2   0 50.4946 8.54907   1
  -6   2  -1 0.39517 7.28694   1
  -6   2  -1 16.4481 7.53285   1
  -6   2  -1 0.89025 6.11931   2
  -6   2  -2 73.8288 8.94631   1
  -6   2  -2 93.5830 9.44013   2
  -6   2  -2 93.8530 9.68491   1
  -6   2  -3 6.21136 6.79091   1
  -6   2  -3 0.56078 7.47277   2
  -6   2  -3-0.56065 6.39246   1
  -6   2  -4-0.49783 7.16560   1
  -6   2  -4 1.68143 8.29184   2
  -6   2  -4-0.34409 6.45758   1
  -6   2  -5 41.8828 7.51790   1
  -6   2  -5 42.9610 7.35797   1
  -6   2  -5 38.8368 10.0561   2
  -6   2  -6 29.6332 6.29046   1
  -6   2  -6 34.4823 6.58096   1
  -6   1   8 24.6756 12.3184   1
  -6   1   8-9.33514 12.0845   1
  -6   1   7 17.2291 11.9942   1
  -6   1   7 0.91690 9.69301   1
  -6   1   6 7.49535 10.5114   1
  -6   1   6 11.4545 10.4563   1
  -6   1   5 1.78293 8.72789   1
  -6   1   5 20.1028 9.74628   1
  -6   1   4 36.2672 9.61915   1
  -6   1   4 46.5533 10.4187   1
  -6   1   3 92.4093 4.09454   2
  -6   1   3 89.9820 3.97464   2
  -6   1   3 94.3784 11.1770   1
  -6   1   3 103.455 11.3888   1
  -6   1   2 203.989 7.94304   2
  -6   1   2 182.336 7.64007   2
  -6   1   2 188.826 12.6631   1
  -6   1   2 192.856 13.5819   1
  -6   1   1 206.290 9.28656   2
  -6   1   1 189.822 8.94786   2
  -6   1   1 190.290 12.4069   1
  -6   1   1 208.082 13.6408   1
  -6   1   0 6.46626 7.84505   1
  -6   1   0 12.3713 7.40970   1
  -6   1   0-1.98656 5.73666   2
  -6   1  -1 7.30489 7.68655   1
  -6   1  -1-1.77988 7.04450   1
  -6   1  -1-8.94678 6.75482   2
  -6   1  -2 31.9432 8.05778   1
  -6   1  -2 24.1339 8.42272   1
  -6   1  -2 31.8915 7.74328   2
  -6   1  -3 14.3825 7.71351   1
  -6   1  -3 20.8840 8.38453   2
  -6   1  -3 20.0017 7.51682   1
  -6   1  -4 18.2859 7.87669   1
  -6   1  -4 15.5495 7.05886   1
  -6   1  -4-5.29968 8.89358   2
  -6   1  -5-4.30568 7.89257   1
  -6   1  -5 1.91301 7.16428   1
  -6   1  -5-10.0750 10.0829   2
  -6   1  -6 27.5615 5.72245   1
  -6   1  -6 15.9183 4.87991   1
  -6   1  -6 24.4453 7.78990   2
  -6   0   9 33.4887 13.9641   1
  -6   0   9 11.9636 11.4740   1
  -6   0   8-0.35758 12.3312   1
  -6   0   8 10.1480 11.5448   1
  -6   0   7 1.61975 10.9166   1
  -6   0   7 1.81300 10.1547   1
  -6   0   6 17.2223 10.0991   1
  -6   0   6 23.0666 11.0090   1
  -6   0   5 23.7780 9.04284   1
  -6   0   5 38.7224 10.0285   1
  -6   0   4 98.3290 11.5057   1
  -6   0   4 102.983 12.5578   1
  -6   0   3 7.91342 9.13239   1
  -6   0   3-1.74804 3.20003   2
  -6   0   3 6.21308 3.05662   2
  -6   0   3-0.40853 7.31207   1
  -6   0   2 87.3078 6.42829   2
  -6   0   2 71.0981 10.2976   1
  -6   0   2 72.7980 5.88626   2
  -6   0   2 88.8887 11.1860   1
  -6   0   1 140.357 8.40701   2
  -6   0   1 136.060 11.6038   1
  -6   0   1 121.663 8.00872   2
  -6   0   1 131.923 12.2544   1
  -6   0   0 23.7879 8.72328   1
  -6   0   0 5.76110 7.64338   1
  -6   0   0 17.9684 6.38825   2
  -6   0   0 18.5714 6.29558   2
  -6   0  -1 9.00402 8.10867   1
  -6   0  -1 23.8820 8.31759   1
  -6   0  -1 28.3397 7.43911   2
  -6   0  -1 18.4474 7.05560   2
  -6   0  -2-8.66618 8.11071   1
  -6   0  -2 0.05548 7.88887   2
  -6   0  -2-3.72488 7.12323   2
  -6   0  -2-11.1136 7.36365   1
  -6   0  -3 10.1991 8.01813   1
  -6   0  -3 25.4626 7.76806   1
  -6   0  -3 37.5292 8.88093   2
  -6   0  -4 33.7779 8.17814   1
  -6   0  -4 47.3739 9.89643   2
  -6   0  -4 20.5737 8.23192   1
  -6   0  -5-7.27451 8.03444   1
  -6   0  -5 0.29036 10.2469   2
  -6   0  -5 5.38822 8.50798   1
  -6  -1   9 8.13808 12.4682   1
  -6  -1   9-8.43046 13.4322   1
  -6  -1   8-16.0174 11.6328   1
  -6  -1   8-5.39828 11.4050   1
  -6  -1   7 12.3273 10.5228   1
  -6  -1   7 25.8558 9.61378   1
  -6  -1   6 16.0775 11.3209   1
  -6  -1   6 5.79858 8.71440   1
  -6  -1   5 36.7640 10.0523   1
  -6  -1   5 18.4431 10.3928   1
  -6  -1   4 25.0194 10.1595   1
  -6  -1   4 22.8308 2.55184   2
  -6  -1   4 19.3518 2.32443   2
  -6  -1   4 21.7099 9.54412   1
  -6  -1   3 33.7742 10.5607   1
  -6  -1   3 26.7853 4.60746   2
  -6  -1   3 33.0856 9.79087   1
  -6  -1   3 24.3195 4.46774   2
  -6  -1   2 4.08335 8.74662   1
  -6  -1   2 2.76926 4.92834   2
  -6  -1   2 7.67129 8.44950   1
  -6  -1   2 6.80266 4.75007   2
  -6  -1   1 1.84212 8.43538   1
  -6  -1   1 4.54882 5.85947   2
  -6  -1   1 7.59822 5.82678   2
  -6  -1   1-0.35452 8.50126   1
  -6  -1   0 87.1394 8.55029   2
  -6  -1   0 73.3349 8.40509   2
  -6  -1   0 96.9079 11.8208   1
  -6  -1   0 93.1066 10.7651   1
  -6  -1  -1 16.8856 7.56370   2
  -6  -1  -1 22.4979 7.53550   2
  -6  -1  -1 10.0956 7.99686   1
  -6  -1  -1 10.6989 8.99387   1
  -6  -1  -2 4.18030 7.69337   2
  -6  -1  -2-4.28689 8.19545   1
  -6  -1  -2 1.96442 7.59177   2
  -6  -1  -2 0.46492 8.57908   1
  -6  -1  -3 40.1179 9.65643   2
  -6  -1  -3 29.7429 8.94973   1
  -6  -1  -3 53.1851 10.0040   2
  -6  -1  -3 51.2504 10.1066   1
  -6  -1  -4 18.8619 10.4806   2
  -6  -1  -4 14.8298 8.82486   1
  -6  -1  -4 24.9168 10.8821   2
  -6  -1  -4 35.8594 10.2816   1
  -6  -1  -5 13.1755 6.65534   2
  -6  -1  -5 16.5589 6.68715   2
  -6  -2   9 4.20282 13.5147   1
  -6  -2   9 5.86856 11.8670   1
  -6  -2   8 8.17549 11.4576   1
  -6  -2   8 24.9177 12.5471   1
  -6  -2   7 18.3308 9.95200   1
  -6  -2   7-13.9623 11.2756   1
  -6  -2   6 11.7982 11.3532   1
  -6  -2   6 34.5335 11.4772   1
  -6  -2   5 8.02291 10.5356   1
  -6  -2   5 14.4255 8.99669   1
  -6  -2   4 113.538 11.8382   1
  -6  -2   4 103.147 5.64108   2
  -6  -2   4 102.579 13.0780   1
  -6  -2   3 0.29063 8.55939   1
  -6  -2   3 2.40661 4.96211   2
  -6  -2   3 0.93453 4.72911   2
  -6  -2   3 11.1499 9.52138   1
  -6  -2   2 11.0283 8.46845   1
  -6  -2   2-5.41951 5.58651   2
  -6  -2   2 6.12162 5.41730   2
  -6  -2   2-11.6932 9.90199   1
  -6  -2   1 10.5514 8.40940   1
  -6  -2   1-1.95106 6.04482   2
  -6  -2   1 12.9347 6.34285   2
  -6  -2   1 8.09617 10.1182   1
  -6  -2   0 13.0486 7.23450   2
  -6  -2   0 0.27274 9.03464   1
  -6  -2   0-11.4649 9.58795   1
  -6  -2  -1 15.8773 8.10479   2
  -6  -2  -1 16.2737 8.66245   1
  -6  -2  -2 45.6369 9.94213   2
   6   2   2 69.7274 11.0251   1
  -6  -2  -2 43.0022 10.1676   1
  -6  -2  -3 32.0673 10.5479   2
  -6  -2  -3 29.4374 10.0314   1
   6   2   3 26.1025 10.5501   1
  -6  -2  -4 9.97130 6.44211   1
   6   2   4 14.8422 6.73043   1
  -6  -2  -4 10.3161 8.07523   2
  -6  -3   9-4.68746 11.8139   1
  -6  -3   9 16.0511 10.9510   1
  -6  -3   8-14.9127 10.8392   1
  -6  -3   8 2.55923 12.9163   1
  -6  -3   7-5.20393 12.7482   1
  -6  -3   7 8.85244 11.6857   1
  -6  -3   6 3.73740 12.1553   1
  -6  -3   6 11.9280 9.03769   1
  -6  -3   5 8.88458 10.3904   1
  -6  -3   5 1.15100 3.32169   2
  -6  -3   5 7.10140 9.61518   1
  -6  -3   4 11.7684 10.5706   1
  -6  -3   4 2.41437 5.10550   2
  -6  -3   3 27.2341 10.5207   1
  -6  -3   3 30.7022 6.75845   2
  -6  -3   3 55.8150 11.2785   1
  -6  -3   2 60.8887 8.33206   2
  -6  -3   2 45.3713 11.9797   1
  -6  -3   2 58.7625 11.9047   1
   6   3  -1 10.9788 9.46195   1
  -6  -3   1 4.54877 7.18826   2
  -6  -3   1 32.5656 10.7537   1
  -6  -3   0 85.9276 10.1952   2
   6   3   0 87.2699 11.6629   1
  -6  -3   0 84.1453 12.3533   1
  -6  -3  -1 14.2233 9.06583   2
  -6  -3  -1-9.88766 10.0394   1
   6   3   1 0.89348 10.0919   1
  -6  -3  -2 117.265 13.3188   2
   6   3   2 127.156 13.8108   1
  -6  -3  -2 103.687 12.8593   1
  -6  -4   8 4.40458 11.7339   1
  -6  -4   8-8.71759 10.9157   1
  -6  -4   7 56.1075 12.6602   1
  -6  -4   7 65.8754 13.2527   1
  -6  -4   6 16.0864 12.2392   1
  -6  -4   6 3.75505 3.93577   2
  -6  -4   6 6.35483 12.6341   1
  -6  -4   5-9.89271 10.5007   1
  -6  -4   5-3.95763 5.84859   2
  -6  -4   4 14.2374 9.54372   1
  -6  -4   4 11.8758 6.33972   2
  -6  -4   4-7.04627 11.7790   1
  -6  -4   3-2.71792 7.05158   2
  -6  -4   3 4.07247 10.7529   1
  -6  -4   2 15.5971 8.00940   2
   6   4  -2-10.3728 11.4733   1
  -6  -4   2 11.5754 10.4132   1
  -6  -4   1 14.9785 8.69690   2
  -6  -4   1-0.96870 11.1556   1
   6   4  -1 14.8752 11.4885   1
  -6  -4   0 147.587 13.0306   2
  -6  -4   0 108.134 14.4411   1
  -6  -4  -1 35.7121 8.36526   2
  -6  -4  -1 10.6480 8.02642   1
   6   4   1 16.8872 8.54014   1
  -6  -5   6 22.3024 10.4619   1
  -6  -5   6 27.4776 6.31160   2
  -6  -5   5-3.60216 6.85814   2
  -6  -5   5 20.1263 13.5404   1
   6   5  -4 8.92893 11.9586   1
  -6  -5   4 0.04829 7.49336   2
  -6  -5   4 30.0819 13.7426   1
   6   5  -3-10.0118 13.0406   1
  -6  -5   3-1.95184 8.22555   2
  -6  -5   3-4.31062 12.4178   1
  -6  -5   2 17.0171 8.21765   2
  -6  -5   2-15.9936 9.38469   1
   0   0   0    0.00    0.00   0
TITL 150 in P-1
REM P-1 (#2 in standard setting)
CELL 0.71073   4.900117   8.576795  11.952285 108.5031  96.7806  92.3156
ZERR    2.00   0.000462   0.000649   0.000931   0.0071   0.0073   0.0069
LATT  1
SFAC C H N O
UNIT 14.00 26.00 2.00 16.00
TREF
HKLF 4
END
;
_shelx_hkl_checksum              61255
_shelx_res_file
;
TITL 150_III in P-1
    150.res
    created by SHELXL-2018/3 at 12:24:47 on 16-Jan-2019
REM P-1 (#2 in standard setting)
CELL 0.71073 4.900117 8.576795 11.952285 108.5031 96.7806 92.3156
ZERR 2 0.000462 0.000649 0.000931 0.0071 0.0073 0.0069
LATT 1
SFAC C H N O
UNIT 14 26 2 16
EQIV $1 -X,1-Y,-Z
EQIV $2 1+X,+Y,+Z
EQIV $3 2-X,2-Y,1-Z
EQIV $4 +X,-1+Y,+Z
EQIV $5 1-X,1-Y,-Z
EQIV $6 -1+X,-1+Y,+Z
EQIV $7 1-X,2-Y,-Z
EQIV $8 1-X,2-Y,1-Z
L.S. 20
PLAN  10
SIZE 0.034 0.071 0.4339
TEMP -123.15
HTAB O4 O3_$2
HTAB O1 O7_$3
HTAB N1 O5_$1
HTAB N1 O2_$4
HTAB N1 O4_$5
HTAB N1 O5_$5
HTAB N1 O2_$6
HTAB O3 O4_$7
HTAB O6 O6_$1
HTAB O8 O8_$8
BOND $H
BOND
CONF
fmap 2
acta
SHEL 40 0.8
REM <olex2.extras>
REM <HklSrc "%.\\150.hkl">
REM </olex2.extras>
WGHT    0.029700    0.249400
FVAR       0.80840
O3    4    0.258223    0.988963    0.134331    11.00000    0.00982    0.01380 =
         0.01565    0.00740    0.00040    0.00044
O6    4    0.188743    0.596166    0.066492    11.00000    0.01383    0.01617 =
         0.01395    0.00393   -0.00101   -0.00663
AFIX 147
H6    2    0.062080    0.534279    0.016842    10.50000   -1.20000
AFIX   0
O4    4    0.739739    0.846379    0.026223    11.00000    0.00797    0.01678 =
         0.01349    0.00542   -0.00028   -0.00482
AFIX 147
H4    2    0.897168    0.882317    0.064226    11.00000   -1.20000
AFIX   0
O1    4    0.879661    0.973963    0.319886    11.00000    0.01242    0.01261 =
         0.01651    0.00234   -0.00567   -0.00202
AFIX 147
H1    2    0.997757    1.047969    0.364638    11.00000   -1.20000
AFIX   0
O5    4    0.326354    0.631302   -0.096590    11.00000    0.01385    0.02166 =
         0.01103    0.00305   -0.00089   -0.00218
O8    4    0.431142    0.854917    0.442463    11.00000    0.01962    0.01220 =
         0.01635    0.00235   -0.00099    0.00051
AFIX 147
H8    2    0.489784    0.949901    0.488067    10.50000   -1.20000
AFIX   0
O2    4    0.693473    1.185570    0.275293    11.00000    0.01784    0.01174 =
         0.02928    0.00575   -0.00525   -0.00236
C3    1    0.584049    0.777362    0.094978    11.00000    0.00955    0.01208 =
         0.01062    0.00560   -0.00067   -0.00112
AFIX  13
H3A   2    0.705988    0.715166    0.135674    11.00000   -1.20000
AFIX   0
C2    1    0.462818    0.913110    0.188390    11.00000    0.00924    0.01197 =
         0.01185    0.00494   -0.00107   -0.00077
AFIX  13
H2    2    0.373699    0.861193    0.240426    11.00000   -1.20000
AFIX   0
N1    3    0.202878    0.362503    0.233166    11.00000    0.01166    0.01245 =
         0.01523    0.00154   -0.00146   -0.00145
AFIX 137
H1A   2    0.320846    0.360210    0.179401    11.00000   -1.50000
H1B   2    0.026488    0.341094    0.195238    11.00000   -1.50000
H1C   2    0.242550    0.284740    0.268312    11.00000   -1.50000
AFIX   0
O7    4    0.770113    0.777346    0.551116    11.00000    0.02236    0.01613 =
         0.02279    0.00465   -0.01072   -0.00557
C5    1    0.585502    0.749343    0.465372    11.00000    0.01158    0.01536 =
         0.01288    0.00573    0.00134   -0.00234
C1    1    0.690247    1.041170    0.266651    11.00000    0.00986    0.01378 =
         0.01080    0.00227    0.00352    0.00073
C4    1    0.350067    0.659642    0.011762    11.00000    0.00827    0.00867 =
         0.01486    0.00289    0.00215    0.00274
C7    1    0.233542    0.528456    0.325651    11.00000    0.01127    0.01093 =
         0.01254   -0.00036   -0.00019   -0.00009
AFIX  23
H7A   2    0.127612    0.526323    0.390813    11.00000   -1.20000
H7B   2    0.158734    0.610460    0.290325    11.00000   -1.20000
AFIX   0
C6    1    0.534969    0.577987    0.375195    11.00000    0.01145    0.01312 =
         0.01674    0.00403    0.00172    0.00163
AFIX  23
H6A   2    0.605343    0.497676    0.413172    11.00000   -1.20000
H6B   2    0.640589    0.572520    0.308553    11.00000   -1.20000
AFIX   0
H3    2    0.322025    1.033690    0.092786    11.00000    0.03412
HKLF 4
REM  150_III in P-1
REM wR2 = 0.0817, GooF = S = 1.007, Restrained GooF = 1.007 for all data
REM R1 = 0.0397 for 1434 Fo > 4sig(Fo) and 0.0644 for all 1925 data
REM 154 parameters refined using 0 restraints
END
WGHT      0.0297      0.2494
REM Highest difference peak  0.282,  deepest hole -0.256,  1-sigma level  0.055
Q1    1   0.5240  0.8358  0.1462  11.00000  0.05    0.28
Q2    1   0.5806  0.9655  0.2213  11.00000  0.05    0.25
Q3    1   0.4771  0.7252  0.0568  11.00000  0.05    0.23
Q4    1   0.5402  0.6544  0.4282  11.00000  0.05    0.22
Q5    1   0.8388  0.6990  0.5609  11.00000  0.05    0.21
Q6    1   0.2362  0.4572  0.2813  11.00000  0.05    0.21
Q7    1   0.0957  0.9398  0.0956  11.00000  0.05    0.21
Q8    1   0.0928  0.7817  0.1550  11.00000  0.05    0.20
Q9    1   0.3818  0.5561  0.3570  11.00000  0.05    0.20
Q10   1   0.2639  0.8990  0.3816  11.00000  0.05    0.19
;
_shelx_res_checksum              78766
loop_
_space_group_symop_operation_xyz
'x, y, z'
'-x, -y, -z'
loop_
_atom_site_type_symbol
_atom_site_label
_atom_site_fract_x
_atom_site_fract_y
_atom_site_fract_z
_atom_site_U_iso_or_equiv
_atom_site_adp_type
_atom_site_calc_flag
_atom_site_occupancy
O O3 0.2582(3) 0.98896(16) 0.13433(12) 0.0126(3) Uani d 1
O O6 0.1887(3) 0.59617(16) 0.06649(11) 0.0154(3) Uani d 1
H H6 0.062080 0.534279 0.016842 0.018 Uiso calc 0.5
O O4 0.7397(2) 0.84638(16) 0.02622(11) 0.0129(3) Uani d 1
H H4 0.897168 0.882317 0.064226 0.016 Uiso calc 1
O O1 0.8797(3) 0.97396(15) 0.31989(12) 0.0152(3) Uani d 1
H H1 0.997757 1.047969 0.364638 0.018 Uiso calc 1
O O5 0.3264(3) 0.63130(16) -0.09659(11) 0.0164(3) Uani d 1
O O8 0.4311(3) 0.85492(16) 0.44246(12) 0.0169(3) Uani d 1
H H8 0.489784 0.949901 0.488067 0.020 Uiso calc 0.5
O O2 0.6935(3) 1.18557(16) 0.27529(13) 0.0207(3) Uani d 1
C C3 0.5840(4) 0.7774(2) 0.09498(15) 0.0105(4) Uani d 1
H H3A 0.705988 0.715166 0.135674 0.013 Uiso calc 1
C C2 0.4628(4) 0.9131(2) 0.18839(16) 0.0110(4) Uani d 1
H H2 0.373699 0.861193 0.240426 0.013 Uiso calc 1
N N1 0.2029(3) 0.36250(18) 0.23317(14) 0.0142(3) Uani d 1
H H1A 0.320846 0.360210 0.179401 0.021 Uiso calc 1
H H1B 0.026488 0.341094 0.195238 0.021 Uiso calc 1
H H1C 0.242550 0.284740 0.268312 0.021 Uiso calc 1
O O7 0.7701(3) 0.77735(16) 0.55112(13) 0.0222(3) Uani d 1
C C5 0.5855(4) 0.7493(2) 0.46537(16) 0.0131(4) Uani d 1
C C1 0.6902(4) 1.0412(2) 0.26665(16) 0.0117(4) Uani d 1
C C4 0.3501(4) 0.6596(2) 0.01176(17) 0.0107(4) Uani d 1
C C7 0.2335(4) 0.5285(2) 0.32565(16) 0.0128(4) Uani d 1
H H7A 0.127612 0.526323 0.390813 0.015 Uiso calc 1
H H7B 0.158734 0.610460 0.290325 0.015 Uiso calc 1
C C6 0.5350(4) 0.5780(2) 0.37519(17) 0.0140(4) Uani d 1
H H6A 0.605343 0.497676 0.413172 0.017 Uiso calc 1
H H6B 0.640589 0.572520 0.308553 0.017 Uiso calc 1
H H3 0.322(5) 1.034(3) 0.093(2) 0.034(7) Uiso d 1
loop_
_atom_site_aniso_label
_atom_site_aniso_U_11
_atom_site_aniso_U_22
_atom_site_aniso_U_33
_atom_site_aniso_U_12
_atom_site_aniso_U_13
_atom_site_aniso_U_23
O3 0.0098(6) 0.0138(7) 0.0157(7) 0.0004(5) 0.0004(6) 0.0074(6)
O6 0.0138(7) 0.0162(7) 0.0139(7) -0.0066(5) -0.0010(6) 0.0039(6)
O4 0.0080(6) 0.0168(7) 0.0135(7) -0.0048(5) -0.0003(5) 0.0054(6)
O1 0.0124(7) 0.0126(7) 0.0165(7) -0.0020(5) -0.0057(6) 0.0023(6)
O5 0.0138(7) 0.0217(7) 0.0110(7) -0.0022(6) -0.0009(6) 0.0030(6)
O8 0.0196(7) 0.0122(7) 0.0163(7) 0.0005(6) -0.0010(6) 0.0024(6)
O2 0.0178(7) 0.0117(7) 0.0293(8) -0.0024(6) -0.0053(6) 0.0058(6)
C3 0.0095(9) 0.0121(9) 0.0106(9) -0.0011(7) -0.0007(8) 0.0056(8)
C2 0.0092(9) 0.0120(9) 0.0118(9) -0.0008(7) -0.0011(8) 0.0049(8)
N1 0.0117(8) 0.0124(8) 0.0152(8) -0.0015(6) -0.0015(7) 0.0015(7)
O7 0.0224(8) 0.0161(7) 0.0228(8) -0.0056(6) -0.0107(7) 0.0046(6)
C5 0.0116(9) 0.0154(10) 0.0129(10) -0.0023(8) 0.0013(8) 0.0057(8)
C1 0.0099(9) 0.0138(10) 0.0108(9) 0.0007(7) 0.0035(8) 0.0023(8)
C4 0.0083(9) 0.0087(9) 0.0149(10) 0.0027(7) 0.0022(8) 0.0029(8)
C7 0.0113(9) 0.0109(9) 0.0125(9) -0.0001(7) -0.0002(8) -0.0004(8)
C6 0.0115(9) 0.0131(10) 0.0167(10) 0.0016(8) 0.0017(8) 0.0040(8)
loop_
_atom_type_symbol
_atom_type_description
_atom_type_scat_dispersion_real
_atom_type_scat_dispersion_imag
_atom_type_scat_source
C C 0.0033 0.0016 'International Tables Vol C Tables 4.2.6.8 and 6.1.1.4'
H H 0.0000 0.0000 'International Tables Vol C Tables 4.2.6.8 and 6.1.1.4'
N N 0.0061 0.0033 'International Tables Vol C Tables 4.2.6.8 and 6.1.1.4'
O O 0.0106 0.0060 'International Tables Vol C Tables 4.2.6.8 and 6.1.1.4'
loop_
_exptl_crystal_face_index_h
_exptl_crystal_face_index_k
_exptl_crystal_face_index_l
_exptl_crystal_face_perp_dist
0 5 1 0.0120
0 -5 -1 0.0220
3 -1 1 0.2160
-7 3 -2 0.1830
0 1 -3 0.0290
0 -1 3 0.0420
loop_
_geom_angle_atom_site_label_1
_geom_angle_atom_site_label_2
_geom_angle_atom_site_label_3
_geom_angle
C2 O3 H3 111.2(18)
C4 O6 H6 109.5
C3 O4 H4 109.5
C1 O1 H1 109.5
C5 O8 H8 109.5
O4 C3 H3A 109.4
O4 C3 C2 110.62(14)
O4 C3 C4 108.66(14)
C2 C3 H3A 109.4
C4 C3 H3A 109.4
C4 C3 C2 109.24(14)
O3 C2 C3 111.32(15)
O3 C2 H2 108.1
O3 C2 C1 110.68(14)
C3 C2 H2 108.1
C1 C2 C3 110.54(14)
C1 C2 H2 108.1
H1A N1 H1B 109.5
H1A N1 H1C 109.5
H1B N1 H1C 109.5
C7 N1 H1A 109.5
C7 N1 H1B 109.5
C7 N1 H1C 109.5
O8 C5 C6 114.69(16)
O7 C5 O8 125.84(17)
O7 C5 C6 119.44(16)
O1 C1 C2 111.75(15)
O2 C1 O1 125.43(17)
O2 C1 C2 122.81(17)
O6 C4 C3 113.43(16)
O5 C4 O6 125.40(17)
O5 C4 C3 121.17(16)
N1 C7 H7A 109.6
N1 C7 H7B 109.6
N1 C7 C6 110.07(15)
H7A C7 H7B 108.2
C6 C7 H7A 109.6
C6 C7 H7B 109.6
C5 C6 C7 113.40(15)
C5 C6 H6A 108.9
C5 C6 H6B 108.9
C7 C6 H6A 108.9
C7 C6 H6B 108.9
H6A C6 H6B 107.7
loop_
_geom_bond_atom_site_label_1
_geom_bond_atom_site_label_2
_geom_bond_distance
O3 C2 1.419(2)
O3 H3 0.80(2)
O6 H6 0.8400
O6 C4 1.289(2)
O4 H4 0.8400
O4 C3 1.424(2)
O1 H1 0.8400
O1 C1 1.317(2)
O5 C4 1.230(2)
O8 H8 0.8400
O8 C5 1.277(2)
O2 C1 1.209(2)
C3 H3A 1.0000
C3 C2 1.530(2)
C3 C4 1.524(3)
C2 H2 1.0000
C2 C1 1.525(3)
N1 H1A 0.9100
N1 H1B 0.9100
N1 H1C 0.9100
N1 C7 1.488(2)
O7 C5 1.238(2)
C5 C6 1.512(3)
C7 H7A 0.9900
C7 H7B 0.9900
C7 C6 1.515(2)
C6 H6A 0.9900
C6 H6B 0.9900
loop_
_geom_hbond_atom_site_label_D
_geom_hbond_atom_site_label_H
_geom_hbond_atom_site_label_A
_geom_hbond_site_symmetry_A
_geom_hbond_distance_DH
_geom_hbond_distance_HA
_geom_hbond_distance_DA
_geom_hbond_angle_DHA
_geom_hbond_publ_flag
O6 H6 O6 2_565 0.84 1.63 2.463(3) 172.8 yes
O4 H4 O3 1_655 0.84 1.92 2.7551(18) 170.0 yes
O1 H1 O7 2_776 0.84 1.79 2.6199(19) 172.2 yes
O8 H8 O8 2_676 0.84 1.62 2.452(3) 169.1 yes
N1 H1A O4 2_665 0.91 2.51 3.102(2) 123.3 yes
N1 H1A O5 2_665 0.91 2.10 2.987(2) 164.4 yes
N1 H1B O5 2_565 0.91 2.04 2.908(2) 159.0 yes
N1 H1B O2 1_445 0.91 2.52 3.043(2) 116.9 yes
N1 H1C O2 1_545 0.91 2.40 2.971(2) 120.8 yes
O3 H3 O4 2_675 0.80(2) 2.01(2) 2.7204(18) 149(2) yes
loop_
_geom_torsion_atom_site_label_1
_geom_torsion_atom_site_label_2
_geom_torsion_atom_site_label_3
_geom_torsion_atom_site_label_4
_geom_torsion
O3 C2 C1 O1 178.61(14)
O3 C2 C1 O2 -2.7(2)
O4 C3 C2 O3 67.79(18)
O4 C3 C2 C1 -55.65(18)
O4 C3 C4 O6 -177.01(14)
O4 C3 C4 O5 3.2(2)
O8 C5 C6 C7 -37.0(2)
C3 C2 C1 O1 -57.58(19)
C3 C2 C1 O2 121.15(18)
C2 C3 C4 O6 -56.24(19)
C2 C3 C4 O5 124.00(17)
N1 C7 C6 C5 177.00(15)
O7 C5 C6 C7 144.68(18)
C4 C3 C2 O3 -51.78(18)
C4 C3 C2 C1 -175.22(15)

_cod_database_fobs_code 2021492
