#------------------------------------------------------------------------------
#$Date: 2019-10-05 06:59:42 +0300 (Sat, 05 Oct 2019) $
#$Revision: 219111 $
#$URL: file:///home/coder/svn-repositories/cod/cif/2/02/17/2021788.cif $
#------------------------------------------------------------------------------
#
# This file is available in the Crystallography Open Database (COD),
# http://www.crystallography.net/. The original data for this entry
# were provided by IUCr Journals, http://journals.iucr.org/.
#
# The file may be used within the scientific community so long as
# proper attribution is given to the journal article from which the
# data were obtained.
#
data_2021788
loop_
_publ_author_name
'Bloomfield, Hannah R.'
'Ritch, Jamie S.'
_publ_section_title
;
 A new polymorph of phenylselenium trichloride
;
_journal_coeditor_code           KY3190
_journal_issue                   11
_journal_name_full               'Acta Crystallographica Section C'
_journal_page_first
;
;
_journal_paper_doi               10.1107/S2053229619013019
_journal_volume                  75
_journal_year                    2019
_chemical_formula_iupac          'C6 H5 Cl3 Se'
_chemical_formula_moiety         'C6 H5 Cl3 Se'
_chemical_formula_sum            'C6 H5 Cl3 Se'
_chemical_formula_weight         262.41
_chemical_name_systematic
;
Phenylselenium trichloride
;
_space_group_crystal_system      triclinic
_space_group_IT_number           2
_space_group_name_Hall           '-P 1'
_space_group_name_H-M_alt        'P -1'
_symmetry_space_group_name_Hall  '-P 1'
_symmetry_space_group_name_H-M   'P -1'
_atom_sites_solution_hydrogens   geom
_atom_sites_solution_primary     dual
_audit_creation_method
;
Olex2 1.2
(compiled 2018.05.29 svn.r3508 for OlexSys, GUI svn.r5506)
;
_cell_angle_alpha                78.332(2)
_cell_angle_beta                 77.789(2)
_cell_angle_gamma                66.341(2)
_cell_formula_units_Z            4
_cell_length_a                   8.6245(3)
_cell_length_b                   9.5342(4)
_cell_length_c                   11.7229(5)
_cell_measurement_reflns_used    8248
_cell_measurement_temperature    150(2)
_cell_measurement_theta_max      32.60
_cell_measurement_theta_min      2.61
_cell_volume                     855.50(6)
_computing_cell_refinement
;
SAINT (Bruker, 2016)
;
_computing_data_collection
;
APEX3 (Bruker, 2016
;
_computing_data_reduction
;
SAINT (Bruker, 2016
;
_computing_molecular_graphics
;
<i>OLEX2</i> (Dolomanov <i>et al.</i>,  2009)
;
_computing_publication_material
;
<i>OLEX2</i> (Dolomanov <i>et al.</i>,  2009)
;
_computing_structure_refinement
;
SHELXL (Sheldrick, 2015b)
;
_computing_structure_solution
;
SHELXT (Sheldrick, 2015a)
;
_diffrn_ambient_temperature      150.0
_diffrn_measured_fraction_theta_full 0.999
_diffrn_measured_fraction_theta_max 0.999
_diffrn_measurement_device_type  'Bruker APEXII CCD'
_diffrn_measurement_method       '\f and \w scans'
_diffrn_radiation_type           MoK\a
_diffrn_radiation_wavelength     0.71073
_diffrn_reflns_av_R_equivalents  0.0374
_diffrn_reflns_av_unetI/netI     0.0410
_diffrn_reflns_limit_h_max       11
_diffrn_reflns_limit_h_min       -11
_diffrn_reflns_limit_k_max       12
_diffrn_reflns_limit_k_min       -12
_diffrn_reflns_limit_l_max       15
_diffrn_reflns_limit_l_min       -15
_diffrn_reflns_number            15455
_diffrn_reflns_theta_full        25.242
_diffrn_reflns_theta_max         28.699
_diffrn_reflns_theta_min         2.606
_exptl_absorpt_coefficient_mu    5.244
_exptl_absorpt_correction_T_max  0.7465
_exptl_absorpt_correction_T_min  0.4564
_exptl_absorpt_correction_type   numerical
_exptl_absorpt_process_details
;
(SADABS; Bruker, 2016)
;
_exptl_crystal_colour            'clear colourless'
_exptl_crystal_density_diffrn    2.037
_exptl_crystal_description       prism
_exptl_crystal_F_000             504
_exptl_crystal_size_max          0.533
_exptl_crystal_size_mid          0.518
_exptl_crystal_size_min          0.345
_refine_diff_density_max         0.462
_refine_diff_density_min         -0.569
_refine_ls_extinction_coef       0.0114(3)
_refine_ls_extinction_expression Fc^*^=kFc[1+0.001xFc^2^\l^3^/sin(2\q)]^-1/4^
_refine_ls_extinction_method
;
SHELXL2018 (Sheldrick, 2015b)
;
_refine_ls_goodness_of_fit_ref   1.053
_refine_ls_hydrogen_treatment    constr
_refine_ls_matrix_type           full
_refine_ls_number_parameters     182
_refine_ls_number_reflns         4426
_refine_ls_number_restraints     0
_refine_ls_restrained_S_all      1.053
_refine_ls_R_factor_all          0.0484
_refine_ls_R_factor_gt           0.0292
_refine_ls_shift/su_max          0.001
_refine_ls_shift/su_mean         0.000
_refine_ls_structure_factor_coef Fsqd
_refine_ls_weighting_details
'w=1/[\s^2^(Fo^2^)+(0.0095P)^2^+0.5686P] where P=(Fo^2^+2Fc^2^)/3'
_refine_ls_weighting_scheme      calc
_refine_ls_wR_factor_gt          0.0466
_refine_ls_wR_factor_ref         0.0507
_reflns_number_gt                3470
_reflns_number_total             4426
_reflns_threshold_expression     'I > 2\s(I)'
_cod_data_source_file            ky3190sup1.cif
_cod_data_source_block           global
_cod_database_code               2021788
_shelx_space_group_comment
;
The symmetry employed for this shelxl refinement is uniquely defined
by the following loop, which should always be used as a source of
symmetry information in preference to the above space-group names.
They are only intended as comments.
;
_shelx_estimated_absorpt_t_min   0.166
_shelx_estimated_absorpt_t_max   0.265
_shelx_hkl_file
;
  -1   0   0 2198.28   56.99
  -1   0   0 2165.08   56.69
  -2   0   0   33.30    4.20
  -2   0   0   23.60    3.30
  -2   0   0   31.90    3.00
  -2   0   0   30.60    3.20
   2   0   0   27.60    3.70
   2   0   0   26.60    3.00
  -3   0   0   27.80    3.70
  -3   0   0   30.10    4.00
  -3   0   0   27.80    3.80
  -3   0   0   39.10    6.20
   3   0   0   29.60    4.20
   3   0   0   30.10    4.30
  -4   0   0   10.10    3.70
  -4   0   0   14.70    3.20
  -4   0   0   21.70    5.90
  -4   0   0   17.70    3.90
   4   0   0   14.50    3.90
   4   0   0   14.10    4.50
  -5   0   0  181.08   13.70
  -5   0   0  174.28   10.60
  -5   0   0  194.48   10.20
  -5   0   0  186.58   12.50
   5   0   0  196.28   12.10
   5   0   0  182.78   11.20
  -6   0   0  448.46   18.80
  -6   0   0  432.76   21.90
  -6   0   0  439.46   18.10
   6   0   0  406.96   19.70
   6   0   0  412.36   19.90
  -7   0   0   11.50    9.10
  -7   0   0    0.90    5.40
  -7   0   0    6.30    6.40
   7   0   0    3.60    7.50
  -8   0   0   83.79   13.90
  -8   0   0   97.89   14.60
  -8   0   0   64.89   13.50
   8   0   0   85.49   14.40
  -9   0   0  552.54   33.30
  -9   0   0  541.35   27.40
 -10   0   0  184.68   30.20
 -10   0   0  166.88   22.90
  10   0   0  178.68   21.20
 -11   0   0   14.50   24.00
  10  -1   0  272.67   27.80
 -10   1   0  282.37   37.20
 -10   1   0  270.07   27.30
   9  -1   0  116.19   16.30
  -9   1   0  111.39   15.90
  -9   1   0   92.79   18.50
   8  -1   0    2.80    8.40
  -8   1   0    0.50    8.90
  -8   1   0   -2.40   11.50
   7  -1   0    4.90    8.60
  -7   1   0    7.40    7.80
  -7   1   0   19.90    7.60
  -7   1   0   23.70    9.60
   6  -1   0  108.99   11.60
  -6   1   0  125.49   11.40
  -6   1   0  123.49   11.00
   5  -1   0  400.46   19.00
   5  -1   0  367.66   16.90
  -5   1   0  364.86   22.30
  -5   1   0  389.96   17.50
  -5   1   0  374.36   16.90
   4  -1   0 2842.12   79.69
   4  -1   0 2820.52   77.89
  -4   1   0 2635.04   79.69
  -4   1   0 2943.81   80.29
  -4   1   0 2862.61   77.69
  -4   1   0 2910.61   77.79
   3  -1   0 2408.36   64.29
   3  -1   0 2422.46   65.79
  -3   1   0 2276.37   65.79
  -3   1   0 2104.89   69.29
  -3   1   0 2468.15   65.99
  -3   1   0 2401.96   64.29
   2  -1   0  210.28    9.70
   2  -1   0  210.28    8.60
  -2   1   0  219.48    9.30
  -2   1   0  206.18    9.70
  -2   1   0  207.58    8.80
  -2   1   0  211.78    9.90
   1  -1   0   71.69    4.40
   1  -1   0   74.69    4.80
  -1   1   0   70.79    4.90
  -1   1   0   77.59    4.20
  -1   1   0   70.29    4.80
  -1   1   0   70.19    4.00
   1   1   0 1529.25   40.20
  -2  -1   0  933.51   26.60
  -2  -1   0  945.71   26.40
  -2  -1   0  927.41   26.20
   2   1   0  967.80   26.20
   2   1   0  918.71   26.60
  -3  -1   0  627.34   18.40
  -3  -1   0  601.84   19.60
  -3  -1   0  621.14   20.20
  -3  -1   0  619.64   19.60
   3   1   0  645.44   20.60
   3   1   0  606.94   19.30
  -4  -1   0    3.20    3.40
  -4  -1   0    1.00    2.60
  -4  -1   0    4.50    3.20
  -4  -1   0    5.00    3.40
   4   1   0    4.30    3.10
  -5  -1   0  640.94   23.70
  -5  -1   0  666.13   24.80
  -5  -1   0  630.44   21.30
  -5  -1   0  641.04   22.80
   5   1   0  628.44   22.90
   5   1   0  637.64   24.40
  -6  -1   0  564.64   22.60
  -6  -1   0  571.14   20.90
  -6  -1   0  567.64   24.60
  -6  -1   0  575.64   25.00
   6   1   0  554.34   22.60
   6   1   0  560.44   23.90
  -7  -1   0   59.49   10.00
  -7  -1   0   45.70   11.00
  -7  -1   0   49.30    8.20
   7   1   0   54.69    9.80
  -8  -1   0  173.98   21.10
  -8  -1   0  132.19   14.20
  -8  -1   0  157.48   14.10
   8   1   0  166.38   15.90
  -9  -1   0   73.09   15.90
   9   1   0   63.39   11.70
 -10  -1   0  376.86   31.20
  10   1   0  347.17   24.80
 -11  -1   0  239.98   32.40
  11   1   0  220.48   17.80
 -10   2   0   -9.60   16.70
   9  -2   0   39.60   13.30
  -9   2   0   68.49   14.10
  -9   2   0   71.69   19.20
   8  -2   0  194.98   17.70
  -8   2   0  245.38   24.70
  -8   2   0  226.28   18.90
   7  -2   0  279.47   18.30
  -7   2   0  306.77   21.50
  -7   2   0  320.77   19.20
  -7   2   0  293.77   21.90
   6  -2   0  104.89   11.70
  -6   2   0  116.19   14.20
  -6   2   0  104.49   13.40
  -6   2   0   92.29   12.60
   5  -2   0   74.69   10.70
   5  -2   0   78.29   14.20
  -5   2   0   84.39   10.20
  -5   2   0   88.39   10.20
  -5   2   0   82.39   10.10
   4  -2   0   13.10    4.80
   4  -2   0    9.80    5.80
  -4   2   0    8.00    6.50
  -4   2   0   10.40    6.20
  -4   2   0   10.70    4.80
  -4   2   0    9.30    4.80
   3  -2   0 3157.68   86.39
   3  -2   0 3046.30   83.19
  -3   2   0 3066.49   85.69
  -3   2   0 3052.69   83.49
  -3   2   0 3087.19   84.29
   2  -2   0 4674.23  124.29
   2  -2   0 4691.83  121.59
  -2   2   0 4611.54  121.79
  -2   2   0 4683.63  123.49
  -2   2   0 4650.83  122.39
   1  -2   0 1441.66   42.60
   1  -2   0 1484.15   40.00
  -1   2   0 1459.15   41.20
  -1   2   0 1446.56   40.70
  -1   2   0 1427.16   40.50
  -1   2   0 1424.96   43.00
   0  -2   0  290.47   11.10
   0  -2   0  310.37   12.70
   0   2   0  319.87   12.80
   0   2   0  305.17   11.10
   0   2   0  319.87   10.90
   0   2   0  323.07   11.00
  -1  -2   0 2289.77   62.19
  -1  -2   0 2348.57   61.59
   1   2   0 2343.67   60.99
   1   2   0 2344.77   61.49
   1   2   0 2310.27   62.29
   1   2   0 2458.95   62.09
  -2  -2   0  531.05   16.50
   2   2   0  499.45   16.50
   2   2   0  537.55   16.00
   2   2   0  532.25   15.90
   2   2   0  509.25   16.80
  -3  -2   0  171.38    8.10
  -3  -2   0  165.78    7.40
  -3  -2   0  159.78    8.00
   3   2   0  168.58    7.70
   3   2   0  168.28    7.00
   3   2   0  161.68    7.90
  -4  -2   0  158.68    8.80
  -4  -2   0  155.88    8.60
  -4  -2   0  160.88    9.00
   4   2   0  167.48    9.10
   4   2   0  160.08    9.20
   4   2   0  152.38    7.00
  -5  -2   0  148.39   10.00
  -5  -2   0  132.09   10.10
  -5  -2   0  142.19    9.60
   5   2   0  132.89    7.20
   5   2   0  144.69    9.20
   5   2   0  149.69   11.50
  -6  -2   0 1802.32   55.49
  -6  -2   0 1812.12   53.99
  -6  -2   0 1754.72   54.29
   6   2   0 1852.51   55.89
   6   2   0 1806.22   53.79
  -7  -2   0 4158.78  116.39
  -7  -2   0 4154.98  117.19
   7   2   0 4409.46  119.09
   7   2   0 4178.28  116.49
  -8  -2   0  979.20   36.10
  -8  -2   0  848.22   36.40
   8   2   0  958.50   31.10
   8   2   0  889.91   34.70
  -9  -2   0    3.90   11.30
   9   2   0   -5.70    9.00
 -10  -2   0    1.00   13.20
  10   2   0    7.90   12.60
  10   2   0  -13.70    7.60
 -11  -2   0   21.40   16.40
  11   2   0   -9.30   16.70
  11   2   0   24.30   10.20
 -12  -2   0   47.30   23.40
 -10   3   0    8.80   21.20
   9  -3   0   25.20   13.70
  -9   3   0   66.79   20.20
  -9   3   0   53.59   16.00
   8  -3   0   38.00   11.60
  -8   3   0   46.50   12.20
  -8   3   0   40.40   14.70
   7  -3   0  267.17   19.90
  -7   3   0  251.67   20.90
  -7   3   0  242.48   20.50
  -7   3   0  241.88   22.50
   6  -3   0  788.72   31.50
  -6   3   0  815.42   34.20
  -6   3   0  836.12   33.40
  -6   3   0  760.92   34.30
   5  -3   0  128.09   12.60
  -5   3   0  129.29   12.90
  -5   3   0  105.29   14.00
  -5   3   0   99.99   12.40
   4  -3   0  389.96   18.00
   4  -3   0  425.06   22.50
  -4   3   0  388.36   20.30
  -4   3   0  403.26   19.90
  -4   3   0  389.46   18.70
   3  -3   0 1654.03   48.00
   3  -3   0 1658.63   51.79
  -3   3   0 1608.34   48.40
  -3   3   0 1579.94   51.69
  -3   3   0 1620.64   49.40
  -3   3   0 1602.94   50.69
   2  -3   0  581.54   20.20
   2  -3   0  589.34   23.40
  -2   3   0  582.34   21.10
  -2   3   0  556.34   22.00
  -2   3   0  555.94   21.20
   1  -3   0   38.10    6.40
  -1   3   0   36.90    5.70
  -1   3   0   44.00    5.80
  -1   3   0   39.30    7.40
  -1   3   0   44.90    7.00
   0  -3   0  214.58   10.00
   0  -3   0  223.48   11.90
   0   3   0  219.18   10.40
   0   3   0  223.58    9.90
   0   3   0  210.08   11.50
   0   3   0  217.18    9.70
  -1  -3   0 1153.68   35.00
  -1  -3   0 1159.88   33.70
   1   3   0 1140.59   35.10
   1   3   0 1194.58   33.20
   1   3   0 1225.08   34.40
   1   3   0 1202.08   33.50
  -2  -3   0  101.39    6.70
  -2  -3   0   97.89    7.00
   2   3   0   95.69    6.50
   2   3   0  100.79    5.70
   2   3   0   94.69    6.30
   2   3   0   94.29    5.60
  -3  -3   0 5232.48  135.49
   3   3   0 5181.88  138.39
   3   3   0 5436.56  138.89
   3   3   0 5402.56  137.09
   3   3   0 5248.38  136.99
  -4  -3   0 2055.29   58.59
  -4  -3   0 2085.59   56.39
   4   3   0 2097.49   59.29
   4   3   0 2140.79   57.29
   4   3   0 2077.99   57.89
   4   3   0 2107.59   59.79
  -5  -3   0   12.70    3.90
  -5  -3   0   10.10    3.60
  -5  -3   0    8.90    4.00
   5   3   0   14.90    4.50
   5   3   0   11.90    3.20
   5   3   0    9.70    3.90
  -6  -3   0   10.90    4.30
  -6  -3   0    9.00    4.90
  -6  -3   0   -4.80    5.10
   6   3   0   -0.40    5.70
   6   3   0   -2.40    5.00
   6   3   0    1.30    3.50
  -7  -3   0  118.89   11.80
  -7  -3   0  150.68   13.80
  -7  -3   0  144.29   13.20
   7   3   0  137.49   13.40
   7   3   0  114.29    8.90
   7   3   0  149.79   15.80
  -8  -3   0  315.67   19.40
  -8  -3   0  314.67   20.10
   8   3   0  305.37   18.70
   8   3   0  306.17   14.80
  -9  -3   0  168.48   19.80
   9   3   0  192.48   13.30
   9   3   0  196.88   18.10
 -10  -3   0  135.29   18.40
  10   3   0  105.69   13.10
  10   3   0   97.99   16.30
 -11  -3   0   61.89   15.20
  11   3   0   47.10   11.10
  11   3   0   64.59   16.90
 -12  -3   0  103.19   19.80
  -9   4   0   66.29   18.70
   8  -4   0   82.09   15.50
  -8   4   0   61.79   18.90
   7  -4   0  598.34   28.30
  -7   4   0  566.54   33.00
  -7   4   0  609.44   33.20
   6  -4   0  113.59   13.30
  -6   4   0  121.49   17.50
  -6   4   0  117.49   15.30
  -6   4   0  156.98   21.10
   5  -4   0  119.79   14.20
  -5   4   0   84.59   13.20
  -5   4   0  120.29   14.20
  -5   4   0  134.09   17.00
   4  -4   0   16.60    6.60
  -4   4   0   -2.60    5.70
  -4   4   0    9.80    8.50
   3  -4   0  230.78   14.10
   3  -4   0  219.78   16.40
  -3   4   0  234.98   13.90
  -3   4   0  234.68   14.70
  -3   4   0  222.98   17.30
   2  -4   0  122.19   11.50
   2  -4   0  121.59    9.10
  -2   4   0  112.99   10.30
  -2   4   0  130.39   11.80
  -2   4   0  132.19   14.90
  -2   4   0  119.19   10.20
   1  -4   0 1136.29   39.10
  -1   4   0 1125.79   41.10
  -1   4   0 1125.19   36.30
  -1   4   0 1140.19   36.60
   0  -4   0 1381.16   43.30
   0  -4   0 1528.45   47.10
   0   4   0 1455.05   42.60
   0   4   0 1521.75   47.80
   0   4   0 1407.76   43.60
   0   4   0 1476.05   43.40
  -1  -4   0   25.70    4.50
  -1  -4   0   32.60    4.80
   1   4   0   26.90    4.60
   1   4   0   36.30    5.80
   1   4   0   40.80    6.80
   1   4   0   21.20    4.20
  -2  -4   0   35.40    5.70
   2   4   0   31.90    5.20
   2   4   0   29.40    4.30
   2   4   0   44.20    5.90
   2   4   0   32.30    4.50
  -3  -4   0  452.95   18.30
  -3  -4   0  510.55   18.60
   3   4   0  491.25   18.00
   3   4   0  499.05   19.00
   3   4   0  495.85   16.00
   3   4   0  477.35   17.00
  -4  -4   0 3784.52   98.69
  -4  -4   0 3783.62  101.79
   4   4   0 3756.52  100.69
   4   4   0 3795.92  102.89
   4   4   0 3729.93  102.29
   4   4   0 3833.72  100.59
  -5  -4   0 4105.59  110.49
  -5  -4   0 3932.81  106.79
   5   4   0 4193.48  111.49
   5   4   0 4150.78  108.59
   5   4   0 4178.28  111.99
   5   4   0 3906.31  108.69
  -6  -4   0   99.29    9.70
  -6  -4   0  118.89    8.40
   6   4   0   89.09   10.10
   6   4   0   99.09   12.30
   6   4   0   99.59    9.90
   6   4   0  108.39    9.30
  -7  -4   0  148.59   10.30
  -7  -4   0  115.89   14.50
   7   4   0  118.39   15.30
   7   4   0  121.39   12.90
  -8  -4   0  176.18   13.00
  -8  -4   0  202.28   17.90
   8   4   0  165.88   12.20
   8   4   0  131.99   15.30
  -9  -4   0  168.88   15.10
   9   4   0  124.89   16.10
   9   4   0  117.89   11.60
  10   4   0    3.20    9.90
  10   4   0   -3.60    8.60
  11   4   0    4.90   10.60
  11   4   0   19.90   14.30
   8  -5   0  -12.80   13.70
  -8   5   0  -31.30   16.40
   7  -5   0   12.20   11.70
  -7   5   0    0.10   12.60
  -7   5   0    8.50   16.00
   6  -5   0  539.55   27.70
  -6   5   0  508.25   29.60
  -6   5   0  571.54   31.90
  -6   5   0  578.44   34.50
   5  -5   0  881.91   34.10
  -5   5   0  964.20   36.50
  -5   5   0  812.42   37.70
  -5   5   0  867.41   38.50
   4  -5   0  146.99   14.60
  -4   5   0  156.08   19.30
  -4   5   0  113.49   17.00
  -4   5   0  134.19   14.00
   3  -5   0   29.80    7.70
  -3   5   0   39.00    7.90
  -3   5   0   33.20   10.10
   2  -5   0  102.89    9.30
   2  -5   0  111.49   13.80
  -2   5   0   78.29    9.70
  -2   5   0  105.79   14.50
   1  -5   0  206.78   13.00
   1  -5   0  233.78   16.10
  -1   5   0  218.68   19.60
  -1   5   0  236.28   15.50
  -1   5   0  193.68   13.10
   0  -5   0 4562.54  125.59
   0  -5   0 4590.34  129.89
   0   5   0 4832.42  126.99
   0   5   0 4777.12  124.89
   0   5   0 4535.95  131.19
   0   5   0 4788.42  126.19
  -1  -5   0 2532.05   71.99
  -1  -5   0 2489.95   68.59
   1   5   0 2483.65   68.09
   1   5   0 2381.16   69.29
   1   5   0 2384.56   67.79
   1   5   0 2325.47   71.79
  -2  -5   0  167.58   11.00
  -2  -5   0  171.48    9.90
   2   5   0  180.48   12.80
   2   5   0  158.48    9.70
   2   5   0  171.38    9.70
   2   5   0  150.28   10.80
  -3  -5   0  285.67   13.90
  -3  -5   0  276.27   14.70
   3   5   0  285.07   12.60
   3   5   0  280.07   13.10
   3   5   0  295.37   12.90
   3   5   0  285.17   14.40
  -4  -5   0  742.23   26.40
   4   5   0  784.62   23.60
   4   5   0  723.53   24.80
   4   5   0  747.03   27.40
   4   5   0  750.42   26.20
  -5  -5   0  349.67   16.20
   5   5   0  342.37   15.90
   5   5   0  345.87   16.40
   5   5   0  356.36   16.60
   5   5   0  353.36   18.70
  -6  -5   0    1.20    4.70
  -6  -5   0   -3.30    4.50
   6   5   0   -0.20    7.30
   6   5   0    3.40    6.30
   6   5   0    0.90    4.90
   6   5   0    1.60    6.10
  -7  -5   0  -11.10    5.80
  -7  -5   0   -2.10    5.60
   7   5   0   -4.20    6.70
   7   5   0  -14.30    9.60
   7   5   0    5.80    6.30
   7   5   0   -5.40    5.50
  -8  -5   0  215.88   18.40
  -8  -5   0  210.08   14.00
   8   5   0  213.58   15.50
   8   5   0  210.78   16.50
  -9  -5   0  416.06   21.70
   9   5   0  376.36   24.50
   9   5   0  392.96   22.20
 -10  -5   0  781.22   32.80
  10   5   0  774.32   32.40
  10   5   0  725.23   33.80
 -11  -5   0  208.08   22.40
  11   5   0  252.07   26.20
  11   5   0  181.38   23.20
  -8   6   0   90.59   39.10
   7  -6   0   12.10   12.90
  -7   6   0  -15.30   17.00
  -7   6   0   14.80   19.20
   6  -6   0   42.00   11.50
  -6   6   0   37.40   15.00
  -6   6   0   83.29   19.60
   5  -6   0  118.89   16.20
  -5   6   0  115.29   20.70
  -5   6   0  155.88   20.80
  -5   6   0   92.39   15.20
   4  -6   0   37.10    9.60
  -4   6   0   29.40   12.30
  -4   6   0   25.70   10.50
   3  -6   0  376.46   20.80
  -3   6   0  361.76   22.40
  -3   6   0  405.26   25.80
   2  -6   0  176.08   13.40
   2  -6   0  179.18   13.00
  -2   6   0  164.38   15.30
  -2   6   0  191.08   22.50
   1  -6   0   48.20    8.40
   1  -6   0   44.20   11.60
  -1   6   0   77.09   14.10
  -1   6   0   65.89   10.90
   0  -6   0 1088.49   41.60
   0  -6   0 1063.29   36.80
   0   6   0 1101.99   36.40
   0   6   0 1123.29   38.20
   0   6   0 1107.99   39.10
   0   6   0 1173.78   49.60
  -1  -6   0   62.89    8.60
  -1  -6   0   53.49    9.90
   1   6   0   47.90    9.00
   1   6   0   49.20    8.60
   1   6   0   53.99    8.70
   1   6   0   69.89   13.10
  -2  -6   0  508.35   22.60
  -2  -6   0  498.15   20.20
   2   6   0  519.65   19.40
   2   6   0  501.85   20.20
   2   6   0  494.05   21.80
   2   6   0  527.85   25.30
  -3  -6   0   44.00    7.50
  -3  -6   0   29.70    6.40
   3   6   0   43.60    6.70
   3   6   0   33.80    6.30
   3   6   0   48.70    7.10
   3   6   0   58.29   11.20
  -4  -6   0    2.90    5.30
  -4  -6   0    8.70    5.10
   4   6   0    5.10    4.30
   4   6   0    7.00    5.00
   4   6   0    6.40    4.90
  -5  -6   0  107.79   10.40
   5   6   0  126.29   10.60
   5   6   0  113.49   10.80
   5   6   0  120.99    8.20
   5   6   0  117.29   10.60
   5   6   0  111.89   11.70
  -6  -6   0  649.34   26.40
   6   6   0  726.03   22.90
   6   6   0  667.93   29.80
   6   6   0  642.44   28.30
   6   6   0  700.73   26.70
   6   6   0  675.83   27.40
  -7  -6   0  345.77   19.20
   7   6   0  342.07   19.80
   7   6   0  361.56   19.40
   7   6   0  345.47   19.30
  -8  -6   0    6.20    7.30
  -8  -6   0   15.50   10.80
   8   6   0   19.40    9.40
   8   6   0   11.40    8.90
  -9  -6   0  -12.30    8.60
   9   6   0    9.70   10.10
   9   6   0   -8.30    8.10
 -10  -6   0  186.28   21.40
  10   6   0  232.58   21.40
  10   6   0  216.38   19.60
  11   6   0  432.56   27.70
  11   6   0  454.45   29.50
   7  -7   0   48.10   18.90
  -7   7   0   67.09   40.60
   6  -7   0   48.60   15.10
  -6   7   0   69.99   23.70
  -6   7   0   44.10   16.60
   5  -7   0   25.00   10.70
  -5   7   0   14.80   18.10
  -5   7   0   18.70   12.40
   4  -7   0  463.65   24.80
  -4   7   0  449.26   28.70
  -4   7   0  468.55   29.60
   3  -7   0  130.99   15.60
   3  -7   0  128.89   13.80
  -3   7   0  103.19   16.40
  -3   7   0  110.79   17.40
   2  -7   0  507.25   23.60
   2  -7   0  507.75   24.20
  -2   7   0  509.45   29.60
  -2   7   0  483.65   26.30
   1  -7   0   77.69   12.10
  -1   7   0   55.19   10.50
  -1   7   0   66.09   15.00
   0  -7   0  107.79   11.40
   0   7   0  132.49   15.40
   0   7   0  112.29   14.20
   0   7   0  130.69   12.60
  -1  -7   0 1961.80   63.49
  -1  -7   0 1794.12   55.69
   1   7   0 1763.62   62.99
   1   7   0 1816.02   55.59
   1   7   0 1833.72   56.59
  -2  -7   0 1178.88   39.50
  -2  -7   0 1257.47   43.80
   2   7   0 1174.58   39.30
   2   7   0 1186.38   42.50
   2   7   0 1197.68   38.80
  -3  -7   0  287.37   19.30
  -3  -7   0  284.37   16.00
   3   7   0  298.67   17.50
   3   7   0  291.77   14.00
   3   7   0  285.27   15.70
  -4  -7   0    3.00    6.10
  -4  -7   0   -1.90    5.60
   4   7   0   -8.70    5.90
   4   7   0   -0.70    5.70
   4   7   0    4.90    4.80
  -5  -7   0   -5.80    5.80
   5   7   0    7.10    6.50
   5   7   0   -8.30    5.00
   5   7   0    8.80    5.80
  -6  -7   0    5.00    5.60
   6   7   0    7.80    6.00
   6   7   0   11.10    7.90
   6   7   0   14.90    6.10
   6   7   0   14.10    5.00
  -7  -7   0 1560.14   52.09
   7   7   0 1568.94   50.79
   7   7   0 1498.65   49.40
   7   7   0 1564.74   45.90
   7   7   0 1582.54   53.09
   8   7   0 1343.67   46.30
   8   7   0 1371.16   47.40
   9   7   0  138.79   17.20
   9   7   0  115.39   14.80
  10   7   0   62.59   12.90
  10   7   0   70.39   14.80
  11   7   0   30.00   16.00
  11   7   0   21.90   13.40
   6  -8   0    5.50   14.70
   5  -8   0    8.70   12.90
  -5   8   0    5.50   19.70
   4  -8   0   51.89   13.60
  -4   8   0   40.70   18.20
  -4   8   0   12.40   14.90
   3  -8   0  548.25   28.20
   3  -8   0  598.94   29.70
  -3   8   0  593.24   34.40
  -3   8   0  567.14   34.50
   2  -8   0 1254.97   44.20
   2  -8   0 1244.98   45.60
  -2   8   0 1320.77   51.39
  -2   8   0 1246.28   49.70
   1  -8   0  192.18   16.80
  -1   8   0  166.78   18.20
  -1   8   0  155.28   20.90
   0  -8   0    8.90    6.50
   0   8   0   16.10   10.80
   0   8   0   -2.80    9.30
  -1  -8   0   -0.10    5.80
   1   8   0   22.30   11.00
   1   8   0   14.70    8.30
   1   8   0   17.00    9.40
  -2  -8   0  499.55   22.70
   2   8   0  503.65   22.60
   2   8   0  511.05   27.70
   2   8   0  507.85   23.40
  -3  -8   0  140.69   12.30
   3   8   0  119.99   14.40
   3   8   0  123.89   10.30
   3   8   0  112.89   15.30
  -4  -8   0  535.85   25.20
   4   8   0  502.15   24.80
   4   8   0  544.55   23.70
   4   8   0  499.25   20.50
  -5  -8   0   45.00    9.30
   5   8   0   50.09    9.30
   5   8   0   56.79   10.30
   5   8   0   63.29    9.40
  -6  -8   0   72.59   12.30
   6   8   0   66.19   11.40
   6   8   0   79.89   11.30
   6   8   0   87.29   11.50
   6   8   0   80.49   12.60
  -7  -8   0  100.89   15.10
   7   8   0   95.79   12.20
   7   8   0  107.79   14.00
   7   8   0   87.59   13.00
   7   8   0   88.79   14.60
   8   8   0   25.10    9.00
   8   8   0   29.90    9.80
   8   8   0   22.50    6.70
   9   8   0  191.38   17.10
   9   8   0  199.38   19.40
  10   8   0   18.70   13.30
  10   8   0    9.80   10.90
  11   8   0    5.80   16.80
  11   8   0   40.40   12.70
   5  -9   0   51.59   17.40
   4  -9   0    3.00   13.10
  -4   9   0   -9.50   13.90
  -4   9   0   25.30   21.40
   3  -9   0    3.10   10.90
  -3   9   0  -19.30   13.90
  -3   9   0    0.20   16.30
   2  -9   0   20.20   12.30
   2  -9   0   35.10   10.50
  -2   9   0    2.20   13.70
  -2   9   0   -1.00   11.00
   1  -9   0  265.57   20.20
   1  -9   0  244.98   18.90
  -1   9   0  231.98   24.70
  -1   9   0  223.98   21.50
   0  -9   0  442.36   23.00
   0   9   0  448.66   27.50
   0   9   0  374.96   25.10
  -1  -9   0    1.30    6.90
   1   9   0   -8.60   10.20
   1   9   0    6.10   10.80
   1   9   0   -8.70    8.50
   2   9   0   79.09   14.50
   2   9   0   92.09   15.80
   2   9   0   92.09   14.70
  -3  -9   0  217.48   16.00
   3   9   0  236.18   20.50
   3   9   0  247.78   15.90
   3   9   0  229.48   18.30
  -4  -9   0   15.20    9.30
   4   9   0    3.20    6.10
   4   9   0   23.30    9.60
   4   9   0   13.10   10.00
  -5  -9   0  938.31   38.90
   5   9   0  948.31   36.10
   5   9   0  989.90   32.20
   5   9   0  930.31   38.50
  -6  -9   0  197.88   19.10
   6   9   0  172.68   17.60
   6   9   0  216.78   13.60
   6   9   0  211.38   16.30
   6   9   0  178.38   17.00
   7   9   0   72.99   11.20
   7   9   0   70.69   11.10
   7   9   0   71.89   12.70
   7   9   0   70.69   10.10
   8   9   0  396.26   22.80
   8   9   0  448.46   24.10
   9   9   0  283.67   19.40
   9   9   0  311.97   21.10
  10   9   0   97.39   17.10
  10   9   0  166.18   18.20
  11   9   0   13.10   14.90
   4 -10   0   86.29   18.40
   3 -10   0   15.80   13.60
  -3  10   0    8.70   21.70
  -3  10   0  -26.20   16.60
   2 -10   0   35.90   12.30
  -2  10   0   27.90   16.70
  -2  10   0   16.10   15.50
   1 -10   0  416.86   24.80
  -1  10   0  429.86   29.50
  -1  10   0  459.05   31.50
   0 -10   0  176.48   19.10
   0  10   0  177.98   23.00
   0  10   0  144.69   21.50
  -1 -10   0   41.10    9.10
   1  10   0   55.19   14.40
   1  10   0   39.50   12.00
   1  10   0   61.39   14.10
  -2 -10   0    5.60    8.50
   2  10   0   14.60   12.80
   2  10   0   17.90    9.70
   2  10   0   13.20   11.00
  -3 -10   0   59.89   11.60
   3  10   0   69.09   15.30
   3  10   0   47.10   11.50
   3  10   0   47.40   12.20
  -4 -10   0  489.85   27.90
   4  10   0  488.75   27.10
   4  10   0  509.25   23.60
   4  10   0  507.95   30.80
   5  10   0  712.13   35.50
   5  10   0  739.53   32.40
   5  10   0  730.43   27.60
   6  10   0  137.89   12.00
   6  10   0  138.79   19.40
   6  10   0  126.39   17.30
   7  10   0   13.50   11.00
   7  10   0   13.70   10.80
   8  10   0   27.10   10.90
   8  10   0   -2.40   11.20
   9  10   0    2.60   11.20
   9  10   0   21.90   12.30
  10  10   0   59.89   16.10
  10  10   0   42.10   12.90
   3 -11   0   14.50   16.80
   2 -11   0   30.00   15.00
  -2  11   0    6.60   18.10
   1 -11   0   22.00   12.20
  -1  11   0    2.00   15.90
  -1  11   0  -19.80   13.20
   0  11   0  301.17   29.30
   0  11   0  248.48   24.70
   1  11   0  574.44   35.30
   1  11   0  523.65   29.30
   1  11   0  550.44   33.20
   2  11   0   11.30   11.60
   2  11   0   25.30   13.90
   2  11   0   26.30   13.60
   3  11   0   43.10   12.00
   3  11   0   34.40   13.40
   3  11   0   52.29   16.70
   4  11   0   20.10   11.70
   4  11   0   14.80   15.60
   5  11   0   31.20   10.80
   5  11   0   18.80   13.40
   5  11   0    7.80   12.70
   6  11   0  145.39   24.90
   6  11   0  134.99   19.40
   7  11   0  281.77   22.80
   7  11   0  221.88   25.40
   8  11   0    3.60   14.30
   8  11   0   -6.70   12.50
   9  11   0   55.69   15.30
   9  11   0   46.50   15.50
  10  11   0   19.00   15.90
   2 -12   0   13.00   22.00
   1 -12   0   -1.70   14.60
  -1  12   0   20.50   22.00
   0 -12   0   -5.20   13.30
   0  12   0   -4.40   16.40
   1  12   0  224.58   29.10
   1  12   0  153.88   27.50
   2  12   0  324.17   25.70
   2  12   0  289.47   29.30
   2  12   0  248.68   32.20
   3  12   0  191.58   24.80
   3  12   0  266.87   24.60
   3  12   0  213.38   30.20
   4  12   0   10.00   14.00
   4  12   0   39.80   13.50
   4  12   0    5.20   17.40
   5  12   0   37.30   14.50
   5  12   0   35.10   16.90
   6  12   0  217.88   26.90
   6  12   0  204.88   25.20
   7  12   0   91.29   21.10
   7  12   0   94.29   18.90
   8  12   0   30.50   17.60
   8  12   0   51.79   18.70
   9  12   0   27.50   21.20
   9  12   0   -4.50   17.90
  10  12   0   48.40   21.60
   0 -13   0   25.80   17.50
   1  13   0   20.80   21.90
   2  13   0  126.89   20.90
   3  13   0   36.10   17.00
   4  13   0   12.70   16.50
   5  13   0   54.69   16.70
   6  13   0   30.40   41.30
   6  13   0   34.80   17.60
   7  13   0  123.89   23.80
   3  14   0  107.59   27.90
   4  14   0  182.78   28.00
   5  14   0   30.40   23.10
   6  13  -1   72.99   21.30
   5  13  -1    9.70   17.50
   4  13  -1   24.50   16.90
   3  13  -1  102.39   20.90
   2  13  -1  -10.80   18.50
   1  13  -1   40.60   17.70
   9  12  -1  257.77   34.40
   8  12  -1   74.29   20.70
   8  12  -1  116.89   21.30
   7  12  -1   19.30   16.00
   7  12  -1   31.40   18.40
   6  12  -1   10.70   16.00
   6  12  -1   40.50   17.70
   5  12  -1   81.49   20.50
   5  12  -1  144.89   22.60
   4  12  -1  131.39   21.70
   4  12  -1   80.59   18.00
   3  12  -1  129.29   20.30
   3  12  -1  142.99   22.40
   2  12  -1   69.09   18.50
   2  12  -1   84.29   17.70
   2  12  -1  130.89   21.80
   1  12  -1  -15.30   13.80
   0  12  -1  -14.10   15.00
   0 -12   1   -3.10   14.00
  -1  12  -1   23.80   17.70
   1 -12   1    5.40   16.40
  10  11  -1  -22.70   17.20
   9  11  -1   34.30   15.80
   9  11  -1    6.40   15.20
   8  11  -1  178.68   24.10
   8  11  -1  181.88   24.40
   7  11  -1  138.99   24.60
   7  11  -1  134.39   22.00
   6  11  -1   20.70   14.70
   6  11  -1   20.60   14.00
   5  11  -1    0.40   13.00
   5  11  -1   -4.60   13.00
   4  11  -1  108.89   18.20
   4  11  -1  118.89   19.10
   4  11  -1  113.89   19.50
   3  11  -1   22.90   13.40
   3  11  -1   25.80   11.30
   3  11  -1   17.70   12.10
   2  11  -1  135.79   21.30
   2  11  -1  114.39   17.80
   2  11  -1  113.69   18.80
   1  11  -1  231.58   23.10
   1  11  -1  183.08   24.80
   1  11  -1  183.78   21.80
   0  11  -1   16.20   13.30
   0  11  -1   -4.00   13.20
  -1  11  -1   33.90   15.30
  -1  11  -1   18.50   21.70
   1 -11   1   50.19   14.10
  -2  11  -1   13.90   15.90
   2 -11   1   16.20   14.60
  10  10  -1   52.99   14.20
  10  10  -1   52.29   25.20
   9  10  -1   20.60   12.00
   9  10  -1   11.20   12.40
   8  10  -1  132.79   19.90
   8  10  -1  145.89   20.60
   7  10  -1  245.18   23.00
   7  10  -1  265.37   22.20
   6  10  -1  293.77   22.40
   6  10  -1  313.27   25.40
   5  10  -1  143.39   20.70
   5  10  -1   91.29   11.20
   4  10  -1    2.10    8.50
   4  10  -1    3.80   12.70
   4  10  -1  -13.80   11.10
   3  10  -1  163.78   18.40
   3  10  -1  141.99   20.00
   3  10  -1  143.59   17.20
   2  10  -1  280.77   20.90
   2  10  -1  287.57   21.80
   2  10  -1  243.18   21.60
   1  10  -1  507.15   28.80
   1  10  -1  519.85   28.00
   1  10  -1  512.35   29.20
   0  10  -1   63.49   14.60
   0  10  -1   59.79   14.90
  -1  10  -1  -19.00   11.40
  -1  10  -1    1.60   12.30
   1 -10   1    1.90   11.60
  -2  10  -1   97.59   20.80
  -2  10  -1  121.09   22.20
   2 -10   1  112.59   16.80
  -3  10  -1   -6.10   13.10
   3 -10   1   29.50   15.30
   4 -10   1   56.09   19.30
  10   9  -1  182.38   18.90
  10   9  -1  167.08   24.40
   9   9  -1   30.00   12.10
   9   9  -1   52.29   11.00
   8   9  -1   11.60   10.30
   8   9  -1   -1.20    8.70
   7   9  -1    8.20   10.70
   7   9  -1   18.50    9.20
   7   9  -1   35.00   12.20
   6   9  -1  286.57   19.20
   6   9  -1  293.57   21.30
   6   9  -1  323.17   20.20
   6   9  -1  292.07   15.50
   5   9  -1  198.08   18.20
   5   9  -1  205.78   12.20
   5   9  -1  215.78   20.30
  -5  -9   1  213.48   20.90
   4   9  -1   -4.30   10.80
   4   9  -1   -2.30    6.50
   4   9  -1    4.20    9.70
  -4  -9   1    8.10    9.70
   3   9  -1    4.00    9.20
   3   9  -1   10.40   10.70
   3   9  -1    3.40    7.80
  -3  -9   1    3.10    8.60
   2   9  -1  150.98   15.70
   2   9  -1  130.99   17.90
   2   9  -1  131.99   14.40
  -2  -9   1  125.29   15.40
   1   9  -1  478.45   25.60
   1   9  -1  460.25   30.20
   1   9  -1  487.95   27.30
  -1  -9   1  482.85   25.00
   0   9  -1  126.09   15.70
   0   9  -1  122.59   19.20
   0   9  -1  136.19   15.70
   0  -9   1  141.49   17.10
  -1   9  -1    7.00   11.10
   1  -9   1   -3.10   10.30
  -2   9  -1   17.60   13.70
  -2   9  -1   14.00   11.60
   2  -9   1   49.50   12.30
  -3   9  -1   74.89   18.70
  -3   9  -1   64.29   13.80
   3  -9   1   78.59   15.60
  -4   9  -1   27.40   22.20
   4  -9   1   15.60   13.40
   5  -9   1   55.09   18.40
  10   8  -1    0.10   11.50
  10   8  -1   17.60   10.40
   9   8  -1   28.90    9.30
   9   8  -1    7.50    9.70
   8   8  -1   18.00    8.10
   8   8  -1   15.10   11.20
   8   8  -1   18.80   10.70
   7   8  -1   20.60    9.10
   7   8  -1   19.70    7.40
   7   8  -1   20.90    8.50
   7   8  -1    7.60    7.70
   6   8  -1  398.46   15.20
   6   8  -1  383.66   20.40
   6   8  -1  410.06   20.50
   6   8  -1  393.16   21.10
  -6  -8   1  365.26   22.70
   5   8  -1 1029.10   39.60
   5   8  -1 1072.19   32.30
   5   8  -1 1111.89   38.80
  -5  -8   1 1106.69   41.70
   4   8  -1 1218.28   44.30
   4   8  -1 1280.97   43.30
   4   8  -1 1259.97   38.20
  -4  -8   1 1268.37   44.50
   3   8  -1  107.09   16.50
   3   8  -1   75.09   10.40
  -3  -8   1   86.09   11.60
   2   8  -1   73.59   11.30
   2   8  -1   57.79   11.80
  -2  -8   1   54.29    8.50
   1   8  -1  281.17   21.10
   1   8  -1  242.68   19.50
   1   8  -1  270.67   19.20
  -1  -8   1  249.88   17.40
   0   8  -1  280.87   19.30
   0   8  -1  268.77   19.10
   0  -8   1  278.77   19.00
  -1   8  -1  169.38   17.70
  -1   8  -1  195.28   18.00
   1  -8   1  185.98   18.00
  -2   8  -1  273.97   22.00
  -2   8  -1  234.98   22.20
   2  -8   1  259.57   20.20
   2  -8   1  274.87   19.50
  -3   8  -1   16.70   14.10
  -3   8  -1   -4.80   11.00
   3  -8   1   42.50   22.30
   3  -8   1   11.80   10.10
  -4   8  -1   67.29   20.10
  -4   8  -1   28.30   11.40
   4  -8   1   40.40   13.30
  -5   8  -1   75.99   25.30
   5  -8   1   79.29   15.10
   6  -8   1   29.10   17.00
  11   7  -1    9.70   26.10
  10   7  -1   54.29   15.00
  10   7  -1   67.29   12.10
   9   7  -1  622.64   26.60
   9   7  -1  572.44   28.40
   8   7  -1 1081.49   40.80
   8   7  -1 1160.58   44.50
   8   7  -1 1156.68   34.60
   8   7  -1 1130.99   40.20
   7   7  -1  186.58   10.40
   7   7  -1  191.38   15.80
   7   7  -1  166.88   13.50
   7   7  -1  176.98   15.00
  -7  -7   1  164.68   17.60
   6   7  -1   -8.20    5.30
   6   7  -1    6.60    6.00
   6   7  -1   -2.90    8.20
   6   7  -1   -2.00    6.40
  -6  -7   1  -14.20    6.90
   5   7  -1   15.20    8.00
   5   7  -1   22.10    5.60
   5   7  -1   27.80    4.90
   5   7  -1   24.10    6.80
  -5  -7   1   30.70    7.90
   4   7  -1  140.19    8.20
   4   7  -1  144.99   13.30
   4   7  -1  138.99   13.10
  -4  -7   1  123.89   14.00
   3   7  -1  387.16   20.30
   3   7  -1  396.26   16.00
   3   7  -1  390.66   19.10
  -3  -7   1  389.46   19.90
   2   7  -1  348.47   16.40
   2   7  -1  354.66   21.20
   2   7  -1  317.67   17.90
  -2  -7   1  334.77   18.00
   1   7  -1   14.20    7.50
   1   7  -1   -2.00    6.70
  -1  -7   1   11.00    5.80
   0   7  -1  238.58   17.40
   0   7  -1  249.38   17.60
   0   7  -1  251.67   17.20
   0  -7   1  257.37   17.50
  -1   7  -1  110.59   12.70
   1  -7   1  105.19   13.90
  -2   7  -1  322.27   20.90
  -2   7  -1  353.86   22.50
   2  -7   1  354.26   20.30
   2  -7   1  308.67   20.30
  -3   7  -1   13.10   10.90
  -3   7  -1    9.70    9.40
   3  -7   1    4.50    8.60
   3  -7   1   -1.00    8.60
  -4   7  -1   10.30   14.20
   4  -7   1   25.90   10.00
  -5   7  -1  182.88   29.20
  -5   7  -1  145.39   21.30
   5  -7   1  178.18   20.60
  -6   7  -1  177.48   30.10
  -6   7  -1  104.59   19.90
   6  -7   1  132.79   22.40
  11   6  -1   26.00   15.40
  10   6  -1   -7.30   11.00
  10   6  -1   -5.00   11.00
   9   6  -1    7.90    9.30
   9   6  -1    1.40    9.50
  -9  -6   1  -12.50    8.50
   8   6  -1  120.69   13.80
   8   6  -1   90.59   15.30
  -8  -6   1   90.39   12.50
   7   6  -1  846.82   33.80
   7   6  -1  817.92   30.00
   7   6  -1  839.42   32.10
  -7  -6   1  830.12   32.90
   6   6  -1  269.67   15.30
   6   6  -1  275.17   14.80
   6   6  -1  298.57   16.70
   6   6  -1  295.37   11.90
  -6  -6   1  296.57   16.60
   5   6  -1   34.90    6.80
   5   6  -1   27.00    7.20
  -5  -6   1   20.20    6.30
   4   6  -1  537.15   17.80
   4   6  -1  480.95   20.10
   4   6  -1  499.45   20.80
   4   6  -1  547.85   28.60
  -4  -6   1  497.05   22.00
   3   6  -1   67.59   12.10
   3   6  -1   80.79    9.70
   3   6  -1   81.39   10.30
   3   6  -1   75.99    6.00
  -3  -6   1   58.59   10.20
  -3  -6   1   91.49   11.90
   2   6  -1   28.30    5.00
   2   6  -1   21.60    8.00
   2   6  -1   18.90    6.50
  -2  -6   1   22.40    5.80
  -2  -6   1   12.50    4.80
   1   6  -1  122.09   12.20
   1   6  -1  139.29   11.70
   1   6  -1  130.49   11.30
  -1  -6   1  142.29   12.00
  -1  -6   1  148.09   12.00
   0   6  -1   73.89    9.50
   0   6  -1   72.59   10.60
   0   6  -1   71.99   11.30
   0  -6   1   79.69   11.60
   0  -6   1   78.49   13.10
  -1   6  -1  597.34   30.40
  -1   6  -1  658.33   28.20
  -1   6  -1  683.63   27.10
   1  -6   1  662.43   27.00
  -2   6  -1 1143.79   42.10
   2  -6   1 1166.18   39.90
   2  -6   1 1110.19   39.60
  -3   6  -1  777.32   34.30
  -3   6  -1  797.32   34.50
   3  -6   1  809.52   31.50
  -4   6  -1  133.49   14.90
  -4   6  -1  157.28   20.00
  -4   6  -1  151.18   20.30
   4  -6   1  150.28   16.80
  -5   6  -1   -8.20   13.90
  -5   6  -1   30.10   14.90
   5  -6   1   -0.30   10.30
  -6   6  -1   64.89   19.80
  -6   6  -1   55.39   15.40
   6  -6   1   60.09   14.10
  -7   6  -1   77.29   19.60
  -7   6  -1   31.70   17.90
   7  -6   1   65.69   16.50
  11   5  -1  242.48   28.10
  10   5  -1  212.08   19.40
 -10  -5   1  212.18   19.90
   9   5  -1   69.39   12.00
   9   5  -1   96.99   15.80
  -9  -5   1   97.29   14.10
   8   5  -1   32.20    8.80
   8   5  -1   37.90   10.50
   8   5  -1   31.80   12.20
  -8  -5   1   36.30   11.40
  -8  -5   1   30.50    7.10
   7   5  -1   -2.10    5.60
   7   5  -1    3.60    6.70
   7   5  -1    0.40    7.40
  -7  -5   1    1.50    6.80
  -7  -5   1   -4.20    5.20
   6   5  -1   55.19    8.30
   6   5  -1   43.80    7.30
   6   5  -1   37.80   11.80
  -6  -5   1   28.40    6.50
  -6  -5   1   35.60    5.80
   5   5  -1   70.29   11.10
   5   5  -1   75.89    8.10
   5   5  -1   62.89    8.10
   5   5  -1   80.69    8.70
  -5  -5   1   64.59    9.20
   4   5  -1    1.10    3.70
   4   5  -1   13.70    4.10
   4   5  -1    6.00    4.60
   4   5  -1    4.30    4.40
  -4  -5   1   11.70    5.50
   3   5  -1  376.36   15.90
   3   5  -1  374.06   17.00
   3   5  -1  402.06   13.80
   3   5  -1  384.86   16.30
  -3  -5   1  385.46   17.60
  -3  -5   1  386.96   17.10
   2   5  -1 1187.88   37.50
   2   5  -1 1168.68   36.40
   2   5  -1 1198.18   39.40
   2   5  -1 1241.18   34.70
  -2  -5   1 1142.59   37.40
  -2  -5   1 1184.28   38.30
   1   5  -1 8475.65  216.48
   1   5  -1 8180.48  218.78
   1   5  -1 8156.48  213.88
   1   5  -1 8197.98  215.68
  -1  -5   1 8552.04  217.98
  -1  -5   1 8204.08  216.58
   0   5  -1  314.07   18.60
   0   5  -1  308.67   15.70
   0   5  -1  319.97   16.70
   0   5  -1  322.97   15.60
   0  -5   1  321.07   17.20
   0  -5   1  317.67   17.20
  -1   5  -1   22.10    6.70
  -1   5  -1   19.10   16.00
  -1   5  -1   24.20    7.60
   1  -5   1   15.60    7.90
   1  -5   1   10.10    5.40
  -2   5  -1  209.28   14.10
  -2   5  -1  218.08   16.30
   2  -5   1  219.08   13.80
  -3   5  -1  196.78   15.20
  -3   5  -1  220.88   16.70
  -3   5  -1  219.78   17.10
   3  -5   1  234.88   15.30
  -4   5  -1  140.09   17.20
  -4   5  -1  112.29   14.10
  -4   5  -1  111.59   13.20
   4  -5   1  114.59   13.50
  -5   5  -1  100.89   16.10
  -5   5  -1  150.58   21.90
  -5   5  -1  185.58   18.00
   5  -5   1  147.69   14.90
  -6   5  -1   21.20   14.90
  -6   5  -1  -16.00   10.20
   6  -5   1   -9.50    9.60
  -7   5  -1   44.40   16.20
  -7   5  -1   13.50   13.30
   7  -5   1   28.40   11.90
  -8   5  -1   50.49   18.20
   8  -5   1   20.80   16.00
 -11  -4   1  208.68   20.20
  10   4  -1    3.50   11.60
 -10  -4   1   21.00    9.90
   9   4  -1   19.00   10.10
   9   4  -1   40.50    8.20
  -9  -4   1   49.50   10.30
   8   4  -1    8.10    7.90
   8   4  -1    7.70    6.10
   8   4  -1    4.30   11.40
  -8  -4   1    9.10    5.80
  -8  -4   1    3.00   10.30
   7   4  -1    8.70    8.20
   7   4  -1    8.40    7.60
   7   4  -1   10.00    6.00
  -7  -4   1    6.00    6.50
  -7  -4   1   21.00    5.20
   6   4  -1   41.30    6.80
   6   4  -1   43.30    8.00
   6   4  -1   58.99   11.30
   6   4  -1   40.20    7.20
  -6  -4   1   40.60    7.50
  -6  -4   1   52.59    6.30
   5   4  -1  468.55   18.70
   5   4  -1  471.35   20.70
   5   4  -1  469.65   17.70
   5   4  -1  455.05   19.30
  -5  -4   1  450.55   15.80
  -5  -4   1  472.75   19.40
   4   4  -1  188.48   12.70
   4   4  -1  166.48    9.90
   4   4  -1  169.78   10.00
   4   4  -1  181.98   10.10
  -4  -4   1  189.48   10.80
   3   4  -1   17.60    4.40
   3   4  -1   19.40    4.60
   3   4  -1   16.40    4.40
  -3  -4   1   14.70    4.70
   2   4  -1  291.17   12.20
   2   4  -1  277.47   12.90
   2   4  -1  302.97   10.60
   2   4  -1  279.67   12.20
  -2  -4   1  274.87   13.10
  -2  -4   1  282.47   12.80
   1   4  -1 1501.75   44.60
   1   4  -1 1522.35   46.30
   1   4  -1 1558.94   42.90
   1   4  -1 1537.25   44.30
  -1  -4   1 1548.65   45.50
  -1  -4   1 1483.85   45.10
   0   4  -1 1742.03   49.80
   0   4  -1 1763.22   50.79
   0   4  -1 1748.13   50.89
   0   4  -1 1731.93   53.99
   0  -4   1 1785.42   52.89
   0  -4   1 1678.43   51.69
  -1   4  -1  277.97   13.50
  -1   4  -1  253.57   16.90
  -1   4  -1  271.27   13.80
  -1   4  -1  291.17   14.70
   1  -4   1  271.17   15.80
  -2   4  -1   45.40   10.30
  -2   4  -1   40.90    7.90
  -2   4  -1   47.60    7.20
  -2   4  -1   49.60    9.40
   2  -4   1   45.30    8.70
   2  -4   1   39.10    6.60
  -3   4  -1   86.19   10.80
  -3   4  -1   94.09    9.60
  -3   4  -1  107.19   11.20
   3  -4   1   94.69    9.90
   3  -4   1   75.39   12.90
  -4   4  -1    9.90    6.60
  -4   4  -1   16.80    6.10
   4  -4   1   20.30    8.40
  -5   4  -1   -8.70    7.10
  -5   4  -1   -0.20   10.90
   5  -4   1    7.30    8.00
  -6   4  -1   23.40   10.30
  -6   4  -1   38.20   10.40
  -6   4  -1   47.70   14.10
   6  -4   1   40.70   10.20
  -7   4  -1   -9.60   11.90
  -7   4  -1    9.60   11.20
   7  -4   1    3.00    9.50
  -8   4  -1  130.39   23.90
  -8   4  -1  193.78   23.10
   8  -4   1  160.08   20.00
  -9   4  -1  342.37   32.20
 -12  -3   1   45.30   18.00
  11   3  -1   35.80   18.60
 -11  -3   1   88.79   16.90
  10   3  -1   49.10   13.50
   9   3  -1   62.89   11.60
   9   3  -1   60.69   10.10
  -9  -3   1   60.79   12.50
   8   3  -1   13.40    5.30
   8   3  -1   20.20   17.70
   8   3  -1   20.10    9.40
  -8  -3   1   21.70    9.50
  -8  -3   1   11.30    8.40
   7   3  -1   68.19   10.90
   7   3  -1   82.79   14.30
   7   3  -1   76.09    7.50
  -7  -3   1   83.79   11.50
  -7  -3   1   65.69   10.70
   6   3  -1  222.48   10.30
   6   3  -1  203.68   13.10
   6   3  -1  201.08   15.30
  -6  -3   1  199.68   12.20
  -6  -3   1  219.48   13.00
  -6  -3   1  209.98   13.30
   5   3  -1  683.53   24.30
   5   3  -1  704.43   22.30
   5   3  -1  720.33   26.00
  -5  -3   1  687.23   24.60
  -5  -3   1  673.03   24.80
  -5  -3   1  697.93   22.40
   4   3  -1 2724.73   73.79
   4   3  -1 2669.93   72.09
   4   3  -1 2685.83   74.99
  -4  -3   1 2778.22   71.09
  -4  -3   1 2667.63   74.29
   3   3  -1 3570.44   94.99
   3   3  -1 3735.43   95.89
   3   3  -1 3496.25   96.79
   3   3  -1 3679.93   96.89
  -3  -3   1 3658.43   96.69
   2   3  -1   11.40    2.90
   2   3  -1    4.60    2.50
   2   3  -1   12.80    3.00
  -2  -3   1   11.50    3.10
  -2  -3   1   10.40    3.20
   1   3  -1   12.10    2.70
   1   3  -1   11.60    3.70
   1   3  -1    9.30    2.80
   1   3  -1    7.00    2.70
  -1  -3   1   13.00    2.70
  -1  -3   1    6.20    2.70
   0   3  -1   13.30    3.60
   0   3  -1    6.80    3.10
   0   3  -1   11.40    3.50
   0   3  -1    9.30    3.50
   0  -3   1   11.60    3.20
   0  -3   1    6.30    3.20
  -1   3  -1   -1.20    4.60
  -1   3  -1    5.00    2.60
  -1   3  -1   -1.10    4.00
  -1   3  -1    0.40    3.80
   1  -3   1   -1.60    3.20
  -2   3  -1   97.19    8.80
  -2   3  -1  100.09    8.60
  -2   3  -1  102.19    8.00
  -2   3  -1  119.09   11.60
   2  -3   1   85.99    8.80
   2  -3   1  105.09    8.80
  -3   3  -1    4.60    4.60
  -3   3  -1    1.50    5.20
  -3   3  -1    2.80    4.00
  -3   3  -1    7.80    5.20
   3  -3   1    5.20    4.50
   3  -3   1    5.70    4.90
  -4   3  -1  378.06   20.50
  -4   3  -1  356.66   19.00
  -4   3  -1  374.96   18.30
   4  -3   1  390.76   18.70
   4  -3   1  409.76   22.70
  -5   3  -1  941.31   34.10
  -5   3  -1  851.51   38.80
  -5   3  -1  897.21   35.60
   5  -3   1  950.90   33.90
  -6   3  -1 1880.81   63.79
  -6   3  -1 1837.22   60.19
  -6   3  -1 1942.41   62.39
   6  -3   1 1880.81   59.79
  -7   3  -1  321.97   21.30
  -7   3  -1  326.97   25.30
  -7   3  -1  316.27   22.80
   7  -3   1  311.57   20.20
  -8   3  -1   23.40   11.60
  -8   3  -1   -8.40   13.10
   8  -3   1   14.80   12.10
  -9   3  -1   41.30   21.00
   9  -3   1   27.10   14.50
 -10   3  -1   50.99   22.50
 -12  -2   1   25.30   23.60
 -11  -2   1   14.30   17.10
  10   2  -1    0.00   10.90
  10   2  -1    9.50    8.00
 -10  -2   1   -2.40   13.20
   9   2  -1   17.50   10.60
   9   2  -1   28.70    6.60
  -9  -2   1   30.60   12.40
   8   2  -1  193.28   16.90
   8   2  -1  188.88   10.70
  -8  -2   1  167.68   17.10
  -8  -2   1  161.08   22.10
   7   2  -1  328.47   18.20
   7   2  -1  343.37   13.80
   7   2  -1  352.26   19.90
  -7  -2   1  360.96   19.60
  -7  -2   1  333.67   19.20
  -7  -2   1  317.67   19.50
   6   2  -1   77.69    6.10
   6   2  -1   96.49    9.90
   6   2  -1  112.19   12.10
  -6  -2   1   85.49   12.10
  -6  -2   1   89.59   10.30
  -6  -2   1   98.39   11.00
   5   2  -1  648.34   20.30
   5   2  -1  670.83   25.40
   5   2  -1  646.54   23.10
  -5  -2   1  651.73   23.70
  -5  -2   1  648.34   24.10
  -5  -2   1  631.64   22.90
   4   2  -1  359.56   14.30
   4   2  -1  358.36   11.90
   4   2  -1  351.96   15.40
  -4  -2   1  326.87   13.90
  -4  -2   1  338.97   13.50
  -4  -2   1  344.77   14.00
   3   2  -1    3.90    2.20
   3   2  -1    3.30    2.20
   3   2  -1    2.10    2.60
  -3  -2   1    0.00    1.80
  -3  -2   1    6.10    2.70
  -3  -2   1    4.00    2.50
   2   2  -1  350.96   12.10
   2   2  -1  354.56   11.70
   2   2  -1  339.07   12.20
   2   2  -1  360.86   12.80
  -2  -2   1  361.76   12.70
   1   2  -1  164.08    7.10
   1   2  -1  165.58    6.90
   1   2  -1  164.28    7.10
  -1  -2   1  167.08    7.20
  -1  -2   1  170.38    7.50
   0   2  -1 2536.45   66.99
   0   2  -1 2586.64   65.59
   0   2  -1 2538.75   67.69
   0   2  -1 2608.14   66.39
   0  -2   1 2219.08   66.99
   0  -2   1 2511.05   67.09
  -1   2  -1 1161.08   35.10
  -1   2  -1 1249.68   34.40
  -1   2  -1 1150.98   35.80
  -1   2  -1 1226.68   34.30
  -1   2  -1 1172.78   34.00
   1  -2   1 1111.49   35.20
  -2   2  -1 1408.16   41.00
  -2   2  -1 1350.26   40.30
  -2   2  -1 1367.16   40.50
  -2   2  -1 1335.07   41.30
   2  -2   1 1411.66   41.50
   2  -2   1 1398.46   40.10
  -3   2  -1  521.75   20.30
  -3   2  -1  549.05   20.50
  -3   2  -1  523.95   20.60
   3  -2   1  528.05   19.70
   3  -2   1  534.15   21.20
  -4   2  -1    7.20    6.30
  -4   2  -1    0.50    4.10
  -4   2  -1    3.30    4.60
  -4   2  -1    1.50    6.20
   4  -2   1    4.00    5.60
   4  -2   1    2.70    4.30
  -5   2  -1  247.28   15.90
  -5   2  -1  260.97   16.70
  -5   2  -1  252.17   16.40
   5  -2   1  246.68   15.10
  -6   2  -1  990.60   37.40
  -6   2  -1 1018.00   39.70
   6  -2   1 1010.30   36.90
  -7   2  -1  564.64   28.00
  -7   2  -1  531.05   25.10
  -7   2  -1  537.85   28.80
   7  -2   1  539.15   25.80
  -8   2  -1  172.88   20.70
  -8   2  -1  128.39   17.10
   8  -2   1  182.38   18.50
  -9   2  -1   32.30   12.90
  -9   2  -1   19.50   18.90
   9  -2   1    7.70   13.00
 -10   2  -1  -14.90   16.20
 -11   2  -1  -36.20   27.80
 -11  -1   1   -2.10   19.10
  10   1  -1    5.10   13.30
 -10  -1   1    3.20   14.80
   9   1  -1   36.00   12.00
  -9  -1   1   32.10   14.90
   8   1  -1  128.49   15.10
  -8  -1   1  162.48   15.10
  -8  -1   1  118.69   19.30
   7   1  -1   21.00    7.60
   7   1  -1   21.10    7.00
  -7  -1   1   28.00    6.80
  -7  -1   1   29.00   10.10
  -7  -1   1   27.00    6.40
   6   1  -1  252.07   15.30
   6   1  -1  267.17   14.90
  -6  -1   1  262.77   17.30
  -6  -1   1  277.97   15.20
  -6  -1   1  257.27   15.90
  -6  -1   1  270.47   12.90
   5   1  -1  449.56   19.40
   5   1  -1  428.26   17.70
  -5  -1   1  469.55   19.90
  -5  -1   1  427.96   18.30
  -5  -1   1  441.66   18.20
  -5  -1   1  426.46   15.60
   4   1  -1    9.30    4.00
   4   1  -1    7.10    3.40
  -4  -1   1   10.00    3.10
  -4  -1   1   14.20    3.90
  -4  -1   1    9.20    3.50
  -4  -1   1    9.20    3.80
   3   1  -1   14.10    3.00
   3   1  -1   11.40    3.30
  -3  -1   1   11.00    2.80
  -3  -1   1   16.40    3.40
  -3  -1   1   17.20    3.00
   2   1  -1  171.18    7.70
   2   1  -1  188.98    7.40
  -2  -1   1  181.88    7.30
  -2  -1   1  169.08    7.40
   1   1  -1  434.56   13.60
   1   1  -1  475.75   13.60
  -1  -1   1  479.35   13.80
  -1  -1   1  441.26   13.40
   0   1  -1    4.80    1.30
   0  -1   1    4.10    1.50
   0  -1   1    3.60    1.00
  -1   1  -1  808.02   22.70
  -1   1  -1  768.22   22.90
  -1   1  -1  799.72   22.60
  -1   1  -1  766.72   22.70
   1  -1   1  784.32   22.70
   1  -1   1  712.63   24.40
  -2   1  -1 2143.59   58.39
  -2   1  -1 2075.39   58.19
  -2   1  -1 2067.99   58.49
  -2   1  -1 2284.47   59.29
   2  -1   1 2186.08   58.29
   2  -1   1 2169.08   58.69
  -3   1  -1 4061.59  106.09
  -3   1  -1 3998.30  106.89
  -3   1  -1 4183.98  107.59
  -3   1  -1 3817.12  105.79
   3  -1   1 4061.09  106.69
   3  -1   1 3882.61  105.59
  -4   1  -1 3437.76   95.69
  -4   1  -1 3538.45   95.79
  -4   1  -1 3519.95   97.39
  -4   1  -1 3678.53   98.09
   4  -1   1 3568.64   96.89
   4  -1   1 3477.75   95.79
  -5   1  -1   28.20    6.70
  -5   1  -1   19.70    5.20
  -5   1  -1   29.40    6.40
   5  -1   1   22.00    6.10
   5  -1   1   24.10    5.40
  -6   1  -1   12.60    6.00
  -6   1  -1    3.60    7.00
  -6   1  -1   10.10    8.60
   6  -1   1    2.60    6.30
  -7   1  -1   13.70    7.90
  -7   1  -1   24.70    8.30
  -7   1  -1   17.40   10.50
   7  -1   1   15.00    8.10
  -8   1  -1    1.10    9.00
  -8   1  -1    5.40   12.90
   8  -1   1    3.10    8.80
  -9   1  -1    0.90   11.80
  -9   1  -1   16.20   16.80
   9  -1   1  -11.10   10.00
 -10   1  -1  -15.50   14.60
 -10   1  -1    8.00   19.20
  10  -1   1    4.10   15.70
 -11   1  -1    6.50   20.90
 -11   0   1   19.50   24.70
  10   0  -1  -21.60   13.40
 -10   0   1   -2.10   18.70
   9   0  -1  227.08   18.60
  -9   0   1  177.68   24.40
  -9   0   1  185.68   19.30
   8   0  -1  634.44   29.30
  -8   0   1  668.03   29.10
  -8   0   1  603.64   26.00
  -8   0   1  609.94   31.80
   7   0  -1  971.60   35.80
  -7   0   1  957.50   34.20
  -7   0   1  986.50   33.10
  -7   0   1 1005.60   38.70
   6   0  -1  715.93   29.00
  -6   0   1  744.43   25.20
  -6   0   1  719.63   31.80
  -6   0   1  752.22   26.60
  -6   0   1  743.03   29.50
   5   0  -1   10.10    4.30
   5   0  -1    9.20    5.40
  -5   0   1   11.20    4.90
  -5   0   1   17.70    4.30
  -5   0   1    7.60    6.60
  -5   0   1   16.40    3.90
   4   0  -1   27.60    5.00
   4   0  -1   23.60    4.50
  -4   0   1   28.60    3.90
  -4   0   1   21.40    5.70
  -4   0   1   28.60    4.80
  -4   0   1   27.60    5.00
   3   0  -1    9.60    2.70
   3   0  -1    6.00    2.50
  -3   0   1   11.40    3.20
  -3   0   1   11.70    4.20
  -3   0   1   11.70    2.30
  -3   0   1   13.90    3.50
   2   0  -1   31.80    3.20
   2   0  -1   24.90    3.60
  -2   0   1   29.40    3.50
  -2   0   1   29.90    4.70
  -2   0   1   27.90    4.30
  -1   0   1 4611.64  117.69
  -1   0   1 4681.13  118.69
  -1   0  -1  236.18    7.60
  -1   0  -1  224.58    8.40
   1   0   1  254.37    9.20
  -2   0  -1  268.07    9.40
  -2   0  -1  269.97    9.90
  -2   0  -1  245.98    9.30
  -2   0  -1  272.67   10.10
   2   0   1  246.48    9.50
   2   0   1  256.47    9.40
  -3   0  -1    4.00    3.30
  -3   0  -1    4.90    2.30
  -3   0  -1    3.60    2.10
  -3   0  -1    5.50    3.10
   3   0   1    3.60    2.40
   3   0   1    2.30    2.70
  -4   0  -1    6.50    4.20
  -4   0  -1   -2.10    2.60
  -4   0  -1    1.40    2.60
  -4   0  -1   12.90    5.30
   4   0   1    0.20    3.30
   4   0   1   -0.40    2.90
  -5   0  -1   97.09    9.80
  -5   0  -1   76.89    7.40
  -5   0  -1   99.89   10.80
  -5   0  -1  101.69    8.10
   5   0   1   87.09    8.70
   5   0   1  107.39    8.90
  -6   0  -1   13.10    7.30
  -6   0  -1    8.30    5.30
  -6   0  -1    4.90    4.50
   6   0   1    8.00    5.80
   6   0   1    7.30    5.70
  -7   0  -1  429.66   20.60
  -7   0  -1  396.36   23.80
  -7   0  -1  421.66   21.50
   7   0   1  429.16   21.30
  -8   0  -1   73.49   12.90
  -8   0  -1   73.89   11.80
  -8   0  -1   78.59   16.00
   8   0   1   63.19   11.90
  -9   0  -1  225.98   20.70
  -9   0  -1  269.27   27.60
   9   0   1  256.57   21.30
 -10   0  -1   88.99   21.80
 -10   0  -1   64.59   15.50
  10   0   1   70.89   15.40
 -11   0  -1   22.80   27.00
  10  -1  -1  162.28   22.70
 -10   1   1  211.28   30.20
 -10   1   1  187.38   24.90
   9  -1  -1    5.30   10.10
  -9   1   1   15.90   12.50
  -9   1   1    7.30   13.60
   8  -1  -1   82.79   13.00
  -8   1   1   58.39   13.30
  -8   1   1   67.69   11.80
  -8   1   1   74.69   15.90
   7  -1  -1   26.20    8.30
  -7   1   1   51.29   10.50
  -7   1   1   42.80    9.00
  -7   1   1   65.59   10.50
   6  -1  -1   16.00    6.80
   6  -1  -1    9.10    6.50
  -6   1   1   23.30    5.90
  -6   1   1   11.10    5.90
   5  -1  -1   63.19    9.60
   5  -1  -1   77.99    8.60
  -5   1   1   66.09   11.80
  -5   1   1   85.99    8.80
  -5   1   1   78.69    9.20
  -5   1   1   63.39    7.90
   4  -1  -1  144.49    9.10
   4  -1  -1  151.68   10.60
  -4   1   1  133.19    8.90
  -4   1   1  131.39   10.10
  -4   1   1  138.59   11.50
  -4   1   1  145.29    8.90
   3  -1  -1  131.69    7.40
   3  -1  -1  108.19    7.80
  -3   1   1  111.59    7.50
  -3   1   1  113.89    6.90
  -3   1   1  122.49    9.60
  -3   1   1  120.29    9.50
   2  -1  -1    6.60    2.50
   2  -1  -1    8.20    2.60
  -2   1   1    3.60    2.40
  -2   1   1    4.60    1.90
  -2   1   1    8.10    3.30
  -2   1   1    7.40    2.50
   1  -1  -1   23.20    2.90
   1  -1  -1   23.80    3.50
   1  -1  -1   23.70    2.30
  -1   1   1   26.90    3.60
  -1   1   1   24.60    2.20
  -1   1   1   17.20    3.00
   0   1   1  703.43   20.90
   1   1   1  456.25   13.70
   1   1   1  492.35   13.20
  -2  -1  -1   65.19    4.30
  -2  -1  -1   74.49    4.50
  -2  -1  -1   72.39    4.10
  -2  -1  -1   66.19    3.70
   2   1   1   69.09    3.90
   2   1   1   68.69    4.00
  -3  -1  -1  250.07    9.70
  -3  -1  -1  261.67   10.50
  -3  -1  -1  259.57   10.90
  -3  -1  -1  249.97   10.20
   3   1   1  260.37   10.80
   3   1   1  269.27   10.20
  -4  -1  -1   12.80    4.90
  -4  -1  -1    7.00    3.00
  -4  -1  -1    6.90    3.00
  -4  -1  -1    9.40    3.30
   4   1   1    8.00    3.70
   4   1   1   11.20    3.80
  -5  -1  -1  110.29   10.50
  -5  -1  -1   98.99    7.90
  -5  -1  -1  102.99    7.60
  -5  -1  -1  109.59    9.60
   5   1   1  106.39    9.60
   5   1   1   99.29    8.30
  -6  -1  -1  151.08   15.10
  -6  -1  -1  142.69   10.70
  -6  -1  -1  149.99   11.00
   6   1   1  135.99   11.80
   6   1   1  161.08   13.40
  -7  -1  -1   -9.10    5.10
  -7  -1  -1    2.10    7.00
   7   1   1   11.10    6.90
  -8  -1  -1  108.99   17.00
  -8  -1  -1   94.19   12.50
   8   1   1  116.19   14.60
  -9  -1  -1  815.82   39.20
  -9  -1  -1  829.72   33.30
   9   1   1  798.12   34.40
 -10  -1  -1  592.64   37.00
  10   1   1  599.14   31.50
 -11  -1  -1  507.75   40.10
 -10   2   1  154.98   22.10
   9  -2  -1  231.18   22.80
  -9   2   1  284.67   24.20
  -9   2   1  230.68   26.40
   8  -2  -1   26.50   10.60
  -8   2   1   47.00   10.70
  -8   2   1   36.40   12.00
   7  -2  -1   40.10   10.40
  -7   2   1   22.30    9.90
  -7   2   1   27.80   10.40
   6  -2  -1    3.10    7.20
  -6   2   1   10.80    7.50
  -6   2   1    7.00    6.70
  -6   2   1    2.80    7.80
   5  -2  -1   98.69   10.30
   5  -2  -1   91.49   13.80
  -5   2   1   80.49   12.50
  -5   2   1   86.39   13.50
  -5   2   1   91.19   11.10
  -5   2   1   97.89   10.70
   4  -2  -1   35.70    5.80
   4  -2  -1   35.40    7.20
  -4   2   1   35.60    6.00
  -4   2   1   26.80    7.10
  -4   2   1   36.00    7.60
   3  -2  -1 1521.35   46.00
   3  -2  -1 1495.05   42.40
  -3   2   1 1380.56   42.50
  -3   2   1 1434.36   45.60
  -3   2   1 1440.36   42.80
  -3   2   1 1462.05   45.20
   2  -2  -1  624.54   19.90
   2  -2  -1  655.63   23.40
  -2   2   1  628.84   20.80
  -2   2   1  629.84   20.20
  -2   2   1  634.24   23.20
  -2   2   1  635.74   22.80
   1  -2  -1 2820.42   75.79
   1  -2  -1 2964.70   75.89
   1  -2  -1 2907.61   79.69
  -1   2   1 2991.10   78.59
  -1   2   1 2886.91   77.09
  -1   2   1 2920.81   80.09
  -1   2   1 2890.61   76.19
   0  -2  -1 3829.62  114.79
   0  -2  -1 4352.96  118.69
   0  -2  -1 4402.86  115.09
   0   2   1 4957.60  116.69
   0   2   1 4952.70  117.39
   0   2   1 4510.45  119.19
  -1  -2  -1  948.61   25.50
  -1  -2  -1  926.61   27.10
   1   2   1  954.60   26.60
   1   2   1  915.61   25.40
   1   2   1  954.20   26.70
   1   2   1  922.81   27.20
  -2  -2  -1  308.77   10.70
  -2  -2  -1  303.97   11.40
  -2  -2  -1  321.97   10.80
   2   2   1  320.07   10.90
   2   2   1  326.67   11.70
   2   2   1  326.37   10.30
  -3  -2  -1    6.50    2.50
  -3  -2  -1    4.10    2.20
   3   2   1    5.20    1.90
   3   2   1    8.40    2.50
   3   2   1    5.90    1.80
  -4  -2  -1   48.20    6.00
  -4  -2  -1   34.70    4.60
  -4  -2  -1   34.40    5.70
   4   2   1   39.40    3.90
   4   2   1   37.50    4.70
   4   2   1   46.10    5.50
  -5  -2  -1  144.59    8.90
  -5  -2  -1  147.99   10.50
  -5  -2  -1  149.69   10.30
   5   2   1  134.69   10.80
   5   2   1  142.89    9.20
  -6  -2  -1 1582.04   49.70
  -6  -2  -1 1643.14   48.90
  -6  -2  -1 1538.95   49.20
   6   2   1 1620.54   48.70
   6   2   1 1593.54   49.99
  -7  -2  -1 1022.70   38.20
  -7  -2  -1 1090.99   37.30
   7   2   1 1066.79   36.80
  -8  -2  -1    9.30   10.00
  -8  -2  -1    6.20    7.60
   8   2   1   15.40    8.20
  -9  -2  -1   33.40   11.60
   9   2   1   33.30    9.60
 -10  -2  -1   39.00   14.90
  10   2   1   44.40    8.00
  10   2   1    9.00   12.80
 -11  -2  -1   54.59   17.10
  11   2   1   29.90   18.10
  11   2   1   63.19   10.40
 -10   3   1  -13.60   24.50
   9  -3  -1    3.70   14.00
  -9   3   1   12.60   17.20
   8  -3  -1   28.00   11.00
  -8   3   1   15.90   14.90
   7  -3  -1   28.30    8.90
  -7   3   1   45.90   11.70
  -7   3   1   29.30   11.50
  -7   3   1   35.20   12.30
   6  -3  -1   24.30    8.50
  -6   3   1   24.80    9.50
  -6   3   1   32.40   10.90
  -6   3   1   20.40    8.90
   5  -3  -1  546.35   37.80
  -5   3   1  545.25   26.90
  -5   3   1  554.24   23.90
  -5   3   1  526.25   25.50
   4  -3  -1  973.80   36.50
   4  -3  -1  928.81   31.30
  -4   3   1  888.71   36.60
  -4   3   1  949.80   31.80
  -4   3   1  921.81   33.00
  -4   3   1  904.81   35.70
   3  -3  -1 1488.55   47.70
   3  -3  -1 1452.45   43.00
  -3   3   1 1488.65   45.00
  -3   3   1 1428.16   43.20
  -3   3   1 1467.05   47.20
  -3   3   1 1387.56   47.50
   2  -3  -1   40.40    5.90
   2  -3  -1   39.30    6.60
  -2   3   1   49.60    6.10
  -2   3   1   42.10    5.30
  -2   3   1   43.80    8.00
  -2   3   1   37.50    7.50
   1  -3  -1   -2.60    3.30
   1  -3  -1   -1.60    2.40
  -1   3   1   -3.80    4.60
  -1   3   1    4.70    3.50
  -1   3   1   -0.80    2.50
  -1   3   1    2.20    3.70
   0  -3  -1 2024.10   55.09
   0  -3  -1 1928.01   59.19
   0   3   1 2062.09   56.49
   0   3   1 2060.59   54.29
   0   3   1 2202.98   57.59
   0   3   1 1941.81   59.59
  -1  -3  -1 2050.69   59.99
  -1  -3  -1 2103.09   56.99
   1   3   1 2061.99   59.99
   1   3   1 2240.68   58.99
   1   3   1 2218.18   56.79
   1   3   1 2226.68   58.99
  -2  -3  -1   25.50    4.20
  -2  -3  -1   21.80    3.70
   2   3   1   17.70    3.30
   2   3   1   22.90    3.20
   2   3   1   28.70    4.20
   2   3   1   19.20    3.60
  -3  -3  -1  463.95   15.60
  -3  -3  -1  446.56   16.10
   3   3   1  489.45   15.60
   3   3   1  493.05   17.60
   3   3   1  486.05   16.50
  -4  -3  -1    0.60    2.60
  -4  -3  -1    0.50    2.90
   4   3   1    0.30    3.30
   4   3   1   -1.60    2.60
   4   3   1    3.40    2.40
  -5  -3  -1   47.30    5.70
  -5  -3  -1   64.99    8.70
   5   3   1   47.80    6.70
   5   3   1   43.10    5.00
   5   3   1   46.70    6.40
  -6  -3  -1  178.38   12.20
  -6  -3  -1  199.18   13.60
  -6  -3  -1  173.98   12.00
   6   3   1  171.18    9.90
   6   3   1  192.78   12.60
   6   3   1  189.18   14.10
  -7  -3  -1  737.43   29.30
  -7  -3  -1  728.73   28.40
   7   3   1  747.83   28.30
   7   3   1  752.42   26.00
   7   3   1  760.72   31.60
  -8  -3  -1  365.16   20.10
   8   3   1  335.97   16.30
   8   3   1  326.87   19.30
  -9  -3  -1   20.10    9.70
   9   3   1    3.00    9.00
   9   3   1    5.00    6.00
 -10  -3  -1   77.99   14.40
  10   3   1   54.59    9.00
  10   3   1   66.89   14.70
 -11  -3  -1   26.50   14.10
  11   3   1   19.00   14.20
  11   3   1   16.70    9.50
 -12  -3  -1   58.29   18.00
  -9   4   1    8.00   18.30
   8  -4  -1  117.29   19.10
  -8   4   1  103.39   18.50
   7  -4  -1  339.47   21.20
  -7   4   1  324.57   25.30
  -7   4   1  313.67   25.90
   6  -4  -1   11.90    9.10
  -6   4   1    9.20    8.80
  -6   4   1   28.10   10.50
  -6   4   1   15.90   13.00
   5  -4  -1  229.88   16.20
  -5   4   1  211.58   20.50
  -5   4   1  250.27   21.40
  -5   4   1  248.68   17.30
   4  -4  -1  733.43   27.30
   4  -4  -1  784.92   34.70
  -4   4   1  712.83   32.20
  -4   4   1  720.23   29.90
  -4   4   1  731.93   28.00
   3  -4  -1  799.02   27.60
  -3   4   1  825.92   33.50
  -3   4   1  795.62   34.80
  -3   4   1  819.12   30.40
  -3   4   1  832.62   28.80
   2  -4  -1 1202.18   42.10
   2  -4  -1 1236.48   37.00
  -2   4   1 1199.18   38.20
  -2   4   1 1232.88   39.60
  -2   4   1 1203.68   41.10
  -2   4   1 1241.88   44.70
   1  -4  -1  535.45   23.50
   1  -4  -1  562.64   19.10
  -1   4   1  565.44   22.30
  -1   4   1  553.64   26.30
  -1   4   1  548.25   21.50
   0  -4  -1   52.59    8.20
   0  -4  -1   61.59    6.50
   0   4   1   58.29    7.80
   0   4   1   59.49    6.50
   0   4   1   57.09    5.50
   0   4   1   66.29    8.80
  -1  -4  -1   20.40    4.60
  -1  -4  -1   20.90    3.60
   1   4   1   23.90    5.30
   1   4   1   22.30    3.90
   1   4   1   23.10    4.70
   1   4   1   17.90    3.90
  -2  -4  -1   51.69    5.90
  -2  -4  -1   35.50    4.70
   2   4   1   34.90    5.00
   2   4   1   33.10    4.20
   2   4   1   46.20    6.30
   2   4   1   45.10    6.60
  -3  -4  -1   51.49    6.20
  -3  -4  -1   47.50    6.10
   3   4   1   52.19    5.20
   3   4   1   43.40    6.40
   3   4   1   47.10    4.90
   3   4   1   43.80    5.60
  -4  -4  -1 2094.69   58.59
  -4  -4  -1 2175.38   60.39
   4   4   1 2167.58   60.19
   4   4   1 2191.68   61.49
   4   4   1 2171.78   58.99
   4   4   1 2102.69   61.59
  -5  -4  -1   28.30    5.10
  -5  -4  -1   25.60    5.00
   5   4   1   32.50    5.40
   5   4   1   22.70    4.30
   5   4   1   25.50    5.00
  -6  -4  -1  912.21   31.80
  -6  -4  -1  916.81   30.00
   6   4   1  932.01   30.10
   6   4   1  925.51   34.00
   6   4   1  907.21   31.00
   6   4   1  927.01   32.50
  -7  -4  -1  927.21   34.00
  -7  -4  -1  969.90   32.20
   7   4   1  948.41   31.60
   7   4   1  951.50   35.90
   7   4   1  919.61   33.40
  -8  -4  -1  157.48   12.80
  -8  -4  -1  161.38   15.80
   8   4   1  124.99   11.10
   8   4   1  119.49   12.90
  -9  -4  -1   94.89   12.50
   9   4   1   65.59   11.80
   9   4   1   65.79   10.30
  10   4   1   20.90   11.20
  10   4   1   15.70    8.20
  11   4   1   20.80   14.10
  11   4   1   11.40    9.60
 -12  -4  -1  279.77   27.10
  -9   5   1   31.60   24.00
   8  -5  -1  137.79   22.30
  -8   5   1  124.49   22.30
   7  -5  -1  289.17   22.50
  -7   5   1  211.18   25.80
  -7   5   1  306.97   28.50
   6  -5  -1  794.52   33.00
  -6   5   1  745.33   38.30
  -6   5   1  914.81   37.30
  -6   5   1  865.31   41.10
   5  -5  -1  139.09   14.90
  -5   5   1   99.09   18.40
  -5   5   1  138.79   15.00
  -5   5   1  120.09   21.40
   4  -5  -1   -4.20    7.20
  -4   5   1    6.70    6.20
  -4   5   1  -13.40   10.30
  -4   5   1   -9.00    9.60
   3  -5  -1    1.10    8.60
   3  -5  -1    1.00    5.50
  -3   5   1    4.00    7.00
  -3   5   1    4.50    8.90
  -3   5   1    3.90    5.70
   2  -5  -1  100.99    9.50
   2  -5  -1  107.09   13.40
  -2   5   1  120.79   14.30
  -2   5   1  120.39   11.90
  -2   5   1   96.49   16.70
  -2   5   1  110.09   12.10
   1  -5  -1  307.77   19.40
   1  -5  -1  281.37   14.40
   1  -5  -1  298.77   13.80
  -1   5   1  333.37   17.40
  -1   5   1  297.17   16.30
  -1   5   1  295.87   20.70
   0  -5  -1   96.69   13.30
   0  -5  -1  109.09    9.20
   0   5   1  102.59   11.10
   0   5   1  117.49   10.90
   0   5   1  112.89    8.80
   0   5   1  116.89    8.20
  -1  -5  -1  237.28   14.90
  -1  -5  -1  206.98   12.80
   1   5   1  220.18   10.90
   1   5   1  217.38   12.80
   1   5   1  222.48   12.40
   1   5   1  238.78   15.70
  -2  -5  -1  622.04   21.60
  -2  -5  -1  612.44   24.00
   2   5   1  634.84   23.20
   2   5   1  630.84   23.00
   2   5   1  665.63   25.60
   2   5   1  634.54   20.90
  -3  -5  -1  943.71   32.50
  -3  -5  -1  985.00   30.70
   3   5   1  956.80   30.30
   3   5   1  920.11   28.60
   3   5   1  989.90   33.00
   3   5   1  950.80   31.70
  -4  -5  -1  625.54   22.70
  -4  -5  -1  594.84   23.50
   4   5   1  625.64   21.00
   4   5   1  620.14   20.90
   4   5   1  614.54   22.80
   4   5   1  615.44   23.80
  -5  -5  -1   16.20    4.80
   5   5   1    8.30    5.90
   5   5   1   23.90    6.10
   5   5   1   17.50    4.60
  -6  -5  -1   51.79    8.50
  -6  -5  -1   61.99    8.80
   6   5   1   70.89    9.50
   6   5   1   53.19    9.70
   6   5   1   71.19   10.60
  -7  -5  -1  487.85   22.10
  -7  -5  -1  460.35   19.80
   7   5   1  460.85   21.00
   7   5   1  452.85   20.40
   7   5   1  449.26   22.50
   7   5   1  439.76   25.50
  -8  -5  -1    5.00    9.20
  -8  -5  -1    2.50    6.30
   8   5   1   17.50    7.10
   8   5   1    5.50    8.50
   8   5   1   -0.40   10.90
  -9  -5  -1   29.60   11.50
   9   5   1   30.90    8.40
   9   5   1   16.50    9.50
 -10  -5  -1   31.20   11.00
  10   5   1   24.00   11.90
  10   5   1   33.00    9.70
 -11  -5  -1   15.80   12.40
  11   5   1    5.00   10.80
  11   5   1   -6.90   14.60
 -12  -5  -1   17.50   16.10
  12   5   1   -4.70   22.40
  -8   6   1   -6.40   23.20
   7  -6  -1   11.60   12.40
  -7   6   1  -19.40   15.10
  -7   6   1   23.00   19.40
   6  -6  -1   26.10   10.20
  -6   6   1    0.70   17.40
  -6   6   1   -4.20   13.40
   5  -6  -1   12.60    9.60
  -5   6   1   28.80   10.90
  -5   6   1  -14.70   10.80
  -5   6   1    1.80   15.00
   4  -6  -1   14.60    8.80
  -4   6   1   12.30   12.30
  -4   6   1   32.70   10.00
  -4   6   1    3.70   10.20
   3  -6  -1   27.30   12.70
  -3   6   1   32.30   13.60
  -3   6   1   25.90    9.60
   2  -6  -1   90.99   10.60
  -2   6   1  109.69   16.50
  -2   6   1   90.79   13.30
   1  -6  -1  357.46   16.70
   1  -6  -1  346.17   17.80
   1  -6  -1  395.66   24.70
  -1   6   1  382.86   21.50
  -1   6   1  374.26   21.10
  -1   6   1  443.46   43.90
   0  -6  -1  647.64   24.40
   0  -6  -1  684.13   31.10
   0   6   1  658.13   26.80
   0   6   1  605.64   30.00
   0   6   1  681.13   28.40
   0   6   1  640.24   23.40
  -1  -6  -1   35.40    7.70
  -1  -6  -1   34.50    5.40
   1   6   1   63.09   10.60
   1   6   1   32.80    8.80
   1   6   1   36.60    6.40
   1   6   1   37.90    5.90
  -2  -6  -1   41.70    7.30
  -2  -6  -1   36.60    6.00
   2   6   1   37.80    6.60
   2   6   1   44.40    8.80
   2   6   1   39.10    8.00
   2   6   1   30.00    6.70
  -3  -6  -1 1408.16   46.90
  -3  -6  -1 1363.76   43.50
   3   6   1 1503.05   44.50
   3   6   1 1453.15   45.70
   3   6   1 1440.26   42.30
   3   6   1 1474.65   48.20
  -4  -6  -1 1028.80   34.10
  -4  -6  -1 1031.30   36.50
   4   6   1 1054.99   36.70
   4   6   1 1058.79   33.30
   4   6   1 1014.20   32.20
   4   6   1 1040.30   35.20
  -5  -6  -1  557.04   22.50
   5   6   1  554.64   23.90
   5   6   1  596.04   22.00
   5   6   1  590.94   24.40
   5   6   1  604.94   25.60
   5   6   1  594.44   21.10
  -6  -6  -1  463.25   21.10
   6   6   1  458.15   24.00
   6   6   1  492.05   20.90
   6   6   1  474.35   19.80
   6   6   1  480.45   22.10
  -7  -6  -1   10.00    6.70
  -7  -6  -1    6.30    6.50
   7   6   1   13.30    7.20
   7   6   1   18.30    9.00
   7   6   1   10.40    6.50
   7   6   1   -2.40    8.70
  -8  -6  -1   54.29   12.40
  -8  -6  -1   36.40    9.00
   8   6   1   47.70   10.10
   8   6   1   49.70   21.60
  -9  -6  -1   -9.30    9.30
   9   6   1   15.60    8.50
   9   6   1    2.00   10.10
 -10  -6  -1  108.19   15.80
  10   6   1  152.68   18.80
  10   6   1  130.19   17.60
 -11  -6  -1  368.76   27.90
  11   6   1  436.56   27.90
  11   6   1  467.55   30.00
   7  -7  -1   -3.20   15.90
  -7   7   1  -14.70   24.30
   6  -7  -1  -11.90   11.90
  -6   7   1   -5.00   21.60
   5  -7  -1   74.89   13.70
  -5   7   1   93.49   22.00
  -5   7   1   72.79   17.10
   4  -7  -1  407.06   23.30
  -4   7   1  421.16   28.20
  -4   7   1  473.45   32.60
   3  -7  -1   18.30    7.00
   3  -7  -1   -1.00    8.40
  -3   7   1    5.50   11.50
  -3   7   1    2.60   11.00
   2  -7  -1   43.40    7.80
   2  -7  -1   45.80    9.60
  -2   7   1   34.70   11.00
  -2   7   1   51.39   13.30
   1  -7  -1  761.12   28.30
   1  -7  -1  726.93   29.30
  -1   7   1  799.52   35.10
  -1   7   1  782.92   34.20
   0  -7  -1 1785.32   55.09
   0  -7  -1 1837.92   63.89
   0   7   1 1815.92   60.09
   0   7   1 1790.52   54.19
   0   7   1 1870.91   59.29
  -1  -7  -1 1141.19   37.60
  -1  -7  -1 1185.78   44.70
   1   7   1 1105.59   42.00
   1   7   1 1216.48   57.09
   1   7   1 1193.08   40.40
   1   7   1 1136.99   37.30
  -2  -7  -1  559.24   26.10
  -2  -7  -1  526.85   21.30
   2   7   1  529.05   22.20
   2   7   1  520.25   24.70
   2   7   1  527.85   21.40
  -3  -7  -1    6.30    5.60
  -3  -7  -1   -8.60    5.80
   3   7   1    6.40    8.80
   3   7   1   -5.70    5.40
   3   7   1   -7.60    5.70
   3   7   1   -1.60    5.10
  -4  -7  -1   76.79   11.10
  -4  -7  -1   70.69   12.10
   4   7   1   68.99    9.10
   4   7   1   73.99   14.30
   4   7   1   75.49   11.10
   4   7   1   71.29    9.80
  -5  -7  -1   75.89    9.50
  -5  -7  -1   76.79   12.70
   5   7   1   63.49   10.80
   5   7   1   97.19   10.40
   5   7   1   86.99   10.00
   5   7   1   96.19   13.80
  -6  -7  -1   62.69    9.20
   6   7   1   71.89    8.90
   6   7   1   77.49    9.60
   6   7   1   68.89   12.30
   6   7   1   98.59   10.50
   6   7   1   88.79   13.90
   7   7   1   60.99    9.90
   7   7   1   60.79    7.90
   7   7   1   39.30   11.40
   7   7   1   69.69   12.30
  -8  -7  -1   42.60   20.20
   8   7   1   39.10    9.20
   8   7   1   63.39   11.90
   9   7   1  235.48   21.10
   9   7   1  225.68   19.10
 -10  -7  -1  104.69   20.70
  10   7   1  164.88   17.30
  10   7   1  157.58   20.30
  11   7   1   26.70   13.90
  11   7   1   21.50   15.00
  -6   8   1    6.80   32.20
   5  -8  -1   29.20   13.70
  -5   8   1  -11.50   17.40
  -5   8   1   23.00   22.60
   4  -8  -1   51.69   12.10
  -4   8   1   41.70   18.20
  -4   8   1   48.40   16.00
   3  -8  -1  635.34   28.60
   3  -8  -1  583.84   26.80
  -3   8   1  634.84   35.30
  -3   8   1  541.35   36.70
   2  -8  -1  263.97   17.80
   2  -8  -1  268.57   18.90
  -2   8   1  254.37   24.50
  -2   8   1  197.38   19.50
   1  -8  -1   -4.30    7.20
  -1   8   1   -3.30   10.50
  -1   8   1   -2.30    8.60
   0  -8  -1  149.09   13.20
   0   8   1  162.48   17.90
   0   8   1  135.39   17.20
  -1  -8  -1    3.00    5.60
   1   8   1    9.70    7.10
   1   8   1    8.90    8.00
   1   8   1   14.00   10.50
  -2  -8  -1    6.60    5.50
   2   8   1    8.00    6.90
   2   8   1    3.70    6.10
   2   8   1   20.00   11.90
  -3  -8  -1   76.79   14.70
   3   8   1   47.70    9.10
   3   8   1   69.59   12.30
   3   8   1   57.89    9.40
  -4  -8  -1   16.20    9.80
  -4  -8  -1   22.30    7.50
   4   8   1    1.40    7.90
   4   8   1   16.10    6.40
   4   8   1   14.70    7.40
  -5  -8  -1  244.68   21.50
  -5  -8  -1  235.68   15.60
   5   8   1  259.47   15.80
   5   8   1  258.87   17.30
   5   8   1  278.07   16.90
  -6  -8  -1  268.57   16.30
   6   8   1  270.37   16.70
   6   8   1  262.57   16.50
   6   8   1  254.07   19.00
   6   8   1  249.68   16.20
  -7  -8  -1   16.00    8.00
   7   8   1   16.90    8.70
   7   8   1    4.90    7.10
   7   8   1   16.90    6.60
   7   8   1   -9.40    8.20
   8   8   1   -6.50    9.00
   8   8   1   -0.20    8.20
   8   8   1   -3.20    6.40
   9   8   1   71.59   13.10
   9   8   1  102.19   11.90
   9   8   1  100.59   15.90
  10   8   1  165.38   20.10
  10   8   1  219.38   21.50
  11   8   1  208.98   21.60
  11   8   1  175.28   22.10
   5  -9  -1   12.20   14.20
   4  -9  -1   40.80   13.70
  -4   9   1   67.49   22.70
  -4   9   1   27.20   17.40
   3  -9  -1   87.79   13.40
  -3   9   1   60.89   18.60
  -3   9   1   85.99   19.10
   2  -9  -1  251.47   20.60
   2  -9  -1  221.88   18.50
  -2   9   1  236.08   22.10
  -2   9   1  263.47   29.10
   1  -9  -1  108.79   14.10
   1  -9  -1  109.79   14.80
  -1   9   1   67.79   13.70
  -1   9   1  110.29   19.80
   0  -9  -1   27.80    7.60
   0   9   1   27.00   11.80
   0   9   1   40.70   14.40
  -1  -9  -1  142.59   12.90
   1   9   1  130.29   20.70
  -2  -9  -1  244.38   15.70
   2   9   1  244.08   16.80
   2   9   1  226.38   21.30
  -3  -9  -1  598.14   26.00
   3   9   1  595.94   30.20
   3   9   1  585.94   25.60
   3   9   1  598.44   26.30
  -4  -9  -1   14.20    8.10
   4   9   1   19.30    9.50
   4   9   1   17.30    6.60
   4   9   1   27.40   10.40
  -5  -9  -1   -4.80    7.00
   5   9   1    2.80    8.20
   5   9   1    6.10    8.80
   5   9   1    4.70    7.00
  -6  -9  -1  409.76   23.50
   6   9   1  455.25   22.20
   6   9   1  448.86   22.50
   6   9   1  413.16   22.60
   7   9   1 1495.15   47.70
   7   9   1 1426.66   48.10
   7   9   1 1483.95   51.39
   8   9   1  301.97   19.20
   8   9   1  310.07   20.20
   8   9   1  300.47   20.10
   9   9   1   89.19   15.50
   9   9   1  125.79   15.90
  10   9   1   -1.50   12.60
  10   9   1    0.80   11.20
  11   9   1   13.00   12.90
  11   9   1   32.70   16.80
   4 -10  -1   10.70   14.70
   3 -10  -1   26.50   13.30
  -3  10   1    4.20   21.60
  -3  10   1    1.60   17.10
   2 -10  -1   10.60   11.40
  -2  10   1   50.19   17.30
  -2  10   1   15.40   13.40
   1 -10  -1  241.48   21.00
   1 -10  -1  283.27   19.20
  -1  10   1  246.88   26.80
  -1  10   1  253.57   25.70
   0 -10  -1   22.80    8.80
   0  10   1   27.30   15.30
   0  10   1   17.40   12.60
  -1 -10  -1    0.60    7.60
   1  10   1   -0.70   10.10
   1  10   1   -5.30   12.60
   1  10   1    3.10   11.70
  -2 -10  -1   27.00    8.00
   2  10   1   29.50   11.40
   2  10   1   24.30   10.20
   2  10   1   25.50   13.90
  -3 -10  -1  229.18   18.50
   3  10   1  276.27   25.70
   3  10   1  252.97   19.20
   3  10   1  243.98   17.80
  -4 -10  -1  488.75   26.80
   4  10   1  517.45   23.90
   4  10   1  542.85   28.70
   4  10   1  498.25   29.60
  -5 -10  -1  145.69   17.80
   5  10   1  189.48   14.40
   5  10   1  171.88   20.80
   5  10   1  184.58   17.70
   6  10   1    7.90   10.30
   6  10   1    8.80    9.80
   6  10   1   19.60    8.50
   7  10   1   44.70   10.50
   7  10   1   33.40   11.50
   7  10   1   22.80   10.50
   8  10   1   18.90    9.40
   8  10   1   20.00   10.40
   9  10   1   10.30   11.00
   9  10   1    1.00   11.10
  10  10   1   -2.50   12.40
  10  10   1   -1.30   12.70
  11  10   1   27.90   13.80
   3 -11  -1    6.00   18.10
   2 -11  -1   14.20   13.60
  -2  11   1   18.90   20.00
   1 -11  -1   44.40   13.00
  -1  11   1    6.50   15.40
  -1  11   1   11.60   19.10
   0 -11  -1  296.77   20.90
   0  11   1  292.57   30.90
   1  11   1  136.29   22.90
   1  11   1  182.78   25.40
   2  11   1   24.70   13.40
   2  11   1    2.30   14.60
   2  11   1   13.50   11.50
   3  11   1  128.69   18.20
   3  11   1  108.09   19.70
   3  11   1  143.59   25.10
   4  11   1  314.17   21.90
   4  11   1  287.37   21.80
   4  11   1  351.46   29.80
   5  11   1  385.76   25.50
   5  11   1  432.66   31.70
   6  11   1  166.08   23.60
   6  11   1  168.38   15.30
   6  11   1  188.18   20.20
   7  11   1    6.70   13.10
   7  11   1   17.70   11.80
   8  11   1  150.68   20.70
   8  11   1  148.99   20.80
   9  11   1  187.48   21.00
   9  11   1  219.18   22.90
  10  11   1   64.19   15.60
  10  11   1   69.89   17.20
  11  11   1   -5.40   16.40
   2 -12  -1   13.70   15.60
   1 -12  -1    5.40   14.90
   0 -12  -1   32.00   13.20
   0  12   1    5.40   19.90
   1  12   1   59.79   19.20
   1  12   1   37.60   18.70
   2  12   1   75.59   15.70
   2  12   1   92.39   22.30
   2  12   1  130.79   24.80
   3  12   1   -3.40   14.50
   3  12   1   29.40   12.90
   3  12   1   13.00   19.80
   4  12   1  100.99   23.10
   4  12   1  122.99   18.40
   4  12   1   64.09   16.10
   5  12   1   63.29   13.60
   5  12   1   63.89   19.80
   5  12   1   46.30   13.60
   6  12   1  159.48   22.60
   7  12   1   23.00   14.60
   7  12   1   35.30   17.80
   8  12   1   39.60   16.20
   8  12   1   29.60   16.60
   9  12   1   16.00   17.00
   9  12   1   20.00   16.60
  10  12   1  113.59   22.10
   0 -13  -1  -26.90   17.20
  -1 -13  -1    0.60   14.70
   1  13   1   18.80   21.90
   2  13   1    5.30   19.40
   3  13   1   26.00   16.00
   3  13   1   26.00   17.80
   4  13   1    3.10   17.30
   5  13   1   82.59   16.90
   6  13   1  213.38   27.20
   6  13   1  201.28   48.40
   7  13   1  122.39   22.10
   8  13   1   83.69   22.40
   2  14   1   68.69   37.80
   7  14   1   92.49   25.30
   5  13  -2    2.70   27.90
   4  13  -2   12.80   19.50
   3  13  -2   20.70   22.40
   0  13  -2   -7.90   30.20
   9  12  -2   18.60   20.50
   8  12  -2   18.70   18.10
   7  12  -2   38.70   16.40
   7  12  -2    7.80   19.10
   6  12  -2  135.19   22.20
   6  12  -2   86.69   19.20
   5  12  -2  185.08   25.80
   5  12  -2  130.59   20.60
   4  12  -2   54.39   17.90
   4  12  -2   55.19   17.30
   3  12  -2   -7.70   13.30
   3  12  -2   14.90   14.90
   2  12  -2   18.40   17.90
   2  12  -2  -20.00   14.00
   1  12  -2  -13.80   17.10
   1  12  -2  -12.60   13.20
   0  12  -2  116.79   17.20
  -1  12  -2   19.30   17.20
   9  11  -2  197.58   27.80
   8  11  -2  228.58   27.40
   8  11  -2  196.98   23.20
   7  11  -2   -7.60   15.20
   7  11  -2   14.20   15.80
   6  11  -2   53.09   16.20
   6  11  -2   57.09   16.20
   5  11  -2  250.67   26.30
   5  11  -2  232.38   25.60
   4  11  -2  405.56   29.20
   4  11  -2  443.06   28.60
   3  11  -2  235.98   22.10
   3  11  -2  166.38   20.70
   3  11  -2  186.88   18.90
   2  11  -2    1.00   13.60
   2  11  -2   20.20   13.70
   2  11  -2   39.60   11.10
   1  11  -2  136.79   22.20
   1  11  -2  200.28   19.80
   1  11  -2  153.88   22.10
   0  11  -2  327.27   30.80
   0  11  -2  344.07   23.30
  -1  11  -2   81.09   15.80
   1 -11   2   75.79   16.50
   2 -11   2    3.40   16.30
   9  10  -2   11.60   13.40
   9  10  -2   13.00   16.30
   8  10  -2   85.19   15.80
   8  10  -2   85.09   15.40
   7  10  -2  127.49   18.20
   7  10  -2  136.79   20.70
   6  10  -2   23.10   13.00
   6  10  -2   27.20   12.50
   5  10  -2   97.19   15.90
   5  10  -2  103.59   16.80
   4  10  -2  175.98   15.80
   4  10  -2  133.19   20.80
   4  10  -2  224.28   20.80
   3  10  -2   45.90   12.00
   3  10  -2   42.10   12.30
   3  10  -2   49.90    9.70
   2  10  -2  236.88   20.80
   2  10  -2  211.68   21.40
   2  10  -2  178.18   19.00
   1  10  -2    8.40    9.90
   1  10  -2  -20.10   10.90
   1  10  -2  -14.60    9.30
   0  10  -2   40.60   11.70
   0  10  -2   32.20   13.00
   0  10  -2   19.60   12.40
  -1  10  -2  391.96   25.30
  -2  10  -2  291.17   33.60
  -2  10  -2  221.08   23.00
   2 -10   2  311.87   25.60
  -3  10  -2   -6.70   12.40
   3 -10   2    4.80   15.10
  10   9  -2   22.30   19.20
   9   9  -2   78.29   14.70
   9   9  -2   78.59   12.70
   8   9  -2    8.70   10.30
   8   9  -2   -2.70   10.60
   7   9  -2   32.60   11.50
   7   9  -2   47.10   11.90
   6   9  -2   36.20   11.60
   6   9  -2   37.90   11.10
   5   9  -2   24.30   11.20
   5   9  -2   33.60   12.00
   4   9  -2   37.40   11.50
   4   9  -2   29.20   12.00
   4   9  -2   30.70    7.10
  -4  -9   2   25.10   12.90
   3   9  -2  744.93   27.90
   3   9  -2  733.73   34.10
   3   9  -2  720.93   33.20
  -3  -9   2  741.83   33.40
   2   9  -2 1035.10   41.40
   2   9  -2 1082.99   38.10
   2   9  -2 1078.79   42.70
  -2  -9   2 1155.68   43.10
   1   9  -2  273.07   23.00
   1   9  -2  299.97   21.70
   1   9  -2  298.47   20.40
  -1  -9   2  275.37   19.70
   0   9  -2   -5.50   10.60
   0   9  -2    2.20    9.10
   0   9  -2   -6.30    9.70
   0  -9   2   12.70   10.70
  -1   9  -2  -14.60    9.20
  -1   9  -2    7.50   10.00
  -2   9  -2  191.68   21.80
  -2   9  -2  168.58   18.80
   2  -9   2  173.38   20.10
  -3   9  -2  447.56   33.90
  -3   9  -2  408.46   27.90
   3  -9   2  405.86   27.50
  -4   9  -2   43.80   16.30
  -4   9  -2   70.29   26.10
   4  -9   2   70.09   16.90
  10   8  -2    2.60   14.50
   9   8  -2    8.30   11.20
   9   8  -2   -0.50    9.30
   8   8  -2   95.29   15.10
   8   8  -2  115.19   14.00
   7   8  -2  662.93   30.30
   7   8  -2  650.83   28.90
   7   8  -2  623.44   31.10
   6   8  -2  722.63   29.40
   6   8  -2  675.63   29.60
  -6  -8   2  718.33   38.20
   5   8  -2  328.17   24.50
   5   8  -2  353.46   21.00
   5   8  -2  349.27   20.30
   5   8  -2  403.46   17.50
  -5  -8   2  371.66   23.60
   4   8  -2  109.09   15.80
   4   8  -2  117.59   15.80
   4   8  -2  111.79    9.30
  -4  -8   2  146.09   17.30
   3   8  -2  349.96   22.60
   3   8  -2  375.56   16.60
   3   8  -2  379.26   22.50
  -3  -8   2  373.66   22.40
   2   8  -2   22.50   10.20
   2   8  -2   21.90    7.10
   2   8  -2   30.60   10.70
  -2  -8   2    3.90    6.90
   1   8  -2  580.54   26.50
   1   8  -2  576.54   25.30
   1   8  -2  564.04   28.30
  -1  -8   2  541.05   26.00
   0   8  -2  100.39   16.60
   0   8  -2   85.69   13.40
   0   8  -2   85.39   13.20
   0  -8   2  106.19   14.10
  -1   8  -2   -3.40    8.90
  -1   8  -2   11.70    8.70
  -1   8  -2    3.90    9.20
   1  -8   2    8.10   10.10
  -2   8  -2   82.79   13.20
  -2   8  -2   72.19   13.20
   2  -8   2   78.69   12.90
   2  -8   2   73.59   15.60
  -3   8  -2  104.69   17.20
  -3   8  -2  151.38   21.50
   3  -8   2  140.49   18.50
  -4   8  -2   29.40   18.30
   4  -8   2   33.50   14.00
  -5   8  -2   41.90   22.70
   5  -8   2   40.10   14.70
  10   7  -2   90.49   16.20
   9   7  -2   35.00    8.60
   9   7  -2   40.10   13.30
   8   7  -2   12.10    7.40
   8   7  -2    2.30    8.80
   8   7  -2   -3.40    9.70
   7   7  -2  226.58   18.20
   7   7  -2  217.08   14.60
   7   7  -2  208.38   17.30
   6   7  -2   55.99    9.70
   6   7  -2   81.89    9.70
   6   7  -2   59.19   10.50
  -6  -7   2   71.69   12.30
   5   7  -2  168.28   12.10
   5   7  -2  157.98   13.60
   5   7  -2  145.29   13.30
  -5  -7   2  133.89   15.10
   4   7  -2  302.87   18.50
   4   7  -2  310.47   12.20
   4   7  -2  301.97   21.00
  -4  -7   2  303.67   19.50
   3   7  -2   33.80    8.80
   3   7  -2   30.80    5.70
   3   7  -2   28.40    9.60
  -3  -7   2   23.50    7.00
   2   7  -2  152.28   15.90
   2   7  -2  157.68   14.30
   2   7  -2  169.28   11.70
  -2  -7   2  145.89   13.40
   1   7  -2  518.65   22.30
   1   7  -2  479.35   28.00
   1   7  -2  521.95   24.80
  -1  -7   2  538.15   24.30
   0   7  -2  607.14   38.10
   0   7  -2  752.52   30.80
   0   7  -2  734.33   28.70
   0  -7   2  711.33   31.00
  -1   7  -2   65.49   13.40
  -1   7  -2   66.59   12.00
  -1   7  -2   62.49   10.40
   1  -7   2   66.49   11.40
  -2   7  -2    2.50    8.70
  -2   7  -2   -8.30    8.00
   2  -7   2   -0.60    7.20
  -3   7  -2   40.70   10.60
  -3   7  -2   68.49   15.10
   3  -7   2   56.49   11.90
   3  -7   2   55.79   11.90
  -4   7  -2  652.43   36.10
  -4   7  -2  605.94   31.50
   4  -7   2  643.64   32.10
  -5   7  -2  814.12   43.70
  -5   7  -2  758.32   38.80
   5  -7   2  802.92   37.10
  -6   7  -2  103.49   26.20
  -6   7  -2   54.29   18.00
   6  -7   2   73.69   18.00
  10   6  -2   22.30   11.70
   9   6  -2  112.29   12.70
   9   6  -2   89.49   13.90
   8   6  -2  226.48   17.50
   8   6  -2  234.68   22.00
   8   6  -2  259.67   14.40
   7   6  -2   44.50    9.50
   7   6  -2   33.80    6.10
   7   6  -2   28.40    7.50
  -7  -6   2   30.90    8.50
   6   6  -2 1214.98   42.30
   6   6  -2 1224.28   38.70
   6   6  -2 1181.38   41.00
  -6  -6   2 1257.67   42.70
   5   6  -2  655.63   25.90
   5   6  -2  648.24   24.30
  -5  -6   2  700.93   28.60
   4   6  -2   12.70    5.80
   4   6  -2    1.30    5.60
  -4  -6   2   17.70    7.10
   3   6  -2  139.69   12.30
   3   6  -2  147.09   12.70
   3   6  -2  145.49    8.30
  -3  -6   2  151.48   12.90
  -3  -6   2  151.38   14.30
   2   6  -2   14.90    4.60
   2   6  -2    7.80    6.10
   2   6  -2    6.80    6.30
  -2  -6   2    4.10    5.40
  -2  -6   2    6.10    6.90
   1   6  -2  245.08   16.00
   1   6  -2  243.18   15.50
   1   6  -2  241.58   12.90
  -1  -6   2  230.38   15.80
   0   6  -2 1623.24   49.90
   0   6  -2 1575.84   51.69
   0   6  -2 1628.24   51.49
   0  -6   2 1629.34   52.99
  -1   6  -2 1242.58   41.50
  -1   6  -2 1188.48   40.50
  -1   6  -2 1030.20   44.30
   1  -6   2 1215.48   42.30
  -2   6  -2  426.66   23.10
   2  -6   2  456.15   22.10
  -3   6  -2  212.08   20.10
  -3   6  -2  194.38   16.10
   3  -6   2  232.58   18.50
  -4   6  -2    5.50   12.30
  -4   6  -2   14.80   12.20
  -4   6  -2  -15.10    8.50
   4  -6   2   28.70   10.10
  -5   6  -2  103.99   18.00
  -5   6  -2  142.69   25.30
   5  -6   2  153.98   16.50
  -6   6  -2  394.66   29.30
  -6   6  -2  468.05   33.00
   6  -6   2  376.96   25.80
  -7   6  -2   38.70   19.30
  -7   6  -2   22.00   19.30
   7  -6   2   32.20   17.70
  10   5  -2  424.76   26.40
   9   5  -2 1049.00   36.70
   9   5  -2 1124.19   42.90
  -9  -5   2 1128.59   37.00
   8   5  -2  374.46   18.00
   8   5  -2  360.86   20.70
   8   5  -2  367.36   25.90
  -8  -5   2  374.96   17.30
   7   5  -2   14.90    7.90
   7   5  -2    7.60    7.30
  -7  -5   2    5.80    5.50
  -7  -5   2   12.40    8.00
   6   5  -2   21.10    7.90
   6   5  -2   19.50    6.00
   6   5  -2   29.10    5.10
  -6  -5   2   24.80    6.30
   5   5  -2  119.29   10.60
   5   5  -2  105.89    7.90
   5   5  -2  121.69   10.10
  -5  -5   2  119.49   10.50
   4   5  -2  640.64   22.30
   4   5  -2  595.84   23.10
   4   5  -2  614.94   23.10
   4   5  -2  620.84   26.90
  -4  -5   2  636.14   24.70
   3   5  -2  382.86   16.40
   3   5  -2  394.06   16.90
   3   5  -2  359.96   17.60
  -3  -5   2  388.56   17.80
  -3  -5   2  358.66   17.00
   2   5  -2   79.39    8.40
   2   5  -2   91.69    6.60
   2   5  -2   72.39   10.30
   2   5  -2   93.09    9.00
  -2  -5   2   75.19    8.90
  -2  -5   2   92.29    9.40
   1   5  -2   -1.40    5.00
   1   5  -2    5.30    3.90
   1   5  -2   10.50    6.80
   1   5  -2   -0.10    5.10
  -1  -5   2   -5.30    3.20
  -1  -5   2    8.10    4.90
   0   5  -2  350.96   17.30
   0   5  -2  342.17   15.80
   0   5  -2  334.27   16.20
   0  -5   2  346.87   18.00
   0  -5   2  338.87   17.30
  -1   5  -2   41.70    8.10
  -1   5  -2   30.60    6.80
  -1   5  -2   23.30    5.70
   1  -5   2   30.10    7.10
   1  -5   2   36.20    9.90
  -2   5  -2 1019.50   36.20
  -2   5  -2 1017.20   36.90
  -3   5  -2  283.97   18.20
  -3   5  -2  283.27   18.80
  -3   5  -2  286.77   19.00
   3  -5   2  257.87   20.00
  -4   5  -2    6.20   10.10
  -4   5  -2   -5.80    7.40
  -4   5  -2   12.60    7.40
   4  -5   2   12.70    8.70
  -5   5  -2   43.70   14.80
  -5   5  -2   36.10   11.20
  -5   5  -2   45.00   11.70
   5  -5   2   40.20   10.30
  -6   5  -2  158.18   18.60
  -6   5  -2  153.18   21.00
   6  -5   2  176.08   20.10
  -7   5  -2  134.59   22.60
  -7   5  -2  103.39   18.80
   7  -5   2  137.39   20.30
  -8   5  -2   26.50   17.70
   8  -5   2    2.00   14.60
  10   4  -2   18.20   12.40
 -10  -4   2   40.20   10.50
   9   4  -2  170.58   15.80
   9   4  -2  206.38   19.00
  -9  -4   2  257.77   17.20
   8   4  -2  691.73   32.70
   8   4  -2  680.93   26.00
   8   4  -2  697.33   29.50
  -8  -4   2  778.42   33.00
  -8  -4   2  726.73   26.20
   7   4  -2  481.75   25.30
   7   4  -2  455.85   19.00
   7   4  -2  477.85   23.00
  -7  -4   2  485.45   23.70
  -7  -4   2  506.95   18.40
   6   4  -2   27.30    6.90
   6   4  -2   32.60    8.70
  -6  -4   2   36.70    5.60
   5   4  -2   11.10    5.50
   5   4  -2   10.80    7.20
   5   4  -2    8.80    3.90
   5   4  -2    0.40    3.70
  -5  -4   2   11.50    4.50
  -5  -4   2    5.20    3.40
   4   4  -2   10.40    4.60
   4   4  -2    4.70    3.10
   4   4  -2   13.70    5.70
   4   4  -2   11.60    3.10
  -4  -4   2    6.00    4.60
   3   4  -2  447.16   17.00
   3   4  -2  449.95   18.30
   3   4  -2  424.36   17.10
   3   4  -2  439.16   16.20
  -3  -4   2  444.76   18.20
   2   4  -2 1987.20   56.49
   2   4  -2 2075.49   57.89
  -2  -4   2 1972.40   57.19
  -2  -4   2 2059.39   58.39
   1   4  -2 1382.26   41.70
   1   4  -2 1383.46   41.30
   1   4  -2 1446.06   39.00
   1   4  -2 1402.46   42.60
  -1  -4   2 1338.57   41.10
  -1  -4   2 1373.66   42.90
   0   4  -2   89.49    9.50
   0   4  -2   69.09    8.80
   0   4  -2   75.19    6.80
   0   4  -2   70.49    6.80
   0  -4   2   84.29   10.20
   0  -4   2   68.59    7.40
  -1   4  -2  434.16   22.20
  -1   4  -2  452.85   18.70
  -1   4  -2  440.86   18.30
  -1   4  -2  472.05   19.50
   1  -4   2  448.26   19.70
   1  -4   2  468.25   20.70
  -2   4  -2  863.81   32.70
  -2   4  -2  887.61   31.20
  -2   4  -2  880.21   30.70
   2  -4   2  867.61   32.90
  -3   4  -2  212.18   13.80
  -3   4  -2  218.08   15.60
  -3   4  -2  188.98   14.80
   3  -4   2  220.58   15.20
  -4   4  -2  291.37   19.80
  -4   4  -2  314.37   18.80
  -4   4  -2  288.77   18.00
   4  -4   2  338.87   19.00
  -5   4  -2   23.10   11.90
  -5   4  -2    5.20    7.00
  -5   4  -2   11.40    8.50
   5  -4   2   25.60    8.90
  -6   4  -2  167.68   17.80
  -6   4  -2  170.68   21.20
  -6   4  -2  193.48   19.20
   6  -4   2  147.39   16.40
  -7   4  -2  452.45   27.80
  -7   4  -2  406.76   29.90
  -8   4  -2  466.85   30.50
  -8   4  -2  447.36   36.50
   8  -4   2  429.86   28.10
  -9   4  -2   53.09   18.80
 -11  -3   2  505.55   31.90
  10   3  -2  177.98   22.60
 -10  -3   2  213.78   21.80
   9   3  -2  -10.60    9.50
  -9  -3   2    6.60   11.00
   8   3  -2   -0.90    8.40
   8   3  -2   -6.20    5.10
   8   3  -2   -0.60    9.90
  -8  -3   2    2.90   10.20
  -8  -3   2   -8.20    7.80
   7   3  -2  278.97   19.40
   7   3  -2  269.77   17.00
   7   3  -2  274.07   12.60
  -7  -3   2  283.17   15.40
  -7  -3   2  271.27   15.80
  -7  -3   2  277.37   17.60
   6   3  -2  402.26   20.40
   6   3  -2  406.86   15.50
  -6  -3   2  416.46   18.90
  -6  -3   2  410.56   18.10
  -6  -3   2  409.56   16.80
   5   3  -2   81.79   10.30
   5   3  -2   58.99    7.00
   5   3  -2   64.69    7.60
  -5  -3   2   78.39    7.70
  -5  -3   2   51.09    7.00
  -5  -3   2   62.29    6.80
   4   3  -2  397.56   16.60
   4   3  -2  394.06   15.90
   4   3  -2  410.96   14.20
  -4  -3   2  398.16   12.60
  -4  -3   2  395.66   16.30
   3   3  -2 3145.39   86.69
   3   3  -2 3310.97   86.49
   3   3  -2 3250.77   84.59
   3   3  -2 3212.18   86.99
  -3  -3   2 3175.38   86.89
   2   3  -2 5165.78  131.39
   2   3  -2 5075.89  131.69
   2   3  -2 5018.80  130.19
  -2  -3   2 4890.71  131.99
   1   3  -2  927.21   28.80
   1   3  -2  952.40   28.40
   1   3  -2  983.40   29.30
  -1  -3   2  921.01   32.40
  -1  -3   2  941.81   28.40
   0   3  -2  102.29    8.10
   0   3  -2   90.49    7.50
   0   3  -2   97.69    5.90
   0   3  -2   96.19    6.70
   0  -3   2   90.49    6.80
  -1   3  -2   35.10    5.10
  -1   3  -2   34.20    4.80
  -1   3  -2   38.70    6.20
  -1   3  -2   40.20    6.70
   1  -3   2   37.20    6.80
  -2   3  -2  172.58   10.10
  -2   3  -2  168.28   10.60
  -2   3  -2  171.08   13.00
  -2   3  -2  167.68   11.20
   2  -3   2  176.98   11.20
  -3   3  -2  661.13   25.40
  -3   3  -2  664.53   25.80
  -3   3  -2  662.13   25.90
   3  -3   2  688.33   26.90
   3  -3   2  661.13   25.00
  -4   3  -2  226.88   14.50
  -4   3  -2  236.18   16.20
  -4   3  -2  240.88   15.00
   4  -3   2  226.78   16.10
  -5   3  -2   30.90   10.30
  -5   3  -2   12.90    7.90
  -5   3  -2   27.70    8.50
   5  -3   2   37.20    9.60
  -6   3  -2   17.30    9.70
  -6   3  -2   28.30   10.80
  -6   3  -2   40.30   10.90
   6  -3   2   24.90    9.30
  -7   3  -2    3.50   11.20
  -7   3  -2  -11.70    9.50
   7  -3   2   -2.00    8.20
  -8   3  -2  110.89   19.00
  -8   3  -2  108.89   20.40
   8  -3   2   70.89   13.60
  -9   3  -2  390.16   30.10
  -9   3  -2  444.16   40.70
   9  -3   2  369.26   28.70
 -10   3  -2   81.49   25.10
 -12  -2   2   37.10   23.90
 -11  -2   2   93.29   20.90
  10   2  -2   71.99   16.90
 -10  -2   2  100.29   17.70
   9   2  -2   62.79    7.80
   9   2  -2   58.29   11.90
  -9  -2   2   49.70   14.80
   8   2  -2   74.29    8.10
   8   2  -2  101.79   18.40
   8   2  -2   63.69   11.50
  -8  -2   2   71.59   11.40
   7   2  -2  136.79   13.90
   7   2  -2  144.19   15.90
   7   2  -2  142.09    8.30
  -7  -2   2  125.59   14.50
  -7  -2   2  126.09   13.20
  -7  -2   2  143.69   15.10
   6   2  -2  802.22   30.50
   6   2  -2  798.82   24.30
   6   2  -2  772.72   31.70
  -6  -2   2  770.42   28.30
  -6  -2   2  816.72   29.40
  -6  -2   2  797.62   30.20
   5   2  -2  112.59   11.80
   5   2  -2   92.39    8.80
   5   2  -2  103.59    6.00
  -5  -2   2   93.09    8.20
  -5  -2   2   77.89    8.30
  -5  -2   2  104.49    9.60
   4   2  -2    5.00    4.40
   4   2  -2    1.60    2.40
   4   2  -2    0.90    3.60
  -4  -2   2   -0.40    2.80
  -4  -2   2   -3.70    2.70
  -4  -2   2   -0.70    3.10
   3   2  -2   46.40    5.10
   3   2  -2   44.10    5.40
   3   2  -2   45.00    4.50
  -3  -2   2   54.09    5.90
  -3  -2   2   48.70    4.20
   2   2  -2 1245.58   33.60
   2   2  -2 1243.48   35.10
  -2  -2   2 1207.68   35.30
   1   2  -2 6223.68  158.68
   1   2  -2 6348.86  159.78
   1   2  -2 6218.68  159.18
  -1  -2   2 6322.27  160.58
  -1  -2   2 5993.80  158.88
   0   2  -2   96.19    5.00
   0   2  -2  102.49    5.40
   0   2  -2  101.89    7.00
   0   2  -2  111.49    6.50
   0  -2   2   95.89    5.20
   0  -2   2   87.49    7.30
  -1   2  -2  572.94   20.20
  -1   2  -2  596.54   19.70
  -1   2  -2  637.74   19.50
  -1   2  -2  583.44   21.30
  -1   2  -2  596.64   20.60
   1  -2   2  569.94   19.90
  -2   2  -2   36.00    4.70
  -2   2  -2   33.90    5.70
  -2   2  -2   41.60    5.90
  -2   2  -2   28.20    5.00
   2  -2   2   33.80    5.40
  -3   2  -2   -2.30    4.50
  -3   2  -2    0.10    3.80
  -3   2  -2    6.10    3.80
  -3   2  -2    4.10    4.10
   3  -2   2   -3.80    3.70
   3  -2   2   -4.20    4.20
  -4   2  -2  290.37   16.00
  -4   2  -2  288.27   16.20
  -4   2  -2  299.57   15.90
   4  -2   2  293.07   16.90
   4  -2   2  308.27   15.50
  -5   2  -2 1843.52   56.49
  -5   2  -2 1813.92   56.69
  -5   2  -2 1768.92   61.99
   5  -2   2 1852.51   56.29
  -6   2  -2  994.70   39.80
  -6   2  -2 1057.09   38.60
  -6   2  -2  954.80   36.70
   6  -2   2 1001.20   37.10
  -7   2  -2    9.80    9.20
  -7   2  -2   15.60    9.10
  -7   2  -2   28.70   11.80
   7  -2   2   12.10    8.60
  -8   2  -2   38.30   13.90
  -8   2  -2   16.70   11.00
   8  -2   2   24.50   11.00
  -9   2  -2   71.99   20.60
  -9   2  -2   45.80   14.00
   9  -2   2   32.40   14.80
 -10   2  -2   52.79   19.50
 -11  -1   2   11.40   19.90
  10   1  -2  -16.90   11.60
 -10  -1   2  -20.10   15.30
   9   1  -2   -3.70   10.20
  -9  -1   2  -14.30   12.40
   8   1  -2  -16.40    8.10
  -8  -1   2   -1.50    6.90
  -8  -1   2   11.70   10.80
   7   1  -2   26.00    8.30
   7   1  -2   23.50    8.10
  -7  -1   2   27.60    9.60
  -7  -1   2   26.60   10.40
  -7  -1   2   19.20    7.40
   6   1  -2  948.11   44.10
   6   1  -2 1158.98   38.70
  -6  -1   2 1110.49   35.80
  -6  -1   2 1083.29   36.60
  -6  -1   2 1056.49   38.70
   5   1  -2 4959.50  134.59
   5   1  -2 4829.92  132.29
  -5  -1   2 4889.01  131.59
  -5  -1   2 5083.09  134.69
  -5  -1   2 5090.19  132.69
   4   1  -2 3584.64   94.59
   4   1  -2 3490.65   95.99
  -4  -1   2 3420.26   95.69
  -4  -1   2 3573.44   94.19
  -4  -1   2 3531.75   93.99
   3   1  -2 1039.20   30.60
  -3  -1   2 1026.40   30.40
  -3  -1   2 1051.59   29.90
  -3  -1   2 1013.00   31.30
   2   1  -2   22.50    4.30
   2   1  -2   23.20    3.20
  -2  -1   2   19.50    3.10
   1   1  -2   59.29    3.50
   1   1  -2   63.69    4.20
  -1  -1   2   52.49    3.10
  -1  -1   2   56.79    4.00
   0   1  -2  862.41   23.50
   0   1  -2  907.01   24.40
   0   1  -2  918.61   25.60
   0  -1   2  860.71   23.30
   0  -1   2  813.72   25.80
  -1   1  -2  847.62   24.90
  -1   1  -2  883.81   24.80
  -1   1  -2  807.42   25.80
  -1   1  -2  855.11   25.50
  -1   1  -2  849.12   24.00
   1  -1   2  839.62   24.30
  -2   1  -2  184.28    9.00
  -2   1  -2  170.38    8.00
  -2   1  -2  177.58    8.90
  -2   1  -2  181.78    9.20
   2  -1   2  189.78    8.50
   2  -1   2  182.68    9.00
  -3   1  -2  220.38   11.50
  -3   1  -2  233.38   11.70
  -3   1  -2  204.38   11.00
  -3   1  -2  218.88   11.40
   3  -1   2  223.68   11.00
   3  -1   2  222.18   10.70
  -4   1  -2  742.73   27.00
  -4   1  -2  753.22   26.10
  -4   1  -2  771.32   26.40
  -4   1  -2  716.83   26.80
   4  -1   2  739.53   25.90
   4  -1   2  728.83   25.70
  -5   1  -2 1252.27   41.80
  -5   1  -2 1216.48   39.70
  -5   1  -2 1182.68   39.70
   5  -1   2 1247.38   41.00
   5  -1   2 1237.88   40.00
  -6   1  -2   68.39   11.10
  -6   1  -2   60.79   10.80
  -6   1  -2   82.49   14.30
   6  -1   2   70.69   11.70
  -7   1  -2  125.29   14.30
  -7   1  -2   97.89   15.00
  -7   1  -2  135.89   17.00
   7  -1   2   99.89   12.80
  -8   1  -2   38.10   14.90
  -8   1  -2   37.90   10.90
   8  -1   2   10.20   10.00
  -9   1  -2  177.98   25.50
  -9   1  -2  132.59   19.90
   9  -1   2  147.19   20.40
 -10   1  -2   71.19   22.30
 -10   1  -2   59.49   17.20
  10  -1   2   42.10   17.50
 -11   1  -2   51.69   23.30
 -11   0   2   -4.30   25.90
  10   0  -2   27.60   14.70
 -10   0   2   -3.90   18.80
   9   0  -2  587.44   30.00
  -9   0   2  614.14   34.70
   8   0  -2  815.32   33.10
  -8   0   2  785.02   35.80
  -8   0   2  810.62   33.00
  -8   0   2  798.72   29.70
   7   0  -2  622.04   27.90
   7   0  -2  623.04   26.10
  -7   0   2  608.94   24.90
  -7   0   2  591.64   28.20
  -7   0   2  580.24   22.70
   6   0  -2   23.70    5.90
   6   0  -2   15.50    8.20
  -6   0   2   17.10    6.10
  -6   0   2    5.30    5.30
  -6   0   2   18.30    4.90
  -6   0   2   10.00    9.00
   5   0  -2   55.19    7.80
  -5   0   2   54.59    8.00
  -5   0   2   51.99    6.00
  -5   0   2   34.80    8.00
  -5   0   2   58.19    7.90
   4   0  -2  496.05   18.60
   4   0  -2  502.75   20.30
  -4   0   2  508.75   21.40
  -4   0   2  515.85   19.80
  -4   0   2  518.45   18.60
  -4   0   2  518.35   16.20
   3   0  -2 1693.33   48.30
   3   0  -2 1652.43   46.20
  -3   0   2 1688.53   48.40
  -3   0   2 1583.94   47.00
  -3   0   2 1693.93   43.90
  -3   0   2 1638.44   45.60
   2   0  -2  323.47   11.00
   2   0  -2  277.57   11.60
  -2   0   2  307.77   11.50
  -2   0   2  298.77   10.30
  -2   0   2  293.67   12.00
   1   0  -2   10.10    2.00
   1   0  -2    7.10    1.60
  -1   0   2   10.40    1.70
   0   0   2 1683.63   45.00
   0   0   2 1730.93   43.60
  -1   0  -2 1051.39   28.00
  -1   0  -2 1049.89   27.60
  -1   0  -2  969.60   27.70
  -1   0  -2  965.60   27.90
  -1   0  -2 1019.10   26.10
   1   0   2  967.60   26.10
  -2   0  -2   14.00    2.30
  -2   0  -2   11.10    2.20
   2   0   2   13.30    2.70
   2   0   2   12.60    2.10
  -3   0  -2  374.16   14.90
  -3   0  -2  368.66   14.00
  -3   0  -2  330.27   18.60
  -3   0  -2  366.26   13.50
   3   0   2  361.66   13.70
   3   0   2  361.76   13.40
  -4   0  -2    9.40    3.30
  -4   0  -2    5.00    4.70
  -4   0  -2   11.60    4.70
  -4   0  -2    4.00    3.20
   4   0   2   -1.90    3.60
   4   0   2    0.00    2.60
  -5   0  -2  329.97   18.40
  -5   0  -2  371.46   16.10
  -5   0  -2  324.37   15.40
  -5   0  -2  332.77   17.50
   5   0   2  343.87   16.30
   5   0   2  326.57   15.90
  -6   0  -2 2289.97   66.69
  -6   0  -2 2294.17   65.89
  -6   0  -2 2254.87   68.99
   6   0   2 2181.88   67.19
  -7   0  -2   14.50    7.60
  -7   0  -2   41.20   13.20
   7   0   2   30.80    8.20
  -8   0  -2  131.79   22.00
  -8   0  -2  138.89   16.40
  -8   0  -2  129.99   20.30
   8   0   2  138.99   14.70
  -9   0  -2   25.60   14.00
  -9   0  -2   12.10   11.50
   9   0   2   11.70    9.80
 -10   0  -2   17.30   13.90
 -10   0  -2   31.70   18.90
  10   0   2    5.70   11.90
  10  -1  -2  -11.90   16.30
 -10   1   2   25.30   21.10
   9  -1  -2    7.30   10.40
  -9   1   2  -18.10   12.10
  -9   1   2   12.30   12.90
   8  -1  -2  357.16   22.60
  -8   1   2  387.96   25.70
  -8   1   2  350.76   21.20
  -8   1   2  355.56   25.40
   7  -1  -2 1288.67   44.70
  -7   1   2 1351.86   42.00
  -7   1   2 1307.47   48.10
  -7   1   2 1304.57   43.90
   6  -1  -2  388.56   19.80
   6  -1  -2  392.96   22.00
  -6   1   2  400.66   18.10
  -6   1   2  362.96   27.20
  -6   1   2  416.96   17.10
   5  -1  -2    1.20    5.20
   5  -1  -2    1.50    4.50
  -5   1   2    2.00    3.90
  -5   1   2    0.20    8.50
  -5   1   2   -1.00    4.10
  -5   1   2    2.00    5.50
   4  -1  -2   26.60    5.40
   4  -1  -2   31.10    5.10
  -4   1   2   33.50    5.80
  -4   1   2   34.60    7.80
  -4   1   2   39.60    5.50
  -4   1   2   36.90    7.90
   3  -1  -2  216.78    9.60
   3  -1  -2  206.48   11.50
  -3   1   2  213.98   12.40
  -3   1   2  214.48   12.50
  -3   1   2  211.08    9.30
  -3   1   2  200.78    9.60
   2  -1  -2  214.88   10.50
   2  -1  -2  219.48    8.80
  -2   1   2  211.48    8.20
  -2   1   2  230.38    8.50
  -2   1   2  229.28   11.00
  -2   1   2  216.08   10.70
   1  -1  -2   75.19    3.40
   1  -1  -2   80.69    4.20
   1  -1  -2   73.89    5.80
  -1   1   2   86.29    5.60
  -1   1   2   79.89    5.40
  -1   1   2   77.09    3.40
   0   1   2  239.68   10.70
   0   1   2  269.87    9.80
  -1  -1  -2  831.42   23.00
  -1  -1  -2  825.32   22.50
  -1  -1  -2  878.51   23.80
   1   1   2  801.32   22.90
   1   1   2  810.72   22.30
   1   1   2  870.31   23.20
  -2  -1  -2 8521.65  238.68
  -2  -1  -2 9689.63  238.98
  -2  -1  -2 9999.00  238.78
  -2  -1  -2 9955.30  239.88
   2   1   2 8793.62  238.38
   2   1   2 9603.64  238.48
  -3  -1  -2 4198.48  106.79
  -3  -1  -2 3983.00  106.89
  -3  -1  -2 4113.99  106.59
   3   1   2 4000.40  106.49
   3   1   2 4171.88  106.69
  -4  -1  -2  127.79    8.00
  -4  -1  -2  124.29    7.50
  -4  -1  -2  116.99    7.50
  -4  -1  -2  118.29    8.90
   4   1   2  118.79    7.60
   4   1   2  127.29    8.90
  -5  -1  -2   19.40    4.80
  -5  -1  -2   19.60    3.60
  -5  -1  -2   30.30    5.60
  -5  -1  -2   29.50    6.80
   5   1   2   21.90    5.60
   5   1   2   28.30    5.80
  -6  -1  -2   23.80    5.20
  -6  -1  -2   30.80    6.90
  -6  -1  -2   26.80    8.20
   6   1   2   29.20    7.80
   6   1   2   23.90    7.20
  -7  -1  -2  128.89   12.40
  -7  -1  -2  148.49   14.00
  -7  -1  -2  140.99   17.70
   7   1   2  184.78   13.90
  -8  -1  -2  185.48   19.10
  -8  -1  -2  191.28   16.40
  -8  -1  -2  184.78   17.10
   8   1   2  175.58   15.50
  -9  -1  -2  147.39   17.50
  -9  -1  -2  145.49   22.10
   9   1   2  127.29   15.20
 -10  -1  -2   25.50   16.60
  10   1   2   21.20   11.40
 -11  -1  -2   16.30   19.30
  12   1   2   54.39   14.60
   9  -2  -2    0.00   12.30
  -9   2   2    0.20   15.50
  -9   2   2   -5.60   13.30
   8  -2  -2  209.08   19.20
  -8   2   2  212.78   22.30
  -8   2   2  250.97   19.60
   7  -2  -2   94.89   13.70
  -7   2   2   60.49   10.90
  -7   2   2   72.09   13.20
   6  -2  -2   14.30    8.00
   6  -2  -2   16.60   11.80
  -6   2   2   30.80    8.30
  -6   2   2   17.60    7.60
  -6   2   2   12.40    8.50
   5  -2  -2    6.50    6.00
   5  -2  -2    6.30    7.40
  -5   2   2    8.00    6.10
  -5   2   2   10.80    8.40
  -5   2   2    3.70    5.70
  -5   2   2   -2.50    8.40
   4  -2  -2  130.49    9.60
   4  -2  -2  126.89   13.10
  -4   2   2  125.89    9.30
  -4   2   2  128.29   10.40
  -4   2   2  127.79   14.10
  -4   2   2  126.49   12.60
   3  -2  -2  432.36   19.70
   3  -2  -2  440.46   15.90
  -3   2   2  389.46   18.50
  -3   2   2  425.86   19.10
  -3   2   2  427.46   16.50
  -3   2   2  397.46   17.20
   2  -2  -2 6137.79  157.88
   2  -2  -2 5955.20  153.18
  -2   2   2 5961.20  156.98
  -2   2   2 5799.12  152.58
  -2   2   2 5934.71  154.18
  -2   2   2 5948.90  157.58
   1  -2  -2 4668.03  115.59
   1  -2  -2 4347.86  114.99
   1  -2  -2 4473.05  120.29
  -1   2   2 4751.52  119.89
  -1   2   2 4388.06  115.19
  -1   2   2 4487.95  117.19
  -1   2   2 4481.15  120.39
   0  -2  -2  471.15   13.10
   0  -2  -2  458.65   13.00
   0  -2  -2  448.66   17.50
   0   2   2  506.45   15.60
   0   2   2  480.95   17.00
   0   2   2  458.45   17.70
  -1  -2  -2   70.99    3.10
   1   2   2   70.19    4.80
   1   2   2   74.09    3.40
   1   2   2   72.49    4.90
   1   2   2   66.09    5.40
  -2  -2  -2    2.80    2.50
  -2  -2  -2    3.60    1.90
   2   2   2    1.70    1.90
   2   2   2    1.30    1.50
   2   2   2    1.30    1.70
  -3  -2  -2  451.45   15.50
  -3  -2  -2  443.56   15.40
   3   2   2  458.95   16.00
   3   2   2  453.25   14.70
   3   2   2  458.25   15.30
   3   2   2  457.85   15.10
  -4  -2  -2  950.10   29.80
  -4  -2  -2  997.80   30.50
  -4  -2  -2  980.90   30.10
   4   2   2  971.30   29.20
   4   2   2  974.50   29.80
  -5  -2  -2   62.19    6.60
  -5  -2  -2   78.89    8.80
  -5  -2  -2   79.89    8.00
   5   2   2   95.49    9.20
   5   2   2   68.09    6.90
  -6  -2  -2   88.09   11.80
  -6  -2  -2   91.79    8.70
   6   2   2  118.39   10.50
   6   2   2   95.19   10.70
  -7  -2  -2  533.75   25.20
  -7  -2  -2  554.64   23.30
   7   2   2  536.35   23.70
  -8  -2  -2  122.59   17.50
  -8  -2  -2  113.89   12.00
   8   2   2  106.59   14.20
  -9  -2  -2    1.20   11.70
   9   2   2   10.70    8.70
 -10  -2  -2  189.18   23.20
  10   2   2  183.78   19.00
 -11  -2  -2   10.70   15.40
  11   2   2   20.90    9.40
  11   2   2   13.40   14.20
  12   2   2   72.69   13.80
   9  -3  -2   52.59   15.30
  -9   3   2   34.70   18.60
  -9   3   2   23.50   14.80
   8  -3  -2   23.50   10.10
  -8   3   2   49.99   12.50
  -8   3   2    8.10   13.50
   7  -3  -2    4.40    8.80
  -7   3   2    2.40   11.10
  -7   3   2    2.90   10.20
  -7   3   2    2.70   10.10
   6  -3  -2  475.15   22.50
  -6   3   2  459.75   24.00
  -6   3   2  486.85   28.00
  -6   3   2  473.05   25.20
   5  -3  -2  269.87   21.80
  -5   3   2  252.87   16.30
  -5   3   2  247.88   18.70
  -5   3   2  270.07   21.40
   4  -3  -2  240.58   17.00
   4  -3  -2  241.18   12.80
  -4   3   2  237.48   19.20
  -4   3   2  232.58   13.80
  -4   3   2  233.48   15.50
  -4   3   2  245.98   18.90
   3  -3  -2    5.30    3.90
   3  -3  -2   10.90    6.10
  -3   3   2    8.20    4.90
  -3   3   2   11.20    5.60
  -3   3   2    7.30    4.40
  -3   3   2    8.60    7.70
   2  -3  -2   49.99    5.40
   2  -3  -2   45.40    7.60
  -2   3   2   51.89    8.40
  -2   3   2   63.29    8.40
  -2   3   2   49.90    6.10
  -2   3   2   58.89    6.80
   1  -3  -2 3661.53   93.09
   1  -3  -2 3572.24   99.79
  -1   3   2 3526.55   95.69
  -1   3   2 3430.56   93.89
  -1   3   2 3726.13   97.99
  -1   3   2 3570.64  100.29
   0  -3  -2 4913.01  127.39
   0  -3  -2 4511.35  127.29
   0  -3  -2 5242.38  126.99
   0  -3  -2 4975.30  134.09
   0   3   2 5147.69  130.29
   0   3   2 4880.71  134.09
   0   3   2 5147.89  131.89
  -1  -3  -2  131.19    8.80
  -1  -3  -2  142.59    5.80
   1   3   2  147.99    8.40
   1   3   2  145.09    7.70
   1   3   2  138.29    6.00
   1   3   2  130.59    8.90
  -2  -3  -2    8.30    1.90
  -2  -3  -2    9.60    2.80
   2   3   2    5.00    2.40
   2   3   2   11.50    3.60
   2   3   2    3.50    2.40
   2   3   2    8.00    2.10
  -3  -3  -2   17.60    3.60
  -3  -3  -2   17.10    3.20
  -3  -3  -2   29.10    5.10
   3   3   2   13.30    3.50
   3   3   2   15.70    2.90
   3   3   2   20.70    3.70
  -4  -3  -2  357.06   14.40
  -4  -3  -2  354.96   14.00
   4   3   2  361.26   15.40
   4   3   2  339.87   13.30
   4   3   2  337.17   13.90
   4   3   2  342.07   13.10
  -5  -3  -2   81.49    7.30
  -5  -3  -2   79.19    8.00
   5   3   2   66.59    5.60
   5   3   2   78.39    7.50
   5   3   2   77.69    7.60
  -6  -3  -2  394.16   18.00
  -6  -3  -2  387.96   19.60
  -6  -3  -2  388.86   17.10
   6   3   2  396.36   19.10
   6   3   2  402.16   17.10
   6   3   2  384.56   16.00
  -7  -3  -2  128.09   12.60
  -7  -3  -2  146.49   12.70
   7   3   2  116.59    8.30
   7   3   2  150.38   14.50
  -8  -3  -2   96.29   14.00
  -8  -3  -2  120.89   13.70
   8   3   2  100.69   12.00
   8   3   2   69.79   12.40
  -9  -3  -2 1245.28   46.20
   9   3   2 1261.47   41.70
   9   3   2 1229.68   45.20
 -10  -3  -2  377.26   25.00
  10   3   2  420.46   26.70
  10   3   2  367.56   19.70
  11   3   2   10.40    9.30
  11   3   2    9.00   16.50
 -12  -3  -2   -4.70   16.00
  12   3   2    2.70   12.00
  -9   4   2   99.69   20.00
   8  -4  -2   58.19   14.50
  -8   4   2   60.69   15.10
  -8   4   2   30.00   16.40
   7  -4  -2   -8.80    9.20
  -7   4   2   14.00   13.00
  -7   4   2  -23.50   14.10
  -7   4   2  -17.90   10.50
   6  -4  -2    5.30    8.10
  -6   4   2   -0.60   12.00
  -6   4   2  -13.70    8.80
  -6   4   2    2.10   10.40
   5  -4  -2  659.93   26.50
  -5   4   2  667.73   33.20
  -5   4   2  692.93   27.90
   4  -4  -2 1952.20   58.09
   4  -4  -2 2042.60   65.59
  -4   4   2 1908.21   64.79
  -4   4   2 1957.70   61.59
  -4   4   2 1988.20   58.59
   3  -4  -2 1383.06   41.50
  -3   4   2 1380.66   49.50
  -3   4   2 1340.87   41.80
  -3   4   2 1377.06   44.20
  -3   4   2 1336.77   47.20
   2  -4  -2    5.10    5.30
   2  -4  -2   18.20    4.40
  -2   4   2   13.00    7.70
  -2   4   2   26.30    7.90
  -2   4   2   13.50    5.00
   1  -4  -2  754.12   23.50
  -1   4   2  783.72   27.50
  -1   4   2  781.62   28.20
  -1   4   2  721.33   30.90
   0  -4  -2  518.25   23.10
   0  -4  -2  512.85   16.80
   0   4   2  479.85   22.50
   0   4   2  467.45   19.00
   0   4   2  491.65   19.90
  -1  -4  -2   39.80    4.20
  -1  -4  -2   39.60    7.10
   1   4   2   39.00    5.60
   1   4   2   43.60    8.30
   1   4   2   43.70    6.90
   1   4   2   40.00    4.40
  -2  -4  -2   28.40    5.10
  -2  -4  -2   43.40    4.90
   2   4   2   39.30    5.30
   2   4   2   28.10    5.00
   2   4   2   37.90    3.90
   2   4   2   35.00    6.00
  -3  -4  -2   24.20    3.90
  -3  -4  -2   29.90    5.30
   3   4   2   29.60    4.20
   3   4   2   28.50    4.80
   3   4   2   28.50    5.60
   3   4   2   19.20    3.40
  -4  -4  -2  371.46   15.00
  -4  -4  -2  361.86   14.90
   4   4   2  376.96   15.70
   4   4   2  365.96   16.40
   4   4   2  368.16   15.20
   4   4   2  376.66   13.80
  -5  -4  -2 3149.08   86.89
  -5  -4  -2 3180.78   87.79
   5   4   2 3189.18   87.39
   5   4   2 3210.88   89.49
   5   4   2 3308.47   86.49
   5   4   2 3227.68   88.89
  -6  -4  -2 3147.98   86.19
  -6  -4  -2 2985.40   86.79
   6   4   2 3201.38   88.29
   6   4   2 3035.90   85.69
   6   4   2 3256.37   89.29
   6   4   2 3065.59   85.49
  -7  -4  -2   23.20    6.60
  -7  -4  -2   17.30    6.90
   7   4   2   13.30    5.30
   7   4   2   34.50    9.50
  -8  -4  -2    4.70    7.90
  -8  -4  -2    9.80    7.60
   8   4   2    2.90    7.70
   8   4   2    5.50    6.00
  -9  -4  -2   88.39   13.20
   9   4   2   68.19   10.40
   9   4   2   45.70   11.00
 -10  -4  -2  104.09   15.10
  10   4   2   63.49   13.20
  10   4   2   75.39   11.60
  11   4   2  140.29   22.80
  11   4   2  111.69   15.10
 -12  -4  -2   37.00   15.20
  12   4   2    3.80   12.20
  -9   5   2   30.40   22.70
   8  -5  -2   73.79   14.80
  -8   5   2  129.29   21.50
   7  -5  -2  228.98   18.70
  -7   5   2  199.68   23.30
  -7   5   2  273.17   27.50
   6  -5  -2    2.80    8.90
  -6   5   2    7.40   12.80
  -6   5   2   10.50   10.80
  -6   5   2  -19.70   14.10
   5  -5  -2  471.25   22.80
  -5   5   2  473.85   29.50
  -5   5   2  413.16   28.90
  -5   5   2  505.05   24.50
  -4   5   2   84.09   14.00
  -4   5   2   87.29   11.50
  -4   5   2   71.29   14.60
   3  -5  -2  409.56   18.60
   3  -5  -2  447.06   24.80
  -3   5   2  435.86   22.40
  -3   5   2  441.76   19.90
  -3   5   2  405.76   25.30
   2  -5  -2   14.90    4.90
   2  -5  -2   -0.60    6.30
  -2   5   2   15.60    9.60
  -2   5   2    1.40    9.40
  -2   5   2   15.20    7.00
  -2   5   2    4.00    6.20
   1  -5  -2   -9.60    5.80
   1  -5  -2   -3.20    4.60
   1  -5  -2   -5.90    3.40
  -1   5   2   -0.90    5.90
  -1   5   2   -5.30    5.30
  -1   5   2   -6.40    7.40
   0  -5  -2   43.70    8.10
   0   5   2   57.39   11.00
   0   5   2   63.89   10.90
   0   5   2   42.30    7.20
  -1  -5  -2  739.93   23.10
  -1  -5  -2  745.43   30.10
   1   5   2  721.13   26.60
   1   5   2  708.63   22.70
   1   5   2  724.63   26.20
   1   5   2  730.33   29.40
  -2  -5  -2  561.24   19.30
  -2  -5  -2  568.34   23.10
   2   5   2  572.44   23.80
   2   5   2  565.34   22.30
   2   5   2  556.34   18.50
   2   5   2  579.54   21.80
  -3  -5  -2   41.70    7.80
  -3  -5  -2   41.50    5.50
   3   5   2   49.80    7.40
   3   5   2   40.10    6.00
   3   5   2   39.40    4.70
   3   5   2   35.70    6.20
  -4  -5  -2    4.70    4.30
  -4  -5  -2   -0.50    3.50
   4   5   2    1.70    3.20
   4   5   2    0.60    3.30
   4   5   2    2.10    3.50
   4   5   2   10.70    5.40
  -5  -5  -2  129.89    9.90
  -5  -5  -2  119.79    9.60
   5   5   2  113.59    9.30
   5   5   2  136.39   10.80
   5   5   2  119.79   11.70
   5   5   2  125.09    9.00
  -6  -5  -2 2062.29   61.89
  -6  -5  -2 2224.88   64.19
   6   5   2 2243.68   66.39
   6   5   2 2115.79   61.89
   6   5   2 2177.08   63.39
   6   5   2 2246.18   65.39
  -7  -5  -2 1837.52   55.99
  -7  -5  -2 1743.13   53.69
   7   5   2 1863.71   58.99
   7   5   2 1701.13   53.79
  -8  -5  -2   15.30    8.10
  -8  -5  -2   14.20    9.20
   8   5   2    6.60   11.90
   8   5   2   19.40    8.40
  -9  -5  -2   13.10    8.60
   9   5   2   -5.30   13.90
   9   5   2    1.60    6.90
   9   5   2    2.30    8.00
 -10  -5  -2   15.90   10.70
  10   5   2   13.60   10.10
  10   5   2   10.60    7.80
 -11  -5  -2   42.80   13.20
  11   5   2   45.80   13.70
  11   5   2   26.40   11.40
 -12  -5  -2   17.70   16.20
  12   5   2   -9.40   12.50
 -13  -5  -2   32.40   34.50
  -8   6   2   26.40   24.80
   7  -6  -2   56.39   13.60
  -7   6   2    3.10   19.60
  -7   6   2   41.20   21.00
   6  -6  -2   78.49   13.70
  -6   6   2   77.39   20.70
  -6   6   2   44.90   15.80
   5  -6  -2   -0.40    8.70
  -5   6   2   -6.70   12.00
  -5   6   2   11.80   10.50
  -5   6   2  -15.90   14.50
   4  -6  -2  183.78   15.60
  -4   6   2  179.98   21.00
  -4   6   2  236.78   19.10
  -4   6   2  221.28   23.90
   3  -6  -2  824.02   30.60
  -3   6   2  866.11   40.20
  -3   6   2  867.81   36.00
   2  -6  -2  181.48   12.90
   2  -6  -2  183.68   17.90
  -2   6   2  207.68   21.00
   1  -6  -2   64.29   11.70
   1  -6  -2   65.09    7.80
   1  -6  -2   48.20    7.20
  -1   6   2   49.70   13.00
  -1   6   2   60.59   11.00
  -1   6   2   56.69   10.60
   0  -6  -2   15.60    8.10
   0  -6  -2   25.90    5.50
   0   6   2   16.60    6.30
   0   6   2   16.30    8.80
   0   6   2   17.50    7.40
  -1  -6  -2    8.10    3.80
  -1  -6  -2    5.80    6.90
   1   6   2   13.20    7.40
   1   6   2   -0.80    5.30
   1   6   2   13.50    6.20
   1   6   2   11.60    4.40
  -2  -6  -2 2150.28   59.99
  -2  -6  -2 2168.38   66.49
   2   6   2 2116.19   63.59
   2   6   2 2148.69   66.89
   2   6   2 2197.08   64.09
   2   6   2 2058.79   59.39
  -3  -6  -2 4558.44  124.49
  -3  -6  -2 4713.73  129.89
   3   6   2 4779.02  130.29
   3   6   2 4672.83  123.19
   3   6   2 4846.31  128.29
   3   6   2 4649.33  126.69
  -4  -6  -2 1734.23   56.19
  -4  -6  -2 1874.11   53.59
   4   6   2 1858.81   57.29
   4   6   2 1807.72   51.09
   4   6   2 1842.92   53.69
   4   6   2 1815.72   55.39
  -5  -6  -2    4.80    4.30
   5   6   2    2.30    5.00
   5   6   2   10.80    6.80
   5   6   2    1.20    4.40
   5   6   2    1.10    4.20
  -6  -6  -2  138.89   11.70
   6   6   2  148.39   11.00
   6   6   2  117.29   11.30
   6   6   2  143.39   14.20
   6   6   2  144.39   13.20
  -7  -6  -2  133.59   13.50
  -7  -6  -2  116.79   12.20
   7   6   2  122.99   15.10
   7   6   2  134.29   17.70
   7   6   2  129.59   14.60
  -8  -6  -2   55.69   10.20
  -8  -6  -2   58.39   12.50
   8   6   2   68.89   14.50
   8   6   2   64.29   12.00
   8   6   2   59.79   10.10
  -9  -6  -2   -8.60    9.40
   9   6   2    3.90    9.20
   9   6   2    1.00    8.80
   9   6   2  -24.50   14.50
 -10  -6  -2   33.20   13.10
  10   6   2   58.99   12.70
  10   6   2   62.99   12.80
 -11  -6  -2   68.49   16.40
  11   6   2   86.59   16.00
  11   6   2   74.29   14.80
 -12  -6  -2  345.87   32.60
  12   6   2  394.26   31.40
   7  -7  -2  323.87   27.90
  -7   7   2  366.96   45.50
   6  -7  -2   79.69   13.60
  -6   7   2   57.99   21.60
   5  -7  -2    7.80    9.50
  -5   7   2   -8.30   17.60
  -5   7   2    5.80   14.20
   4  -7  -2    6.30    8.40
  -4   7   2   -2.10   13.10
  -4   7   2    9.90   15.70
   3  -7  -2   71.49   12.20
   3  -7  -2   73.29   10.60
  -3   7   2   64.69   17.80
  -3   7   2   81.09   14.30
   2  -7  -2  189.88   14.10
   2  -7  -2  199.78   14.40
  -2   7   2  188.08   17.60
  -2   7   2  233.98   22.30
   1  -7  -2  584.84   23.90
   1  -7  -2  574.74   22.50
   1  -7  -2  617.04   34.30
  -1   7   2  582.54   29.40
  -1   7   2  567.34   29.10
   0  -7  -2  399.66   26.10
   0  -7  -2  365.36   16.80
   0   7   2  358.56   21.70
   0   7   2  337.57   21.70
   0   7   2  402.16   28.60
  -1  -7  -2   -4.80    6.60
  -1  -7  -2   -3.90    4.00
   1   7   2   -1.90    8.20
   1   7   2   10.00    7.50
   1   7   2   -5.20    5.20
   1   7   2   -6.00    5.00
  -2  -7  -2  177.38   11.20
  -2  -7  -2  180.68   13.90
   2   7   2  187.08   11.30
   2   7   2  209.08   19.10
   2   7   2  190.58   14.90
   2   7   2  177.38   14.00
  -3  -7  -2   62.99   11.30
  -3  -7  -2   73.19    9.80
   3   7   2   63.19   11.60
   3   7   2   79.09   13.10
   3   7   2   69.59    8.70
   3   7   2   71.99    9.90
  -4  -7  -2  618.34   23.90
  -4  -7  -2  598.34   27.70
   4   7   2  620.14   25.90
   4   7   2  639.24   26.30
   4   7   2  618.64   22.20
   4   7   2  641.14   29.70
  -5  -7  -2   20.60    5.20
  -5  -7  -2   24.50    7.30
   5   7   2   16.70    6.20
   5   7   2   10.60    6.80
   5   7   2   20.90    5.70
   5   7   2   30.30    8.30
  -6  -7  -2   54.49    7.80
   6   7   2   61.89    9.80
   6   7   2   66.49   10.60
   6   7   2   48.30    9.00
   6   7   2   68.29    9.00
  -7  -7  -2  447.16   22.90
   7   7   2  472.75   26.20
   7   7   2  431.36   20.60
   7   7   2  441.36   19.30
   7   7   2  434.26   23.70
  -8  -7  -2  113.49   16.80
   8   7   2  100.79   16.80
   8   7   2   77.19   16.50
   8   7   2   84.79   13.60
   9   7   2  292.97   18.50
   9   7   2  302.77   22.50
 -10  -7  -2  -22.40   12.10
  10   7   2    4.90   10.80
  10   7   2   16.40   13.00
 -11  -7  -2  -13.70   13.60
  11   7   2   23.80   14.20
  11   7   2   15.30   15.30
  12   7   2   22.00   18.30
   6  -8  -2  110.89   17.70
  -6   8   2  118.19   30.80
   5  -8  -2   84.89   14.00
  -5   8   2   30.20   20.90
  -5   8   2   60.39   24.90
   4  -8  -2   62.59   11.40
   4  -8  -2   42.00   10.50
  -4   8   2   41.20   18.00
  -4   8   2   40.80   16.00
   3  -8  -2   16.20    9.50
   3  -8  -2   25.40    9.00
  -3   8   2   24.20   17.00
  -3   8   2   16.70   12.60
   2  -8  -2  185.68   15.40
   2  -8  -2  194.58   15.80
  -2   8   2  254.07   27.90
  -2   8   2  195.98   18.90
   1  -8  -2   37.80    8.30
   1  -8  -2   40.20    8.30
  -1   8   2   41.90   13.20
  -1   8   2   31.30   11.40
   0  -8  -2  778.02   28.10
   0   8   2  753.02   34.90
   0   8   2  749.62   35.60
  -1  -8  -2  342.87   16.40
  -1  -8  -2  368.86   25.40
   1   8   2  368.86   17.60
   1   8   2  357.36   24.80
  -2  -8  -2   -4.30    5.10
  -2  -8  -2  -10.80    7.70
   2   8   2    6.70    6.10
   2   8   2    9.80    9.70
  -3  -8  -2  139.79   16.10
  -3  -8  -2  128.59   12.40
   3   8   2  119.39   15.50
   3   8   2  156.18   22.80
   3   8   2  147.29   13.90
   3   8   2  115.09   12.50
  -4  -8  -2  973.50   39.90
  -4  -8  -2  952.10   33.80
   4   8   2  982.50   37.40
   4   8   2  999.00   36.20
   4   8   2  940.71   42.10
   4   8   2  965.70   32.70
  -5  -8  -2  418.86   23.70
  -5  -8  -2  425.76   20.30
   5   8   2  405.06   18.50
   5   8   2  391.86   21.20
   5   8   2  429.16   26.50
   5   8   2  424.56   22.20
  -6  -8  -2   20.90    7.00
   6   8   2   27.70   13.10
   6   8   2   18.00    7.90
   6   8   2   27.90    7.80
   6   8   2    6.50    8.80
  -7  -8  -2   83.49   12.00
   7   8   2   90.29   13.30
   7   8   2   64.59   10.70
   7   8   2   94.49   11.30
   8   8   2    5.50    8.80
   8   8   2   -1.70    8.70
   8   8   2    2.40    6.50
   9   8   2  455.85   23.60
   9   8   2  532.55   28.20
  10   8   2 1063.19   41.00
  10   8   2 1095.99   44.30
  11   8   2  373.06   30.10
  11   8   2  372.16   25.40
  12   8   2    7.60   17.70
   5  -9  -2   52.99   14.70
   4  -9  -2   14.40   11.40
  -4   9   2   -5.70   18.20
  -4   9   2   -4.40   19.40
   3  -9  -2   66.09   12.60
   3  -9  -2   89.29   13.10
  -3   9   2   57.69   21.90
  -3   9   2   60.29   16.90
   2  -9  -2    4.30    8.70
   2  -9  -2    7.60    9.80
  -2   9   2   14.80   15.90
   1  -9  -2  346.17   19.70
   1  -9  -2  341.27   19.50
  -1   9   2  320.27   27.20
  -1   9   2  323.97   24.20
   0  -9  -2  954.80   35.40
   0  -9  -2 1027.30   35.40
   0   9   2 1003.10   42.90
   0   9   2 1075.39   44.60
  -1  -9  -2  146.99   12.80
   1   9   2  165.58   21.90
   1   9   2  145.19   17.70
   1   9   2  160.18   15.00
  -2  -9  -2   10.10    6.10
   2   9   2   19.20   13.30
   2   9   2   -7.10    7.40
   2   9   2    8.70    6.90
  -3  -9  -2   33.00    7.90
   3   9   2   41.00   12.10
   3   9   2   50.39    8.70
   3   9   2   33.40    8.60
  -4  -9  -2   29.30    8.60
   4   9   2   25.10    9.40
   4   9   2   16.20   10.80
   4   9   2   26.00    9.20
  -5  -9  -2  200.48   15.30
   5   9   2  161.28   16.50
   5   9   2  185.98   15.30
   5   9   2  185.68   17.00
  -6  -9  -2  819.82   31.90
   6   9   2  836.92   31.00
   6   9   2  859.11   33.30
   6   9   2  761.02   33.00
  -7  -9  -2  120.49   15.00
   7   9   2   97.99   14.70
   7   9   2  106.49   16.10
   7   9   2  119.09   14.10
   8   9   2    8.50    8.60
   8   9   2    5.10    8.70
   8   9   2  -12.00    9.20
   9   9   2   15.80   11.30
   9   9   2    6.00   10.40
  10   9   2  -10.50   11.40
  10   9   2   11.00   12.50
  10   9   2   -8.40   15.10
  11   9   2   66.69   16.40
  11   9   2   88.19   16.70
  12   9   2   10.90   16.20
   4 -10  -2  282.17   25.90
   3 -10  -2   28.60   12.60
  -3  10   2   13.50   18.60
  -3  10   2   41.50   21.40
   2 -10  -2    8.60   10.70
   2 -10  -2   10.90   11.60
  -2  10   2    1.00   13.50
  -2  10   2  -24.10   17.70
   1 -10  -2   13.30   10.30
   1 -10  -2   23.30    8.80
  -1  10   2   14.70   17.80
   0 -10  -2    2.40    7.40
   0 -10  -2    3.60    8.40
   0  10   2    8.10   14.10
   0  10   2  -18.10   12.20
  -1 -10  -2  143.79   13.50
   1  10   2  180.88   21.40
   1  10   2  171.38   22.20
  -2 -10  -2  210.18   15.80
   2  10   2  205.98   25.30
   2  10   2  202.98   19.60
  -3 -10  -2   55.89    9.80
   3  10   2   67.29   17.30
   3  10   2   41.50    9.70
   3  10   2   75.59   13.90
  -4 -10  -2   -5.50    8.00
   4  10   2   21.50   13.20
   4  10   2   -6.30    8.10
  -5 -10  -2   17.90    8.30
   5  10   2   30.00   11.30
   5  10   2   35.20   11.20
   5  10   2   35.60   10.20
  -6 -10  -2  -14.90    8.70
   6  10   2    3.80   10.00
   6  10   2    4.50    9.90
   6  10   2   -5.20    8.20
   7  10   2  674.03   30.90
   7  10   2  604.44   31.00
   7  10   2  701.23   29.00
   8  10   2  157.58   20.20
   8  10   2  135.89   16.90
   8  10   2  185.38   18.20
   9  10   2   40.50   11.70
   9  10   2   44.50   11.80
  10  10   2   55.39   12.10
  10  10   2   39.70   13.90
  11  10   2   78.49   18.40
  11  10   2  108.49   16.10
  12  10   2  109.69   19.20
   4 -11  -2   16.10   26.80
   3 -11  -2  193.48   24.00
   2 -11  -2  212.78   21.70
  -2  11   2  169.08   33.70
   1 -11  -2    0.60   11.40
  -1  11   2   27.70   21.00
   0 -11  -2   -6.40    9.70
   0 -11  -2    6.10   10.20
   0  11   2   -7.60   14.60
   0  11   2   12.00   18.50
  -1 -11  -2  133.59   16.80
   1  11   2  142.69   22.30
   1  11   2  111.89   19.80
  -2 -11  -2  118.99   15.80
   2  11   2  105.39   14.30
   2  11   2  144.69   25.40
   2  11   2  114.19   20.30
  -3 -11  -2   91.59   13.30
   3  11   2   80.99   19.70
   3  11   2  128.39   17.10
   3  11   2   90.99   17.70
  -4 -11  -2  314.57   22.80
   4  11   2  320.47   21.30
   4  11   2  299.27   20.60
   4  11   2  352.66   28.40
   5  11   2   -5.40   11.20
   5  11   2    4.70    9.10
   5  11   2   22.40   14.00
   6  11   2  189.28   20.80
   6  11   2  187.98   18.10
   6  11   2  203.28   23.20
   7  11   2  360.16   24.60
   7  11   2  393.66   24.40
   7  11   2  410.26   30.10
   8  11   2  124.19   18.50
   8  11   2  105.69   16.20
   9  11   2    5.30   12.30
   9  11   2   -2.40   12.50
  10  11   2   26.00   13.80
  10  11   2   56.49   15.00
  11  11   2   -3.60   15.20
   1 -12  -2   -9.70   13.50
   0 -12  -2   42.70   12.90
   0  12   2    8.50   20.50
  -1 -12  -2    9.10   11.30
   1  12   2  -10.90   17.10
   1  12   2   22.00   19.30
   2  12   2   43.00   18.80
   2  12   2   78.19   19.60
   3  12   2  342.67   24.30
   3  12   2  285.77   30.70
   3  12   2  342.27   28.40
   4  12   2   -1.70   12.20
   4  12   2   66.09   20.30
   4  12   2   29.40   13.20
   5  12   2   16.40   12.50
   5  12   2   53.19   20.20
   5  12   2   54.79   12.30
   6  12   2   -2.40   10.50
   6  12   2    6.70   16.60
   6  12   2  -25.60   12.10
   7  12   2   70.49   18.00
   7  12   2   68.89   15.90
   8  12   2   24.70   16.90
   8  12   2   -9.20   14.60
   9  12   2   98.09   18.10
   9  12   2  106.49   19.60
  10  12   2   44.50   19.60
  10  12   2   25.00   29.40
   1  13   2   26.70   24.60
   2  13   2   24.00   20.70
   3  13   2   43.30   24.30
   3  13   2   20.80   18.90
   4  13   2  246.08   29.60
   4  13   2  263.97   24.70
   5  13   2  371.16   28.60
   5  13   2  375.66   27.10
   6  13   2   42.10   15.50
   7  13   2  -11.90   15.80
   8  13   2   67.09   19.00
   9  13   2   12.30   21.80
   3  14   2   20.70   23.70
   8  12  -3    5.30   16.40
   7  12  -3   61.89   16.60
   6  12  -3   89.19   17.60
   6  12  -3   88.49   21.80
   5  12  -3   60.09   19.80
   5  12  -3   46.20   15.60
   4  12  -3   -8.70   17.00
   3  12  -3   26.90   17.70
   3  12  -3    1.90   15.80
   2  12  -3   -7.40   16.40
   2  12  -3  -24.50   25.40
   1  12  -3  208.18   31.00
   0  12  -3   15.70   15.80
  -1  12  -3    0.60   17.00
   8  11  -3    0.80   28.70
   8  11  -3   13.70   15.30
   7  11  -3  357.26   27.90
   7  11  -3  376.86   32.70
   6  11  -3  167.38   25.50
   6  11  -3  167.18   21.50
   5  11  -3   26.70   15.00
   5  11  -3    9.40   12.80
   4  11  -3   41.40   13.70
   4  11  -3   43.20   14.20
   3  11  -3   10.20   12.40
   3  11  -3   39.60   14.90
   2  11  -3  129.69   17.60
   2  11  -3   93.49   15.20
   2  11  -3  133.69   22.20
   1  11  -3  296.37   27.00
   1  11  -3  288.97   21.40
   1  11  -3  237.28   23.70
   0  11  -3  117.89   17.80
   0  11  -3  104.79   23.00
  -1  11  -3  -19.90   13.80
   1 -11   3  -16.80   14.30
  -2  11  -3   -4.50   16.00
   8  10  -3    0.60   13.60
   8  10  -3   -1.40   14.40
   7  10  -3   15.70   12.40
   7  10  -3   -8.20   11.70
   6  10  -3  115.99   18.90
   6  10  -3  130.89   21.50
   5  10  -3  157.28   21.10
   5  10  -3  170.28   19.90
   4  10  -3   25.40   13.50
   4  10  -3   49.10   12.90
   3  10  -3   28.00   12.90
   3  10  -3   12.70    9.80
   3  10  -3   24.80    8.00
   2  10  -3   -7.60    9.40
   2  10  -3   19.90   11.50
   2  10  -3    3.20    8.30
   1  10  -3    4.80   11.10
   1  10  -3   -2.70    9.00
   1  10  -3  -21.00   10.90
   0  10  -3   79.39   15.50
   0  10  -3  102.29   17.00
   0  10  -3   58.79   11.80
  -1  10  -3  389.46   30.60
  -1  10  -3  399.46   25.20
  -2  10  -3   56.09   14.10
  -2  10  -3   67.19   21.40
   2 -10   3   90.99   17.70
  -3  10  -3   -6.70   15.00
   3 -10   3    6.40   17.80
   9   9  -3  360.66   26.70
   8   9  -3  192.58   21.10
   8   9  -3  197.98   20.70
   7   9  -3   -1.30   10.50
   7   9  -3    0.00   10.80
   6   9  -3   23.50   11.60
   6   9  -3   28.30   11.40
   5   9  -3  185.28   20.10
   5   9  -3  171.58   18.00
   4   9  -3  454.25   25.70
   4   9  -3  494.75   26.70
   3   9  -3  764.52   33.60
   3   9  -3  758.22   25.50
   3   9  -3  709.93   34.00
   2   9  -3  184.08   17.70
   2   9  -3  194.58   18.00
   2   9  -3  163.08   13.10
   1   9  -3   83.89   13.20
   1   9  -3  104.29   12.80
   1   9  -3   85.79   13.20
   0   9  -3  135.89   14.90
   0   9  -3  174.48   16.40
   0   9  -3  145.49   17.20
  -1   9  -3  161.18   16.00
  -1   9  -3  200.88   22.00
  -2   9  -3   92.99   18.40
  -2   9  -3  102.09   14.50
   2  -9   3   89.49   15.70
  -3   9  -3  131.29   25.50
  -3   9  -3   98.09   17.20
   3  -9   3  142.69   22.50
  -4   9  -3   -6.60   13.70
   4  -9   3   12.40   17.50
  10   8  -3  -13.30   24.30
   9   8  -3   49.80   14.80
   8   8  -3  315.47   32.40
   8   8  -3  316.97   24.10
   7   8  -3  275.17   19.50
   7   8  -3  256.87   23.20
   6   8  -3   -5.30   10.20
   6   8  -3   13.00    8.30
   5   8  -3   32.60    7.30
   5   8  -3   17.70   10.80
  -5  -8   3   23.20   14.30
   4   8  -3  493.45   25.50
   4   8  -3  484.65   24.80
  -4  -8   3  492.65   27.30
   3   8  -3  692.13   29.90
   3   8  -3  677.93   22.50
   3   8  -3  686.23   30.60
  -3  -8   3  653.33   30.90
   2   8  -3   10.00    9.40
   2   8  -3   -1.40    8.20
   2   8  -3    7.80    5.30
  -2  -8   3   -0.50    8.10
   1   8  -3   52.59    9.90
   1   8  -3   66.39   10.00
   1   8  -3   55.49   11.20
  -1  -8   3   68.49   11.60
   0   8  -3   80.09   11.70
   0   8  -3   86.99   14.20
   0   8  -3   79.59   14.10
   0  -8   3   81.79   13.80
  -1   8  -3  128.79   16.10
  -1   8  -3   98.29   13.50
  -1   8  -3  134.39   18.20
   1  -8   3  155.18   22.00
  -2   8  -3  157.48   19.20
  -2   8  -3  130.19   13.70
  -3   8  -3   48.70   17.50
   3  -8   3   44.50   13.30
  -4   8  -3   15.50   12.20
  -4   8  -3   37.80   20.30
   4  -8   3   25.70   12.90
  -5   8  -3   11.20   22.80
  -5   8  -3   -3.90   16.60
   5  -8   3    8.60   16.40
  10   7  -3   39.60   16.80
   9   7  -3   48.80   13.30
   8   7  -3   30.50    8.20
   8   7  -3    6.10   10.60
   7   7  -3    1.50    8.80
   7   7  -3    3.80    8.10
   7   7  -3   -0.20    7.30
   6   7  -3   76.49   12.10
   6   7  -3   65.09   12.20
   6   7  -3   84.69   12.40
  -6  -7   3   74.09   12.90
   5   7  -3   55.39   10.20
   5   7  -3   53.99    9.60
   5   7  -3   51.09    7.30
  -5  -7   3   45.10   10.70
   4   7  -3   14.80    8.40
   4   7  -3   20.50    8.70
  -4  -7   3   25.90    9.10
   3   7  -3 1026.10   28.90
   3   7  -3  977.60   36.60
   3   7  -3  972.90   36.00
  -3  -7   3  990.70   37.70
   2   7  -3 1781.12   57.19
   2   7  -3 1803.52   57.99
   2   7  -3 1841.12   51.79
  -2  -7   3 1828.72   59.09
   1   7  -3   98.99   12.80
   1   7  -3  101.59    9.60
   1   7  -3   98.39   14.90
  -1  -7   3  110.19   13.00
   0   7  -3   91.19   10.90
   0   7  -3   86.19   13.30
   0   7  -3  102.09   13.30
   0  -7   3  113.49   16.20
  -1   7  -3    5.70    9.10
  -1   7  -3   -6.90    7.60
  -1   7  -3    6.70    8.80
   1  -7   3   10.50    8.40
  -2   7  -3  129.19   17.70
  -2   7  -3  112.19   13.50
   2  -7   3  147.49   16.30
  -3   7  -3  317.77   24.10
  -3   7  -3  277.37   20.90
   3  -7   3  276.17   21.60
   3  -7   3  318.17   29.00
  -4   7  -3  742.33   39.30
  -4   7  -3  757.52   35.40
   4  -7   3  764.22   34.30
  -5   7  -3  259.77   29.90
  -5   7  -3  273.37   25.90
   5  -7   3  268.67   25.20
  -6   7  -3   82.39   21.90
  -6   7  -3   90.59   23.40
   6  -7   3   82.69   20.20
  10   6  -3   38.20   14.80
   9   6  -3    9.00   10.20
   8   6  -3   16.30    9.20
   8   6  -3   -6.30    6.20
   8   6  -3   -7.60   11.30
   7   6  -3  910.51   35.60
   7   6  -3  930.31   31.10
   7   6  -3  908.41   37.40
  -7  -6   3 1020.90   39.30
   6   6  -3 2632.64   77.89
   6   6  -3 2538.75   76.09
   6   6  -3 2558.74   72.39
   5   6  -3 1162.88   37.40
   5   6  -3 1167.28   40.50
   5   6  -3 1193.28   40.50
  -5  -6   3 1207.48   42.30
   4   6  -3   90.69    8.80
   4   6  -3   98.79   11.20
   4   6  -3   95.39   16.90
  -4  -6   3   97.49   12.40
   3   6  -3    2.60    6.40
   3   6  -3    7.90    6.30
  -3  -6   3   -0.80    5.70
   2   6  -3  129.39    7.50
   2   6  -3  136.39   13.60
   2   6  -3  128.19   11.60
  -2  -6   3  124.59   11.40
   1   6  -3  634.84   25.10
   1   6  -3  575.44   25.70
   1   6  -3  615.04   21.70
  -1  -6   3  616.14   27.40
   0   6  -3  458.55   19.30
   0   6  -3  463.95   23.10
   0   6  -3  453.35   21.60
   0  -6   3  457.25   23.30
  -1   6  -3   45.60    9.40
  -1   6  -3   48.00    8.60
  -1   6  -3   59.49   12.40
   1  -6   3   49.99    9.40
  -2   6  -3    3.90    9.00
   2  -6   3    7.80    7.80
  -3   6  -3  181.58   16.60
  -3   6  -3  234.08   21.50
   3  -6   3  193.48   18.40
  -4   6  -3  179.68   17.20
  -4   6  -3  193.98   23.60
   4  -6   3  216.38   18.10
  -5   6  -3    6.90   11.60
  -5   6  -3   24.40   16.30
   5  -6   3    5.90   10.90
  -6   6  -3  115.89   22.40
  -6   6  -3  155.48   24.60
   6  -6   3  131.89   20.30
  -7   6  -3   20.80   19.90
  -7   6  -3   17.40   19.30
   7  -6   3   33.20   16.60
  10   5  -3  155.58   23.20
   9   5  -3  150.68   17.60
   8   5  -3   48.90   10.50
   8   5  -3   47.40   13.00
  -8  -5   3   41.50    7.70
   7   5  -3  -12.30    7.40
   7   5  -3   13.90    4.70
   7   5  -3    4.40    8.50
  -7  -5   3   -1.10    8.30
   6   5  -3   43.80    9.10
   6   5  -3   44.10    8.00
   6   5  -3   49.30    6.90
  -6  -5   3   41.50    7.50
   5   5  -3  708.63   32.50
   5   5  -3  826.62   30.10
   5   5  -3  824.82   26.50
  -5  -5   3  853.41   31.40
   4   5  -3 1429.46   43.10
   4   5  -3 1440.16   45.40
   4   5  -3 1481.95   45.60
  -4  -5   3 1493.65   47.20
   3   5  -3    7.20    5.40
   3   5  -3    1.50    4.60
  -3  -5   3    3.00    4.80
   2   5  -3   14.90    5.90
   2   5  -3   19.70    5.60
   2   5  -3   18.50    2.90
  -2  -5   3   17.50    5.80
  -2  -5   3   20.20    6.00
   1   5  -3   -1.00    2.80
   1   5  -3   -1.60    4.20
   1   5  -3   -5.90    5.20
  -1  -5   3    1.50    5.80
  -1  -5   3   -0.60    4.40
   0   5  -3   -5.70    5.10
   0   5  -3    4.60    3.50
   0   5  -3   -5.60    4.10
   0  -5   3    6.80    6.40
  -1   5  -3  244.78   15.70
  -1   5  -3  224.28   13.00
  -1   5  -3  234.18   15.50
   1  -5   3  262.77   16.20
  -2   5  -3  498.05   23.80
  -2   5  -3  477.55   21.80
  -3   5  -3   24.90    9.90
  -3   5  -3   55.79   12.10
  -3   5  -3   34.90    8.10
   3  -5   3   38.90    9.30
  -4   5  -3  637.94   32.30
  -4   5  -3  630.74   29.50
   4  -5   3  661.03   29.30
  -5   5  -3 1171.88   46.30
  -5   5  -3 1121.09   46.30
  -5   5  -3 1087.89   45.00
   5  -5   3 1093.49   42.70
  -6   5  -3   44.20   14.40
  -6   5  -3   22.10   14.80
   6  -5   3   44.00   12.90
  -7   5  -3  101.59   19.60
  -7   5  -3  136.39   23.30
   7  -5   3  104.39   17.60
  -8   5  -3    0.70   17.30
   8  -5   3  -11.50   20.60
  10   4  -3   13.00   12.20
   9   4  -3  658.03   31.30
  -9  -4   3  699.13   27.10
   8   4  -3 1287.37   45.80
   8   4  -3 1272.07   48.20
   8   4  -3 1329.77   39.00
  -8  -4   3 1319.27   40.30
   7   4  -3  177.48   15.70
   7   4  -3  177.98   10.00
   7   4  -3  156.58   17.50
  -7  -4   3  174.88   16.50
  -7  -4   3  195.68   10.30
   6   4  -3    3.40    6.10
   6   4  -3   -4.40    6.60
   6   4  -3    6.30    3.50
  -6  -4   3   -3.30    4.90
   5   4  -3   12.70    5.90
   5   4  -3    7.60    5.00
   5   4  -3    6.90    3.40
  -5  -4   3   13.60    5.80
   4   4  -3   36.60    5.50
   4   4  -3   54.99    7.10
   4   4  -3   59.19    7.50
  -4  -4   3   39.30    7.00
   3   4  -3  639.94   23.80
   3   4  -3  622.74   22.80
   3   4  -3  622.54   21.10
  -3  -4   3  671.13   24.60
   2   4  -3  158.48    9.30
   2   4  -3  142.59    9.40
   2   4  -3  147.19    9.70
  -2  -4   3  142.49    9.30
  -2  -4   3  150.28   10.20
   1   4  -3  167.28   11.10
   1   4  -3  169.88    9.80
   1   4  -3  170.08    7.70
   1   4  -3  159.78   10.80
  -1  -4   3  178.18   12.60
  -1  -4   3  178.08   10.10
   0   4  -3 1192.98   38.50
   0   4  -3 1147.49   39.00
   0   4  -3 1196.98   35.00
   0   4  -3 1215.38   37.10
   0  -4   3 1121.99   39.60
   0  -4   3 1179.28   36.40
  -1   4  -3 5597.24  145.89
  -1   4  -3 5425.36  142.79
  -1   4  -3 5276.47  143.89
   1  -4   3 5379.16  144.09
   1  -4   3 5258.67  145.99
  -2   4  -3 1840.22   54.19
  -2   4  -3 1689.83   54.09
  -2   4  -3 1759.82   55.39
  -2   4  -3 1816.62   57.69
  -3   4  -3   10.60    5.80
  -3   4  -3    6.00    7.70
   3  -4   3   -3.70    6.40
  -4   4  -3   -1.10    6.50
  -4   4  -3    9.50    7.00
  -4   4  -3   10.30   10.40
   4  -4   3    8.50    7.90
  -5   4  -3  304.57   23.40
  -5   4  -3  302.87   21.60
  -5   4  -3  302.37   20.00
   5  -4   3  276.77   21.00
  -6   4  -3  274.27   21.70
  -6   4  -3  254.87   23.60
   6  -4   3  299.27   21.10
  -7   4  -3   52.49   13.30
  -7   4  -3   77.29   16.00
   7  -4   3   74.39   15.30
  -8   4  -3   67.59   21.50
  -8   4  -3   51.29   13.50
   8  -4   3   40.70   14.40
  -9   4  -3   -0.40   19.70
  10   3  -3   17.10   12.50
 -10  -3   3   39.10   13.50
   9   3  -3  179.48   19.30
  -9  -3   3  155.88   23.20
   8   3  -3    4.40    9.10
   8   3  -3   -8.90    6.00
   8   3  -3    8.50    8.90
  -8  -3   3   -5.90    8.40
  -8  -3   3   16.00   11.90
   7   3  -3  239.08   12.20
   7   3  -3  268.97   19.40
   7   3  -3  255.97   17.10
  -7  -3   3  250.37   18.60
  -7  -3   3  220.68   15.10
  -7  -3   3  274.77   15.90
   6   3  -3   18.40    8.10
   6   3  -3   22.10    4.70
   6   3  -3   16.00    6.80
  -6  -3   3   13.80    5.40
  -6  -3   3    8.70    5.70
   5   3  -3   78.59    8.70
   5   3  -3   66.29   10.80
   5   3  -3   66.19    5.40
  -5  -3   3   58.59    7.40
  -5  -3   3   64.39    6.60
   4   3  -3   54.99    4.80
   4   3  -3   56.09    7.20
   4   3  -3   72.29    7.90
  -4  -3   3   64.49    7.40
   3   3  -3 2528.35   69.69
   3   3  -3 2597.84   69.79
   3   3  -3 2375.96   72.59
   3   3  -3 2499.55   66.49
  -3  -3   3 2592.14   70.29
   2   3  -3 1211.78   36.60
   2   3  -3 1265.27   36.50
   2   3  -3 1195.68   35.70
   2   3  -3 1230.08   34.90
  -2  -3   3 1251.77   37.60
   1   3  -3    1.20    2.50
   1   3  -3    4.20    4.10
   1   3  -3    3.90    2.60
  -1  -3   3   11.10    2.90
  -1  -3   3    5.50    4.30
   0   3  -3   48.80    7.10
   0   3  -3   60.99    5.10
   0   3  -3   53.09    5.40
   0  -3   3   57.29    4.70
   0  -3   3   46.80    7.70
  -1   3  -3  309.57   13.00
  -1   3  -3  314.57   15.00
  -1   3  -3  303.17   13.80
  -1   3  -3  288.97   15.00
   1  -3   3  304.97   14.10
  -2   3  -3 1204.08   37.50
  -2   3  -3 1173.58   39.80
  -2   3  -3 1168.58   37.70
  -2   3  -3 1156.08   38.30
  -2   3  -3 1146.29   38.30
   2  -3   3 1189.48   37.90
  -3   3  -3 1804.02   54.29
  -3   3  -3 1717.33   54.49
  -3   3  -3 1739.93   53.79
   3  -3   3 1728.73   57.09
   3  -3   3 1773.72   54.29
  -4   3  -3   13.90    6.80
  -4   3  -3   17.30    7.80
  -4   3  -3    8.30    6.30
   4  -3   3   17.80    8.40
  -5   3  -3   41.30    8.80
  -5   3  -3   56.49   11.80
   5  -3   3   50.89   10.20
  -6   3  -3  118.89   17.80
  -6   3  -3   73.79   12.50
  -6   3  -3   97.29   17.30
   6  -3   3  110.29   14.70
  -7   3  -3    6.70   10.10
  -7   3  -3   20.40   11.80
   7  -3   3    8.00   10.70
  -8   3  -3   92.29   21.00
  -8   3  -3   97.49   16.10
   8  -3   3   59.39   13.80
  -9   3  -3  225.88   39.00
  -9   3  -3  174.78   22.40
   9  -3   3  148.99   24.90
 -11  -2   3  -30.40   18.20
  10   2  -3   59.89   15.70
 -10  -2   3   52.69   17.20
   9   2  -3   10.30    9.80
  -9  -2   3  -11.70   12.40
   8   2  -3    5.70    8.50
   8   2  -3   -0.10    4.90
   8   2  -3    6.40    8.30
  -8  -2   3    3.10   11.80
  -8  -2   3   -4.90    9.10
   7   2  -3  201.18   15.20
   7   2  -3  220.08   17.10
   7   2  -3  214.58   10.00
  -7  -2   3  201.28   15.40
  -7  -2   3  187.68   16.00
  -7  -2   3  240.28   17.70
   6   2  -3   32.20    6.80
   6   2  -3   23.00    7.40
   6   2  -3   26.60    3.80
  -6  -2   3   25.60    6.50
  -6  -2   3   17.30    7.50
  -6  -2   3   16.40    6.00
   5   2  -3   -4.50    3.20
   5   2  -3   10.60    5.60
   5   2  -3    7.80    5.50
  -5  -2   3    2.00    4.00
  -5  -2   3   -1.60    4.40
  -5  -2   3    8.50    4.20
   4   2  -3   28.20    5.40
   4   2  -3   30.40    5.90
  -4  -2   3   30.00    4.80
  -4  -2   3   20.50    4.40
  -4  -2   3   23.60    4.20
   3   2  -3  903.01   28.30
   3   2  -3  902.21   28.70
  -3  -2   3  887.21   27.80
  -3  -2   3  892.71   28.20
   2   2  -3 4687.43  123.19
   2   2  -3 4837.22  122.99
   2   2  -3 4923.11  121.09
  -2  -2   3 4368.76  124.89
   1   2  -3 7393.36  192.38
   1   2  -3 7527.65  193.98
   1   2  -3 7362.56  192.08
   1   2  -3 7666.13  192.18
  -1  -2   3 7775.22  194.88
   0   2  -3  403.06   13.20
   0   2  -3  398.96   13.80
   0   2  -3  380.06   15.30
   0   2  -3  393.26   13.80
   0  -2   3  383.16   12.50
   0  -2   3  363.96   15.90
  -1   2  -3    4.50    3.90
  -1   2  -3   11.60    3.10
  -1   2  -3   11.50    4.00
  -1   2  -3    7.50    4.90
  -1   2  -3    5.80    3.10
   1  -2   3    6.40    2.80
  -2   2  -3   74.59    7.60
  -2   2  -3   60.59    6.00
  -2   2  -3   64.69    6.70
  -2   2  -3   64.49    6.40
  -2   2  -3   64.79    7.20
   2  -2   3   52.89    5.90
  -3   2  -3    8.50    5.00
  -3   2  -3    8.20    4.20
  -3   2  -3    9.60    4.40
  -3   2  -3   -0.70    3.80
   3  -2   3    2.90    5.10
   3  -2   3    6.50    4.10
  -4   2  -3  457.45   20.40
  -4   2  -3  426.66   19.90
  -4   2  -3  440.96   20.90
   4  -2   3  445.26   20.80
  -5   2  -3  441.96   21.60
  -5   2  -3  420.66   21.60
  -6   2  -3  469.95   25.00
  -6   2  -3  410.66   24.00
  -6   2  -3  373.76   21.20
   6  -2   3  386.66   22.00
  -7   2  -3  303.77   20.90
  -7   2  -3  350.06   27.50
  -7   2  -3  301.47   23.70
  -8   2  -3  936.31   39.90
  -8   2  -3  946.51   44.60
   8  -2   3  937.21   39.30
  -9   2  -3  187.48   21.70
  -9   2  -3  220.28   29.40
   9  -2   3  212.88   24.60
 -10   2  -3  -26.30   17.70
 -11  -1   3   45.40   23.00
  10   1  -3   13.90   14.60
 -10  -1   3  -20.90   16.60
   9   1  -3   -2.50   11.00
  -9  -1   3    4.50   13.40
   8   1  -3    1.50    8.00
   8   1  -3   14.90   13.10
   8   1  -3    1.50    4.80
  -8  -1   3    4.00   13.00
  -8  -1   3   -9.50    7.50
   7   1  -3   18.80    7.00
   7   1  -3   15.30    7.90
   7   1  -3   25.00    4.00
  -7  -1   3   15.30    7.70
  -7  -1   3   25.70    8.70
  -7  -1   3    3.90    9.70
   6   1  -3  887.41   32.90
   6   1  -3  940.01   34.60
  -6  -1   3  936.61   35.00
  -6  -1   3  966.00   33.10
  -6  -1   3  915.11   32.00
   5   1  -3 2233.88   65.39
   5   1  -3 2317.87   67.89
   5   1  -3 2332.67   60.09
  -5  -1   3 2283.37   65.19
  -5  -1   3 2305.47   64.89
  -5  -1   3 2237.98   67.09
   4   1  -3  723.53   26.30
   4   1  -3  711.43   24.40
  -4  -1   3  757.72   24.30
  -4  -1   3  701.43   23.80
  -4  -1   3  710.73   25.70
   3   1  -3  261.97   11.20
   3   1  -3  267.07   12.70
  -3  -1   3  264.87   11.00
  -3  -1   3  256.07   12.00
   2   1  -3  500.35   16.60
  -2  -1   3  515.15   16.70
  -2  -1   3  491.05   16.70
  -2  -1   3  492.45   16.50
   1   1  -3  100.09    5.20
   1   1  -3   98.59    5.50
  -1  -1   3   91.09    5.60
  -1  -1   3   90.59    4.40
   0   1  -3  679.23   21.30
   0   1  -3  668.23   18.20
   0   1  -3  689.03   19.40
   0   1  -3  695.13   19.90
   0   1  -3  682.93   18.50
   0  -1   3  624.14   21.60
  -1   1  -3  177.98    6.70
  -1   1  -3  188.78    8.60
  -1   1  -3  175.58    9.70
  -1   1  -3  187.58    8.50
   1  -1   3  180.08    7.00
  -2   1  -3   19.50    4.50
  -2   1  -3   10.10    2.20
  -2   1  -3   15.10    3.70
   2  -1   3   10.90    2.60
  -3   1  -3  167.28    9.50
  -3   1  -3  173.58   10.80
  -3   1  -3  165.78   10.10
  -3   1  -3  177.98   10.90
   3  -1   3  173.28   10.40
   3  -1   3  171.38    9.50
  -4   1  -3 2077.39   61.19
  -4   1  -3 2076.79   59.89
  -4   1  -3 2091.69   60.29
  -4   1  -3 1970.70   62.29
   4  -1   3 2000.50   59.69
   4  -1   3 2107.89   59.29
  -5   1  -3 1187.18   39.80
  -5   1  -3 1201.78   41.60
  -5   1  -3 1214.38   40.70
   5  -1   3 1204.08   40.10
  -6   1  -3   35.50   10.00
  -6   1  -3   32.20    8.30
   6  -1   3   40.90    9.60
  -7   1  -3   16.90   10.30
  -7   1  -3   12.30   12.10
  -7   1  -3   -1.40    7.20
   7  -1   3    4.00    8.50
  -8   1  -3  266.07   27.00
  -8   1  -3  261.67   20.70
   8  -1   3  256.27   19.20
  -9   1  -3  440.66   28.80
  -9   1  -3  445.96   32.80
   9  -1   3  415.86   28.10
 -10   1  -3  217.28   35.40
 -10   1  -3  198.18   27.70
  10  -1   3  167.08   26.80
 -11   1  -3  -14.90   22.90
 -11   0   3  -32.20   30.10
  10   0  -3   -3.40   13.20
 -10   0   3    4.40   18.80
   9   0  -3  140.69   17.80
  -9   0   3  180.68   23.20
   8   0  -3  139.49   15.40
  -8   0   3  160.98   17.30
  -8   0   3  147.69   18.60
   7   0  -3   12.90    7.70
   7   0  -3   13.10    7.30
  -7   0   3    1.40    6.00
  -7   0   3    2.80    5.60
  -7   0   3    7.30   10.90
  -7   0   3    9.00    7.80
   6   0  -3  253.07   15.80
   6   0  -3  260.37   16.40
  -6   0   3  271.87   14.90
  -6   0   3  257.67   12.20
  -6   0   3  277.67   16.70
  -6   0   3  267.27   19.90
   5   0  -3    4.10    4.50
   5   0  -3    3.20    5.60
  -5   0   3    0.70    4.70
  -5   0   3    1.80    3.30
  -5   0   3   18.30    6.40
  -5   0   3    7.90    7.20
   4   0  -3 1721.53   51.59
   4   0  -3 1717.73   49.30
  -4   0   3 1721.53   45.10
  -4   0   3 1657.93   48.00
  -4   0   3 1667.93   51.39
  -4   0   3 1676.63   50.29
   3   0  -3  191.98    9.30
   3   0  -3  194.88   10.70
  -3   0   3  208.48   10.90
  -3   0   3  201.28    9.30
  -3   0   3  193.88   11.90
   2   0  -3   35.30    4.20
   2   0  -3   31.40    5.40
  -2   0   3   37.30    6.00
  -2   0   3   37.30    4.40
  -2   0   3   36.60    3.60
   1   0  -3  224.88    8.30
   1   0  -3  216.38    8.60
   1   0  -3  196.48    8.10
  -1   0   3  218.68    7.90
  -1   0   3  215.08    8.80
  -1   0   3  243.38    9.90
   0   0  -3  306.97    9.50
   0   0  -3  331.47   11.00
   0   0   3  313.27   11.10
   0   0   3  315.97    9.30
  -1   0  -3  171.88    7.80
  -1   0  -3  177.98    7.90
  -1   0  -3  181.18    7.40
  -1   0  -3  182.98    7.10
  -2   0  -3  291.07   12.20
  -2   0  -3  319.97    9.90
  -2   0  -3  301.27   11.30
  -2   0  -3  320.27   12.50
   2   0   3  289.77    9.80
   2   0   3  296.47   12.00
  -3   0  -3    2.80    2.50
  -3   0  -3   -1.70    3.60
  -3   0  -3    2.10    3.20
   3   0   3    2.70    3.20
   3   0   3   -0.20    2.00
  -4   0  -3 1728.33   51.99
  -4   0  -3 1742.73   50.19
  -4   0  -3 1752.52   49.70
  -4   0  -3 1727.83   50.69
   4   0   3 1640.04   49.90
   4   0   3 1778.42   49.60
  -5   0  -3 4204.58  113.49
  -5   0  -3 4269.47  116.09
  -5   0  -3 4149.69  113.99
   5   0   3 4131.99  113.59
   5   0   3 4180.28  113.19
  -6   0  -3 3384.46   91.89
  -6   0  -3 3066.29   97.79
  -6   0  -3 3175.28   90.39
  -7   0  -3    9.30   10.20
  -7   0  -3   22.60    8.90
  -7   0  -3    8.80    7.70
   7   0   3    9.80    7.20
  -8   0  -3    4.70   12.40
  -8   0  -3   16.40   18.00
  -8   0  -3   -2.80    7.90
   8   0   3   16.30    8.80
  -9   0  -3    4.80   11.30
  -9   0  -3   21.00   15.60
   9   0   3    3.60   10.20
 -10   0  -3   11.40   14.80
 -10   0  -3   23.20   16.30
  10   0   3    8.60   12.80
 -11   0  -3   60.69   19.60
 -10   1   3   56.89   22.00
   9  -1  -3   -6.80   10.90
  -9   1   3    7.40   14.50
   8  -1  -3  182.58   17.90
  -8   1   3  180.48   17.50
  -8   1   3  223.58   21.40
  -8   1   3  197.78   20.80
   7  -1  -3  100.09   18.20
   7  -1  -3   86.59   12.00
  -7   1   3  107.49   12.50
  -7   1   3   92.79   11.40
  -7   1   3  104.39   15.40
   6  -1  -3  256.27   17.70
   6  -1  -3  269.67   15.80
  -6   1   3  221.28   20.40
  -6   1   3  280.07   13.40
  -6   1   3  225.08   24.10
  -6   1   3  276.37   14.40
   5  -1  -3  739.53   29.60
   5  -1  -3  702.73   26.30
  -5   1   3  731.93   25.00
  -5   1   3  735.23   32.20
  -5   1   3  720.63   29.20
  -5   1   3  743.03   23.80
   4  -1  -3 1227.08   41.00
   4  -1  -3 1268.17   38.00
  -4   1   3 1235.28   35.60
  -4   1   3 1221.58   36.60
  -4   1   3 1245.78   41.80
  -4   1   3 1221.98   40.70
   3  -1  -3  117.99    7.60
   3  -1  -3  109.99    9.20
  -3   1   3  116.29   10.40
  -3   1   3  106.89    7.10
  -3   1   3  117.09    7.20
  -3   1   3  107.19   10.10
   2  -1  -3   14.60    3.50
   2  -1  -3   14.50    3.00
  -2   1   3   16.00    2.80
  -2   1   3   15.90    4.00
  -2   1   3   14.00    2.60
  -2   1   3   14.50    3.60
   1  -1  -3   10.40    1.80
   1  -1  -3    7.80    2.10
  -1   1   3    6.00    2.30
  -1   1   3    8.90    4.00
  -1   1   3    7.10    1.40
   0  -1  -3   19.90    3.40
   0   1   3   23.10    3.90
   0   1   3   24.40    3.60
   0   1   3   26.30    1.80
   0   1   3   27.30    3.30
  -1  -1  -3 3520.45   94.69
  -1  -1  -3 3982.00   96.59
  -1  -1  -3 3742.93   94.59
   1   1   3 3395.16   94.89
   1   1   3 4037.60   95.59
   1   1   3 3494.35   94.39
  -2  -1  -3 7491.05  187.28
  -2  -1  -3 7914.41  188.48
  -2  -1  -3 7173.68  187.08
   2   1   3 6727.43  186.38
   2   1   3 7302.47  185.78
   2   1   3 7406.06  186.18
  -3  -1  -3 2367.66   65.19
  -3  -1  -3 2428.96   64.39
  -3  -1  -3 2418.16   65.59
  -3  -1  -3 2465.85   66.59
   3   1   3 2424.86   64.89
   3   1   3 2407.46   64.19
  -4  -1  -3  211.98   11.90
  -4  -1  -3  196.18   10.30
  -4  -1  -3  203.78   10.40
  -4  -1  -3  210.18    9.90
   4   1   3  213.98   10.50
   4   1   3  218.88   10.80
  -5  -1  -3    0.90    4.20
  -5  -1  -3    4.20    4.40
  -5  -1  -3    0.80    5.30
  -5  -1  -3   -1.80    3.60
   5   1   3    0.70    4.00
   5   1   3   -0.30    3.80
  -6  -1  -3   49.70    7.80
  -6  -1  -3   56.99    9.20
  -6  -1  -3   46.50    9.50
   6   1   3   64.89    9.10
  -7  -1  -3   -3.90    6.50
  -7  -1  -3    6.40    8.80
   7   1   3   18.10    8.50
  -8  -1  -3  120.69   17.60
  -8  -1  -3  140.79   15.40
  -8  -1  -3  127.89   17.60
   8   1   3  133.59   14.40
  -9  -1  -3  144.99   18.80
  -9  -1  -3  136.29   19.90
   9   1   3  151.18   17.70
 -10  -1  -3  152.58   21.20
 -10  -1  -3  155.98   23.40
  10   1   3  142.69   19.30
 -11  -1  -3  313.37   33.90
   9  -2  -3  362.46   26.70
  -9   2   3  376.76   32.50
   8  -2  -3  612.34   30.00
  -8   2   3  598.64   34.10
  -8   2   3  638.04   30.70
   7  -2  -3   56.99   10.40
  -7   2   3   68.79   12.90
  -7   2   3   56.59   11.20
  -7   2   3   74.49   12.50
   6  -2  -3    1.70    6.30
   6  -2  -3    6.60    9.00
  -6   2   3    4.40    8.80
  -6   2   3    1.90    6.50
  -6   2   3    5.10    6.80
   5  -2  -3    8.50    5.90
   5  -2  -3    1.40    7.60
  -5   2   3    1.50    8.50
  -5   2   3   -8.50    4.70
  -5   2   3    6.60    6.00
  -5   2   3   -5.70    8.60
   4  -2  -3   78.49   10.90
   4  -2  -3   81.09    7.70
  -4   2   3   82.19    7.70
  -4   2   3   82.09   12.10
  -4   2   3   78.49   13.00
  -4   2   3   72.49    9.20
   3  -2  -3  264.57   11.70
   3  -2  -3  265.67   16.00
  -3   2   3  264.67   12.10
  -3   2   3  267.17   11.20
  -3   2   3  233.78   14.80
  -3   2   3  275.57   16.30
   2  -2  -3  846.02   24.80
   2  -2  -3  841.62   29.50
  -2   2   3  856.01   28.80
  -2   2   3  840.02   25.70
  -2   2   3  818.72   23.90
  -2   2   3  783.62   28.30
   1  -2  -3  319.97    9.70
   1  -2  -3  314.47   14.70
   1  -2  -3  333.87   10.70
  -1   2   3  332.17   14.70
  -1   2   3  330.57   14.80
  -1   2   3  312.27    9.80
  -1   2   3  337.67   12.60
   0   2   3   29.10    4.40
   0   2   3   32.70    6.00
  -1  -2  -3   42.90    2.30
  -1  -2  -3   44.00    4.80
   1   2   3   39.20    2.20
   1   2   3   39.00    4.20
   1   2   3   35.80    6.30
   1   2   3   39.50    4.20
  -2  -2  -3  234.78    8.50
  -2  -2  -3  240.98    9.40
  -2  -2  -3  230.08   10.00
   2   2   3  233.68    9.10
   2   2   3  229.88    8.10
   2   2   3  221.58    9.20
  -3  -2  -3 4815.72  125.99
  -3  -2  -3 4923.71  127.29
   3   2   3 4942.71  126.69
   3   2   3 4891.31  125.89
   3   2   3 4735.13  125.09
  -4  -2  -3  645.34   22.20
  -4  -2  -3  637.04   21.80
   4   2   3  617.74   20.80
   4   2   3  662.13   21.30
  -5  -2  -3  219.88   11.50
  -5  -2  -3  173.08   10.50
  -5  -2  -3  209.38   12.20
  -5  -2  -3  216.78   11.70
   5   2   3  227.38   12.30
   5   2   3  214.78   11.20
  -6  -2  -3  509.75   20.40
  -6  -2  -3  486.75   21.00
  -6  -2  -3  485.85   22.50
   6   2   3  501.95   20.90
   6   2   3  557.04   32.10
  -7  -2  -3    8.90    5.70
  -7  -2  -3    7.50    6.80
   7   2   3    5.90    6.30
  -8  -2  -3   90.39   14.50
  -8  -2  -3   93.09   11.90
   8   2   3  111.29   12.90
  -9  -2  -3   52.69   13.00
   9   2   3   45.80   11.90
 -10  -2  -3    3.80   10.70
  10   2   3   11.80   11.70
 -11  -2  -3  355.76   30.80
  11   2   3  370.86   20.70
  11   2   3  372.36   28.60
  12   2   3  468.15   26.30
   9  -3  -3   12.80   14.60
  -9   3   3   11.50   19.20
   8  -3  -3   91.69   14.50
  -8   3   3   87.09   17.30
   7  -3  -3  469.65   24.60
  -7   3   3  510.05   30.40
  -7   3   3  533.45   26.40
  -7   3   3  459.55   28.60
   6  -3  -3  231.98   16.60
  -6   3   3  190.38   19.80
  -6   3   3  246.58   19.50
  -6   3   3  211.58   17.40
   5  -3  -3   52.59   11.00
  -5   3   3   33.70    7.80
  -5   3   3   41.20   13.90
  -5   3   3   44.70   10.40
  -5   3   3   44.10   12.30
   4  -3  -3   22.30    7.80
   4  -3  -3   15.70    5.70
  -4   3   3   10.60    6.50
  -4   3   3   19.90   10.80
  -4   3   3   15.80    5.70
  -4   3   3    7.20    7.50
   3  -3  -3  115.29    8.40
   3  -3  -3  110.69   12.00
  -3   3   3  126.89    9.30
  -3   3   3  128.49   13.50
  -3   3   3   98.99   10.50
  -3   3   3  110.19   11.30
   2  -3  -3    1.70    3.10
   2  -3  -3    4.00    4.80
  -2   3   3   -1.90    4.30
  -2   3   3    2.60    4.20
  -2   3   3    4.20    3.10
  -2   3   3   -1.00    5.00
   1  -3  -3 3332.27   86.29
   1  -3  -3 3534.55   87.19
   1  -3  -3 3226.58   94.19
  -1   3   3 3314.67   90.19
  -1   3   3 3462.85   93.79
  -1   3   3 3256.77   87.19
  -1   3   3 3356.96   94.79
   0  -3  -3 1819.82   47.50
   0  -3  -3 1778.42   55.29
   0  -3  -3 1825.52   47.40
   0   3   3 1874.91   51.69
   0   3   3 1798.92   55.29
   0   3   3 1906.81   54.39
  -1  -3  -3  638.54   17.50
  -1  -3  -3  664.93   23.60
   1   3   3  625.64   17.50
   1   3   3  641.24   22.00
   1   3   3  643.44   21.10
   1   3   3  589.84   22.70
  -2  -3  -3  743.43   27.40
  -2  -3  -3  823.72   22.80
   2   3   3  774.02   25.60
   2   3   3  810.02   24.90
   2   3   3  829.82   25.50
  -3  -3  -3 1690.53   45.60
  -3  -3  -3 1627.44   46.70
  -3  -3  -3 1553.94   47.10
   3   3   3 1645.34   46.50
   3   3   3 1725.43   44.20
   3   3   3 1645.74   47.00
  -4  -3  -3  325.07   14.00
  -4  -3  -3  322.77   13.70
   4   3   3  302.57   14.20
   4   3   3  310.37   12.80
   4   3   3  317.67   12.10
   4   3   3  318.37   12.90
  -5  -3  -3   38.20    6.00
  -5  -3  -3   34.40    6.00
   5   3   3   37.10    5.50
   5   3   3   32.30    5.00
   5   3   3   40.10    7.20
  -6  -3  -3  120.09   10.60
  -6  -3  -3  122.99    9.80
   6   3   3   96.09    7.50
   6   3   3  140.69   12.60
   6   3   3  133.89    9.90
  -7  -3  -3  188.48   14.30
  -7  -3  -3  176.08   12.20
   7   3   3  146.79   10.10
  -8  -3  -3  948.81   37.00
  -8  -3  -3 1011.70   36.30
   8   3   3  989.60   36.30
   8   3   3  954.20   33.90
  -9  -3  -3 1835.32   61.19
   9   3   3 1782.52   56.59
   9   3   3 1822.72   59.59
 -10  -3  -3  278.47   21.70
  10   3   3  276.27   22.80
  10   3   3  249.68   16.50
 -11  -3  -3   19.30   12.50
  11   3   3   16.00    9.60
  11   3   3    4.10   13.20
 -12  -3  -3   19.60   17.00
  12   3   3    6.60   12.00
   8  -4  -3   17.90   12.50
  -8   4   3   33.40   14.40
   7  -4  -3   57.39   11.40
  -7   4   3   57.39   15.30
  -7   4   3   64.89   14.90
  -7   4   3   28.00   12.90
   6  -4  -3   63.09   11.40
  -6   4   3   74.99   16.40
  -6   4   3   70.09   15.50
  -6   4   3   72.79   12.30
   5  -4  -3   98.79   11.00
  -5   4   3   88.29   16.20
  -5   4   3  102.69   15.10
  -5   4   3  110.49   14.00
   4  -4  -3  159.88   16.70
   4  -4  -3  124.69   11.40
  -4   4   3  130.99   14.60
  -4   4   3  126.29   17.20
  -4   4   3  129.99   11.60
  -4   4   3  135.29   18.30
   3  -4  -3  131.09    9.40
   3  -4  -3  140.59   14.70
  -3   4   3  128.19   11.60
  -3   4   3  142.79   14.60
  -3   4   3  128.49   10.30
  -3   4   3  142.99   16.30
   2  -4  -3 1225.48   36.10
   2  -4  -3 1239.58   44.00
  -2   4   3 1214.28   45.00
  -2   4   3 1249.57   40.10
  -2   4   3 1253.97   43.00
  -2   4   3 1213.38   36.70
   1  -4  -3 2263.17   69.49
   1  -4  -3 2291.47   60.59
  -1   4   3 2253.57   67.29
  -1   4   3 2296.87   70.59
  -1   4   3 2211.48   64.79
   0  -4  -3   89.69   11.60
   0  -4  -3   80.09    5.80
   0  -4  -3   91.39    5.20
   0   4   3   76.69    9.80
   0   4   3   68.09    8.00
   0   4   3   80.59   10.90
  -1  -4  -3  166.28    6.80
  -1  -4  -3  152.08   12.30
   1   4   3  159.38    9.30
   1   4   3  165.88   11.50
   1   4   3  156.88    7.80
   1   4   3  158.18   11.90
  -2  -4  -3   17.80    2.60
  -2  -4  -3   16.70    3.70
   2   4   3   19.90    4.60
   2   4   3   19.70    2.90
   2   4   3   14.70    4.60
   2   4   3   22.30    5.00
  -3  -4  -3   69.89    5.50
  -3  -4  -3   75.39    7.60
   3   4   3   60.59    5.70
   3   4   3   69.59    4.70
   3   4   3   69.79    7.60
   3   4   3   74.49    7.20
  -4  -4  -3  651.03   22.00
  -4  -4  -3  621.14   22.50
   4   4   3  654.83   20.40
   4   4   3  664.03   23.60
   4   4   3  645.04   22.60
  -5  -4  -3  976.90   31.50
   5   4   3  967.40   31.50
   5   4   3  943.01   29.70
   5   4   3 1000.30   33.20
   5   4   3  985.60   32.00
  -6  -4  -3   39.00    7.40
  -6  -4  -3   30.00    6.70
   6   4   3   28.70    6.30
   6   4   3   43.80    7.70
   6   4   3   43.40    7.30
   6   4   3   40.60    8.20
  -7  -4  -3   97.89   12.20
  -7  -4  -3  115.09   12.30
   7   4   3  100.49   10.00
   7   4   3  125.99   11.80
   7   4   3  102.29   14.90
  -8  -4  -3    8.00    6.90
  -8  -4  -3   -0.50    7.50
   8   4   3   10.50    6.20
   8   4   3   20.30    8.00
   8   4   3   10.30   10.00
  -9  -4  -3  579.04   27.30
   9   4   3  582.24   26.80
   9   4   3  567.64   31.90
   9   4   3  524.35   24.30
 -10  -4  -3  635.14   31.00
  10   4   3  671.93   31.20
  10   4   3  607.34   27.20
 -11  -4  -3  143.69   20.00
  11   4   3  100.69   14.20
  11   4   3   77.89   15.90
 -12  -4  -3   95.89   19.40
  12   4   3   54.69   13.00
  13   4   3   63.89   18.20
   8  -5  -3   24.20   14.00
  -8   5   3   61.99   18.70
   7  -5  -3    7.40   11.10
  -7   5   3   15.80   16.60
   6  -5  -3  214.18   17.80
  -6   5   3  244.68   20.50
  -6   5   3  238.78   24.80
  -6   5   3  245.98   26.70
   5  -5  -3  721.63   29.30
  -5   5   3  687.83   35.90
  -5   5   3  758.12   40.30
  -5   5   3  774.92   31.00
   4  -5  -3   36.20   12.40
   4  -5  -3   36.60    8.80
  -4   5   3   49.60   14.30
  -4   5   3   28.10   12.30
  -4   5   3   46.80    8.00
   3  -5  -3   22.20    8.50
   3  -5  -3   26.50    6.20
  -3   5   3   23.30   12.40
  -3   5   3    7.70   10.10
  -3   5   3   35.20    6.30
  -3   5   3   16.50    8.00
   2  -5  -3  242.88   12.10
   2  -5  -3  223.68   17.50
  -2   5   3  237.58   16.90
  -2   5   3  241.58   14.30
  -2   5   3  237.38   19.00
  -2   5   3  258.27   24.20
   1  -5  -3  174.78   14.70
   1  -5  -3  171.08    9.80
   1  -5  -3  172.88    9.10
  -1   5   3  183.58   19.20
  -1   5   3  180.28   14.30
  -1   5   3  161.68   12.80
   0  -5  -3 1197.58   34.30
   0  -5  -3 1237.98   44.60
   0  -5  -3 1219.78   34.90
   0   5   3 1213.38   41.40
   0   5   3 1202.88   39.80
   0   5   3 1242.48   45.00
  -1  -5  -3  962.70   26.80
  -1  -5  -3  878.01   34.60
   1   5   3  926.61   32.80
   1   5   3  873.41   33.90
   1   5   3  915.41   31.10
   1   5   3  900.51   26.00
  -2  -5  -3   20.00    3.90
   2   5   3   19.80    6.40
   2   5   3   27.20    6.90
   2   5   3   25.80    3.90
  -3  -5  -3   58.39    8.00
   3   5   3   55.29    5.10
   3   5   3   64.29    8.60
   3   5   3   57.59    9.40
   3   5   3   53.19    7.40
  -4  -5  -3   17.40    4.90
  -4  -5  -3   27.80    4.70
   4   5   3   24.10    4.20
   4   5   3   28.40    5.40
   4   5   3   28.70    5.20
   4   5   3   25.60    7.10
  -5  -5  -3  280.37   15.00
  -5  -5  -3  278.57   14.20
   5   5   3  306.97   14.80
   5   5   3  321.07   16.10
   5   5   3  293.47   12.70
   5   5   3  297.87   16.10
  -6  -5  -3 2752.52   78.19
  -6  -5  -3 2710.63   77.39
   6   5   3 2803.92   79.59
   6   5   3 2673.23   77.79
   6   5   3 2714.73   79.89
   6   5   3 2814.12   75.89
  -7  -5  -3  423.56   21.10
  -7  -5  -3  414.66   21.70
   7   5   3  468.05   20.20
   7   5   3  434.66   19.80
   7   5   3  452.25   24.10
  -8  -5  -3   11.30    8.10
   8   5   3    3.70   10.50
   8   5   3   17.20    7.70
   8   5   3    2.10    5.70
  -9  -5  -3  318.47   20.90
   9   5   3  289.57   18.10
   9   5   3  300.67   28.30
   9   5   3  303.17   18.60
 -10  -5  -3  104.39   16.50
  10   5   3  114.89   17.50
  10   5   3   93.99   13.50
 -11  -5  -3   55.69   13.90
  11   5   3   17.50   14.40
  11   5   3   39.00   10.30
 -12  -5  -3   18.00   16.20
  12   5   3   18.20   12.40
  13   5   3    4.90   18.20
  -8   6   3   50.69   25.00
   7  -6  -3    2.80   11.90
  -7   6   3  -10.00   18.50
   6  -6  -3  104.89   16.00
  -6   6   3  103.69   21.40
  -6   6   3   83.39   20.20
   5  -6  -3  327.97   19.90
  -5   6   3  380.86   23.00
  -5   6   3  302.27   29.30
  -5   6   3  270.57   30.40
   4  -6  -3 1092.69   38.10
  -4   6   3 1105.59   45.10
  -4   6   3 1118.19   40.20
  -4   6   3 1102.09   48.50
   3  -6  -3  874.81   31.40
   3  -6  -3  990.00   47.30
  -3   6   3  899.51   41.20
  -3   6   3  882.31   37.40
   2  -6  -3   18.90    5.90
   2  -6  -3   15.30    4.90
   2  -6  -3   10.00    8.00
  -2   6   3   16.60   14.30
  -2   6   3   23.00   10.20
   1  -6  -3   12.80    4.70
   1  -6  -3    9.40    8.50
   1  -6  -3    6.50    4.90
  -1   6   3    3.60    8.10
  -1   6   3   -0.70    8.10
  -1   6   3   -1.40    9.30
   0  -6  -3  187.48    9.60
   0  -6  -3  173.48   12.50
   0  -6  -3  193.88   18.90
   0   6   3  184.68   15.70
   0   6   3  167.48   13.30
   0   6   3  207.48   18.80
  -1  -6  -3  220.38   10.20
  -1  -6  -3  198.78   17.50
   1   6   3  199.08   14.20
   1   6   3  224.68   14.40
   1   6   3  201.08    9.80
   1   6   3  202.38   16.70
  -2  -6  -3  457.15   22.40
   2   6   3  465.65   20.10
   2   6   3  461.95   16.40
   2   6   3  460.75   21.70
   2   6   3  486.25   24.80
  -3  -6  -3 1098.09   34.20
  -3  -6  -3 1146.79   39.70
   3   6   3 1130.19   40.50
   3   6   3 1139.69   32.90
   3   6   3 1153.28   38.30
   3   6   3 1093.09   37.80
  -4  -6  -3  464.05   18.20
  -4  -6  -3  479.55   22.50
   4   6   3  475.25   16.70
   4   6   3  476.05   21.20
   4   6   3  470.95   20.10
   4   6   3  498.55   22.80
  -5  -6  -3  829.92   29.00
  -5  -6  -3  862.31   32.10
   5   6   3  828.52   31.10
   5   6   3  868.21   27.30
   5   6   3  876.51   32.30
   5   6   3  882.21   29.90
  -6  -6  -3  427.06   19.90
   6   6   3  438.56   18.00
   6   6   3  463.75   21.60
   6   6   3  435.46   21.50
   6   6   3  447.96   21.40
  -7  -6  -3   37.40    8.40
  -7  -6  -3   34.20    9.10
   7   6   3   43.90    8.00
   7   6   3   35.30   10.20
   7   6   3   48.50   10.80
  -8  -6  -3  152.28   18.90
  -8  -6  -3  176.58   17.20
   8   6   3  164.68   14.70
   8   6   3  151.28   18.80
   8   6   3  173.98   15.80
  -9  -6  -3   27.80   14.40
   9   6   3   21.00   15.30
   9   6   3   40.50   10.00
   9   6   3   46.80   11.10
 -10  -6  -3   54.69   14.20
  10   6   3   70.49   13.70
 -11  -6  -3  148.99   24.00
  11   6   3  193.58   19.70
  11   6   3  194.68   22.80
 -12  -6  -3   83.69   21.50
 -13  -6  -3  -27.30   24.80
  13   6   3  -15.20   19.50
   7  -7  -3  201.68   25.40
  -7   7   3  301.07   44.10
   6  -7  -3   32.90   11.80
  -6   7   3   11.30   23.00
  -6   7   3  -11.00   21.50
   5  -7  -3    5.70   10.30
  -5   7   3   -8.10   15.50
   4  -7  -3   -5.00    7.90
  -4   7   3   -3.80   12.50
  -4   7   3   10.00   16.90
   3  -7  -3   22.80    7.00
   3  -7  -3    7.30    7.70
  -3   7   3   16.00   10.90
  -3   7   3   20.40   14.20
   2  -7  -3  122.19   11.70
   2  -7  -3  112.09   10.80
  -2   7   3  136.49   22.70
  -2   7   3  104.09   14.80
   1  -7  -3   98.49   15.90
   1  -7  -3  106.89   11.10
   1  -7  -3  106.09   10.10
  -1   7   3   97.19   16.50
  -1   7   3  113.69   15.90
   0  -7  -3   30.70    5.40
   0  -7  -3   18.90   10.30
   0  -7  -3   29.60    5.40
   0   7   3   20.40   11.90
   0   7   3   47.10   11.60
   0   7   3   11.20   10.00
  -1  -7  -3  291.57   22.10
  -1  -7  -3  308.97   13.90
   1   7   3  311.97   19.50
   1   7   3  345.57   22.40
   1   7   3  323.87   23.20
   1   7   3  310.87   13.60
  -2  -7  -3  695.03   30.80
  -2  -7  -3  717.83   24.50
   2   7   3  690.03   32.70
   2   7   3  705.53   23.50
   2   7   3  728.93   30.00
   2   7   3  732.03   29.20
  -3  -7  -3   26.10    7.20
  -3  -7  -3   34.70    6.40
   3   7   3   30.50    9.00
   3   7   3   41.00    6.30
   3   7   3   43.20   10.30
   3   7   3   20.60    6.90
  -4  -7  -3  547.85   26.10
  -4  -7  -3  532.65   20.60
   4   7   3  535.65   19.40
   4   7   3  518.55   23.90
   4   7   3  551.94   26.30
   4   7   3  517.55   23.60
  -5  -7  -3  172.28   15.50
  -5  -7  -3  144.19   10.20
   5   7   3  167.08   12.50
   5   7   3  194.58   16.60
   5   7   3  163.48   10.70
  -6  -7  -3  660.33   25.80
   6   7   3  656.33   28.70
   6   7   3  629.34   25.20
   6   7   3  647.84   28.20
   6   7   3  628.24   23.40
  -7  -7  -3  143.99   14.50
   7   7   3  142.49   17.20
   7   7   3  159.68   15.90
   7   7   3  156.48   21.00
  -8  -7  -3  287.47   22.10
   8   7   3  302.27   24.40
   8   7   3  274.87   16.40
   8   7   3  296.67   20.50
  -9  -7  -3   36.80   11.40
   9   7   3  -10.10   18.00
   9   7   3   41.30   12.60
   9   7   3   32.70   10.40
 -10  -7  -3    2.30   11.50
  10   7   3   14.20   11.10
  10   7   3   33.10   13.50
 -11  -7  -3   -7.70   14.30
  11   7   3    6.10   11.60
  11   7   3   41.30   14.50
 -12  -7  -3  153.68   28.90
  12   7   3  193.08   28.50
  13   7   3  307.57   38.80
   6  -8  -3   81.99   15.70
  -6   8   3   88.89   31.20
   5  -8  -3   -2.30   10.50
  -5   8   3  -39.30   21.80
  -5   8   3   15.30   23.60
   4  -8  -3    7.20    8.90
   4  -8  -3    1.30    9.90
  -4   8   3   -4.80   13.80
  -4   8   3    6.40   20.00
   3  -8  -3  107.39   13.30
   3  -8  -3   96.59   14.80
  -3   8   3   96.09   16.90
  -3   8   3  103.99   22.50
   2  -8  -3  757.32   29.10
  -2   8   3  757.12   39.50
  -2   8   3  709.53   34.80
   1  -8  -3   65.69   10.80
   1  -8  -3   88.59   11.20
  -1   8   3   57.09   15.10
  -1   8   3   69.49   13.90
   0  -8  -3  162.88   25.10
   0  -8  -3  156.58   11.00
   0  -8  -3  158.58   11.60
   0   8   3  162.48   20.90
   0   8   3  149.88   18.10
  -1  -8  -3  261.87   13.70
  -1  -8  -3  248.18   21.50
   1   8   3  246.28   17.20
   1   8   3  275.97   23.70
   1   8   3  278.07   27.20
  -2  -8  -3  807.22   28.00
  -2  -8  -3  812.62   36.80
   2   8   3  781.42   27.00
   2   8   3  812.52   34.30
   2   8   3  811.62   38.40
   2   8   3  788.72   33.80
  -3  -8  -3 1838.12   53.59
  -3  -8  -3 1829.22   62.19
   3   8   3 1741.73   58.09
   3   8   3 1802.82   58.79
   3   8   3 1788.72   52.59
   3   8   3 1794.42   63.79
  -4  -8  -3 1367.16   49.70
  -4  -8  -3 1330.37   42.00
   4   8   3 1275.47   45.60
   4   8   3 1281.77   45.80
   4   8   3 1359.16   51.59
   4   8   3 1306.77   40.70
  -5  -8  -3    9.20    8.60
  -5  -8  -3    8.30    5.30
   5   8   3   -7.60    7.10
   5   8   3   21.80    9.40
   5   8   3   13.50    9.70
   5   8   3   18.90    6.50
  -6  -8  -3   34.00    6.50
   6   8   3   40.90    8.60
   6   8   3   29.30   11.50
   6   8   3   34.80    7.50
   6   8   3   37.70    9.90
  -7  -8  -3   18.80    8.30
   7   8   3   23.40    7.50
   7   8   3   23.80    8.50
   7   8   3   26.10   10.80
   7   8   3   25.10   10.50
  -8  -8  -3   39.20   19.50
   8   8   3   50.99   13.70
   8   8   3   43.10   10.10
   8   8   3   53.99   15.40
   9   8   3  416.66   22.40
   9   8   3  412.36   26.40
  10   8   3  146.69   16.70
  10   8   3  162.98   21.30
  11   8   3   71.59   17.60
  11   8   3   49.60   14.00
  12   8   3  125.09   21.80
  13   8   3   26.30   38.90
   5  -9  -3    4.30   14.00
  -5   9   3    4.60   46.90
   4  -9  -3  -16.10   10.50
  -4   9   3   11.50   24.70
  -4   9   3  -21.00   18.20
   3  -9  -3    1.50   10.30
   3  -9  -3   -2.00    9.90
  -3   9   3   -2.20   14.80
  -3   9   3   17.20   19.20
   2  -9  -3   90.99   13.40
   2  -9  -3  106.69   14.80
  -2   9   3   76.59   14.50
   1  -9  -3  822.52   29.80
   1  -9  -3  683.63   38.60
  -1   9   3  811.52   40.70
  -1   9   3  860.51   40.40
   0  -9  -3  776.32   28.00
   0  -9  -3  750.12   27.40
   0   9   3  746.23   37.20
   0   9   3  778.42   37.60
  -1  -9  -3   -0.70    5.50
   1   9   3  -15.40    9.00
   1   9   3    1.00   12.00
  -2  -9  -3   -4.90    5.90
   2   9   3   -8.90    7.80
   2   9   3   18.50   12.60
   2   9   3    6.90    6.50
  -3  -9  -3   -8.20    9.60
  -3  -9  -3   -2.70    6.10
   3   9   3   -1.10    9.90
   3   9   3   18.00    6.60
  -4  -9  -3   17.00    6.50
  -4  -9  -3   14.80   12.00
   4   9   3   19.00   12.30
   4   9   3   17.80    8.00
   4   9   3   21.30    9.00
  -5  -9  -3   28.00    7.10
  -5  -9  -3    3.40   11.40
   5   9   3   28.40    8.20
   5   9   3   30.70   11.80
  -6  -9  -3   23.50   10.40
  -6  -9  -3   29.70    7.20
   6   9   3   40.30   12.30
   6   9   3   48.10    9.30
   6   9   3   34.20    9.50
  -7  -9  -3  150.68   16.20
   7   9   3  123.49   13.20
   7   9   3  115.89   14.10
   7   9   3  133.39   15.10
   8   9   3  110.39   15.30
   8   9   3  123.19   14.80
   8   9   3  126.39   15.70
   9   9   3   10.00    9.30
   9   9   3   29.50   11.10
   9   9   3    6.00    9.00
  10   9   3   73.59   13.50
  10   9   3   80.09   15.50
  10   9   3   70.89   16.30
  11   9   3  216.68   25.60
  11   9   3  209.88   26.50
  11   9   3  189.58   23.20
  12   9   3   16.00   18.10
   5 -10  -3  111.79   22.00
   4 -10  -3  184.58   22.30
   3 -10  -3   16.20   11.60
  -3  10   3   10.50   20.10
  -3  10   3   29.80   31.40
   2 -10  -3   23.90   10.00
   2 -10  -3   13.60   10.70
  -2  10   3   24.10   19.20
  -2  10   3  -10.70   14.80
   1 -10  -3   45.90    8.40
   1 -10  -3   42.50   10.10
  -1  10   3   43.30   18.10
  -1  10   3   45.70   15.50
   0 -10  -3  230.68   19.30
   0 -10  -3  243.28   15.60
   0  10   3  192.28   25.40
   0  10   3  281.97   28.30
  -1 -10  -3  370.26   19.50
  -1 -10  -3  405.36   18.90
   1  10   3  402.66   30.50
   1  10   3  357.16   24.90
  -2 -10  -3   47.10    8.10
   2  10   3   40.80   11.20
   2  10   3   52.99   14.60
   2  10   3   53.59   10.10
  -3 -10  -3   44.90    8.80
   3  10   3   26.90    9.50
   3  10   3   82.89   13.40
   3  10   3   48.40   15.10
  -4 -10  -3  195.78   15.30
   4  10   3  178.68   18.90
   4  10   3  207.08   17.00
   4  10   3  194.98   21.40
  -5 -10  -3  431.86   22.40
   5  10   3  437.46   25.50
   5  10   3  520.05   27.60
   5  10   3  502.65   24.20
  -6 -10  -3   -1.70    7.80
   6  10   3    3.70    8.50
   6  10   3    0.70    9.30
   6  10   3   14.20   12.10
   7  10   3   62.49   14.30
   7  10   3   56.59   12.10
   7  10   3   79.99   11.90
   8  10   3   -9.20   11.80
   8  10   3    0.30    9.10
   9  10   3  451.95   24.30
   9  10   3  442.86   27.20
   9  10   3  483.05   26.70
  10  10   3  404.46   28.60
  10  10   3  420.76   27.10
  11  10   3  154.18   23.80
  11  10   3  135.29   19.50
  12  10   3   38.80   21.80
   2 -11  -3   28.90   12.90
   1 -11  -3    3.20   10.30
  -1  11   3   -2.90   15.00
  -1  11   3   30.30   24.00
   0 -11  -3   55.49   10.00
   0 -11  -3   59.69   11.20
   0  11   3   47.40   18.20
  -1 -11  -3  288.27   19.10
  -1 -11  -3  300.07   24.40
   1  11   3  314.37   29.50
   1  11   3  258.77   28.70
  -2 -11  -3  136.49   15.40
   2  11   3  141.89   23.60
   2  11   3  101.39   19.90
  -3 -11  -3   60.29   10.20
   3  11   3   59.29   12.40
   3  11   3   54.99   17.10
  -4 -11  -3   37.50    9.80
   4  11   3   58.39   12.60
   4  11   3   33.50    9.60
   4  11   3   42.30   16.70
  -5 -11  -3  260.57   19.70
   5  11   3  319.77   24.80
   5  11   3  313.67   20.90
   5  11   3  318.27   21.80
   6  11   3  360.26   27.70
   6  11   3  400.36   25.80
   6  11   3  457.45   25.20
   7  11   3  209.98   23.40
   7  11   3  182.48   20.40
   7  11   3  201.28   19.00
   8  11   3   -7.30   10.40
   8  11   3   28.40   11.30
   8  11   3    5.70   14.50
   9  11   3   22.70   12.30
  10  11   3  -10.40   13.40
  10  11   3   20.50   13.50
  11  11   3   17.60   19.60
  11  11   3   21.50   16.80
   0  12   3   16.60   23.80
  -1 -12  -3   50.19   15.40
   1  12   3   27.40   19.80
   1  12   3   56.59   21.90
  -2 -12  -3  273.27   26.30
   2  12   3  284.57   32.70
   2  12   3  267.77   29.60
   3  12   3  330.87   22.70
   3  12   3  355.86   27.80
   3  12   3  325.67   32.80
   4  12   3   -8.00   11.20
   4  12   3   18.50   11.70
   4  12   3   16.30   17.30
   5  12   3   26.40   16.50
   5  12   3   37.30   12.70
   6  12   3  108.69   21.00
   6  12   3  156.08   22.10
   6  12   3  125.89   18.50
   7  12   3  197.48   23.50
   7  12   3  196.28   22.00
   7  12   3  221.38   23.80
   8  12   3  100.49   19.80
   8  12   3  145.99   18.90
   9  12   3   44.90   16.20
  10  12   3   47.40   17.50
   1  13   3   45.00   44.30
   2  13   3   28.20   21.20
   3  13   3  109.99   22.70
   4  13   3  412.86   31.60
   5  13   3   38.20   13.80
   6  13   3   55.59   13.40
   8  13   3  210.48   33.50
   9  13   3    0.40   20.60
   3  14   3   23.00   26.70
   4  14   3  -11.50   21.60
   7  12  -4   54.09   16.40
   6  12  -4   16.70   14.90
   5  12  -4   73.79   16.40
   4  12  -4  131.79   23.90
   4  12  -4  143.89   36.10
   3  12  -4   73.19   23.30
   3  12  -4   61.09   17.60
  -1  12  -4  137.59   24.60
   7  11  -4  175.18   22.40
   7  11  -4  134.39   36.10
   6  11  -4    8.90   12.80
   6  11  -4   41.40   18.40
   5  11  -4   12.90   12.40
   5  11  -4   11.30   17.70
   4  11  -4   95.89   17.00
   4  11  -4  103.39   18.00
   3  11  -4  230.08   25.00
   3  11  -4  215.38   22.80
   2  11  -4   64.69   13.30
   2  11  -4   88.09   18.30
   1  11  -4  -16.70   17.70
   1  11  -4   -9.20   14.60
   1  11  -4  -13.40   15.10
   0  11  -4    7.20   28.30
   0  11  -4  -20.00   12.40
   0  11  -4   -7.80   17.80
  -1  11  -4    4.00   14.30
  -2  11  -4   64.29   19.10
   8  10  -4   29.80   19.50
   7  10  -4  234.98   26.60
   7  10  -4  299.67   22.50
   6  10  -4  264.27   21.00
   5  10  -4  102.39   17.00
   5  10  -4   85.99   16.20
   4  10  -4    1.30   12.80
   4  10  -4   -3.80    9.80
   3  10  -4   79.59   12.90
   3  10  -4  103.59   17.50
   2  10  -4  422.66   25.60
   2  10  -4  514.55   29.70
   2  10  -4  475.75   22.80
   1  10  -4  186.58   21.20
   1  10  -4  199.28   17.10
   1  10  -4  208.58   22.70
   0  10  -4   28.20   13.60
   0  10  -4   49.90   16.60
   0  10  -4   31.90   11.20
  -1  10  -4   25.30   11.30
  -1  10  -4   35.10   16.80
  -2  10  -4   47.20   15.10
   2 -10   4   76.09   17.60
  -3  10  -4  126.19   22.20
   8   9  -4   20.80   13.20
   7   9  -4    5.10   11.70
   7   9  -4    6.90   11.40
   6   9  -4  232.08   22.50
   6   9  -4  205.38   19.30
   5   9  -4  260.87   18.90
   5   9  -4  250.47   24.20
   4   9  -4  162.28   18.30
   4   9  -4  122.19   15.20
   3   9  -4    8.70   12.90
   3   9  -4    5.30    9.10
   2   9  -4  159.08   18.10
   2   9  -4  159.78   12.50
   2   9  -4  147.19   14.80
   1   9  -4   99.29   15.50
   1   9  -4  117.29   16.10
   1   9  -4  103.69   13.20
   0   9  -4  267.17   22.90
   0   9  -4  195.78   16.70
   0   9  -4  231.48   22.20
  -1   9  -4   75.49   12.10
  -1   9  -4   70.89   14.90
  -1   9  -4   90.89   17.40
  -2   9  -4   18.10   11.70
  -2   9  -4   40.80   18.40
  -3   9  -4  138.59   26.00
  -3   9  -4  114.39   22.20
   3  -9   4  149.88   24.00
  -4   9  -4  249.58   30.20
   4  -9   4  237.78   30.30
   9   8  -4   79.19   16.60
   8   8  -4  163.78   19.10
   7   8  -4   26.80   12.10
   7   8  -4   22.60   10.10
   6   8  -4   -5.40    8.70
   6   8  -4    5.50   11.20
   5   8  -4   81.59   13.10
   5   8  -4   65.49   18.90
   5   8  -4   80.09   12.40
   4   8  -4   -3.90    7.90
   4   8  -4    9.60   11.20
   4   8  -4    5.90    7.70
  -4  -8   4    7.40   22.00
   3   8  -4    5.00    4.40
   3   8  -4   12.00    7.80
   3   8  -4   -1.70   11.20
  -3  -8   4  -17.20   11.40
   2   8  -4  -16.30    8.70
   2   8  -4    1.60    5.10
   2   8  -4   -8.50    7.40
  -2  -8   4   13.80   10.20
   1   8  -4  392.16   22.80
   1   8  -4  388.26   22.90
   1   8  -4  378.86   18.40
  -1  -8   4  383.46   24.60
   0   8  -4  589.54   26.30
   0   8  -4  618.64   30.10
   0   8  -4  600.54   30.50
   0  -8   4  617.54   35.80
  -1   8  -4  296.47   21.90
  -1   8  -4  254.27   20.90
  -1   8  -4  244.78   18.10
  -2   8  -4  176.88   17.50
  -2   8  -4  159.28   20.20
  -3   8  -4   13.10   15.30
  -3   8  -4  -17.50   10.40
   3  -8   4    6.10   12.40
  -4   8  -4   42.80   14.90
  -4   8  -4   80.89   23.90
   4  -8   4   50.89   14.40
  -5   8  -4  125.99   23.50
   5  -8   4  101.59   22.80
   9   7  -4   15.30   12.30
   8   7  -4   23.00   12.10
   7   7  -4   76.29   12.50
   7   7  -4   67.99   12.80
   6   7  -4    3.80    8.60
   6   7  -4   17.60    8.00
   6   7  -4    8.50    7.70
   5   7  -4  419.56   20.20
   5   7  -4  398.96   22.20
   5   7  -4  421.06   21.20
  -5  -7   4  426.76   25.70
   4   7  -4  969.00   39.40
   4   7  -4 1122.69   40.50
   4   7  -4 1073.69   37.00
  -4  -7   4 1142.09   43.20
   3   7  -4 1070.29   37.60
   3   7  -4 1017.80   39.30
  -3  -7   4 1099.19   42.00
   2   7  -4  800.22   24.90
   2   7  -4  723.93   32.10
  -2  -7   4  774.82   33.50
   1   7  -4    4.90    4.90
   1   7  -4    0.90    8.20
   1   7  -4   -3.40    6.50
  -1  -7   4    9.70    8.10
   0   7  -4   25.90    8.80
   0   7  -4   22.70    8.30
   0   7  -4   28.00    7.00
   0  -7   4   18.30    9.40
  -1   7  -4  546.65   27.80
  -1   7  -4  574.44   28.60
  -1   7  -4  554.84   29.30
   1  -7   4  642.44   30.60
  -2   7  -4  277.17   21.50
  -2   7  -4  240.68   18.50
   2  -7   4  306.47   23.90
  -3   7  -4   52.59   14.50
  -3   7  -4   20.20   10.20
   3  -7   4   31.50   12.50
  -4   7  -4   16.10   16.70
  -4   7  -4    3.30   11.40
   4  -7   4    1.70   12.20
  -5   7  -4  147.29   26.10
  -5   7  -4  174.28   25.50
   5  -7   4  165.78   22.10
  -6   7  -4   14.90   33.30
  -6   7  -4    2.70   18.50
   6  -7   4   13.20   18.70
  10   6  -4    2.10   14.60
   9   6  -4   74.69   14.70
   8   6  -4  154.28   17.20
   7   6  -4  151.68   12.30
   7   6  -4  139.49   18.50
   7   6  -4  181.28   16.20
   6   6  -4  135.09   11.60
   6   6  -4  123.09   13.60
   6   6  -4  143.19   14.00
  -6  -6   4  145.99   17.80
   5   6  -4   10.50    7.30
   5   6  -4   10.00    6.30
   5   6  -4   15.80    6.00
  -5  -6   4    8.10    9.50
   4   6  -4   23.50    6.90
   4   6  -4   27.30    9.00
   4   6  -4   25.90    7.70
  -4  -6   4   22.80    8.90
   3   6  -4  177.78   12.10
   3   6  -4  152.68   13.70
  -3  -6   4  162.88   15.30
   2   6  -4  258.97   10.80
   2   6  -4  258.37   14.60
  -2  -6   4  258.47   17.70
   1   6  -4  160.68   11.90
   1   6  -4  152.58    9.60
  -1  -6   4  149.69   14.40
   0   6  -4    7.60    7.60
   0   6  -4   27.80    5.80
   0  -6   4   24.50    8.50
  -1   6  -4   30.30   10.50
  -1   6  -4   33.70    7.20
  -1   6  -4   31.90    9.00
   1  -6   4   37.00    9.70
  -2   6  -4  101.59   18.80
  -2   6  -4  149.99   15.80
  -2   6  -4  128.19   18.00
   2  -6   4  148.29   15.30
  -3   6  -4   -3.10    7.90
  -3   6  -4   24.70   12.70
   3  -6   4   10.30    9.10
   3  -6   4    9.10    9.40
  -4   6  -4   21.20   11.50
  -4   6  -4   20.90   13.00
   4  -6   4    6.30   11.10
  -5   6  -4   27.00   16.40
  -5   6  -4   13.10   12.90
   5  -6   4   12.30   13.20
  -6   6  -4  151.08   24.40
  -6   6  -4  167.38   24.40
   6  -6   4  187.28   25.30
  -7   6  -4  203.28   32.40
  -7   6  -4  309.87   58.19
   7  -6   4  160.48   29.90
  10   5  -4   18.30   16.30
   9   5  -4    1.30   10.60
   8   5  -4   29.70   10.10
   7   5  -4  119.79   18.50
   7   5  -4  129.29    9.60
   7   5  -4  153.18   14.90
  -7  -5   4  138.09   17.10
   6   5  -4  367.56   21.20
   6   5  -4  354.06   15.20
   6   5  -4  381.56   20.20
  -6  -5   4  392.96   20.40
   5   5  -4  536.25   23.90
   5   5  -4  537.75   22.90
   5   5  -4  494.95   19.00
  -5  -5   4  546.65   24.40
   4   5  -4   47.50    7.30
   4   5  -4   34.40    7.40
  -4  -5   4   42.50    8.80
   3   5  -4  419.46   17.30
   3   5  -4  451.55   18.00
   3   5  -4  454.35   20.30
  -3  -5   4  428.36   20.70
   2   5  -4  284.27   13.50
   2   5  -4  277.27   16.30
  -2  -5   4  268.07   15.60
   1   5  -4  304.27   17.40
   1   5  -4  311.67   12.30
   1   5  -4  314.77   14.90
  -1  -5   4  271.47   17.20
   0   5  -4   27.10    6.70
   0   5  -4   33.90    9.10
   0   5  -4   31.80    5.40
   0  -5   4   41.30    8.30
  -1   5  -4    1.20    6.80
  -1   5  -4   -5.40    5.90
  -1   5  -4   -5.00    4.60
   1  -5   4    1.40    6.90
  -2   5  -4  433.66   23.20
  -2   5  -4  415.26   20.50
   2  -5   4  448.86   22.00
  -3   5  -4 1651.33   53.89
  -3   5  -4 1595.34   54.69
   3  -5   4 1563.34   53.49
  -4   5  -4  855.11   37.80
  -4   5  -4  801.32   34.60
  -4   5  -4  764.42   35.30
   4  -5   4  798.42   34.30
  -5   5  -4  574.64   31.30
  -5   5  -4  541.25   29.80
   5  -5   4  579.54   29.80
  -6   5  -4   -3.00   12.10
  -6   5  -4   12.80   12.40
   6  -5   4   14.40   12.70
  -7   5  -4  127.79   23.50
  -7   5  -4   95.39   18.60
   7  -5   4   77.69   18.70
  10   4  -4  110.09   19.60
   9   4  -4   96.29   15.80
   8   4  -4   59.99   12.40
   8   4  -4   77.29   13.60
  -8  -4   4   88.29   10.00
   7   4  -4 1121.39   43.40
   7   4  -4 1108.19   41.10
   7   4  -4 1099.69   32.10
  -7  -4   4 1153.08   33.20
  -7  -4   4 1182.98   41.50
   6   4  -4  453.35   22.40
   6   4  -4  417.06   15.00
   6   4  -4  416.46   23.20
  -6  -4   4  436.36   20.60
  -6  -4   4  463.35   14.60
   5   4  -4   43.60    6.20
   5   4  -4   32.60    8.20
   5   4  -4   32.70    6.90
  -5  -4   4   42.70    8.00
   4   4  -4   29.40    4.50
   4   4  -4   34.90    5.90
   4   4  -4   29.60    6.60
  -4  -4   4   26.50    6.70
   3   4  -4   21.40    3.90
   3   4  -4   22.30    4.20
   3   4  -4   20.30    5.10
  -3  -4   4   12.40    5.70
   2   4  -4  355.76   16.30
   2   4  -4  334.47   13.80
   2   4  -4  346.77   14.30
  -2  -4   4  354.56   17.40
   1   4  -4  381.36   13.20
   1   4  -4  365.56   15.10
   1   4  -4  354.66   17.00
  -1  -4   4  376.06   15.40
  -1  -4   4  353.26   18.10
   0   4  -4  222.18   13.70
   0   4  -4  235.98   11.10
   0   4  -4  212.28   12.30
   0  -4   4  226.68   11.50
   0  -4   4  241.08   15.40
  -1   4  -4  570.04   21.80
  -1   4  -4  574.74   23.00
  -1   4  -4  599.54   24.90
   1  -4   4  572.94   25.10
  -2   4  -4  155.98   15.00
  -2   4  -4  148.29   13.30
  -2   4  -4  164.88   11.50
  -3   4  -4   12.40    7.30
  -3   4  -4   10.90    9.60
  -3   4  -4    1.70    6.70
  -4   4  -4  682.73   30.30
  -4   4  -4  627.14   30.30
  -4   4  -4  648.34   29.70
   4  -4   4  638.54   28.80
  -5   4  -4  321.97   23.70
  -5   4  -4  382.76   23.70
  -5   4  -4  362.56   22.90
   5  -4   4  387.36   24.30
  -6   4  -4   16.20   11.10
  -6   4  -4   16.10   11.40
   6  -4   4   32.20   12.10
  -7   4  -4  -10.90   12.30
  -7   4  -4   16.40   13.90
   7  -4   4    6.80   11.90
  -8   4  -4   36.50   23.20
  -8   4  -4   21.10   13.00
   8  -4   4   26.20   18.00
  10   3  -4  162.38   22.50
   9   3  -4   64.69   13.30
  -9  -3   4   35.70   22.20
   8   3  -4    8.60    9.90
   8   3  -4   24.70   10.30
  -8  -3   4   14.60    9.40
   7   3  -4   79.89   11.80
   7   3  -4   72.79    5.60
   7   3  -4   60.39   10.80
  -7  -3   4   85.39   14.20
  -7  -3   4   51.49    8.90
   6   3  -4  553.14   25.40
   6   3  -4  579.24   24.40
  -6  -3   4  527.15   22.80
  -6  -3   4  584.04   23.50
  -6  -3   4  541.25   20.10
   5   3  -4   92.99   10.00
   5   3  -4  102.49   12.30
  -5  -3   4   84.59    7.20
  -5  -3   4  114.79    9.70
  -5  -3   4   85.99    9.70
   4   3  -4   22.20    3.50
   4   3  -4   22.20    5.80
   4   3  -4   23.00    6.40
  -4  -3   4   17.70    5.90
   3   3  -4    6.70    3.50
   3   3  -4   10.50    5.30
   3   3  -4   -4.50    4.40
  -3  -3   4    5.40    4.50
   2   3  -4    0.50    2.30
   2   3  -4    5.60    4.10
   2   3  -4    1.40    3.50
   2   3  -4    2.10    2.30
  -2  -3   4    2.80    4.00
   1   3  -4  183.58    9.50
   1   3  -4  209.38   11.70
   1   3  -4  209.08    9.60
   1   3  -4  197.48    7.60
  -1  -3   4  191.18   12.50
   0   3  -4 1484.25   44.40
   0   3  -4 1538.25   44.10
   0   3  -4 1551.14   42.40
   0   3  -4 1501.05   46.50
   0  -3   4 1424.36   47.20
   0  -3   4 1520.25   42.10
  -1   3  -4 1335.47   41.70
  -1   3  -4 1229.48   38.80
  -1   3  -4 1276.47   37.90
  -1   3  -4 1150.98   38.80
   1  -3   4 1250.17   41.40
   1  -3   4 1279.47   37.20
  -2   3  -4 1455.85   47.40
  -2   3  -4 1487.45   46.00
  -2   3  -4 1480.75   45.30
  -2   3  -4 1445.56   48.60
   2  -3   4 1515.15   45.10
  -3   3  -4    8.60    6.60
  -3   3  -4   12.40    7.00
  -3   3  -4   13.60    5.70
   3  -3   4   13.70    7.20
  -4   3  -4  238.88   21.20
  -4   3  -4  263.37   16.40
  -4   3  -4  256.17   19.90
  -5   3  -4   19.40    9.30
  -5   3  -4   26.80    8.30
  -5   3  -4   33.20    9.70
   5  -3   4   35.70   11.30
  -6   3  -4  375.16   26.00
  -6   3  -4  347.27   24.10
  -6   3  -4  353.36   22.40
   6  -3   4  378.86   23.00
  -7   3  -4    0.50    8.80
  -7   3  -4   13.40   14.10
   7  -3   4   -1.80    9.80
  -8   3  -4    5.60   10.80
  -8   3  -4   24.70   18.50
   8  -3   4    2.20   13.40
  -9   3  -4   68.99   19.10
  -9   3  -4   56.89   23.30
   9  -3   4   65.39   20.50
  10   2  -4  384.76   27.40
 -10  -2   4  305.47   29.00
   9   2  -4  782.12   34.10
  -9  -2   4  717.73   36.30
   8   2  -4  416.06   23.00
   8   2  -4  477.05   26.20
  -8  -2   4  414.26   25.50
  -8  -2   4  465.05   27.70
  -8  -2   4  432.26   28.10
   7   2  -4   14.70    8.50
   7   2  -4   14.20    7.80
   7   2  -4   13.20    4.50
  -7  -2   4   20.10    8.20
  -7  -2   4    3.90    7.90
  -7  -2   4    6.60    7.60
   6   2  -4   -3.90    6.80
   6   2  -4   -2.40    5.90
  -6  -2   4   -4.40    5.60
  -6  -2   4   -3.90    5.80
  -6  -2   4    7.00    5.80
   5   2  -4  278.67   16.10
   5   2  -4  266.07   15.00
  -5  -2   4  272.87   14.00
  -5  -2   4  298.07   12.70
  -5  -2   4  276.57   14.80
   4   2  -4  489.45   21.00
   4   2  -4  506.45   19.80
  -4  -2   4  505.45   19.60
  -4  -2   4  479.45   18.90
  -4  -2   4  511.95   16.60
   3   2  -4  389.06   15.60
  -3  -2   4  380.56   15.60
  -3  -2   4  372.46   14.70
   2   2  -4 1037.80   28.30
   2   2  -4 1027.10   30.60
   2   2  -4 1025.30   31.40
  -2  -2   4 1012.80   31.50
   1   2  -4   45.80    4.80
   1   2  -4   44.50    4.80
   1   2  -4   35.80    3.60
   1   2  -4   32.40    5.40
  -1  -2   4   28.50    4.90
   0   2  -4 2691.03   70.39
   0   2  -4 2713.63   74.09
   0   2  -4 2730.23   70.19
   0   2  -4 2691.73   71.39
   0  -2   4 2544.65   74.69
   0  -2   4 2545.85   68.99
  -1   2  -4  192.68   10.30
  -1   2  -4  184.88   11.00
  -1   2  -4  209.38   10.20
  -1   2  -4  190.18    9.30
   1  -2   4  186.78    8.10
  -2   2  -4   12.40    3.10
  -2   2  -4   19.90    5.10
  -2   2  -4   23.10    5.40
  -2   2  -4   26.10    5.50
  -2   2  -4   25.20    5.50
   2  -2   4   15.70    3.70
  -3   2  -4   14.20    5.80
  -3   2  -4    0.70    4.10
  -3   2  -4    4.70    5.10
   3  -2   4    5.10    6.10
   3  -2   4    5.10    4.10
  -4   2  -4  104.09   12.00
  -4   2  -4  107.09   11.30
  -4   2  -4  106.89   10.70
   4  -2   4   86.49   11.30
  -5   2  -4  390.56   22.20
  -5   2  -4  387.26   20.50
  -5   2  -4  399.46   22.10
   5  -2   4  385.26   21.80
  -6   2  -4  237.88   18.10
  -6   2  -4  173.48   16.30
  -6   2  -4  200.58   19.80
   6  -2   4  197.48   16.80
  -7   2  -4   63.49   16.20
  -7   2  -4   50.49   11.10
   7  -2   4   41.50   11.50
  -8   2  -4  369.26   25.30
  -8   2  -4  400.86   32.90
   8  -2   4  399.36   25.40
  -9   2  -4   87.09   17.50
  -9   2  -4   97.79   23.40
   9  -2   4   61.89   15.70
 -10   2  -4   13.90   20.40
 -11  -1   4  -20.20   23.40
  10   1  -4    5.80   16.70
 -10  -1   4  -13.40   18.20
   9   1  -4   94.59   16.30
  -9  -1   4  103.39   17.90
   8   1  -4  132.09   17.20
   8   1  -4  201.58   19.60
  -8  -1   4  149.39   19.60
  -8  -1   4  155.88   19.20
   7   1  -4   38.20    8.40
   7   1  -4   28.50   10.00
   7   1  -4   32.10    5.40
  -7  -1   4   19.60    9.00
  -7  -1   4   43.00    8.80
  -7  -1   4   40.60   11.00
   6   1  -4   29.20    7.90
   6   1  -4   34.90    4.40
   6   1  -4   29.60    6.80
  -6  -1   4   35.60    8.20
  -6  -1   4   54.79    9.40
  -6  -1   4   27.80    8.80
   5   1  -4   47.30    7.60
   5   1  -4   57.09    9.40
  -5  -1   4   47.80    8.10
  -5  -1   4   54.59    8.00
  -5  -1   4   56.39    8.40
   4   1  -4  514.35   19.40
   4   1  -4  513.65   21.40
  -4  -1   4  506.85   20.70
  -4  -1   4  507.05   18.90
  -4  -1   4  498.95   19.20
   3   1  -4  280.57   12.30
  -3  -1   4  271.07   12.70
  -3  -1   4  284.77   12.20
  -3  -1   4  270.97   12.00
   2   1  -4   68.69    6.50
   2   1  -4   64.89    6.10
  -2  -1   4   62.19    6.30
  -2  -1   4   70.39    5.60
  -2  -1   4   55.39    5.40
   1   1  -4  114.59    6.40
   1   1  -4  107.19    6.80
  -1  -1   4  103.19    5.00
  -1  -1   4  114.59    6.50
  -1  -1   4  109.09    6.80
   0   1  -4  114.09    4.40
   0   1  -4  111.99    6.20
   0   1  -4  113.09    4.40
   0   1  -4  105.29    7.50
   0   1  -4   99.39    5.80
   0  -1   4  106.99    8.70
  -1   1  -4 1100.99   29.90
  -1   1  -4 1197.98   33.30
  -1   1  -4 1182.48   35.60
  -1   1  -4 1160.98   33.30
  -1   1  -4 1038.80   35.50
   1  -1   4 1162.28   29.80
  -2   1  -4   25.00    4.70
  -2   1  -4   23.90    4.80
  -2   1  -4   21.50    4.20
  -2   1  -4   15.90    4.20
  -2   1  -4   20.80    3.70
   2  -1   4   17.60    3.00
  -3   1  -4   15.90    5.50
  -3   1  -4   10.10    4.00
  -3   1  -4    9.40    4.30
  -3   1  -4   14.40    4.30
   3  -1   4    9.00    4.80
   3  -1   4   13.50    3.80
  -4   1  -4   27.40    5.70
  -4   1  -4   26.40    7.30
  -4   1  -4   24.00    6.10
   4  -1   4   32.90    6.30
   4  -1   4   29.40    6.70
  -5   1  -4    9.50    5.30
  -5   1  -4   15.40    8.30
  -5   1  -4   14.20    6.70
   5  -1   4   13.60    7.10
  -6   1  -4   58.19   10.50
  -6   1  -4   48.30   11.90
  -6   1  -4   51.49    9.50
   6  -1   4   44.60   10.10
  -7   1  -4  440.06   23.50
  -7   1  -4  426.56   27.10
  -7   1  -4  507.05   28.20
   7  -1   4  472.45   25.00
  -8   1  -4 1029.70   45.10
  -8   1  -4 1065.69   41.50
   8  -1   4 1047.50   41.70
  -9   1  -4  309.37   31.60
  -9   1  -4  279.07   25.70
   9  -1   4  242.48   22.90
 -10   1  -4   10.40   17.70
 -10   1  -4   34.10   20.40
  10  -1   4   -2.20   15.40
  10   0  -4  131.49   24.80
 -10   0   4  166.48   31.40
   9   0  -4  -15.20   10.30
  -9   0   4  -11.80   13.10
   8   0  -4   11.30    9.80
  -8   0   4    9.30    9.50
  -8   0   4   -4.30   10.10
   7   0  -4    3.00    7.70
   7   0  -4    8.10    8.70
  -7   0   4   -3.40    6.20
  -7   0   4   16.20    8.70
  -7   0   4   13.40   11.80
   6   0  -4   17.20    6.40
   6   0  -4   13.50    6.80
  -6   0   4    9.00    6.10
  -6   0   4   19.50    7.90
  -6   0   4   14.80    8.40
   5   0  -4   10.20    4.80
   5   0  -4   15.80    6.40
  -5   0   4   12.30    6.00
  -5   0   4   10.50    3.80
  -5   0   4   18.20    7.30
  -5   0   4    8.50    7.40
   4   0  -4   85.09    8.00
   4   0  -4   86.59    8.70
  -4   0   4   86.19   11.70
  -4   0   4   98.29    9.10
  -4   0   4   84.99   10.90
   3   0  -4 3589.74   89.99
   3   0  -4 3432.46   91.99
  -3   0   4 2862.11   93.19
  -3   0   4 3450.55   91.69
  -3   0   4 3402.16   90.89
   2   0  -4 2581.04   66.69
  -2   0   4 2552.74   65.69
  -2   0   4 2521.05   67.99
  -2   0   4 2231.98   69.79
   1   0  -4  831.92   24.60
   1   0  -4  823.22   24.90
  -1   0   4  834.92   24.70
  -1   0   4  834.32   24.00
  -1   0   4  874.41   26.30
   0   0  -4   83.29    4.50
   0   0  -4   84.89    5.70
   0   0  -4   88.49    4.70
   0   0   4   92.29    6.10
   0   0   4   93.19    4.20
  -1   0  -4    8.40    3.00
  -1   0  -4    7.30    2.60
  -1   0  -4    4.40    2.70
  -1   0  -4    6.80    2.10
  -2   0  -4  142.49    5.20
  -2   0  -4  152.88    7.80
  -2   0  -4  139.69    7.90
  -2   0  -4  145.59    8.50
   2   0   4  136.99    5.40
  -3   0  -4 1948.80   54.59
  -3   0  -4 1930.31   50.89
  -3   0  -4 1862.71   53.19
  -3   0  -4 1864.11   54.09
   3   0   4 1870.51   50.89
   3   0   4 1809.32   53.39
  -4   0  -4  497.55   18.60
  -4   0  -4  516.85   20.70
  -4   0  -4  522.75   19.90
  -4   0  -4  541.35   21.90
   4   0   4  533.35   18.60
   4   0   4  535.55   20.80
  -5   0  -4  827.42   31.50
  -5   0  -4  811.42   30.10
  -5   0  -4  830.02   29.60
   5   0   4  863.71   30.30
  -6   0  -4   14.90   10.10
  -6   0  -4    9.30    6.90
  -6   0  -4   19.10   10.90
   6   0   4    6.90   11.50
  -7   0  -4   17.80    8.20
  -7   0  -4    7.40    9.50
  -7   0  -4   14.10    8.50
   7   0   4    0.10    8.20
  -8   0  -4   33.70   12.90
  -8   0  -4   44.50   10.90
   8   0   4   25.40    9.50
  -9   0  -4   60.09   13.40
  -9   0  -4   88.79   18.80
   9   0   4   65.39   14.10
 -10   0  -4  -10.20   15.20
 -10   0  -4    4.40   17.50
  10   0   4    2.50   15.00
 -11   0  -4   46.50   19.90
 -10   1   4   17.50   21.70
   9  -1  -4  -18.20   10.60
  -9   1   4  -24.30   13.90
   8  -1  -4   16.40   11.40
  -8   1   4   14.60   13.60
  -8   1   4    5.00   10.70
   7  -1  -4 1060.79   43.90
   7  -1  -4  929.51   36.00
  -7   1   4  945.71   34.20
  -7   1   4 1000.00   40.10
  -7   1   4  924.31   31.40
   6  -1  -4 1373.66   44.70
   6  -1  -4 1318.47   48.20
  -6   1   4 1349.56   48.50
  -6   1   4 1352.06   42.30
  -6   1   4 1380.36   39.40
  -6   1   4 1325.87   51.19
   5  -1  -4 1043.90   35.10
   5  -1  -4 1035.50   38.10
  -5   1   4 1037.80   33.00
  -5   1   4 1073.19   30.60
  -5   1   4  988.50   38.20
  -5   1   4 1031.90   40.10
   4  -1  -4  260.37   15.60
   4  -1  -4  265.47   13.20
  -4   1   4  241.38   10.30
  -4   1   4  232.18   15.90
  -4   1   4  234.08   11.60
  -4   1   4  249.58   16.50
   3  -1  -4    2.50    3.30
   3  -1  -4    5.50    4.00
  -3   1   4    8.00    5.30
  -3   1   4   -0.90    3.40
  -3   1   4    1.60    4.90
  -3   1   4    6.90    3.60
   2  -1  -4  334.97   12.30
   2  -1  -4  330.87   15.10
  -2   1   4  325.47   14.70
  -2   1   4  334.77   12.40
  -2   1   4  322.17   11.20
  -2   1   4  311.07   14.30
   1  -1  -4  541.35   19.80
   1  -1  -4  592.64   17.40
   1  -1  -4  551.64   16.50
  -1   1   4  564.54   20.70
  -1   1   4  577.34   16.20
  -1   1   4  537.75   19.00
  -1   1   4  612.24   17.50
   0  -1  -4  127.89    5.80
   0  -1  -4  113.39    6.80
   0   1   4  123.69    5.10
   0   1   4  109.89    5.40
   0   1   4  131.59    5.80
   0   1   4  130.79    7.30
   0   1   4  114.99    6.30
  -1  -1  -4   88.09    4.30
  -1  -1  -4   84.39    6.60
  -1  -1  -4   82.29    5.10
  -1  -1  -4   76.49    5.20
   1   1   4   87.09    5.40
   1   1   4   80.49    4.60
  -2  -1  -4  188.78    8.70
  -2  -1  -4  209.58    9.30
  -2  -1  -4  205.28    9.80
   2   1   4  203.18    6.90
   2   1   4  205.48    7.40
   2   1   4  194.48    8.70
  -3  -1  -4 1071.89   32.40
   3   1   4 1078.69   32.10
   3   1   4 1097.79   30.60
  -4  -1  -4   69.29    8.30
  -4  -1  -4   63.39    6.90
  -4  -1  -4   64.19    7.80
   4   1   4   64.39    7.10
   4   1   4   71.89    7.70
  -5  -1  -4  130.79   11.50
  -5  -1  -4  141.59   10.90
  -5  -1  -4  126.39   10.20
   5   1   4  136.79   10.80
   5   1   4  143.29   11.30
  -6  -1  -4    6.60    6.30
  -6  -1  -4    3.50    7.20
  -6  -1  -4   10.80    6.40
   6   1   4    8.20    6.80
  -7  -1  -4   16.00   11.00
  -7  -1  -4   14.50    9.10
  -7  -1  -4    9.80    7.60
   7   1   4   18.00    7.80
  -8  -1  -4  193.18   19.50
  -8  -1  -4  189.08   19.20
  -8  -1  -4  184.48   19.60
   8   1   4  183.48   16.20
  -9  -1  -4  111.09   18.80
  -9  -1  -4  121.59   19.10
   9   1   4  125.89   18.30
 -10  -1  -4    5.10   11.60
 -10  -1  -4   28.80   15.70
  10   1   4   13.70   12.20
 -11  -1  -4   -8.20   17.80
   9  -2  -4  193.48   24.10
  -9   2   4  243.48   28.40
   8  -2  -4   46.00   13.30
  -8   2   4   65.69   14.90
   7  -2  -4    7.50    8.90
  -7   2   4   19.30    9.10
  -7   2   4   35.20   11.90
  -7   2   4   21.10    7.80
   6  -2  -4  449.26   28.30
   6  -2  -4  478.55   22.30
  -6   2   4  484.05   20.80
  -6   2   4  355.66   34.30
  -6   2   4  476.45   19.50
  -6   2   4  457.65   27.60
   5  -2  -4 1218.78   45.30
   5  -2  -4 1204.18   39.30
  -5   2   4 1192.28   37.50
  -5   2   4 1196.68   37.70
  -5   2   4 1195.58   46.40
   4  -2  -4  155.58   10.60
   4  -2  -4  167.18   15.30
  -4   2   4  167.88   16.90
  -4   2   4  170.38   16.00
  -4   2   4  143.49   10.60
  -4   2   4  161.68    9.60
   3  -2  -4  130.19    8.40
   3  -2  -4  142.99   13.30
  -3   2   4  144.39    8.60
  -3   2   4  141.19   12.20
  -3   2   4  139.09    7.50
  -3   2   4  126.29   12.80
   2  -2  -4    2.10    4.20
   2  -2  -4    0.40    2.40
  -2   2   4    2.80    1.80
  -2   2   4    8.40    4.20
  -2   2   4    5.50    4.00
  -2   2   4    3.80    4.00
   1  -2  -4   34.10    2.80
   1  -2  -4   19.50    5.60
   1  -2  -4   28.90    3.60
  -1   2   4   30.20    4.80
  -1   2   4   31.00    2.20
  -1   2   4   31.80    6.20
  -1   2   4   19.60    4.30
   0  -2  -4  121.99    8.50
   0   2   4  141.29    9.50
   0   2   4  141.89    7.50
   0   2   4  135.99    9.70
  -1  -2  -4   29.00    5.00
  -1  -2  -4   30.00    2.90
   1   2   4   27.50    4.70
   1   2   4   31.30    4.90
   1   2   4   27.90    3.60
   1   2   4   32.80    2.60
  -2  -2  -4  313.57   13.10
  -2  -2  -4  320.77   11.20
  -2  -2  -4  317.67   11.50
   2   2   4  313.97   12.00
   2   2   4  326.37   12.00
   2   2   4  331.67   10.50
  -3  -2  -4   52.69    5.90
  -3  -2  -4   43.00    4.60
   3   2   4   62.39    5.20
   3   2   4   40.80    4.30
   3   2   4   54.19    5.50
   3   2   4   53.19    3.90
  -4  -2  -4 3531.35   98.09
  -4  -2  -4 3735.53   99.89
   4   2   4 3713.13   97.19
   4   2   4 3688.93   97.79
   4   2   4 3712.13   97.29
  -5  -2  -4 1551.94   47.90
  -5  -2  -4 1604.84   49.60
  -5  -2  -4 1653.83   48.50
   5   2   4 1661.83   47.80
   5   2   4 1662.33   47.70
  -6  -2  -4   26.00    6.80
  -6  -2  -4   27.40    5.50
  -6  -2  -4   26.90    6.90
   6   2   4   34.90    7.10
  -7  -2  -4   20.00    9.40
  -7  -2  -4   21.90    9.00
  -7  -2  -4    7.20    5.70
   7   2   4    5.30    7.40
  -8  -2  -4   24.30    8.80
  -8  -2  -4   38.80   10.20
   8   2   4   40.80   10.70
  -9  -2  -4   35.60   12.70
   9   2   4   64.89   12.60
 -10  -2  -4  254.27   24.20
  10   2   4  248.68   23.20
 -11  -2  -4  265.37   27.40
  11   2   4  239.08   27.90
  12   2   4  160.78   21.20
   9  -3  -4  380.96   30.60
  -9   3   4  473.25   41.60
   8  -3  -4  386.76   23.50
  -8   3   4  399.76   31.00
   7  -3  -4  104.59   14.60
  -7   3   4   77.59   14.90
  -7   3   4   73.59   13.50
   6  -3  -4   47.60    9.00
   6  -3  -4   67.99   16.10
  -6   3   4   61.99   15.10
  -6   3   4   70.79   11.30
  -6   3   4   57.89   10.60
   5  -3  -4   27.70   10.20
   5  -3  -4   16.60   10.80
  -5   3   4   18.50    7.00
  -5   3   4    1.70   11.10
  -5   3   4   10.20    8.50
  -5   3   4    4.60   11.40
   4  -3  -4   33.10    6.30
   4  -3  -4   18.80    8.40
  -4   3   4   26.30    6.30
  -4   3   4   26.50    7.40
  -4   3   4   23.70    9.20
   3  -3  -4   33.40    8.10
   3  -3  -4   40.70    6.20
  -3   3   4   28.00    6.30
  -3   3   4   41.50    7.50
  -3   3   4   47.40    9.60
  -3   3   4   27.40    5.20
   2  -3  -4   15.50    6.00
   2  -3  -4   22.10    3.70
  -2   3   4   21.30    3.70
  -2   3   4   15.70    5.80
  -2   3   4   12.70    5.00
  -2   3   4   22.70    6.10
   1  -3  -4   27.00    2.70
   1  -3  -4   28.50    3.70
   1  -3  -4   23.80    5.80
  -1   3   4   30.20    5.60
  -1   3   4   27.30    3.20
  -1   3   4   27.10    6.40
  -1   3   4   30.50    7.30
   0  -3  -4 4345.27  121.59
   0   3   4 4539.65  120.49
   0   3   4 4458.55  121.09
  -1  -3  -4 3626.14   91.59
   1   3   4 3765.72   95.99
   1   3   4 3679.13   97.99
   1   3   4 3414.36   98.49
   1   3   4 3591.94   91.49
  -2  -3  -4 1478.25   39.40
  -2  -3  -4 1421.56   42.60
   2   3   4 1297.47   48.20
   2   3   4 1581.54   43.90
   2   3   4 1543.05   42.30
  -3  -3  -4  687.83   23.60
  -3  -3  -4  676.73   22.30
  -3  -3  -4  684.83   21.10
   3   3   4  691.63   22.40
   3   3   4  626.24   22.60
   3   3   4  695.93   19.70
  -4  -3  -4  117.59    8.90
  -4  -3  -4  109.89    7.90
   4   3   4  105.39    6.90
   4   3   4  114.59    7.40
   4   3   4  113.69    6.90
  -5  -3  -4   66.29    7.50
  -5  -3  -4   74.19    8.00
   5   3   4   71.09    9.10
   5   3   4   85.39    7.50
   5   3   4   69.69    6.20
   5   3   4   74.59    7.30
  -6  -3  -4  282.67   14.10
  -6  -3  -4  272.47   15.00
   6   3   4  282.57   15.90
   6   3   4  272.67   14.10
   6   3   4  260.87   13.30
  -7  -3  -4   99.29   10.30
   7   3   4   83.99   14.80
  -8  -3  -4   95.69   11.80
  -8  -3  -4   86.89   12.30
   8   3   4  101.29   12.40
   8   3   4   69.19    8.80
  -9  -3  -4    6.90    9.00
   9   3   4   -2.70    9.50
 -10  -3  -4   47.10   11.90
  10   3   4   40.20    8.30
  10   3   4   58.59   13.60
 -11  -3  -4   -8.40   12.30
  11   3   4   15.40   14.10
  12   3   4   60.29   13.80
   8  -4  -4   36.90   12.40
  -8   4   4   19.60   16.40
   7  -4  -4    1.60    9.40
  -7   4   4    2.60   13.50
  -7   4   4   28.20   13.30
  -7   4   4   -4.90   12.90
   6  -4  -4   -9.30    7.60
  -6   4   4  -13.10   12.50
  -6   4   4    3.10   13.70
  -6   4   4  -18.00    9.60
   5  -4  -4   10.60    7.30
   5  -4  -4   11.50   12.00
  -5   4   4   -9.60   10.50
  -5   4   4    4.00   14.40
  -5   4   4    7.70    8.00
   4  -4  -4  130.29   11.30
   4  -4  -4  163.98   17.30
  -4   4   4  103.29   11.70
  -4   4   4  137.19   19.20
  -4   4   4  149.59   20.00
  -4   4   4  137.19   14.30
   3  -4  -4  353.26   22.20
   3  -4  -4  370.96   15.80
  -3   4   4  387.86   18.50
  -3   4   4  336.67   20.70
  -3   4   4  342.37   15.40
   2  -4  -4  507.15   17.50
   2  -4  -4  490.65   24.00
  -2   4   4  483.25   23.50
  -2   4   4  504.05   21.70
  -2   4   4  501.35   25.70
  -2   4   4  485.55   17.20
   1  -4  -4  291.87   10.30
   1  -4  -4  311.07   11.30
   1  -4  -4  295.77   18.00
  -1   4   4  320.67   15.70
  -1   4   4  296.67   17.60
  -1   4   4  319.47   20.60
   0  -4  -4   36.80    4.10
   0  -4  -4   35.70    3.10
   0  -4  -4   34.50    7.00
   0  -4  -4   27.10    2.60
   0   4   4   27.00    5.00
   0   4   4   37.40    7.30
   0   4   4   35.90    8.80
  -1  -4  -4 1226.68   31.60
  -1  -4  -4 1183.08   40.90
   1   4   4 1265.47   37.30
   1   4   4 1134.99   32.10
   1   4   4 1197.58   38.90
   1   4   4 1147.29   39.80
  -2  -4  -4 2489.15   69.29
  -2  -4  -4 2410.96   63.09
   2   4   4 2374.16   66.99
   2   4   4 2382.06   68.19
   2   4   4 2372.46   69.19
  -3  -4  -4  777.22   23.90
  -3  -4  -4  772.82   26.80
   3   4   4  769.72   26.20
   3   4   4  822.02   22.20
   3   4   4  763.32   27.10
   3   4   4  814.12   27.40
  -4  -4  -4  166.38   10.50
  -4  -4  -4  152.88   10.90
  -4  -4  -4  178.28   10.20
   4   4   4  162.48    8.00
   4   4   4  158.98   10.50
   4   4   4  159.78    9.70
  -5  -4  -4   -0.30    3.80
  -5  -4  -4    1.80    5.60
   5   4   4    0.20    3.50
   5   4   4   -1.70    3.70
   5   4   4   -0.80    3.30
   5   4   4   -0.50    4.90
  -6  -4  -4  110.39   11.90
  -6  -4  -4  117.19   10.00
   6   4   4  111.19    8.80
   6   4   4  107.29   12.60
   6   4   4  108.99    9.80
  -7  -4  -4    4.00    7.30
  -7  -4  -4   -0.10    4.80
   7   4   4    0.70    7.90
   7   4   4   -6.40    5.20
  -8  -4  -4  328.77   19.50
  -8  -4  -4  308.67   19.00
   8   4   4  301.77   18.60
   8   4   4  315.37   17.60
   8   4   4  312.97   22.40
  -9  -4  -4  164.38   17.40
   9   4   4  199.38   22.70
   9   4   4  175.28   16.30
   9   4   4  150.98   13.40
 -10  -4  -4   51.09   12.20
  10   4   4   38.80   12.10
  10   4   4   21.90    8.90
 -11  -4  -4  236.58   24.30
  11   4   4  202.28   17.80
  11   4   4  200.68   24.50
 -12  -4  -4  154.48   28.50
  12   4   4  162.08   20.10
   8  -5  -4   45.30   15.30
   7  -5  -4   35.70   11.90
  -7   5   4   -0.20   15.60
  -7   5   4   54.29   18.30
  -7   5   4   25.90   21.50
   6  -5  -4   93.79   13.90
  -6   5   4   65.79   20.20
  -6   5   4   63.49   17.80
  -6   5   4   70.19   12.80
   5  -5  -4   64.49   10.40
  -5   5   4   84.59   14.30
  -5   5   4   53.79   16.70
  -5   5   4   41.40   15.50
   4  -5  -4   17.40   11.10
   4  -5  -4    5.30    6.80
  -4   5   4   12.00   13.40
   3  -5  -4  489.45   26.10
   3  -5  -4  471.65   19.20
  -3   5   4  454.25   29.30
  -3   5   4  495.95   20.00
  -3   5   4  466.15   28.30
  -3   5   4  470.95   23.60
   2  -5  -4 2774.22   73.89
   2  -5  -4 2733.23   84.69
  -2   5   4 2696.33   86.59
  -2   5   4 2636.94   79.19
   1  -5  -4 1891.01   61.79
   1  -5  -4 1831.62   50.89
   1  -5  -4 1878.91   50.89
  -1   5   4 1853.81   59.99
  -1   5   4 1867.21   63.09
  -1   5   4 1837.42   56.89
   0  -5  -4  459.25   24.20
   0  -5  -4  498.55   15.20
   0  -5  -4  487.55   15.00
   0  -5  -4  463.35   19.40
   0   5   4  488.55   22.90
   0   5   4  462.65   24.90
   0   5   4  500.85   21.60
  -1  -5  -4   19.90    7.50
  -1  -5  -4   28.30    4.20
   1   5   4   17.20    4.70
   1   5   4   18.40    7.70
   1   5   4   18.00    5.70
  -2  -5  -4  137.29    6.60
  -2  -5  -4  138.69   10.80
   2   5   4  135.59   10.60
   2   5   4  134.69   11.40
   2   5   4  140.59   12.50
  -3  -5  -4   16.80    4.80
  -3  -5  -4   15.10    3.20
   3   5   4   15.60    5.60
   3   5   4   15.30    2.90
   3   5   4   16.50    4.80
   3   5   4   14.90    5.70
  -4  -5  -4   78.39    8.60
  -4  -5  -4   61.99    6.80
   4   5   4   71.39    8.70
   4   5   4   52.19    6.90
   4   5   4   73.19    5.70
   4   5   4   77.89    9.60
  -5  -5  -4  136.79   10.50
  -5  -5  -4  131.39   11.70
   5   5   4  131.99   11.30
   5   5   4  134.09    8.80
   5   5   4  141.59   11.30
   5   5   4  155.78   11.60
  -6  -5  -4    5.90    5.50
  -6  -5  -4   16.40    7.50
   6   5   4   11.70    5.00
   6   5   4   10.50    5.50
   6   5   4    7.30    5.90
  -7  -5  -4  332.67   19.90
  -7  -5  -4  346.27   18.20
   7   5   4  322.57   20.40
   7   5   4  348.67   18.50
   7   5   4  358.56   17.30
  -8  -5  -4 1350.16   46.70
  -8  -5  -4 1363.46   47.50
   8   5   4 1384.86   46.40
   8   5   4 1440.86   51.09
   8   5   4 1385.26   44.90
  -9  -5  -4  254.37   20.30
   9   5   4  265.47   16.50
   9   5   4  213.48   25.00
   9   5   4  271.17   17.70
 -10  -5  -4   14.70   10.90
  10   5   4   30.60    8.80
  10   5   4   20.60   11.10
 -11  -5  -4   27.90   13.80
  11   5   4   51.09   11.10
  11   5   4   21.20   12.90
 -12  -5  -4   58.59   18.20
  12   5   4   46.10   12.80
   7  -6  -4   16.10   11.80
  -7   6   4   27.50   21.40
   6  -6  -4  120.19   15.80
  -6   6   4  123.29   24.50
  -6   6   4   97.99   22.70
   5  -6  -4  198.38   16.10
  -5   6   4  263.37   29.60
  -5   6   4  164.18   28.20
   4  -6  -4  232.48   15.00
  -4   6   4  224.38   18.40
  -4   6   4  176.68   21.60
  -4   6   4  209.88   28.80
   3  -6  -4   10.30   10.40
   3  -6  -4   16.70    6.20
  -3   6   4   14.70   12.70
  -3   6   4    6.80    8.40
   2  -6  -4   34.70    5.80
   2  -6  -4   32.50    6.00
   2  -6  -4   40.60   10.10
  -2   6   4   18.90   11.50
  -2   6   4   17.20   15.20
   1  -6  -4  173.98   18.90
   1  -6  -4  178.18   10.40
   1  -6  -4  176.98    9.90
  -1   6   4  158.48   22.40
  -1   6   4  184.18   15.40
  -1   6   4  200.58   18.70
   0  -6  -4   29.30    4.10
   0  -6  -4   31.90    9.60
   0  -6  -4   39.10    5.30
   0   6   4   36.30    9.20
   0   6   4   33.60    8.90
   0   6   4   28.20    8.30
  -1  -6  -4  345.27   11.90
  -1  -6  -4  317.37   20.60
  -1  -6  -4  357.26   13.00
   1   6   4  319.17   20.20
   1   6   4  328.97   17.50
   1   6   4  351.06   20.00
  -2  -6  -4   17.10    6.20
  -2  -6  -4   18.50    3.80
   2   6   4   30.80    9.20
   2   6   4   22.60    3.70
   2   6   4   14.80    6.80
  -3  -6  -4  518.05   18.10
  -3  -6  -4  552.84   24.00
   3   6   4  477.15   24.10
   3   6   4  537.65   17.10
   3   6   4  531.75   23.40
   3   6   4  513.45   22.40
  -4  -6  -4  932.61   34.10
  -4  -6  -4  943.21   29.70
   4   6   4  940.01   35.20
   4   6   4  900.21   33.10
   4   6   4  953.70   27.80
   4   6   4  964.20   33.20
  -5  -6  -4  103.69   10.70
  -5  -6  -4   90.49    9.40
   5   6   4  111.99    8.30
   5   6   4  108.99   10.30
   5   6   4  121.69   10.90
   5   6   4  109.69   13.10
  -6  -6  -4   22.70    6.20
   6   6   4   26.30    5.70
   6   6   4   25.10    7.40
  -7  -6  -4    3.50    6.90
  -7  -6  -4    4.70    8.00
   7   6   4   -6.10    7.20
   7   6   4   12.40    7.30
   7   6   4    4.10    6.40
  -8  -6  -4  157.98   15.80
  -8  -6  -4  149.69   16.90
   8   6   4  161.78   15.60
   8   6   4  151.48   12.80
   8   6   4  141.09   20.30
  -9  -6  -4  780.72   34.40
   9   6   4  840.82   33.60
   9   6   4  796.82   44.40
   9   6   4  780.62   31.40
 -10  -6  -4   98.49   19.50
  10   6   4  107.89   14.30
  10   6   4  119.09   17.00
 -11  -6  -4   -0.40   14.00
  11   6   4   20.70   14.10
  11   6   4   12.70   11.20
 -12  -6  -4  -31.80   17.50
  12   6   4    6.10   12.80
   7  -7  -4   24.70   14.90
  -7   7   4  -30.40   27.90
   6  -7  -4   22.90   11.40
  -6   7   4  -12.50   22.40
   5  -7  -4  140.09   15.70
  -5   7   4   99.79   22.90
  -5   7   4  115.49   25.90
   4  -7  -4   36.90    9.50
  -4   7   4   25.10   14.10
  -4   7   4   38.20   18.40
   3  -7  -4  107.39   12.40
   3  -7  -4   86.79   12.90
  -3   7   4  118.59   21.40
  -3   7   4   88.09   14.00
   2  -7  -4   19.50   11.70
   2  -7  -4   32.70    6.90
   2  -7  -4   23.90    6.70
  -2   7   4   19.90   10.00
  -2   7   4   47.60   14.40
   1  -7  -4  314.27   14.70
   1  -7  -4  304.47   14.10
   1  -7  -4  356.36   26.20
  -1   7   4  282.37   21.20
  -1   7   4  299.87   22.80
  -1   7   4  301.27   31.90
   0  -7  -4  189.08   10.30
   0  -7  -4  211.08   22.00
   0  -7  -4  190.68   11.60
   0   7   4  210.78   21.50
   0   7   4  207.58   15.90
   0   7   4  205.48   18.60
  -1  -7  -4  114.09    7.20
  -1  -7  -4   86.69   16.70
   1   7   4   90.99   14.00
   1   7   4  101.39   13.30
  -2  -7  -4  227.98   11.50
  -2  -7  -4  183.38   17.00
   2   7   4  220.08   19.20
   2   7   4  200.48    9.80
   2   7   4  210.48   17.20
   2   7   4  219.18   17.70
  -3  -7  -4   -1.50    3.70
  -3  -7  -4    9.50    6.40
   3   7   4   -0.10    8.00
   3   7   4    0.60    7.30
   3   7   4   -1.50    4.60
   3   7   4   -1.40    7.10
  -4  -7  -4  966.80   31.70
  -4  -7  -4 1067.29   39.30
   4   7   4 1010.10   30.30
   4   7   4  978.30   36.50
   4   7   4  985.00   39.20
  -5  -7  -4 2168.68   61.69
  -5  -7  -4 2170.68   67.19
   5   7   4 2213.28   68.09
   5   7   4 1994.40   64.89
   5   7   4 2107.69   64.29
   5   7   4 2136.39   59.09
  -6  -7  -4 1401.16   44.70
   6   7   4 1381.26   42.00
   6   7   4 1382.16   47.80
   6   7   4 1421.26   49.10
   6   7   4 1451.05   46.50
  -7  -7  -4  169.08   14.50
   7   7   4  194.48   16.10
   7   7   4  183.78   17.60
   7   7   4  165.08   12.90
  -8  -7  -4   43.80   11.10
   8   7   4   35.60    9.20
   8   7   4   35.40   11.50
   8   7   4   49.10   11.50
  -9  -7  -4   17.80   11.40
   9   7   4   20.30    9.00
   9   7   4   33.70   12.50
 -10  -7  -4    4.70   12.60
  10   7   4   32.30   13.40
  10   7   4   14.30   10.10
 -11  -7  -4  -16.00   14.10
  11   7   4   13.70   15.10
  11   7   4    2.40   10.70
 -12  -7  -4  -10.80   17.80
  12   7   4   19.40   17.70
 -13  -7  -4    4.30   27.30
   6  -8  -4   26.10   13.20
  -6   8   4   -1.30   29.80
   5  -8  -4  191.18   19.70
  -5   8   4  158.98   29.90
  -5   8   4  225.18   50.49
   4  -8  -4   12.10    9.80
   4  -8  -4   28.70   12.80
  -4   8   4   17.30   20.00
  -4   8   4   22.50   15.20
   3  -8  -4   31.00    9.00
   3  -8  -4   42.20    9.30
  -3   8   4   35.90   18.40
  -3   8   4   38.90   13.70
   2  -8  -4   76.49   11.30
   2  -8  -4   85.89   12.10
  -2   8   4   82.49   15.10
  -2   8   4   94.09   19.80
   1  -8  -4    2.40    5.10
   1  -8  -4   16.50    6.30
  -1   8   4   -2.20   10.40
  -1   8   4   16.70   12.50
   0  -8  -4  179.28   11.40
   0  -8  -4  192.28   11.00
   0  -8  -4  203.78   24.10
   0   8   4  181.48   16.80
   0   8   4  300.67   47.10
   0   8   4  209.48   21.00
  -1  -8  -4  638.14   21.80
  -1  -8  -4  663.63   35.30
  -1  -8  -4  658.83   22.80
   1   8   4  668.83   31.50
   1   8   4  693.03   36.70
   1   8   4  636.64   31.00
  -2  -8  -4  592.74   21.50
  -2  -8  -4  526.05   28.50
   2   8   4  595.34   31.50
   2   8   4  550.64   27.60
   2   8   4  587.14   28.00
   2   8   4  548.75   19.60
  -3  -8  -4  457.55   26.30
  -3  -8  -4  486.65   19.00
   3   8   4  465.75   17.90
   3   8   4  484.45   29.30
   3   8   4  429.86   30.40
  -4  -8  -4  -11.60    8.00
  -4  -8  -4    1.80    4.50
   4   8   4    5.30    9.50
   4   8   4    2.90    5.60
   4   8   4   -2.60    9.60
   4   8   4  -10.50    6.70
  -5  -8  -4   52.09   11.00
  -5  -8  -4   53.89    8.30
   5   8   4   64.59   12.80
   5   8   4   75.09   14.50
   5   8   4   60.69    9.00
   5   8   4   58.89   11.50
  -6  -8  -4   59.19    8.50
  -6  -8  -4   65.79   11.00
   6   8   4   69.79   12.20
   6   8   4   76.19    9.70
   6   8   4   55.19   11.40
   6   8   4   62.39   12.30
  -7  -8  -4    4.00    6.50
   7   8   4   13.50   10.40
   7   8   4    8.70   11.20
   7   8   4   -2.70    8.00
   7   8   4    0.70    7.40
  -8  -8  -4    9.20   10.50
   8   8   4   15.90    7.40
   8   8   4    6.70    8.20
   8   8   4   17.00   12.00
   8   8   4   12.80   11.60
   9   8   4   80.39   15.80
   9   8   4   57.79   10.90
  10   8   4  173.78   24.60
  10   8   4  152.48   17.40
  11   8   4  261.67   23.00
  11   8   4  265.77   29.20
  12   8   4   36.80   20.90
  -5   9   4  -67.29   41.60
   4  -9  -4    0.40   10.80
  -4   9   4   13.50   19.40
   3  -9  -4   38.30   10.20
  -3   9   4   52.09   16.90
  -3   9   4   49.90   23.90
   2  -9  -4   86.99   13.70
   2  -9  -4   88.39   11.10
  -2   9   4   93.69   17.80
  -2   9   4   98.59   20.70
   1  -9  -4  136.89   13.70
   1  -9  -4  144.99   12.40
  -1   9   4  139.89   21.90
  -1   9   4  146.89   21.90
   0  -9  -4    5.50    5.20
   0  -9  -4    6.30    6.40
   0   9   4   -2.90   12.30
   0   9   4   -0.50   10.40
  -1  -9  -4    9.70    5.30
  -1  -9  -4    7.80    5.60
  -1  -9  -4    6.00   13.10
   1   9   4   -4.30   11.40
   1   9   4   -3.20    7.60
  -2  -9  -4  378.46   27.60
  -2  -9  -4  389.96   18.00
   2   9   4  365.96   24.90
   2   9   4  343.87   22.50
  -3  -9  -4  656.23   24.80
  -3  -9  -4  643.04   34.60
   3   9   4  638.34   30.80
   3   9   4  655.53   31.70
   3   9   4  716.13   24.10
   3   9   4  641.34   38.30
  -4  -9  -4   12.20    5.60
  -4  -9  -4  -10.40    9.80
   4   9   4    7.60   11.30
   4   9   4   -4.80    6.70
   4   9   4   25.10   15.30
  -5  -9  -4   17.00    5.90
  -5  -9  -4    1.80   11.20
   5   9   4    4.90   11.40
   5   9   4   10.00    7.30
   5   9   4   -5.00    7.20
   5   9   4   -8.30   14.90
  -6  -9  -4  155.98   20.00
  -6  -9  -4  139.99   13.10
   6   9   4  158.78   13.40
   6   9   4  187.18   19.70
   6   9   4  137.69   26.20
  -7  -9  -4  247.78   17.90
   7   9   4  269.57   19.10
   7   9   4  205.68   25.60
   7   9   4  245.48   19.70
   8   9   4   85.79   14.10
   8   9   4   50.79   13.70
   8   9   4   60.69   11.20
   9   9   4   33.50   10.70
   9   9   4   40.60   13.00
   9   9   4   35.00   10.30
  10   9   4   19.30   16.10
  10   9   4   10.90   11.40
  10   9   4   -9.70    9.70
  11   9   4  175.98   27.70
  11   9   4  146.39   21.60
  11   9   4  112.29   18.80
  12   9   4  364.96   37.00
   3 -10  -4   38.70   11.40
  -3  10   4   33.80   20.80
   2 -10  -4   99.49   13.00
  -2  10   4   94.09   17.80
  -2  10   4  110.19   27.70
   1 -10  -4   95.79   14.50
   1 -10  -4  109.59   12.60
  -1  10   4   86.49   21.90
  -1  10   4   66.89   17.70
   0 -10  -4   61.49    9.60
   0 -10  -4   83.69   11.60
   0  10   4   56.59   18.10
  -1 -10  -4   35.70    7.70
  -1 -10  -4   33.20    7.10
   1  10   4   50.59   17.90
   1  10   4   22.50   12.00
  -2 -10  -4  289.67   17.30
   2  10   4  343.57   29.20
   2  10   4  256.27   20.40
  -3 -10  -4  165.08   14.10
   3  10   4  183.48   20.20
   3  10   4  197.58   13.90
   3  10   4  158.58   18.30
  -4 -10  -4   33.30   25.00
  -4 -10  -4   55.99    8.30
   4  10   4   69.49   13.30
   4  10   4   60.09   13.30
   4  10   4   89.19   12.10
  -5 -10  -4  252.27   15.10
  -5 -10  -4  205.98   30.80
   5  10   4  221.58   18.30
   5  10   4  252.57   17.40
   5  10   4  243.58   23.10
  -6 -10  -4    6.10   14.50
  -6 -10  -4   -1.50    7.20
   6  10   4  -16.80    9.30
   6  10   4   13.30   12.30
  -7 -10  -4   16.00   11.30
   7  10   4   22.30   13.30
   7  10   4   36.50   10.40
   7  10   4    1.30   10.50
   8  10   4  464.05   26.80
   8  10   4  454.95   22.80
   8  10   4  432.26   27.50
   9  10   4  468.25   29.10
   9  10   4  469.35   26.30
   9  10   4  465.85   23.90
  10  10   4   69.39   17.10
  10  10   4   45.20   13.20
  10  10   4   46.70   12.60
  11  10   4    5.60   14.60
  11  10   4   13.40   17.80
  -1  11   4   44.70   25.10
  -1  11   4    3.60   17.70
   0 -11  -4    7.80   14.00
   0  11   4   -0.80   17.10
   0  11   4    1.10   14.90
  -1 -11  -4   56.39    9.40
   1  11   4   73.79   18.40
   1  11   4   30.50   16.30
  -2 -11  -4    3.00    8.40
  -2 -11  -4   -7.60    8.00
   2  11   4   -3.60   11.00
   2  11   4   14.90   16.60
  -3 -11  -4   19.60    9.00
   3  11   4   21.70    9.50
   3  11   4    5.80    9.00
   3  11   4   37.70   16.60
  -4 -11  -4  205.08   16.10
   4  11   4  291.17   18.30
   4  11   4  232.48   20.10
   4  11   4  227.38   24.10
  -5 -11  -4   54.69    9.30
   5  11   4   38.80   15.20
   5  11   4  102.19   15.90
   5  11   4   62.69   13.90
  -6 -11  -4   51.59   10.90
   6  11   4   52.59   14.00
   6  11   4   51.99   13.80
   6  11   4   28.00   12.40
   7  11   4  -18.40    9.80
   7  11   4   -6.60   11.60
   7  11   4    7.40   13.50
   8  11   4  -15.80   11.30
   8  11   4   -8.10   11.50
   8  11   4    9.80   14.60
   9  11   4  150.38   19.40
   9  11   4  195.08   26.10
  10  11   4  259.87   23.00
  10  11   4  238.98   25.60
  11  11   4   32.00   16.70
   0  12   4  235.88   40.50
   1  12   4   27.50   21.30
   1  12   4   -0.80   19.30
   2  12   4   52.29   16.90
   2  12   4   55.49   20.40
  -3 -12  -4  -20.10    9.90
   3  12   4  -18.90   17.50
   3  12   4    3.90   12.70
  -4 -12  -4   23.60    9.80
   4  12   4    5.70   11.30
   4  12   4   51.59   21.60
   5  12   4   45.80   12.50
   5  12   4   49.00   20.00
   6  12   4  265.97   26.60
   6  12   4  337.27   27.30
   6  12   4  281.87   23.30
   7  12   4   78.29   15.60
   7  12   4   55.79   17.00
   7  12   4   84.49   15.60
   8  12   4  -28.70   13.40
   8  12   4   -0.40   14.30
   8  12   4    6.00   15.70
   9  12   4   97.69   17.10
   9  12   4   47.70   18.00
  10  12   4  139.99   19.20
   2  13   4   -4.70   22.00
   3  13   4   24.50   17.40
   4  13   4    3.00   14.60
   5  13   4  118.99   19.90
   6  13   4   26.10   13.40
   7  13   4    1.30   14.40
   4  14   4    0.90   21.10
   5  14   4  -13.20   18.30
   6  14   4   48.20   26.90
   6  12  -5  196.58   23.90
   5  12  -5  153.58   25.40
   4  12  -5   40.10   16.70
   6  11  -5   11.00   12.90
   5  11  -5    6.70   20.40
   5  11  -5   31.60   12.40
   4  11  -5  270.97   30.80
   4  11  -5  202.48   21.80
   3  11  -5   71.89   14.60
   3  11  -5   95.99   20.40
   2  11  -5   -2.30   17.20
   2  11  -5   -7.10   12.90
   1  11  -5   24.20   19.20
   1  11  -5   15.90   16.10
  -1  11  -5  171.88   29.10
  -2  11  -5  189.28   35.40
   7  10  -5  179.08   27.00
   7  10  -5  199.58   23.00
   6  10  -5    8.20   11.20
   6  10  -5   24.40   18.10
   5  10  -5   88.59   17.30
   5  10  -5   95.19   15.70
   4  10  -5  131.19   21.50
   4  10  -5  119.89   16.90
   3  10  -5  134.59   17.60
   3  10  -5  194.08   24.10
   2  10  -5  273.77   23.00
   2  10  -5  279.57   23.50
   1  10  -5    0.70   13.30
   1  10  -5    7.70   14.20
   1  10  -5   -0.80   13.00
   0  10  -5   29.40   12.90
   0  10  -5   16.00   15.50
   0  10  -5   54.89   17.30
  -1  10  -5  183.58   23.30
  -1  10  -5  170.08   30.00
  -2  10  -5  278.47   30.40
   2 -10   5  344.77   48.30
  -3  10  -5   19.30   20.00
   8   9  -5  391.96   32.80
   7   9  -5   21.40   14.40
   7   9  -5   44.90   10.20
   6   9  -5   24.20   13.30
   6   9  -5   15.10    9.80
   5   9  -5   20.10    9.00
   5   9  -5   17.00   13.50
   4   9  -5   49.30   14.20
   4   9  -5   40.40    9.20
   3   9  -5  173.48   16.50
   3   9  -5  197.28   21.00
   2   9  -5   44.60   10.20
   2   9  -5   20.20   12.00
   1   9  -5   36.60    9.90
   1   9  -5   40.60   10.50
   1   9  -5   23.40   11.90
   0   9  -5    5.00   11.60
   0   9  -5   14.50   12.40
   0   9  -5   11.40   10.10
  -1   9  -5   13.50   13.10
  -1   9  -5   26.00   14.20
  -1   9  -5    7.70   11.00
  -2   9  -5   82.29   22.80
  -2   9  -5   80.69   15.50
  -3   9  -5  467.45   43.90
  -3   9  -5  511.55   34.60
   3  -9   5  464.55   34.20
  -4   9  -5  175.68   32.40
   8   8  -5  124.39   19.70
   7   8  -5  531.95   30.70
   7   8  -5  478.65   23.50
   6   8  -5   95.19   13.10
   6   8  -5  110.09   17.10
   5   8  -5   96.19   15.10
   4   8  -5   11.40    7.60
   4   8  -5   -4.70   11.70
   3   8  -5   23.90   11.80
   3   8  -5   28.80    8.00
   2   8  -5  385.26   17.00
   2   8  -5  377.66   21.40
   2   8  -5  367.26   25.40
   1   8  -5 1106.29   42.70
   1   8  -5 1144.89   44.30
   1   8  -5 1152.28   38.10
   0   8  -5  407.46   22.30
   0   8  -5  478.35   27.70
   0   8  -5  403.16   25.80
  -1   8  -5   62.99   15.10
  -1   8  -5   57.39   12.00
  -1   8  -5   57.69   13.70
  -2   8  -5   50.69   15.50
  -2   8  -5   41.90   11.80
  -3   8  -5   31.10   13.20
  -3   8  -5   48.00   17.90
   3  -8   5   31.40   15.70
  -4   8  -5  183.68   27.20
  -4   8  -5  133.29   24.80
   4  -8   5  156.38   23.80
  -5   8  -5  327.17   37.10
   9   7  -5   54.59   16.00
   8   7  -5   -6.10   11.30
   7   7  -5   21.30    8.10
   7   7  -5   22.20   11.70
   6   7  -5  370.86   24.00
   6   7  -5  397.96   18.00
   5   7  -5  530.85   27.40
   5   7  -5  510.95   21.50
   4   7  -5  220.68   14.10
   4   7  -5  237.18   14.30
   4   7  -5  220.78   19.40
  -4  -7   5  231.38   21.50
   3   7  -5    8.50    8.90
   3   7  -5   15.50    6.60
  -3  -7   5   15.30   10.50
   2   7  -5   82.39    8.10
   2   7  -5   59.69   10.50
   2   7  -5   80.19   13.50
  -2  -7   5   69.29   11.40
   1   7  -5  722.73   30.50
   1   7  -5  694.93   31.80
   1   7  -5  726.33   25.80
  -1  -7   5  687.83   33.00
   0   7  -5    2.20    8.20
   0   7  -5  -12.90    8.10
   0   7  -5   13.60    7.10
   0  -7   5    6.60   10.00
  -1   7  -5  319.87   21.70
  -1   7  -5  316.57   22.10
   1  -7   5  357.36   28.70
  -2   7  -5    4.60    9.20
  -2   7  -5   -8.60   10.60
  -2   7  -5   18.40   11.90
  -3   7  -5  212.88   23.00
  -3   7  -5  204.88   18.90
   3  -7   5  200.88   19.30
  -4   7  -5  146.19   22.10
  -4   7  -5  131.29   23.90
   4  -7   5  122.19   17.90
  -5   7  -5    5.70   14.90
  -5   7  -5   10.20   18.00
   5  -7   5   16.90   17.10
  -6   7  -5   82.69   29.00
   9   6  -5  340.87   25.50
   8   6  -5   65.59   13.50
   7   6  -5    2.80    8.50
   6   6  -5    9.00    8.60
   6   6  -5    7.90    8.10
   6   6  -5   15.60    5.50
  -6  -6   5    1.20   18.40
   5   6  -5   34.00    6.00
   5   6  -5   24.10    8.90
  -5  -6   5   25.80   11.90
   4   6  -5   88.29   10.20
   4   6  -5   93.69   13.00
   4   6  -5   92.49    8.90
  -4  -6   5   86.89   13.60
   3   6  -5  294.47   14.70
   3   6  -5  309.17   14.80
   3   6  -5  287.57   18.90
  -3  -6   5  279.27   19.00
   2   6  -5   57.19    5.60
   2   6  -5   64.49   11.30
   2   6  -5   65.19    8.70
  -2  -6   5   51.39    9.90
   1   6  -5  404.16   23.60
   1   6  -5  406.06   16.90
   1   6  -5  397.96   20.40
  -1  -6   5  404.26   24.10
   0   6  -5  990.10   37.60
   0   6  -5 1017.40   34.20
   0   6  -5 1041.40   40.00
   0  -6   5 1038.10   41.20
  -1   6  -5   72.79   11.50
  -1   6  -5   85.99   14.90
  -1   6  -5   72.69   12.90
   1  -6   5  104.29   17.10
  -2   6  -5  234.78   19.50
  -2   6  -5  199.28   16.90
  -2   6  -5  216.08   21.00
   2  -6   5  218.58   19.40
  -3   6  -5  185.28   20.30
  -3   6  -5  158.38   18.10
  -4   6  -5   74.59   15.40
  -4   6  -5   57.39   14.20
   4  -6   5   61.09   14.70
  -5   6  -5  225.58   23.80
  -5   6  -5  219.18   24.40
   5  -6   5  247.28   24.70
  -6   6  -5  478.55   36.20
  -6   6  -5  361.76   31.90
   6  -6   5  375.36   31.30
   9   5  -5   44.70   14.20
   8   5  -5  168.88   17.80
   7   5  -5  103.59   15.50
   7   5  -5   97.39   14.20
   6   5  -5   11.90    4.00
   6   5  -5    2.80    8.30
   6   5  -5    7.00    8.90
  -6  -5   5   -8.90    7.20
   5   5  -5  290.87   18.70
   5   5  -5  322.97   12.90
   5   5  -5  331.97   19.00
  -5  -5   5  333.47   20.10
   4   5  -5 2846.62   77.59
   4   5  -5 2833.22   81.69
   4   5  -5 2871.71   83.19
  -4  -5   5 2889.21   84.39
   3   5  -5 1908.61   66.19
   3   5  -5 2052.59   59.49
   3   5  -5 2081.59   58.09
  -3  -5   5 2101.69   63.69
   2   5  -5   35.60    8.90
   2   5  -5   47.80    7.30
  -2  -5   5   31.40    6.60
   1   5  -5    3.50    4.40
   1   5  -5    8.50    4.00
   1   5  -5    1.20    7.10
  -1  -5   5    2.90    7.00
   0   5  -5   75.29    9.20
   0   5  -5   55.69    9.20
   0  -5   5   87.79   12.80
  -1   5  -5  445.36   20.40
  -1   5  -5  400.36   24.10
  -1   5  -5  445.56   23.50
   1  -5   5  466.15   24.90
  -2   5  -5 1386.86   46.80
  -2   5  -5 1452.45   50.49
  -2   5  -5 1353.66   48.20
   2  -5   5 1429.86   49.60
  -3   5  -5  190.68   18.10
  -3   5  -5  158.68   16.90
  -4   5  -5   11.90   10.00
  -4   5  -5  -11.20   13.30
  -4   5  -5    5.90   10.50
   4  -5   5   -2.50    8.70
  -5   5  -5   62.39   15.40
  -5   5  -5   25.20   11.50
   5  -5   5   42.10   12.30
  -6   5  -5   10.00   13.10
  -6   5  -5  -21.70   11.70
   6  -5   5  -13.10   12.70
  -7   5  -5   26.20   16.70
  -7   5  -5   68.79   22.00
   7  -5   5   42.10   19.00
  10   4  -5    4.20   19.40
   9   4  -5   16.30   12.20
   8   4  -5  671.03   32.00
   7   4  -5  689.33   30.60
   7   4  -5  658.53   32.10
  -7  -4   5  679.73   30.80
   6   4  -5  167.58   15.90
   6   4  -5  142.99   18.40
  -6  -4   5  138.39   13.90
   5   4  -5    2.30    6.80
   5   4  -5   -0.90    6.80
   5   4  -5    3.20    2.90
  -5  -4   5    7.50    6.20
   4   4  -5    4.40    3.00
   4   4  -5    4.20    5.30
  -4  -4   5   -2.60    7.00
   3   4  -5  919.71   28.00
   3   4  -5  920.51   32.50
   3   4  -5  929.91   30.80
  -3  -4   5  949.80   33.70
   2   4  -5 1448.16   42.90
   2   4  -5 1475.85   46.50
   2   4  -5 1466.95   42.80
  -2  -4   5 1483.25   47.60
   1   4  -5   42.30    6.70
   1   4  -5   42.80    4.40
   1   4  -5   60.09    9.20
  -1  -4   5   33.70    8.00
   0   4  -5  306.57   13.50
   0   4  -5  282.97   17.60
   0   4  -5  298.27   15.00
   0  -4   5  262.67   17.80
  -1   4  -5    7.50    6.50
  -1   4  -5    2.10    5.60
  -1   4  -5  -10.10    6.40
   1  -4   5    1.50    5.90
  -2   4  -5   60.09   10.90
  -2   4  -5   60.29   10.80
  -2   4  -5   61.99   12.90
  -3   4  -5  287.07   21.90
  -3   4  -5  262.77   18.50
  -3   4  -5  280.77   19.00
  -4   4  -5  692.73   32.20
  -4   4  -5  687.03   31.00
  -4   4  -5  686.13   31.00
   4  -4   5  647.94   30.30
  -5   4  -5   -3.20   11.90
  -5   4  -5   25.80   12.30
  -5   4  -5    2.80    8.90
   5  -4   5   11.50    9.30
  -6   4  -5  114.99   17.60
  -6   4  -5  179.18   22.30
   6  -4   5  165.38   20.60
  -7   4  -5  208.08   27.20
   7  -4   5  255.67   26.10
  -8   4  -5   20.30   21.00
  -8   4  -5    5.70   13.90
   8  -4   5    7.20   16.00
  10   3  -5   -1.60   15.00
   9   3  -5   11.30   10.80
   8   3  -5   14.60   10.40
  -8  -3   5    8.10    9.50
   7   3  -5 1028.40   40.70
   7   3  -5 1028.00   38.30
  -7  -3   5  943.21   33.00
  -7  -3   5 1051.99   38.30
  -7  -3   5 1019.90   37.90
   6   3  -5 2405.86   71.79
   6   3  -5 2366.96   73.09
  -6  -3   5 2352.36   65.09
  -6  -3   5 2406.86   70.59
  -6  -3   5 2367.36   71.19
   5   3  -5  300.97   18.50
   5   3  -5  328.77   18.20
  -5  -3   5  328.87   16.60
  -5  -3   5  300.07   12.30
  -5  -3   5  326.17   16.70
   4   3  -5   65.49    9.00
  -4  -3   5   61.09    9.20
   3   3  -5    3.90    5.40
   3   3  -5    1.80    3.90
   3   3  -5    5.40    2.80
  -3  -3   5   -1.70    5.20
   2   3  -5   77.49    6.40
   2   3  -5   84.39    6.20
   2   3  -5   69.59    8.00
  -2  -3   5   81.69    8.50
   1   3  -5 1181.58   35.70
   1   3  -5 1181.78   34.50
   1   3  -5 1218.38   39.20
   1   3  -5 1207.78   33.60
  -1  -3   5 1256.87   40.30
   0   3  -5  880.71   30.50
   0   3  -5  807.12   26.40
   0   3  -5  761.22   24.10
   0   3  -5  727.83   28.40
   0  -3   5  692.33   28.90
   0  -3   5  762.22   23.40
  -1   3  -5   86.69    8.40
  -1   3  -5   78.19    8.80
  -1   3  -5   58.89    9.00
   1  -3   5   60.59   10.30
   1  -3   5   73.29    6.00
  -2   3  -5  396.16   20.90
  -2   3  -5  394.86   18.30
  -2   3  -5  402.56   19.00
  -3   3  -5 3519.15  101.09
  -3   3  -5 3648.54  104.59
  -3   3  -5 3620.14  101.49
  -4   3  -5  856.01   40.50
  -4   3  -5  920.21   35.00
  -4   3  -5  939.51   36.20
   4  -3   5  928.81   35.80
  -5   3  -5   35.30   11.90
  -5   3  -5   14.10    8.90
   5  -3   5   41.40   11.00
  -6   3  -5   25.50   12.70
  -6   3  -5    9.80    9.90
   6  -3   5   20.70   11.30
  -7   3  -5   81.89   14.00
  -7   3  -5   94.29   17.90
   7  -3   5   88.99   16.30
  -8   3  -5  240.28   24.80
  -8   3  -5  270.77   29.50
   8  -3   5  230.68   24.90
  -9   3  -5  209.38   29.90
  10   2  -5  698.73   44.50
   9   2  -5  300.47   22.90
  -9  -2   5  238.28   27.10
   8   2  -5   -9.40    8.40
  -8  -2   5    4.80   11.80
   7   2  -5  122.89   13.60
   7   2  -5  160.08   16.60
  -7  -2   5  149.19   17.20
  -7  -2   5  154.38   14.80
  -7  -2   5  167.88   16.60
   6   2  -5    2.90    6.90
   6   2  -5    0.10    6.30
  -6  -2   5   -9.50    6.40
  -6  -2   5   10.40    5.70
  -6  -2   5    1.80    6.60
   5   2  -5  373.16   19.80
  -5  -2   5  369.96   17.10
  -5  -2   5  384.76   18.10
  -5  -2   5  392.36   15.30
   4   2  -5  364.66   16.80
  -4  -2   5  359.26   16.30
  -4  -2   5  368.86   13.70
  -4  -2   5  356.86   15.90
   3   2  -5   11.60    5.00
   3   2  -5    8.70    4.40
  -3  -2   5    7.60    4.00
  -3  -2   5   11.90    2.90
  -3  -2   5    5.30    4.40
   2   2  -5   43.80    4.50
   2   2  -5   31.00    5.40
  -2  -2   5   29.20    5.10
   1   2  -5 4100.69  105.89
   1   2  -5 3883.81  105.59
   1   2  -5 4122.79  105.69
   1   2  -5 3976.90  109.19
  -1  -2   5 4259.27  110.09
   0   2  -5 2257.87   61.09
   0   2  -5 2256.37   60.09
   0   2  -5 2141.89   63.99
   0   2  -5 2246.88   59.49
   0   2  -5 2243.08   58.19
   0  -2   5 2190.58   65.09
  -1   2  -5   41.10    5.60
  -1   2  -5   27.80    5.30
  -1   2  -5   25.30    5.80
  -1   2  -5   21.50    4.70
   1  -2   5   28.30    6.10
   1  -2   5   29.90    3.40
  -2   2  -5    2.60    4.60
  -2   2  -5    0.90    5.10
  -2   2  -5    5.30    5.10
  -2   2  -5   -2.50    2.70
  -2   2  -5    0.80    5.40
   2  -2   5    8.30    3.60
  -3   2  -5  420.26   20.30
  -3   2  -5  429.86   19.60
  -3   2  -5  466.25   21.10
  -4   2  -5  745.73   29.80
  -4   2  -5  721.23   28.50
  -4   2  -5  733.43   30.00
   4  -2   5  704.53   30.10
  -5   2  -5  777.52   32.00
  -5   2  -5  779.42   31.40
  -5   2  -5  795.62   33.80
   5  -2   5  800.92   33.00
  -6   2  -5   34.80   11.80
  -6   2  -5   35.00    9.10
  -6   2  -5   36.80   10.30
   6  -2   5   53.29   11.60
  -7   2  -5   40.10   13.70
  -7   2  -5   34.20   11.00
   7  -2   5   41.30   11.70
  -8   2  -5   51.29   17.50
  -8   2  -5   24.70   10.90
   8  -2   5   32.60   14.30
  -9   2  -5    8.80   12.90
  -9   2  -5   30.70   20.60
   9  -2   5  -26.10   14.70
   9   1  -5  175.48   20.80
  -9  -1   5  171.98   25.50
   8   1  -5  257.17   18.80
  -8  -1   5  264.37   22.50
  -8  -1   5  250.27   34.50
   7   1  -5   12.10    8.90
  -7  -1   5    5.00    8.40
  -7  -1   5   -6.90    9.80
   6   1  -5   -3.20    6.50
   6   1  -5   -0.80    7.20
  -6  -1   5   -4.90    7.30
  -6  -1   5   -0.30    6.70
   5   1  -5   76.49   10.30
   5   1  -5  105.29   10.30
  -5  -1   5  109.89   10.60
  -5  -1   5   89.79   10.10
  -5  -1   5   71.99   11.10
   4   1  -5   36.10    6.40
   4   1  -5   49.00    8.50
  -4  -1   5   51.49    8.90
  -4  -1   5   53.09    8.70
  -4  -1   5   53.69    6.60
   3   1  -5   10.10    4.50
   3   1  -5   12.20    4.90
  -3  -1   5   16.30    4.50
  -3  -1   5   12.10    4.40
  -3  -1   5   11.80    6.90
   2   1  -5    4.50    3.90
   2   1  -5    5.10    3.50
  -2  -1   5    2.70    3.80
  -2  -1   5    7.70    3.80
  -2  -1   5    0.70    2.50
   1   1  -5  441.66   13.40
   1   1  -5  443.06   14.90
   1   1  -5  418.26   16.00
  -1  -1   5  463.45   15.60
  -1  -1   5  430.96   13.80
  -1  -1   5  420.16   16.50
   0   1  -5 4437.66  114.19
   0   1  -5 4407.86  116.69
   0   1  -5 4340.07  111.49
   0   1  -5 4613.44  113.89
   0   1  -5 4563.34  111.59
   0  -1   5 3915.51  119.29
  -1   1  -5 6076.39  163.48
  -1   1  -5 6270.37  160.68
  -1   1  -5 6253.57  160.78
  -2   1  -5 1341.77   39.20
  -2   1  -5 1322.57   34.60
  -2   1  -5 1248.48   40.70
  -2   1  -5 1325.17   39.30
  -2   1  -5 1299.77   41.60
   2  -1   5 1233.68   35.10
  -3   1  -5  402.26   15.80
  -3   1  -5  393.16   18.00
  -3   1  -5  384.16   16.70
   3  -1   5  399.56   15.10
   3  -1   5  376.86   18.00
  -4   1  -5    1.80    4.40
  -4   1  -5    0.10    5.00
  -4   1  -5    6.60    6.30
   4  -1   5   -8.00    5.60
  -5   1  -5   30.20    7.60
   5  -1   5   32.90   10.30
  -6   1  -5  357.76   22.60
  -6   1  -5  331.87   19.50
  -6   1  -5  348.77   24.00
   6  -1   5  386.96   22.40
  -7   1  -5  673.63   30.80
  -7   1  -5  741.23   34.90
  -7   1  -5  721.63   34.30
   7  -1   5  708.23   31.90
  -8   1  -5   37.70   11.20
  -8   1  -5   40.00   13.90
   8  -1   5   54.49   13.10
  -9   1  -5  125.29   22.00
  -9   1  -5  104.89   17.80
   9  -1   5   89.49   16.10
 -10   1  -5  374.96   34.30
 -10   1  -5  314.37   43.40
  10  -1   5  340.27   34.20
 -10   0   5   76.79   23.70
   9   0  -5  197.78   22.90
  -9   0   5  219.58   25.30
   8   0  -5   13.40   11.50
  -8   0   5   25.10   11.60
  -8   0   5   22.50   13.00
   7   0  -5   -0.40    9.70
   7   0  -5  -14.50    7.00
  -7   0   5   18.30    8.50
  -7   0   5    2.40    7.20
  -7   0   5   -8.40   11.70
   6   0  -5    4.60    7.60
   6   0  -5    3.10    7.20
  -6   0   5   -7.60    8.60
  -6   0   5    9.70    8.40
  -6   0   5   -5.20    6.40
   5   0  -5    7.40    5.00
   5   0  -5    1.90    5.70
  -5   0   5   -1.20    6.40
  -5   0   5   -3.70    7.30
  -5   0   5    8.20    5.90
   4   0  -5  959.20   33.30
   4   0  -5  958.70   31.00
  -4   0   5  953.10   29.70
  -4   0   5  936.41   33.60
  -4   0   5  913.41   32.90
   3   0  -5 6979.70  180.98
  -3   0   5 7062.89  182.68
  -3   0   5 6938.91  182.58
  -3   0   5 6908.41  179.48
   2   0  -5 2456.25   65.69
   2   0  -5 2371.46   66.79
  -2   0   5 2461.55   64.69
  -2   0   5 2432.16   66.39
  -2   0   5 2328.67   67.39
   1   0  -5   27.60    4.40
   1   0  -5   35.70    4.80
  -1   0   5   34.60    5.30
  -1   0   5   38.40    7.50
  -1   0   5   27.40    4.40
   0   0  -5  208.08    8.30
   0   0  -5  206.68    8.30
   0   0  -5  200.58   10.00
   0   0   5  209.48   10.40
   0   0   5  213.58    7.30
   0   0   5  216.58    9.80
  -1   0  -5   11.20    3.80
  -1   0  -5   15.40    4.10
  -1   0  -5    8.40    2.80
  -2   0  -5  960.80   32.70
  -2   0  -5  992.40   31.80
  -2   0  -5 1040.90   30.90
  -2   0  -5 1062.79   31.80
  -3   0  -5  348.27   16.10
  -3   0  -5  352.66   14.90
  -3   0  -5  331.37   11.50
  -3   0  -5  354.56   15.30
   3   0   5  343.47   15.50
   3   0   5  346.97   11.90
  -4   0  -5  414.56   19.30
  -4   0  -5  398.36   18.30
  -4   0  -5  404.46   17.30
   4   0   5  393.96   18.00
   4   0   5  403.26   15.20
  -5   0  -5  184.78   14.50
  -5   0  -5  186.98   13.00
  -5   0  -5  184.38   14.90
   5   0   5  211.18   14.80
  -6   0  -5  738.93   32.00
  -6   0  -5  736.83   30.10
  -6   0  -5  766.52   30.90
   6   0   5  771.62   30.50
  -7   0  -5  741.93   31.00
  -7   0  -5  715.33   34.80
   7   0   5  717.93   31.60
  -8   0  -5   13.20   10.90
  -8   0  -5    7.90   11.70
   8   0   5   12.90    9.40
  -9   0  -5   26.40   13.60
  -9   0  -5   12.20   14.60
   9   0   5    5.00   13.10
 -10   0  -5  155.48   25.60
 -10   0  -5  195.78   28.00
  10   0   5  164.88   23.90
 -11   0  -5  200.28   32.80
 -10   1   5    7.90   22.90
   9  -1  -5  -28.10   13.10
  -9   1   5   32.30   15.20
   8  -1  -5   54.99   12.10
  -8   1   5   90.99   14.30
   7  -1  -5  265.07   24.50
   7  -1  -5  322.67   19.30
  -7   1   5  340.77   23.20
  -7   1   5  352.46   18.50
  -7   1   5  271.67   31.70
   6  -1  -5  275.07   22.00
   6  -1  -5  290.47   17.90
  -6   1   5  287.57   21.60
  -6   1   5  229.18   26.40
  -6   1   5  312.97   15.20
  -6   1   5  274.57   12.40
   5  -1  -5   13.50    6.50
   5  -1  -5   11.30    7.90
  -5   1   5   14.20    5.40
  -5   1   5   -5.50   10.00
  -5   1   5   13.50    9.80
   4  -1  -5  123.49   13.00
   4  -1  -5  144.79    9.90
  -4   1   5  141.09   10.00
  -4   1   5  147.09   14.80
  -4   1   5  120.09   15.60
  -4   1   5  155.58    7.20
   3  -1  -5   13.40    5.00
   3  -1  -5   23.50    4.60
  -3   1   5   14.20    4.20
  -3   1   5   13.40    6.00
  -3   1   5    9.60    5.90
   2  -1  -5 2314.97   62.39
  -2   1   5 2317.57   60.89
  -2   1   5 2325.57   66.89
  -2   1   5 2250.07   65.19
   1  -1  -5 2006.50   57.39
   1  -1  -5 1883.71   54.99
   1  -1  -5 2074.39   54.79
  -1   1   5 2127.09   53.89
  -1   1   5 2061.09   53.39
  -1   1   5 1991.10   56.19
  -1   1   5 2075.69   58.99
   0  -1  -5  730.03   21.50
   0  -1  -5  687.13   22.70
   0   1   5  722.03   20.60
   0   1   5  648.74   21.00
   0   1   5  746.53   21.00
   0   1   5  709.53   23.70
   0   1   5  701.63   21.30
  -1  -1  -5    8.00    2.80
  -1  -1  -5   10.30    3.70
  -1  -1  -5   11.80    2.20
  -1  -1  -5    4.50    3.10
   1   1   5    8.80    2.30
  -2  -1  -5  416.86   16.30
  -2  -1  -5  420.26   15.50
  -2  -1  -5  397.06   14.70
   2   1   5  402.16   12.70
   2   1   5  404.96   11.90
  -3  -1  -5  305.17   13.80
  -3  -1  -5  287.17   12.90
  -3  -1  -5  286.77   13.30
   3   1   5  303.47   10.80
   3   1   5  298.27   12.90
   3   1   5  302.37   10.90
  -4  -1  -5  308.77   15.20
  -4  -1  -5  294.97   14.90
  -4  -1  -5  288.97   13.90
   4   1   5  296.97   14.10
   4   1   5  300.27   12.40
  -5  -1  -5  120.79   10.60
  -5  -1  -5  104.49   11.40
  -5  -1  -5  120.49   10.70
   5   1   5  116.19   10.30
  -6  -1  -5  322.17   18.60
   6   1   5  336.97   18.70
  -7  -1  -5 1317.37   46.10
  -7  -1  -5 1357.36   45.80
  -7  -1  -5 1308.97   47.80
   7   1   5 1339.67   45.70
  -8  -1  -5 2089.79   70.59
  -8  -1  -5 2247.78   87.39
  -8  -1  -5 2124.29   67.89
   8   1   5 2108.99   67.59
  -9  -1  -5  139.19   20.70
  -9  -1  -5  153.98   18.70
   9   1   5  125.99   16.90
 -10  -1  -5   72.39   17.10
 -10  -1  -5   68.89   17.00
  10   1   5   86.39   17.60
 -11  -1  -5   14.10   30.40
   9  -2  -5   -9.30   12.70
  -9   2   5   45.60   18.50
   8  -2  -5   35.90   11.70
  -8   2   5   52.89   14.40
   7  -2  -5   -2.30    8.80
   7  -2  -5   -4.50   18.50
  -7   2   5    2.40    8.50
  -7   2   5    1.60   12.20
   6  -2  -5  638.74   34.10
   6  -2  -5  681.13   28.30
  -6   2   5  690.03   26.50
  -6   2   5  633.94   39.60
  -6   2   5  701.33   23.70
  -6   2   5  680.03   34.60
   5  -2  -5  591.94   29.70
  -5   2   5  579.34   30.90
  -5   2   5  546.45   31.20
  -5   2   5  594.64   21.50
  -5   2   5  588.54   21.20
   4  -2  -5  183.28   15.50
   4  -2  -5  190.78   12.00
  -4   2   5  171.38   11.30
  -4   2   5  183.88   16.90
  -4   2   5  194.18   10.10
  -4   2   5  179.98   18.10
   3  -2  -5  342.97   19.60
   3  -2  -5  328.27   13.90
  -3   2   5  293.17   17.40
  -3   2   5  357.26   19.40
  -3   2   5  348.87   13.40
  -3   2   5  321.77   12.30
   2  -2  -5 1046.70   36.40
   2  -2  -5 1088.89   31.00
  -2   2   5 1028.50   29.10
  -2   2   5 1062.99   35.40
  -2   2   5 1075.29   37.00
  -2   2   5 1013.80   31.40
   1  -2  -5   93.89    5.40
   1  -2  -5  104.89    4.90
  -1   2   5   98.59    4.30
  -1   2   5  106.79    6.70
  -1   2   5   97.79   10.40
   0  -2  -5  156.98   10.20
   0  -2  -5  175.18    7.00
   0   2   5  177.88    9.10
   0   2   5  160.98   10.80
   0   2   5  163.88    5.50
   0   2   5  161.88   10.30
   0   2   5  174.78    5.20
  -1  -2  -5   12.60    3.50
  -1  -2  -5    4.80    1.90
   1   2   5    9.00    3.40
   1   2   5    5.30    2.90
   1   2   5    5.60    2.70
   1   2   5    8.30    1.60
  -2  -2  -5  127.89    7.00
  -2  -2  -5  124.19    6.50
  -2  -2  -5  117.89    8.80
   2   2   5  123.39    6.40
   2   2   5  127.59    7.00
   2   2   5  124.49    7.70
  -3  -2  -5 4111.89  109.99
  -3  -2  -5 4202.78  111.59
   3   2   5 4152.28  108.39
   3   2   5 4047.70  107.89
   3   2   5 4271.87  107.89
  -4  -2  -5 5346.76  141.69
  -4  -2  -5 5214.28  139.79
   4   2   5 5450.96  137.89
   4   2   5 5192.38  138.39
   4   2   5 5339.37  138.29
  -5  -2  -5 2099.89   62.69
  -5  -2  -5 2074.89   60.99
   5   2   5 2094.89   59.79
   5   2   5 2150.78   59.89
  -6  -2  -5   -6.20    5.00
  -6  -2  -5   -3.40    5.40
  -6  -2  -5    0.50    7.20
   6   2   5    5.80    5.50
  -7  -2  -5    9.00    7.40
  -7  -2  -5   11.00    7.20
  -7  -2  -5   11.20    7.90
   7   2   5    2.70    6.80
  -8  -2  -5  106.79   15.60
  -8  -2  -5  110.69   15.10
  -8  -2  -5  113.29   14.10
   8   2   5   88.79   13.00
  -9  -2  -5  150.98   16.90
   9   2   5  199.18   18.90
 -10  -2  -5   44.20   13.50
  10   2   5   28.70   12.40
 -11  -2  -5   43.40   16.70
  11   2   5   72.89   19.20
   9  -3  -5   27.80   19.70
   8  -3  -5   -8.70   11.90
  -8   3   5   12.20   13.50
   7  -3  -5  254.37   19.90
  -7   3   5  260.07   23.00
  -7   3   5  316.97   28.30
   6  -3  -5  777.62   38.70
   6  -3  -5  749.13   30.60
  -6   3   5  765.32   30.60
  -6   3   5  833.12   30.90
  -6   3   5  764.42   40.00
   5  -3  -5   61.39    9.50
   5  -3  -5   85.69   14.90
  -5   3   5   53.69    8.50
  -5   3   5   54.69   15.10
  -5   3   5   63.69   10.60
  -5   3   5   58.09   15.20
   4  -3  -5   79.59    9.60
   4  -3  -5  100.59   14.00
  -4   3   5   90.19   15.90
  -4   3   5   89.49    9.40
  -4   3   5   78.19   14.80
  -4   3   5   82.49   11.40
   3  -3  -5   48.70    6.60
   3  -3  -5   35.00    7.70
  -3   3   5   47.10    7.80
  -3   3   5   39.30    6.70
  -3   3   5   61.39   12.10
  -3   3   5   31.30    7.50
   2  -3  -5    0.90    5.00
   2  -3  -5   -0.40    3.10
  -2   3   5    3.00    2.80
  -2   3   5    0.20    5.50
  -2   3   5    1.40    4.60
  -2   3   5   -6.50    5.70
   1  -3  -5  548.45   14.70
   1  -3  -5  506.15   23.30
   1  -3  -5  555.64   16.80
  -1   3   5  544.45   23.50
  -1   3   5  567.04   20.00
  -1   3   5  544.75   23.60
   0   3   5 1930.11   58.89
   0   3   5 1948.91   58.89
   0   3   5 2036.30   55.49
  -1  -3  -5  489.25   13.80
  -1  -3  -5  508.85   21.00
   1   3   5  492.65   18.00
   1   3   5  495.25   20.10
   1   3   5  503.05   20.00
   1   3   5  515.25   13.30
  -2  -3  -5    4.60    2.50
  -2  -3  -5    4.20    2.00
   2   3   5    1.90    3.90
   2   3   5   -2.30    3.20
   2   3   5   -0.10    3.00
  -3  -3  -5    1.70    4.50
  -3  -3  -5    6.90    2.90
  -3  -3  -5   -2.80    2.10
   3   3   5    4.70    3.00
   3   3   5    4.70    3.20
   3   3   5    2.40    2.50
  -4  -3  -5  169.38    9.60
   4   3   5  188.88    9.10
   4   3   5  185.28    9.20
   4   3   5  184.78   10.30
   4   3   5  186.58   10.00
  -5  -3  -5 1803.82   52.79
  -5  -3  -5 1790.82   54.79
   5   3   5 1829.72   51.39
   5   3   5 1849.21   53.59
   5   3   5 1802.52   52.79
   5   3   5 1766.92   55.39
  -6  -3  -5  771.42   28.30
  -6  -3  -5  816.52   30.60
   6   3   5  790.22   29.40
   6   3   5  769.22   27.10
   6   3   5  809.42   28.70
  -7  -3  -5   40.40    9.20
  -7  -3  -5   40.70    7.10
   7   3   5   31.50    6.20
  -8  -3  -5  295.37   20.30
  -8  -3  -5  308.97   20.00
   8   3   5  277.07   16.20
   8   3   5  303.27   17.90
  -9  -3  -5   70.89   13.70
   9   3   5   73.99    9.90
 -10  -3  -5   33.10   10.70
  10   3   5   18.10    8.90
  10   3   5   37.90   11.50
 -11  -3  -5   22.60   14.40
  11   3   5   24.10   13.50
  12   3   5    3.10   13.50
   8  -4  -5  -16.00   12.40
  -8   4   5   14.50   19.60
   7  -4  -5  -11.50   10.00
  -7   4   5  -14.50   13.70
  -7   4   5   -6.90   15.00
  -7   4   5    6.90   12.80
   6  -4  -5   27.70    8.30
  -6   4   5   11.20   16.00
  -6   4   5   -9.80   10.50
  -6   4   5    9.60   15.40
   5  -4  -5  217.28   20.90
   5  -4  -5  228.28   15.80
  -5   4   5  219.38   17.10
  -5   4   5  221.98   24.60
  -5   4   5  204.18   31.60
  -5   4   5  217.78   20.70
   4  -4  -5  343.37   16.80
   4  -4  -5  363.76   23.90
  -4   4   5  350.26   28.00
  -4   4   5  345.17   17.30
  -4   4   5  363.86   20.70
  -4   4   5  405.56   27.00
   3  -4  -5  165.18   10.50
   3  -4  -5  176.38   17.30
  -3   4   5  153.38   10.80
  -3   4   5  174.08   15.60
  -3   4   5  187.88   13.70
  -3   4   5  158.78   17.60
   2  -4  -5   14.50    6.60
   2  -4  -5    5.00    3.60
  -2   4   5    5.00    6.50
  -2   4   5    5.70    6.90
  -2   4   5    4.20    6.60
   1  -4  -5   26.00    4.20
   1  -4  -5   27.20    6.70
   1  -4  -5   28.40    2.60
   1  -4  -5   36.40    3.10
  -1   4   5   35.00    7.80
  -1   4   5   22.10    7.80
  -1   4   5   33.60    8.40
   0  -4  -5  165.98   14.30
   0   4   5  154.38   14.90
   0   4   5  168.18   14.80
   0   4   5  167.08   10.40
   1   4   5 3286.77   89.29
   1   4   5 3301.97   92.09
   1   4   5 3231.58   93.09
  -2  -4  -5 4663.83  117.79
   2   4   5 4727.93  124.79
   2   4   5 4693.73  122.49
   2   4   5 4564.34  117.79
   2   4   5 4362.06  124.69
  -3  -4  -5    2.00    2.60
  -3  -4  -5   11.10    4.50
   3   4   5   -1.70    3.80
   3   4   5    1.90    2.40
   3   4   5    1.20    7.40
   3   4   5    0.40    3.60
  -4  -4  -5  444.46   19.60
  -4  -4  -5  471.35   18.60
  -4  -4  -5  478.45   17.10
   4   4   5  470.35   15.30
   4   4   5  466.45   18.50
   4   4   5  449.46   24.50
  -5  -4  -5  280.87   16.20
  -5  -4  -5  275.87   13.20
   5   4   5  254.37   18.90
   5   4   5  260.27   14.00
   5   4   5  207.48   18.80
   5   4   5  272.87   11.70
  -6  -4  -5   90.99    8.50
  -6  -4  -5  113.99   13.00
   6   4   5   94.09   12.00
   6   4   5  102.39    9.20
   6   4   5  115.39    9.90
  -7  -4  -5   44.40    9.90
  -7  -4  -5   41.20    6.80
   7   4   5   48.90    8.10
   7   4   5   51.89    8.30
   7   4   5   34.20    9.30
  -8  -4  -5   -2.90    7.80
  -8  -4  -5   -5.60    6.00
   8   4   5   -2.50    6.30
   8   4   5    4.80    7.50
   8   4   5  -13.50    9.70
  -9  -4  -5  202.48   19.70
   9   4   5  195.48   16.10
   9   4   5  221.38   15.80
 -10  -4  -5  909.31   39.70
  10   4   5  878.81   36.40
  10   4   5  905.61   36.00
 -11  -4  -5  735.73   39.80
  11   4   5  784.62   36.20
  11   4   5  741.63   33.20
 -12  -4  -5  145.79   25.10
  12   4   5  215.98   22.10
   8  -5  -5  186.98   24.90
   7  -5  -5   12.80   11.40
  -7   5   5    3.50   20.50
   6  -5  -5   -9.00    8.40
  -6   5   5   -6.10   17.20
  -6   5   5    5.50   11.30
  -6   5   5  -19.20   16.30
   5  -5  -5   44.20    9.30
  -5   5   5   57.59   10.00
  -5   5   5   26.80   16.40
  -5   5   5   40.20   17.20
   4  -5  -5  245.98   14.80
   4  -5  -5  289.57   21.00
  -4   5   5  251.17   27.50
  -4   5   5  239.98   19.90
  -4   5   5  257.57   15.40
  -4   5   5  261.67   28.70
   3  -5  -5  999.00   32.40
   3  -5  -5 1017.40   42.00
  -3   5   5 1015.50   44.20
  -3   5   5 1023.20   43.60
  -3   5   5 1025.50   35.10
  -3   5   5 1007.40   38.00
   2  -5  -5  750.02   33.30
   2  -5  -5  784.82   24.60
  -2   5   5  760.92   31.20
  -2   5   5  772.72   35.80
  -2   5   5  725.53   33.20
   1  -5  -5   27.80    4.40
   1  -5  -5   26.00    7.40
   1  -5  -5   19.60    3.60
   1  -5  -5   28.90    5.00
  -1   5   5   35.00    9.40
  -1   5   5    7.20    7.70
  -1   5   5   22.70    8.90
   0  -5  -5  754.92   20.80
   0  -5  -5  788.32   21.80
   0  -5  -5  784.02   33.40
   0  -5  -5  788.12   20.90
   0   5   5  768.52   31.80
   0   5   5  756.42   33.20
   0   5   5  813.72   29.00
  -1  -5  -5 1248.78   45.50
  -1  -5  -5 1337.37   33.40
  -1  -5  -5 1210.18   33.90
   1   5   5 1319.27   40.80
   1   5   5 1198.08   43.70
   1   5   5 1278.47   43.50
  -2  -5  -5   93.69    5.50
  -2  -5  -5   94.29   10.90
   2   5   5   90.99    9.70
   2   5   5   89.09   11.40
   2   5   5   84.59   11.50
  -3  -5  -5  294.87   15.30
  -3  -5  -5  298.37   11.80
   3   5   5  279.07   15.60
   3   5   5  275.87   17.10
   3   5   5  284.57   15.20
  -4  -5  -5  112.79   10.90
  -4  -5  -5  124.69    8.80
   4   5   5  115.79   10.60
   4   5   5  106.99    6.40
   4   5   5  106.29    9.30
   4   5   5  110.09   11.20
  -5  -5  -5   19.70    7.60
  -5  -5  -5   25.50    5.20
   5   5   5   19.70    6.30
   5   5   5   22.80    4.20
   5   5   5   18.70    5.60
  -6  -5  -5  383.96   17.80
  -6  -5  -5  380.06   20.30
   6   5   5  381.86   19.10
   6   5   5  362.96   15.60
  -7  -5  -5 1057.69   36.80
   7   5   5 1054.99   34.90
   7   5   5 1051.29   37.50
   7   5   5 1068.79   39.30
  -8  -5  -5  330.47   19.80
  -8  -5  -5  365.76   23.10
   8   5   5  327.77   23.60
   8   5   5  322.47   18.60
   8   5   5  352.76   19.10
  -9  -5  -5   24.60   11.50
   9   5   5   33.30   10.60
   9   5   5   20.90    8.20
 -10  -5  -5   -6.70    9.90
  10   5   5   -7.30   10.00
  10   5   5    2.90    8.90
 -11  -5  -5  118.49   23.40
  11   5   5  173.08   18.30
  11   5   5  136.89   21.50
 -12  -5  -5  207.08   30.50
  12   5   5  244.58   23.10
   7  -6  -5   28.30   13.40
   6  -6  -5   21.60   10.20
  -6   6   5   37.20   20.40
  -6   6   5   24.50   22.20
   5  -6  -5   21.90    8.70
  -5   6   5  -12.30   17.00
  -5   6   5   10.10   17.80
   4  -6  -5   31.20    8.20
  -4   6   5   38.50   16.70
  -4   6   5   33.00   13.50
   3  -6  -5  805.62   38.80
   3  -6  -5  776.62   27.70
  -3   6   5  790.12   39.50
  -3   6   5  822.62   43.90
  -3   6   5  798.52   34.50
   2  -6  -5   22.30    5.40
   2  -6  -5   27.20    5.30
  -2   6   5   23.10   11.00
  -2   6   5   24.00   13.90
  -2   6   5   23.50   10.90
   1  -6  -5  550.44   18.20
   1  -6  -5  547.25   17.40
   1  -6  -5  518.05   27.90
  -1   6   5  517.85   27.30
  -1   6   5  543.35   33.20
  -1   6   5  542.55   26.00
   0  -6  -5   40.30    4.30
   0  -6  -5   42.90    4.80
   0  -6  -5   44.10   11.10
   0   6   5   34.20   10.10
   0   6   5   39.20    9.50
  -1  -6  -5   54.29   10.20
  -1  -6  -5   49.20    4.60
   1   6   5   48.20    9.00
   1   6   5   57.19   12.20
  -2  -6  -5  411.46   22.30
  -2  -6  -5  440.76   14.10
   2   6   5  425.36   19.90
   2   6   5  426.96   22.60
   2   6   5  427.56   22.80
  -3  -6  -5 1017.10   30.40
  -3  -6  -5 1068.99   37.70
   3   6   5  995.90   35.60
   3   6   5  999.10   36.40
   3   6   5  972.70   37.60
   3   6   5 1069.39   28.70
  -4  -6  -5   28.30    7.40
  -4  -6  -5   23.70    5.00
   4   6   5    7.80    6.20
   4   6   5   23.10    7.60
   4   6   5   22.70    3.80
   4   6   5   16.80    8.20
  -5  -6  -5   54.69    9.20
  -5  -6  -5   33.50    6.90
   5   6   5   48.90    9.40
   5   6   5   59.09    6.60
   5   6   5   55.19   12.80
   5   6   5   52.09    8.80
  -6  -6  -5    7.60    5.90
   6   6   5   23.90    6.50
   6   6   5    9.30    4.90
   6   6   5    9.40    7.50
  -7  -6  -5  308.87   20.90
  -7  -6  -5  298.47   17.10
   7   6   5  298.17   15.50
   7   6   5  282.87   17.80
   7   6   5  310.07   19.90
  -8  -6  -5 2072.49   64.19
  -8  -6  -5 1993.80   64.89
   8   6   5 2127.09   61.39
   8   6   5 2085.49   64.89
   8   6   5 1947.21   66.19
  -9  -6  -5 1286.87   48.70
   9   6   5 1368.16   45.30
   9   6   5 1334.37   47.50
 -10  -6  -5    8.50   12.30
  10   6   5   10.80    8.50
  10   6   5    7.50   11.00
 -11  -6  -5   82.49   18.30
  11   6   5   99.99   17.90
  11   6   5   65.99   14.80
 -12  -6  -5   -3.00   19.40
  12   6   5   12.90   26.50
  12   6   5   25.00   14.50
   7  -7  -5  175.88   24.40
   6  -7  -5   69.89   13.70
  -6   7   5   54.39   24.90
   5  -7  -5   14.80    9.60
  -5   7   5   -9.90   19.20
  -5   7   5   24.40   24.40
   4  -7  -5   17.70    8.50
  -4   7   5   31.30   15.20
  -4   7   5   10.60   18.10
   3  -7  -5  139.09   12.70
   3  -7  -5  113.39   12.50
  -3   7   5  157.38   23.70
  -3   7   5  125.79   16.00
   2  -7  -5 1532.55   59.49
   2  -7  -5 1527.75   44.70
   2  -7  -5 1463.25   43.90
  -2   7   5 1426.36   63.39
  -2   7   5 1467.65   57.59
  -2   7   5 1556.54   54.79
   1  -7  -5 1228.08   35.80
   1  -7  -5 1192.28   35.10
   1  -7  -5 1214.48   49.10
  -1   7   5 1201.68   47.30
  -1   7   5 1221.38   46.30
  -1   7   5 1208.18   54.39
   0  -7  -5   36.80    5.60
   0  -7  -5   14.80   11.10
   0  -7  -5   25.90    4.30
   0   7   5   30.50   13.40
   0   7   5   19.90    9.00
   0   7   5   28.70   10.70
  -1  -7  -5   -6.40    8.00
  -1  -7  -5    8.00    3.20
  -1  -7  -5    9.60    3.70
   1   7   5   23.30    9.40
   1   7   5   18.30   10.50
   1   7   5   -3.90    8.10
  -2  -7  -5   21.90    7.90
  -2  -7  -5   26.70    4.00
   2   7   5   27.60    8.80
   2   7   5   22.50   11.50
  -3  -7  -5    4.70    3.30
  -3  -7  -5    3.60    6.90
   3   7   5   -4.50    7.30
   3   7   5    5.80   10.00
   3   7   5   -0.90    8.30
   3   7   5   11.90    3.60
  -4  -7  -5  701.23   30.70
  -4  -7  -5  659.73   23.00
   4   7   5  623.24   27.90
   4   7   5  702.53   21.40
   4   7   5  688.53   31.90
   4   7   5  654.73   29.20
  -5  -7  -5 1450.55   49.40
  -5  -7  -5 1441.16   43.60
   5   7   5 1432.16   40.70
   5   7   5 1393.16   49.90
   5   7   5 1447.26   47.90
   5   7   5 1404.86   47.70
  -6  -7  -5   19.70    6.70
   6   7   5   30.30    5.90
   6   7   5   31.90   10.60
   6   7   5   36.10    8.80
  -7  -7  -5  226.38   16.70
   7   7   5  195.28   19.30
   7   7   5  223.88   18.00
   7   7   5  208.78   13.00
  -8  -7  -5  138.39   17.20
   8   7   5  175.08   17.90
   8   7   5  134.29   17.90
   8   7   5  137.69   12.90
  -9  -7  -5   24.10   12.20
   9   7   5   32.60   12.50
   9   7   5    9.60    8.50
 -10  -7  -5   16.10   13.90
  10   7   5   33.10   10.80
  10   7   5   44.10   13.40
 -11  -7  -5   59.89   17.30
  11   7   5   81.99   16.70
  11   7   5   54.09   12.90
 -12  -7  -5   71.69   20.70
  12   7   5   92.19   22.20
  12   7   5   71.29   19.30
   6  -8  -5  252.17   23.80
  -6   8   5  264.37   39.60
   5  -8  -5  312.67   22.10
  -5   8   5  341.37   43.90
   4  -8  -5   47.80   10.30
  -4   8   5   50.39   23.20
  -4   8   5   82.29   19.50
   3  -8  -5    8.20    7.80
   3  -8  -5   -1.00   11.70
  -3   8   5   47.90   20.90
  -3   8   5   23.70   13.20
   2  -8  -5    8.20    6.20
   2  -8  -5   13.60    6.80
  -2   8   5   19.90   13.80
  -2   8   5   27.50   12.70
   1  -8  -5   19.40    6.00
   1  -8  -5   11.80   14.60
   1  -8  -5   20.90    5.00
  -1   8   5    3.00   10.70
  -1   8   5   25.20   13.30
   0  -8  -5  191.48   24.50
   0  -8  -5  162.28    9.70
   0  -8  -5  170.48   11.30
   0   8   5  175.98   19.70
   0   8   5  164.98   17.60
   0   8   5  168.28   24.70
  -1  -8  -5  104.39   14.90
  -1  -8  -5  114.89    7.70
  -1  -8  -5  104.59   19.90
   1   8   5  101.99   15.20
   1   8   5  103.09   18.10
   1   8   5  103.99   18.60
  -2  -8  -5   -5.90    7.80
  -2  -8  -5    5.00    4.40
   2   8   5   17.70    9.90
   2   8   5   -6.60   10.10
   2   8   5    2.70    7.90
  -3  -8  -5  125.09    8.60
  -3  -8  -5  106.59   13.60
   3   8   5  121.09   14.40
   3   8   5  157.98    8.50
   3   8   5  149.39   17.70
   3   8   5  136.59   17.40
  -4  -8  -5  370.86   23.60
  -4  -8  -5  321.87   14.60
   4   8   5  346.07   23.90
   4   8   5  326.57   14.50
   4   8   5  319.57   24.90
   4   8   5  299.27   20.40
  -5  -8  -5   11.80   10.10
  -5  -8  -5    5.30    5.40
   5   8   5   13.90    9.50
   5   8   5    3.10    8.90
   5   8   5   17.90    5.60
   5   8   5   15.10   10.70
  -6  -8  -5  928.61   37.30
  -6  -8  -5  901.21   31.80
   6   8   5  871.21   28.90
   6   8   5  885.01   39.20
   6   8   5  859.51   34.70
   6   8   5  886.61   37.10
  -7  -8  -5   26.90    8.10
   7   8   5   29.80   11.30
   7   8   5   24.50    7.90
   7   8   5   21.70   10.70
   7   8   5   29.60    9.20
  -8  -8  -5  208.98   20.90
   8   8   5  213.68   15.90
   8   8   5  204.38   20.30
   8   8   5  232.18   22.60
   8   8   5  193.68   16.00
   9   8   5  243.08   22.90
   9   8   5  217.88   17.10
  10   8   5  211.18   22.80
  10   8   5  202.18   18.20
  11   8   5   21.20   13.00
  11   8   5   38.10   17.80
 -12  -8  -5   12.60   18.50
  12   8   5    4.90   20.50
  12   8   5  -20.40   18.30
  -5   9   5  -18.00   34.70
   4  -9  -5  175.98   18.20
  -4   9   5  166.88   27.30
   3  -9  -5  208.88   17.60
  -3   9   5  261.67   36.40
  -3   9   5  229.78   26.50
   2  -9  -5    4.30    9.70
  -2   9   5   13.00   17.10
  -2   9   5   -2.90   12.90
   1  -9  -5   58.99    8.60
   1  -9  -5   87.49   10.10
  -1   9   5   71.49   17.50
  -1   9   5   72.19   14.80
   0  -9  -5  432.46   16.90
   0  -9  -5  422.76   17.00
   0   9   5  410.96   28.10
   0   9   5  367.96   27.00
  -1  -9  -5   71.39   13.70
  -1  -9  -5   75.59    8.70
  -1  -9  -5   90.19   10.20
   1   9   5   69.89   13.80
   1   9   5   84.89   16.70
  -2  -9  -5  499.15   31.10
  -2  -9  -5  565.04   18.70
  -2  -9  -5  553.94   21.00
   2   9   5  558.74   29.00
   2   9   5  539.95   30.20
   2   9   5  559.54   33.50
  -3  -9  -5    8.70   10.50
  -3  -9  -5   25.10    5.50
   3   9   5   21.30   12.20
   3   9   5   21.50    5.80
   3   9   5   16.50   10.00
   3   9   5   16.50   13.50
  -4  -9  -5  404.46   17.20
  -4  -9  -5  373.76   26.90
   4   9   5  397.86   27.10
   4   9   5  378.76   31.70
   4   9   5  401.06   22.50
   4   9   5  403.86   16.60
  -5  -9  -5  695.43   25.70
  -5  -9  -5  723.73   36.20
   5   9   5  695.93   24.90
   5   9   5  687.73   34.10
   5   9   5  681.63   39.10
   5   9   5  652.13   30.40
  -6  -9  -5  820.02   30.40
  -6  -9  -5  842.42   38.70
   6   9   5  832.12   36.00
   6   9   5  850.81   28.60
   6   9   5  817.92   41.50
   6   9   5  783.32   35.10
  -7  -9  -5  103.99   15.10
   7   9   5   77.69   16.60
   7   9   5   88.79   12.30
   7   9   5   79.79   14.90
   7   9   5   83.69   14.00
   8   9   5   22.30   11.50
   8   9   5    0.80    8.90
   8   9   5    8.90    8.60
   9   9   5    2.70    9.70
   9   9   5    6.70    9.20
   9   9   5   19.60   15.10
  10   9   5   49.20   12.40
  10   9   5   57.59   11.20
  10   9   5   58.69   16.00
  11   9   5  108.99   20.10
  11   9   5  170.38   21.20
  -3  10   5  -13.10   19.20
  -2  10   5   18.00   23.00
  -2  10   5  -27.60   14.90
  -1  10   5   -1.40   17.00
  -1  10   5    8.20   15.00
   0 -10  -5  133.59   18.30
   0 -10  -5   95.59   13.30
   0  10   5  108.09   19.60
   0  10   5   79.29   17.70
  -1 -10  -5  542.05   20.70
  -1 -10  -5  546.25   22.00
   1  10   5  507.15   29.40
   1  10   5  604.14   36.30
  -2 -10  -5  764.42   24.70
  -2 -10  -5  733.73   26.80
   2  10   5  780.72   39.60
   2  10   5  697.63   35.20
  -3 -10  -5   -6.80   13.00
  -3 -10  -5    6.00    5.90
   3  10   5   36.40   12.10
   3  10   5    8.60   11.30
  -4 -10  -5    9.40    5.70
   4  10   5   13.40   12.10
   4  10   5   16.30   10.50
  -5 -10  -5  -17.00   13.40
  -5 -10  -5   -0.80    6.00
   5  10   5  -25.90   19.10
   5  10   5   12.80    8.30
   5  10   5   10.40   12.80
  -6 -10  -5  -11.70    7.10
  -6 -10  -5    1.70   13.30
   6  10   5   -4.20    9.70
   6  10   5  -20.00   24.60
   6  10   5    2.40   12.40
   6  10   5    8.30    9.10
  -7 -10  -5  103.19   14.90
   7  10   5   72.19   11.70
   7  10   5   74.09   14.70
   8  10   5  136.69   15.90
   8  10   5  107.69   17.70
   8  10   5  159.48   18.20
   9  10   5   24.10   14.90
   9  10   5   -8.10   10.90
   9  10   5   12.30   10.20
  10  10   5   90.99   14.50
  10  10   5   77.89   14.10
  10  10   5   49.90   16.60
  11  10   5  -21.80   13.80
  11  10   5   31.10   18.70
  11  10   5   11.00   14.20
  -1  11   5   36.30   26.60
  -1  11   5   22.40   18.70
   0  11   5  -17.20   17.00
   0  11   5   -5.40   16.60
   1  11   5   11.50   16.00
   1  11   5   11.40   19.20
  -2 -11  -5   62.49    9.90
   2  11   5   79.59   19.40
   2  11   5   67.39   14.60
  -3 -11  -5  393.16   19.50
   3  11   5  479.85   33.80
   3  11   5  372.96   24.80
  -4 -11  -5  164.38   13.00
   4  11   5  181.08   21.70
   4  11   5  114.39   19.60
  -5 -11  -5   17.70    7.10
   5  11   5   15.90   12.60
   5  11   5  -10.10   10.60
  -6 -11  -5   41.30    9.80
   6  11   5   17.00   10.90
   6  11   5   56.49   12.80
   6  11   5   42.50   15.70
   7  11   5   67.49   13.20
   7  11   5   95.89   14.60
   8  11   5  -15.70   11.40
   8  11   5    5.60   14.80
   8  11   5  -18.70   10.50
   9  11   5  297.27   25.80
   9  11   5  283.77   26.60
   9  11   5  306.57   22.60
  10  11   5   38.50   17.50
  10  11   5   66.99   14.00
  10  11   5   62.29   15.60
  11  11   5  201.48   26.20
   1  12   5    3.90   25.70
   1  12   5   -1.60   19.70
   2  12   5    9.50   14.20
   2  12   5   13.40   20.50
   3  12   5  103.29   20.20
  -4 -12  -5   77.49    9.90
   4  12   5   64.39   15.00
  -5 -12  -5   47.80    9.10
   5  12   5   36.80   18.30
   5  12   5   32.10   13.20
   6  12   5   32.00   16.50
   6  12   5    1.50   13.20
   7  12   5  138.79   24.90
   7  12   5   81.69   16.70
   8  12   5  211.18   26.40
   8  12   5  202.08   25.80
   9  12   5  199.48   28.60
   2  13   5    9.20   25.70
   3  13   5   30.60   18.30
   4  13   5  238.28   24.00
   5  13   5  213.28   24.50
   6  13   5  -20.20   14.40
   7  13   5   38.70   16.00
   8  13   5   44.10   17.20
   5  14   5   87.89   19.90
   6  14   5  208.98   27.10
   7  14   5   82.99   21.10
   5  12  -6   -5.40   18.20
   6  11  -6  117.79   18.40
   5  11  -6  119.09   20.90
   4  11  -6   55.79   14.30
   3  11  -6    2.50   14.70
   2  11  -6   82.19   18.00
  -2  11  -6  -59.99   33.50
   6  10  -6  101.09   23.10
   6  10  -6  139.09   17.80
   5  10  -6  290.07   21.20
   5  10  -6  297.67   33.40
   4  10  -6  209.28   20.10
   4  10  -6  252.97   30.10
   3  10  -6   -1.70   11.50
   3  10  -6   -5.30   16.20
   2  10  -6   57.49   16.90
   1  10  -6  167.18   23.90
   1  10  -6  179.98   24.90
   0  10  -6   53.09   18.20
   0  10  -6   76.49   19.90
  -1  10  -6   85.79   36.60
  -1  10  -6   82.59   19.00
  -2  10  -6  -13.00   18.70
  -3  10  -6  -14.40   22.40
   7   9  -6   -8.00   15.60
   6   9  -6   -4.60   14.20
   6   9  -6   30.60    9.90
   5   9  -6   70.09   10.70
   5   9  -6   75.59   18.50
   4   9  -6  375.06   28.70
   4   9  -6  394.46   22.30
   3   9  -6  154.78   22.10
   3   9  -6  164.38   17.60
   2   9  -6  -15.70   11.80
   2   9  -6    1.10   10.10
   1   9  -6    5.20   14.10
   1   9  -6    0.40   11.60
   1   9  -6    0.60   13.00
   0   9  -6  166.08   22.00
   0   9  -6  212.28   24.80
   0   9  -6  209.28   25.50
  -1   9  -6  104.49   19.10
  -1   9  -6  128.49   22.40
  -1   9  -6  104.09   17.70
  -2   9  -6  145.89   25.70
  -2   9  -6  168.48   29.80
  -3   9  -6   69.09   19.70
  -4   9  -6   -4.60   25.90
   8   8  -6  431.56   31.70
   7   8  -6  529.55   31.00
   6   8  -6   32.90    8.50
   6   8  -6   19.70   13.00
   5   8  -6   33.40   14.20
   4   8  -6  160.58   13.90
   4   8  -6  197.58   19.70
   3   8  -6  364.86   21.40
   3   8  -6  383.56   25.00
   2   8  -6  359.16   20.80
   2   8  -6  372.16   24.70
   1   8  -6   47.10    8.90
   1   8  -6   45.30   11.90
   1   8  -6   41.10   11.90
   0   8  -6    0.40   10.40
   0   8  -6   -4.70   10.60
   0   8  -6   17.20   10.40
  -1   8  -6   73.59   15.80
  -1   8  -6   82.69   14.70
  -1   8  -6   77.89   15.40
  -2   8  -6  412.86   32.90
  -2   8  -6  333.57   26.00
  -3   8  -6   88.29   18.60
  -3   8  -6   96.69   21.00
   3  -8   6  126.69   20.00
  -4   8  -6   -3.90   17.70
  -4   8  -6    0.30   24.10
   4  -8   6    2.30   16.30
  -5   8  -6   21.20   38.20
   8   7  -6    0.30   12.20
   7   7  -6   76.49   13.70
   6   7  -6  143.39   17.50
   6   7  -6  201.78   12.30
   5   7  -6  112.29   10.80
   5   7  -6   76.39   14.80
   4   7  -6   10.20    6.20
   4   7  -6   -0.90    9.70
   4   7  -6   -4.10    6.80
   3   7  -6   -0.20    6.80
   3   7  -6    9.50    6.30
   3   7  -6   17.70   11.20
  -3  -7   6  -11.10   20.20
   2   7  -6   48.20    5.90
   2   7  -6   31.40    8.90
   2   7  -6   81.49   14.90
  -2  -7   6   26.90   13.10
   1   7  -6   42.70   11.10
   1   7  -6   34.50   10.60
   1   7  -6   50.59    9.40
  -1  -7   6   33.80   13.70
   0   7  -6    0.10    7.90
   0   7  -6    3.90    8.10
   0   7  -6  -13.90    8.60
  -1   7  -6   28.10   11.90
  -1   7  -6   25.10   11.40
  -1   7  -6   -0.60   18.90
  -2   7  -6  460.35   27.20
  -2   7  -6  503.45   31.40
  -2   7  -6  438.66   28.40
  -3   7  -6  250.07   25.20
  -3   7  -6  244.08   23.80
  -4   7  -6   65.59   17.40
  -4   7  -6   88.69   19.30
   4  -7   6   73.29   17.60
  -5   7  -6  -15.70   19.20
  -5   7  -6   29.30   19.10
   5  -7   6  -18.40   17.50
   9   6  -6   44.90   18.20
   8   6  -6    1.00   12.10
   7   6  -6   54.59   12.40
   6   6  -6  120.99   12.10
   6   6  -6  102.79   14.70
   5   6  -6  169.78   17.80
   5   6  -6  178.58   10.70
   5   6  -6  166.08   15.00
  -5  -6   6  183.48   21.50
   4   6  -6   80.59    8.50
   4   6  -6   79.99   11.20
   4   6  -6   64.79   11.80
  -4  -6   6   87.99   14.90
   3   6  -6   88.09   14.10
   3   6  -6   67.29    9.20
   3   6  -6   89.39    9.20
  -3  -6   6   75.89   12.20
   2   6  -6  694.83   31.60
   2   6  -6  689.73   22.50
   2   6  -6  697.13   25.90
   2   6  -6  733.03   27.60
  -2  -6   6  709.93   31.70
   1   6  -6 1561.44   53.89
   1   6  -6 1440.46   53.79
   1   6  -6 1604.54   44.90
  -1  -6   6 1583.44   55.89
   0   6  -6 1306.07   46.10
   0   6  -6 1303.57   41.70
   0   6  -6 1308.87   48.50
   0  -6   6 1354.76   49.99
  -1   6  -6  255.17   21.50
  -1   6  -6  273.27   20.00
  -1   6  -6  265.37   18.80
   1  -6   6  312.97   23.10
  -2   6  -6    8.80   10.00
  -2   6  -6   24.00   12.10
  -2   6  -6   12.70   11.20
   2  -6   6   17.70   14.80
  -3   6  -6  246.68   22.70
  -3   6  -6  227.68   21.70
  -4   6  -6  263.37   25.90
  -4   6  -6  217.18   25.20
   4  -6   6  193.28   19.70
  -5   6  -6  158.88   26.90
  -5   6  -6   91.69   18.00
   5  -6   6   91.79   18.60
  -6   6  -6  111.39   24.80
  -6   6  -6   53.89   18.70
   6  -6   6   73.49   19.40
   9   5  -6   17.60   14.50
   8   5  -6   24.80   12.40
   7   5  -6   16.50   10.40
   6   5  -6   81.39   12.60
   6   5  -6   66.89   12.90
  -6  -5   6   74.09   12.70
   5   5  -6  131.59    8.40
   5   5  -6  137.69   14.00
   5   5  -6  141.89   15.20
  -5  -5   6  159.28   17.40
   4   5  -6 1785.22   57.49
   4   5  -6 1796.22   50.79
   4   5  -6 1771.62   55.19
  -4  -5   6 1845.32   59.39
   3   5  -6  190.58   11.90
   3   5  -6  188.18   16.70
   3   5  -6  186.58   11.10
  -3  -5   6  186.68   16.90
   2   5  -6   -3.50    8.60
   2   5  -6   -0.40    5.00
  -2  -5   6   -6.60    6.90
   1   5  -6   88.29    6.30
   1   5  -6   85.19   13.30
   1   5  -6  100.59   10.60
  -1  -5   6   69.89   11.60
   0   5  -6  209.58   16.90
   0   5  -6  197.08   12.70
   0   5  -6  215.88   16.50
   0  -5   6  226.68   19.90
  -1   5  -6  377.46   19.20
  -1   5  -6  384.66   22.30
   1  -5   6  426.96   24.00
  -2   5  -6   57.09   12.50
  -2   5  -6   89.19   14.70
  -2   5  -6   92.69   15.00
   2  -5   6   83.59   13.70
  -3   5  -6  132.39   18.70
  -3   5  -6  158.48   19.40
   3  -5   6  140.69   16.40
  -4   5  -6   25.40   13.20
  -4   5  -6   12.80   10.20
   4  -5   6   -3.50    9.00
  -5   5  -6   18.70   12.90
  -5   5  -6   -4.60   12.00
   5  -5   6    1.10   10.70
  -6   5  -6   30.70   16.10
  -6   5  -6   35.40   14.30
   6  -5   6   24.90   15.40
  -7   5  -6    2.00   14.70
  -7   5  -6   22.00   21.60
   7  -5   6   17.60   19.20
   9   4  -6   13.80   12.60
   8   4  -6   10.80   10.20
   7   4  -6    2.30    9.10
   6   4  -6   10.40    7.80
   6   4  -6    9.30    9.20
  -6  -4   6    7.20    8.00
   5   4  -6   33.50   10.30
  -5  -4   6   17.40    7.20
   4   4  -6  637.24   25.90
   4   4  -6  610.94   19.50
   4   4  -6  623.44   26.20
  -4  -4   6  625.64   26.60
   3   4  -6 1435.86   41.50
   3   4  -6 1467.45   44.50
  -3  -4   6 1471.35   47.70
   2   4  -6  521.25   19.10
   2   4  -6  515.95   19.30
   2   4  -6  520.75   24.10
  -2  -4   6  518.35   23.20
   1   4  -6  301.37   11.80
   1   4  -6  309.27   12.40
   1   4  -6  301.87   18.20
   1   4  -6  319.97   15.40
  -1  -4   6  298.47   19.20
   0   4  -6  149.19   11.60
   0   4  -6  149.09    9.40
   0   4  -6  146.09   13.80
   0  -4   6  150.28   14.90
  -1   4  -6  217.18   13.60
  -1   4  -6  234.38   16.30
   1  -4   6  237.78   17.00
  -2   4  -6   46.40   17.10
  -2   4  -6   80.79   11.90
  -2   4  -6   47.00   10.60
   2  -4   6   81.09   12.80
  -3   4  -6  109.19   14.90
  -4   4  -6   10.50   10.10
  -4   4  -6   -4.00   10.30
  -4   4  -6   11.80    9.30
   4  -4   6   -5.20    8.20
  -5   4  -6  484.35   27.60
  -5   4  -6  502.35   30.90
   5  -4   6  453.65   26.50
  -6   4  -6  676.03   38.00
  -6   4  -6  638.84   32.40
   6  -4   6  643.44   35.40
  -7   4  -6  757.12   43.60
  -7   4  -6  661.93   35.00
   7  -4   6  744.43   39.90
  -8   4  -6   71.99   23.60
  -8   4  -6   25.90   18.20
   8  -4   6   55.39   25.00
   9   3  -6   38.80   13.40
   8   3  -6   78.89   14.50
   7   3  -6  393.76   23.00
   7   3  -6  317.37   26.20
  -7  -3   6  417.06   24.10
  -7  -3   6  361.16   18.30
   6   3  -6  133.19   16.00
   6   3  -6  144.09   13.90
  -6  -3   6  124.69   11.90
  -6  -3   6  128.99   13.50
   5   3  -6   44.90    8.80
  -5  -3   6   31.60    7.70
  -5  -3   6   25.60    7.70
  -5  -3   6   27.30    7.50
   4   3  -6  206.18   15.20
   4   3  -6  219.68   23.00
  -4  -3   6  226.88   15.50
   3   3  -6   68.69    5.40
   3   3  -6   52.89    8.30
   3   3  -6   72.19    9.80
  -3  -3   6   50.29    8.00
   2   3  -6   44.30    5.90
   2   3  -6   32.40    6.90
   2   3  -6   42.90    6.30
  -2  -3   6   39.90    7.60
   1   3  -6   42.30    5.10
   1   3  -6   30.10    7.40
   1   3  -6   38.60    5.90
   1   3  -6   45.70    5.90
  -1  -3   6   42.80    8.00
   0   3  -6   77.69   10.70
   0   3  -6   77.49    8.80
   0   3  -6   54.89    5.60
   0  -3   6   54.49    9.00
  -1   3  -6  230.38   12.10
  -1   3  -6  234.68   16.00
  -1   3  -6  238.88   14.40
   1  -3   6  214.68   15.40
  -2   3  -6  924.51   33.40
  -2   3  -6  923.11   32.50
  -2   3  -6  933.41   36.00
  -3   3  -6 1284.67   47.00
  -3   3  -6 1304.77   44.30
  -4   3  -6  536.85   25.50
  -4   3  -6  552.54   26.70
  -4   3  -6  533.05   26.50
   4  -3   6  508.15   26.40
  -5   3  -6   -4.50    8.00
  -5   3  -6   18.30   11.80
  -5   3  -6    7.90    8.90
   5  -3   6    2.40    9.90
  -6   3  -6  190.58   21.10
  -6   3  -6  143.99   17.60
   6  -3   6  172.18   19.20
  -7   3  -6  292.57   22.20
  -7   3  -6  338.77   27.60
   7  -3   6  347.17   27.70
  -8   3  -6  166.08   30.00
  -8   3  -6  131.69   22.00
   8  -3   6   92.19   19.10
   9   2  -6   12.20   12.00
   8   2  -6  220.48   20.60
  -8  -2   6  208.28   21.70
   7   2  -6  206.88   18.20
   7   2  -6  158.88   17.10
  -7  -2   6  155.08   27.60
  -7  -2   6  177.38   19.30
  -7  -2   6  183.18   15.60
   6   2  -6   14.30    7.80
   6   2  -6    9.00    8.00
  -6  -2   6    5.40    7.30
  -6  -2   6    6.80    7.00
   5   2  -6  104.19   11.40
   5   2  -6  103.99   13.00
  -5  -2   6  103.79   10.40
  -5  -2   6  103.89    8.90
  -5  -2   6  113.79   10.60
   4   2  -6    0.60    5.40
   4   2  -6    8.30    6.00
  -4  -2   6    9.50    5.20
  -4  -2   6   -2.30    4.70
  -4  -2   6    2.90    4.20
   3   2  -6  229.58   13.30
   3   2  -6  212.78   12.70
  -3  -2   6  239.88   11.20
  -3  -2   6  227.58   13.50
  -3  -2   6  225.18   10.60
   2   2  -6   11.10    5.00
   2   2  -6   22.00    4.80
   2   2  -6   20.30    3.30
  -2  -2   6   26.90    5.70
  -2  -2   6   24.70    5.70
   1   2  -6  122.89    7.80
   1   2  -6   90.89    9.00
   1   2  -6  101.59    6.80
  -1  -2   6  123.39    7.40
  -1  -2   6  113.69   10.20
   0   2  -6   11.40    5.50
   0   2  -6    5.00    3.70
   0   2  -6   11.80    2.20
   0   2  -6   13.50    3.90
   0  -2   6    9.80    5.60
  -1   2  -6   -2.10    4.30
  -1   2  -6    1.70    3.00
  -1   2  -6   -1.90    5.50
  -1   2  -6    8.70    3.00
   1  -2   6    1.90    4.90
  -2   2  -6  520.25   21.20
  -2   2  -6  528.45   23.60
  -2   2  -6  510.05   20.20
   2  -2   6  506.15   16.10
  -3   2  -6 1184.18   39.70
  -3   2  -6 1169.38   39.30
  -3   2  -6 1126.29   41.00
  -4   2  -6 1235.38   44.00
  -4   2  -6 1203.98   44.10
  -4   2  -6 1272.67   43.10
  -5   2  -6  643.24   28.70
  -5   2  -6  597.84   30.10
  -5   2  -6  583.54   26.60
   5  -2   6  617.04   28.90
  -6   2  -6   20.40    7.80
  -6   2  -6   24.50   12.20
  -6   2  -6   17.20   11.30
   6  -2   6   29.10   11.40
  -7   2  -6   17.40   12.30
  -7   2  -6    3.00    9.00
   7  -2   6   34.80   13.50
  -8   2  -6   59.69   16.60
  -8   2  -6   62.89   14.90
   8  -2   6   52.49   14.80
  -9   2  -6   -6.50   13.50
  -9   2  -6    7.90   19.80
   9  -2   6    6.10   17.40
   9   1  -6   -1.90   13.40
  -9  -1   6   -2.10   14.60
   8   1  -6  200.88   20.20
  -8  -1   6  221.98   22.70
   7   1  -6  297.67   19.00
   7   1  -6  289.97   21.80
  -7  -1   6  281.67   20.70
  -7  -1   6  361.66   21.10
   6   1  -6  298.47   17.90
   6   1  -6  239.78   16.80
  -6  -1   6  272.87   16.70
  -6  -1   6  245.58   19.50
  -6  -1   6  246.38   17.10
   5   1  -6   33.20    6.50
   5   1  -6   24.20    8.20
  -5  -1   6   28.00    6.70
  -5  -1   6   33.80    8.10
  -5  -1   6   30.50    8.00
  -4  -1   6   14.00    6.50
  -4  -1   6   11.80    5.60
  -4  -1   6   13.50    4.60
   3   1  -6   81.09    8.80
   3   1  -6   76.49    8.40
  -3  -1   6   81.59    8.60
  -3  -1   6   83.29    8.20
  -3  -1   6   88.09    8.30
   2   1  -6  355.76   14.70
   2   1  -6  370.26   15.80
  -2  -1   6  345.77   15.00
  -2  -1   6  363.26   16.30
  -2  -1   6  370.56   14.00
   1   1  -6  953.40   30.40
   1   1  -6  915.41   26.10
   1   1  -6  930.21   27.50
  -1  -1   6  905.91   29.40
  -1  -1   6  957.30   29.10
  -1  -1   6  911.81   26.50
   0   1  -6 1728.23   46.00
   0   1  -6 1731.83   51.89
   0   1  -6 1779.32   46.20
   0   1  -6 1801.52   49.90
   0   1  -6 1779.32   48.50
   0  -1   6 1737.73   52.09
  -1   1  -6 2486.65   72.39
  -1   1  -6 2555.94   69.59
  -1   1  -6 2607.24   69.19
   1  -1   6 2434.16   71.99
  -2   1  -6   82.99    6.90
  -2   1  -6   71.99    9.90
  -2   1  -6   69.09    9.90
  -2   1  -6   76.19    6.70
  -3   1  -6  159.38   11.80
  -3   1  -6  163.48   11.70
  -3   1  -6  155.38   10.40
   3  -1   6  147.59    8.40
  -4   1  -6   32.10    7.10
  -4   1  -6   22.60    6.20
  -4   1  -6   40.30    8.90
   4  -1   6   34.80    8.50
  -5   1  -6    4.90    6.30
  -5   1  -6    9.60    9.70
  -5   1  -6    6.90    5.60
   5  -1   6   13.20    8.90
  -6   1  -6   15.60    8.50
  -6   1  -6   21.10    9.80
  -6   1  -6    2.30    7.40
   6  -1   6    0.50    8.90
  -7   1  -6   21.20   11.50
  -7   1  -6    5.50    8.90
   7  -1   6   21.60   10.50
  -8   1  -6  261.67   26.80
  -8   1  -6  270.07   21.70
  -9   1  -6  405.86   33.90
  -9   1  -6  405.06   29.30
   9  -1   6  377.36   28.00
 -10   1  -6  187.88   32.80
 -10   0   6  372.36   41.50
   9   0  -6  109.79   17.70
  -9   0   6  109.89   19.80
   8   0  -6  -17.30    8.40
   7   0  -6   36.10    9.40
  -7   0   6   48.60   11.00
  -7   0   6   38.60    8.90
   6   0  -6   63.09   10.40
   6   0  -6   57.39    9.60
  -6   0   6   56.79   11.30
  -6   0   6   85.59   14.50
  -6   0   6   39.40    8.70
   5   0  -6   83.79   11.80
   5   0  -6   58.29   10.20
  -5   0   6   73.49   10.30
  -5   0   6   70.79   13.40
  -5   0   6   72.29   13.70
   4   0  -6  830.82   28.40
   4   0  -6  812.12   30.60
  -4   0   6  783.02   30.30
  -4   0   6  782.62   30.10
  -4   0   6  806.12   26.50
   3   0  -6  167.38   11.10
   3   0  -6  170.78   10.60
  -3   0   6  150.88   12.50
  -3   0   6  171.68    9.40
  -3   0   6  165.08   11.80
   2   0  -6  107.99    8.20
   2   0  -6  107.39    8.10
  -2   0   6  107.39    9.20
  -2   0   6  113.89   10.30
  -2   0   6   90.69    9.40
   1   0  -6  456.25   16.90
   1   0  -6  441.76   16.60
  -1   0   6  454.95   15.80
  -1   0   6  451.45   15.90
  -1   0   6  463.65   18.90
  -1   0   6  476.45   14.20
   0   0  -6  142.79    7.00
   0   0  -6  144.19    7.30
   0   0  -6  131.99    8.80
   0   0   6  144.89    9.40
   0   0   6  134.09    8.50
   0   0   6  141.39    5.80
  -1   0  -6   42.00    5.30
  -1   0  -6   42.00    6.90
  -1   0  -6   38.90    5.60
   1   0   6   38.90    6.60
  -2   0  -6  301.07   13.10
  -2   0  -6  291.27   13.80
  -2   0  -6  277.67   13.70
  -2   0  -6  300.77   14.40
  -3   0  -6  207.88   11.30
  -3   0  -6  197.18   12.70
  -3   0  -6  191.58   11.30
   3   0   6  224.78    8.70
   3   0   6  203.28   13.50
  -4   0  -6   56.59    8.40
  -4   0  -6   44.00    7.60
  -4   0  -6   40.60    7.40
   4   0   6   42.90    8.30
  -5   0  -6   13.90    9.00
  -5   0  -6   24.30    7.70
  -5   0  -6   13.50    9.60
   5   0   6   25.80    9.00
  -6   0  -6   79.89   12.20
  -6   0  -6   85.29   12.20
  -6   0  -6   64.19   12.70
   6   0   6   97.39   13.40
  -7   0  -6   28.00   11.70
  -7   0  -6   46.90   11.00
  -7   0  -6   52.19   13.10
   7   0   6   48.20   12.40
  -8   0  -6   24.90   11.10
  -8   0  -6   -4.90   11.00
   8   0   6    1.00   10.40
  -9   0  -6  225.38   24.60
  -9   0  -6  170.58   22.00
   9   0   6  179.88   22.70
 -10   0  -6  446.86   36.60
 -10   0  -6  512.25   37.30
  10   0   6  436.76   32.20
 -10   1   6  155.48   34.90
   9  -1  -6   73.59   16.40
  -7   1   6   26.30   11.50
  -7   1   6   37.70    8.10
   6  -1  -6    6.90   10.40
   6  -1  -6    2.90    8.30
  -6   1   6   13.30    6.30
  -6   1   6   29.90   11.70
  -6   1   6   -0.40   12.30
   5  -1  -6    8.40    7.70
   5  -1  -6   -5.50    8.10
  -5   1   6  -14.10    8.50
  -5   1   6   -1.70    5.30
  -5   1   6    3.80   10.60
   4  -1  -6   35.50    8.50
   4  -1  -6   42.10    6.80
  -4   1   6   26.80    9.10
  -4   1   6   36.40    6.20
  -4   1   6   44.30   10.60
   3  -1  -6  111.19    8.80
  -3   1   6  103.29   11.90
  -3   1   6   89.59   12.50
   2  -1  -6  299.47   12.60
   2  -1  -6  299.47   16.20
  -2   1   6  315.47   11.40
  -2   1   6  307.67   17.00
  -2   1   6  303.47   15.50
   1  -1  -6  833.82   25.40
   1  -1  -6  821.22   27.90
  -1   1   6  820.32   24.00
  -1   1   6  828.32   29.50
  -1   1   6  853.41   26.70
  -1   1   6  831.72   24.30
   0  -1  -6  736.03   24.60
   0  -1  -6  762.92   24.10
   0   1   6  763.42   23.10
   0   1   6  789.92   26.50
   0   1   6  782.52   23.00
   0   1   6  773.32   22.80
  -1  -1  -6  197.18    8.00
  -1  -1  -6  205.68   10.30
   1   1   6  198.88    8.70
   1   1   6  191.48    7.30
  -2  -1  -6  186.38   10.00
  -2  -1  -6  188.88   11.60
  -2  -1  -6  180.28    9.80
  -2  -1  -6  173.78    9.60
   2   1   6  192.78    6.00
   2   1   6  169.08    6.80
  -3  -1  -6   10.40    4.40
  -3  -1  -6    3.40    4.60
  -3  -1  -6    2.20    3.80
   3   1   6    2.40    1.90
   3   1   6    5.60    2.90
   3   1   6   -0.50    4.00
  -4  -1  -6    3.00    5.40
  -4  -1  -6    3.40    4.70
  -4  -1  -6    1.10    4.00
   4   1   6    6.10    4.20
   4   1   6    0.90    3.10
   4   1   6   12.30    5.60
  -5  -1  -6  310.57   17.10
  -5  -1  -6  326.17   17.10
  -5  -1  -6  335.77   17.60
   5   1   6  314.47   16.90
  -6  -1  -6  962.60   36.60
  -6  -1  -6  994.60   36.20
  -6  -1  -6  987.00   36.70
   6   1   6  952.90   38.70
  -7  -1  -6 1574.64   55.79
  -7  -1  -6 1728.93   55.59
  -7  -1  -6 1639.24   54.69
   7   1   6 1620.94   53.89
  -8  -1  -6  906.51   37.60
  -8  -1  -6  899.41   38.70
   8   1   6  843.72   35.70
  -9  -1  -6   -0.20   11.60
  -9  -1  -6   10.50   12.00
   9   1   6   10.60   12.20
 -10  -1  -6   40.90   17.00
 -10  -1  -6   28.20   14.80
  10   1   6   16.00   15.70
   9  -2  -6  -11.50   15.60
  -9   2   6   19.30   19.60
   8  -2  -6   -8.60    9.90
  -8   2   6   47.00   14.40
   7  -2  -6    2.40    9.30
  -7   2   6   43.80   14.50
  -7   2   6   23.20    9.70
   6  -2  -6    9.00    8.90
   6  -2  -6   10.80   13.00
  -6   2   6   23.90    7.20
  -6   2   6  -12.40   17.50
  -6   2   6   13.20   13.30
   5  -2  -6  111.89   12.30
   5  -2  -6  116.99   16.80
  -5   2   6   90.69   18.00
  -5   2   6  118.99    9.20
  -5   2   6  126.49   10.40
  -5   2   6  100.89   17.90
   4  -2  -6  910.41   37.00
   4  -2  -6  906.61   30.10
  -4   2   6  851.31   27.30
  -4   2   6  837.22   36.90
  -4   2   6  878.81   36.00
  -4   2   6  890.01   27.50
   3  -2  -6 2344.77   65.39
   3  -2  -6 2357.36   72.19
  -3   2   6 2355.86   72.39
  -3   2   6 2345.77   70.89
  -3   2   6 2404.36   64.19
  -3   2   6 2353.76   63.29
   2  -2  -6  903.11   26.80
  -2   2   6  849.61   27.10
  -2   2   6  847.22   30.90
  -2   2   6  833.62   24.60
  -2   2   6  911.91   33.70
   1  -2  -6    8.10    3.00
   1  -2  -6    7.20    4.70
   1  -2  -6   11.40    2.70
  -1   2   6   18.00    3.80
  -1   2   6    7.20    7.50
  -1   2   6   12.50    2.00
  -1   2   6    8.90    4.00
   0  -2  -6   20.00    3.40
   0   2   6   22.70    4.70
   0   2   6   22.90    2.90
   0   2   6   23.50    2.90
   0   2   6   22.50    4.60
   0   2   6   23.20    6.70
  -1  -2  -6   58.19    7.10
  -1  -2  -6   58.09    5.20
   1   2   6   61.19    4.60
   1   2   6   51.69    6.50
   1   2   6   68.69    5.60
   1   2   6   57.59    7.90
  -2  -2  -6   17.50    3.50
  -2  -2  -6   17.60    5.00
  -2  -2  -6   24.20    3.90
   2   2   6   19.10    3.70
   2   2   6   14.50    3.70
  -3  -2  -6  296.27   15.10
  -3  -2  -6  260.87   13.00
   3   2   6  281.47   12.70
   3   2   6  278.37   10.20
   3   2   6  280.17   11.40
   3   2   6  294.27   11.90
  -4  -2  -6  756.92   26.20
  -4  -2  -6  736.33   27.80
   4   2   6  718.23   24.50
   4   2   6  785.92   23.60
   4   2   6  746.23   23.80
  -5  -2  -6    7.10    5.00
  -5  -2  -6    8.50    6.60
  -5  -2  -6    7.20    5.40
   5   2   6    6.50    4.30
   5   2   6    6.40    5.30
  -6  -2  -6  135.29   11.90
  -6  -2  -6  104.39   11.80
  -6  -2  -6  112.19   12.30
   6   2   6  126.89   11.80
   6   2   6  120.79   11.50
  -7  -2  -6   29.00    8.30
  -7  -2  -6   63.79   10.00
  -7  -2  -6   38.60   10.00
   7   2   6   38.40    9.20
  -8  -2  -6  149.69   15.80
  -8  -2  -6  152.98   18.80
  -8  -2  -6  157.68   17.50
   8   2   6  162.38   16.90
  -9  -2  -6   39.20   12.50
   9   2   6   66.09   12.20
 -10  -2  -6   43.80   14.00
 -11  -2  -6   22.60   15.40
  11   2   6   41.10   18.60
   8  -3  -6   39.50   14.50
  -8   3   6   42.60   17.20
   7  -3  -6  258.47   19.70
  -7   3   6  254.77   23.10
  -7   3   6  312.77   30.00
   6  -3  -6  298.07   19.50
  -6   3   6  305.97   30.40
  -6   3   6  345.27   18.10
  -6   3   6  333.07   20.20
   5  -3  -6   13.50   10.60
   5  -3  -6   28.70    8.10
  -5   3   6   34.00    7.90
  -5   3   6   14.30    9.00
  -5   3   6   34.30   15.30
  -5   3   6   20.70   13.10
   4  -3  -6   13.90    6.30
   4  -3  -6    7.00    8.20
  -4   3   6   -0.10   10.80
  -4   3   6   15.10    7.10
  -4   3   6   11.80   10.10
  -4   3   6   14.70    5.90
   3  -3  -6 1325.37   47.90
   3  -3  -6 1321.17   39.90
  -3   3   6 1389.26   41.50
  -3   3   6 1333.07   48.90
  -3   3   6 1351.76   47.20
  -3   3   6 1331.27   38.10
   2  -3  -6   39.70    5.40
   2  -3  -6   40.60    8.10
   2  -3  -6   40.70    5.70
  -2   3   6   37.50    7.20
  -2   3   6   45.90    4.70
  -2   3   6   36.10    7.70
  -2   3   6   28.50    8.00
   1  -3  -6  112.79    6.30
  -1   3   6  104.39   12.60
  -1   3   6  122.09    9.00
  -1   3   6  108.39   11.00
   0  -3  -6    9.20    4.00
   0  -3  -6    8.60    5.10
   0   3   6    5.80    4.60
   0   3   6    9.20    5.60
   0   3   6   13.20    7.70
  -1  -3  -6    1.90    4.70
   1   3   6   -1.90    4.80
   1   3   6    1.50    1.60
   1   3   6    1.80    4.00
   1   3   6    4.10    4.80
   1   3   6    1.90    1.00
  -2  -3  -6    2.30    2.70
  -2  -3  -6    3.10    2.60
   2   3   6   -5.60    3.00
   2   3   6   -0.30    3.40
   2   3   6    5.80    3.90
  -3  -3  -6   48.10    5.90
  -3  -3  -6   54.79    6.10
  -3  -3  -6   33.90    6.70
   3   3   6   44.00    4.80
   3   3   6   50.79    7.10
   3   3   6   44.20    5.80
  -4  -3  -6  346.67   14.70
  -4  -3  -6  351.76   17.90
   4   3   6  350.56   15.70
   4   3   6  338.17   13.80
   4   3   6  343.17   14.20
   4   3   6  350.66   13.20
  -5  -3  -6 1357.56   42.10
  -5  -3  -6 1364.96   44.80
   5   3   6 1359.26   41.50
   5   3   6 1382.76   43.10
   5   3   6 1361.26   40.40
  -6  -3  -6   40.70    7.10
   6   3   6   47.70    7.90
  -7  -3  -6  606.44   28.10
  -7  -3  -6  629.74   26.90
   7   3   6  609.84   26.00
   7   3   6  643.54   27.30
  -8  -3  -6   96.09   13.70
  -8  -3  -6   92.29   15.70
   8   3   6   87.59   10.40
   8   3   6  103.39   16.60
   8   3   6   97.79   12.40
  -9  -3  -6   20.00   10.10
   9   3   6   37.30    9.50
   9   3   6   15.10    7.80
 -10  -3  -6   17.90   10.60
  10   3   6    7.80   11.70
 -11  -3  -6  -20.00   13.90
  11   3   6  -14.50   14.50
  11   3   6  -18.80   10.20
   8  -4  -6   87.29   15.90
   7  -4  -6  200.48   19.90
  -7   4   6  244.88   32.10
   6  -4  -6  454.35   23.80
  -6   4   6  425.26   26.30
  -6   4   6  426.26   25.60
  -6   4   6  477.55   37.90
   5  -4  -6  395.76   20.50
   5  -4  -6  433.56   29.10
  -5   4   6  353.06   20.70
  -5   4   6  344.57   29.90
  -5   4   6  325.97   24.20
  -5   4   6  356.26   35.50
   4  -4  -6  231.28   19.30
   4  -4  -6  192.88   13.40
  -4   4   6  237.08   17.80
  -4   4   6  206.98   14.60
  -4   4   6  230.08   23.10
  -4   4   6  226.48   23.90
   3  -4  -6    3.40    8.40
   3  -4  -6    2.20    4.90
  -3   4   6   22.00    6.90
  -3   4   6   19.70    8.60
  -3   4   6    8.00    4.70
  -3   4   6    9.80   11.00
   2  -4  -6    4.50    3.70
   2  -4  -6   -3.00    6.50
   2  -4  -6    7.00    3.10
  -2   4   6    3.00    6.70
  -2   4   6    7.40    7.30
  -2   4   6   -1.10    7.90
   1  -4  -6   42.90    7.40
   1  -4  -6   62.29    5.00
  -1   4   6   58.29   10.00
  -1   4   6   62.09   11.70
  -1   4   6   71.19    9.70
   0   4   6  166.28   14.90
   0   4   6  161.58   14.90
   0   4   6  167.78   10.70
  -1  -4  -6  813.82   31.80
   1   4   6  811.92   27.70
   1   4   6  813.62   31.00
   1   4   6  738.73   33.50
  -2  -4  -6  124.39   10.10
  -2  -4  -6  142.29    6.30
   2   4   6  128.49   11.50
   2   4   6  131.79   10.70
   2   4   6  129.39    6.30
   2   4   6  127.99   10.40
  -3  -4  -6 2017.70   57.89
  -3  -4  -6 2002.60   54.49
   3   4   6 1985.00   52.59
   3   4   6 1968.50   58.99
   3   4   6 2039.30   60.49
   3   4   6 2029.20   58.29
  -4  -4  -6 1152.28   34.30
  -4  -4  -6 1139.29   35.60
  -4  -4  -6 1128.69   38.10
   4   4   6 1153.18   36.70
   4   4   6 1104.09   36.40
   4   4   6 1143.49   32.00
  -5  -4  -6  595.44   25.70
  -5  -4  -6  592.64   21.90
   5   4   6  605.84   20.10
   5   4   6  600.84   23.60
   5   4   6  599.54   22.90
  -6  -4  -6   42.60    6.60
   6   4   6   51.19    8.20
   6   4   6   54.09    9.40
   6   4   6   63.49    8.30
  -7  -4  -6   -0.60    5.60
  -7  -4  -6    4.70    8.00
   7   4   6   -2.00    7.90
   7   4   6   -0.20    6.30
   7   4   6    0.00    6.40
  -8  -4  -6  113.79   16.40
  -8  -4  -6   84.79   13.60
   8   4   6  101.09   11.20
   8   4   6   69.69   20.00
   8   4   6   91.59   13.10
  -9  -4  -6  132.59   18.50
   9   4   6  159.18   16.70
   9   4   6  147.99   13.20
 -10  -4  -6   59.69   13.60
  10   4   6   79.79   12.00
  10   4   6   79.69   14.10
 -11  -4  -6   77.89   17.00
  11   4   6   88.89   16.20
  11   4   6  125.09   18.10
  12   4   6  -16.40   14.80
   8  -5  -6    9.10   16.20
   7  -5  -6   10.60   12.20
  -7   5   6    7.50   20.30
   6  -5  -6    7.20   10.10
  -6   5   6    3.70   17.00
  -6   5   6   17.40   20.40
   5  -5  -6    4.60    8.00
  -5   5   6    7.70   16.20
  -5   5   6   12.60   15.40
   4  -5  -6    2.40    6.20
   4  -5  -6   19.60   12.30
  -4   5   6   16.20   11.50
  -4   5   6   32.00   17.70
  -4   5   6   35.90   15.70
   3  -5  -6    4.80    5.00
   3  -5  -6   17.90    9.90
  -3   5   6   40.40   10.80
  -3   5   6   22.80    8.80
  -3   5   6   11.30   12.40
  -3   5   6   19.00    5.70
   2  -5  -6  131.19   16.00
   2  -5  -6  134.39    8.40
  -2   5   6  119.79   15.10
  -2   5   6  129.89   16.30
   1  -5  -6  345.27   12.10
   1  -5  -6  354.06   21.90
  -1   5   6  325.37   22.10
  -1   5   6  372.06   19.70
  -1   5   6  266.17   23.20
   0  -5  -6  617.34   29.10
   0   5   6  616.84   24.10
   0   5   6  576.24   28.40
   0   5   6  573.54   28.20
  -1  -5  -6  690.53   31.10
   1   5   6  710.03   26.70
   1   5   6  723.93   30.70
   1   5   6  676.53   30.40
  -2  -5  -6   -0.20    1.70
   2   5   6    4.20    5.30
   2   5   6    0.80    2.40
   2   5   6    2.30    7.30
   2   5   6    9.20    6.90
  -3  -5  -6    3.80    2.80
   3   5   6   10.60    6.80
   3   5   6    5.10    6.20
   3   5   6    6.00    6.60
  -4  -5  -6  703.83   23.40
  -4  -5  -6  718.23   28.10
   4   5   6  713.33   20.80
   4   5   6  682.53   26.70
   4   5   6  747.03   28.60
  -5  -5  -6  222.38   15.40
  -5  -5  -6  210.48   11.80
   5   5   6  216.18   10.20
   5   5   6  236.88   14.20
  -6  -5  -6   23.00    5.30
   6   5   6   25.60   10.70
  -7  -5  -6   25.20    5.70
  -7  -5  -6   28.30   11.40
   7   5   6   20.20    7.50
   7   5   6   30.00    8.50
   7   5   6   28.50    6.90
  -8  -5  -6   11.80    7.30
  -8  -5  -6   29.50   11.00
   8   5   6   10.60    7.20
   8   5   6    7.70    9.80
   8   5   6   27.40    7.70
  -9  -5  -6   33.90   11.40
   9   5   6   25.80    9.50
   9   5   6   33.10    8.70
 -10  -5  -6   99.39   18.00
  10   5   6   90.59   15.00
  10   5   6  114.79   15.20
 -11  -5  -6  156.48   23.50
  11   5   6  187.48   23.40
  11   5   6  198.48   19.90
 -12  -5  -6  164.38   29.90
  12   5   6  222.48   24.00
   7  -6  -6   -2.90   13.50
   6  -6  -6  -15.10   10.40
  -6   6   6    9.20   21.90
  -6   6   6  -17.90   19.80
   5  -6  -6   -1.00    8.90
  -5   6   6   -9.70   17.80
  -5   6   6   14.00   22.10
   4  -6  -6  140.89   13.50
  -4   6   6  164.98   21.20
   3  -6  -6  325.77   16.30
   3  -6  -6  387.26   27.40
  -3   6   6  447.36   31.40
  -3   6   6  322.07   27.10
  -3   6   6  400.56   23.70
   2  -6  -6   53.49    7.50
   2  -6  -6   65.39    6.90
   2  -6  -6   58.79   10.70
  -2   6   6   41.50   20.30
  -2   6   6   83.29   15.00
  -2   6   6   95.79   18.60
   1  -6  -6   61.89   11.10
   1  -6  -6   67.79    6.20
   1  -6  -6   83.19    4.00
  -1   6   6   53.49   12.70
  -1   6   6   88.89   16.40
  -1   6   6   58.09   11.60
   0  -6  -6 1282.27   48.70
   0  -6  -6 1253.77   33.20
   0   6   6 1168.48   45.70
   0   6   6 1224.28   48.40
   0   6   6 1231.88   42.80
  -1  -6  -6 1227.98   46.10
   1   6   6 1168.38   40.00
   1   6   6 1135.19   44.20
  -2  -6  -6 1088.69   41.70
  -2  -6  -6 1104.79   30.00
   2   6   6 1062.09   41.30
   2   6   6 1100.99   38.00
   2   6   6 1082.69   40.80
  -3  -6  -6  322.37   18.30
  -3  -6  -6  314.17   12.30
   3   6   6  290.17   18.60
   3   6   6  312.47   20.20
   3   6   6  307.27   18.30
  -4  -6  -6   59.09   10.90
  -4  -6  -6   45.50    7.60
   4   6   6   41.70    5.20
   4   6   6   35.30    9.80
   4   6   6   45.20    8.50
   4   6   6   36.50    9.30
  -5  -6  -6    9.00    6.10
  -5  -6  -6   20.70    5.50
   5   6   6   31.30   10.10
   5   6   6   17.30    7.30
   5   6   6   19.20    4.10
   5   6   6    5.00    6.70
  -6  -6  -6    5.70    5.00
   6   6   6    6.90    6.20
   6   6   6   -3.20    4.60
   6   6   6    1.30    7.30
  -7  -6  -6   -9.60    9.90
  -7  -6  -6   11.90    5.60
   7   6   6    9.90    7.70
   7   6   6   12.40    6.40
   7   6   6    6.70    7.20
  -8  -6  -6  289.27   18.70
  -8  -6  -6  329.67   23.20
   8   6   6  307.47   19.10
   8   6   6  299.07   17.40
   8   6   6  321.37   21.70
  -9  -6  -6   18.70   12.60
   9   6   6   10.10    7.90
   9   6   6   -1.10    8.00
 -10  -6  -6  509.05   32.10
  10   6   6  483.35   26.00
  10   6   6  496.15   27.40
 -11  -6  -6   91.09   19.80
  11   6   6   94.69   15.90
  11   6   6  140.29   19.40
 -12  -6  -6   -0.60   20.80
  12   6   6   34.10   15.10
  12   6   6   17.20   20.70
   7  -7  -6   -3.10   16.10
   6  -7  -6   14.10   12.20
  -6   7   6  -12.60   25.10
   5  -7  -6    5.10    9.40
  -5   7   6   -1.10   22.80
  -5   7   6   -2.00   20.40
   4  -7  -6   73.89   10.40
  -4   7   6   69.99   17.10
  -4   7   6   63.39   21.80
   3  -7  -6  830.22   29.30
   3  -7  -6  829.72   44.80
   3  -7  -6  843.92   29.80
  -3   7   6  869.31   37.70
   2  -7  -6  611.24   21.60
   2  -7  -6  611.54   36.00
   2  -7  -6  605.74   19.80
  -2   7   6  564.14   38.20
  -2   7   6  602.64   30.40
  -2   7   6  611.34   34.10
   1  -7  -6  119.59    8.20
   1  -7  -6  152.48   21.40
   1  -7  -6  136.59    6.90
  -1   7   6  144.29   18.70
  -1   7   6  140.09   24.80
  -1   7   6  114.29   15.20
   0  -7  -6    4.50    3.60
   0  -7  -6   -3.10   10.70
   0  -7  -6    8.50    3.20
   0   7   6    9.30   11.40
   0   7   6    4.50    9.90
   0   7   6   -7.20    8.20
  -1  -7  -6    7.10    9.00
  -1  -7  -6   11.20    3.70
  -1  -7  -6    9.40    2.30
   1   7   6   10.70    8.30
   1   7   6    5.90    7.50
   1   7   6   -3.50    9.20
  -2  -7  -6   -2.10    2.60
  -2  -7  -6   -3.10    7.80
   2   7   6    1.70    6.20
   2   7   6    8.70    6.90
   2   7   6    8.00   10.40
  -3  -7  -6  115.39    7.90
  -3  -7  -6   95.69   13.30
   3   7   6   81.89   13.60
   3   7   6   92.79   15.70
   3   7   6  101.79   16.10
  -4  -7  -6   24.40    8.20
  -4  -7  -6   29.50    5.50
   4   7   6   15.00    9.40
   4   7   6   18.00   10.30
   4   7   6   21.20    9.00
   4   7   6   27.30    4.50
  -5  -7  -6    4.70    6.90
  -5  -7  -6   15.70    5.80
   5   7   6   13.90    9.20
   5   7   6   11.90    7.20
   5   7   6   16.60    9.50
   5   7   6   14.20    4.40
  -6  -7  -6  620.94   24.30
   6   7   6  585.04   27.10
   6   7   6  573.64   27.50
   6   7   6  627.04   21.00
   6   7   6  589.14   28.60
  -7  -7  -6  269.77   16.60
   7   7   6  286.87   20.70
   7   7   6  268.77   14.70
   7   7   6  280.87   19.90
  -8  -7  -6   30.40    8.00
   8   7   6   62.59   13.00
   8   7   6   31.60    9.40
   8   7   6   39.70    9.10
  -9  -7  -6   18.10   12.60
   9   7   6   49.30   12.40
   9   7   6   28.30    9.10
 -10  -7  -6    7.40   15.00
  10   7   6   10.20   10.40
  10   7   6    8.90   10.30
 -11  -7  -6   36.40   16.40
  11   7   6   84.89   16.30
  11   7   6   51.89   14.20
 -12  -7  -6   63.99   22.10
  12   7   6   76.59   19.30
  12   7   6   94.19   19.30
   5  -8  -6   65.49   19.00
  -5   8   6   34.70   27.90
   4  -8  -6   -5.00    9.40
  -4   8   6   13.90   18.40
  -4   8   6    7.00   25.70
  -3   8   6  256.47   23.90
  -3   8   6  214.78   33.70
   2  -8  -6   39.50    7.20
   2  -8  -6   42.80   20.70
  -2   8   6   24.10   14.80
  -2   8   6   45.00   14.30
   1  -8  -6   30.10    5.60
   1  -8  -6   34.90   15.20
  -1   8   6    7.90   14.00
  -1   8   6    1.00   20.00
  -1   8   6   20.90   12.00
   0  -8  -6   17.60    4.20
   0  -8  -6   17.10    4.30
   0  -8  -6   23.20   12.90
   0   8   6   38.70   14.60
   0   8   6    2.70   14.10
   0   8   6    5.00    8.50
  -1  -8  -6    6.90    3.30
  -1  -8  -6  -12.30   10.40
  -1  -8  -6    0.60    3.20
   1   8   6    8.30    9.40
   1   8   6   21.10   12.60
   1   8   6    5.20   11.30
  -2  -8  -6  111.49    6.90
  -2  -8  -6   80.19   12.80
   2   8   6  110.29   18.00
   2   8   6   99.09   13.10
  -3  -8  -6  237.18   11.10
  -3  -8  -6  224.78   19.30
   3   8   6  252.67   20.70
   3   8   6  228.48   21.70
   3   8   6  212.88   17.30
  -4  -8  -6  253.47   12.90
  -4  -8  -6  255.97   21.20
   4   8   6  229.78   18.00
   4   8   6  251.77   22.50
   4   8   6  270.37   10.80
   4   8   6  276.57   22.00
  -5  -8  -6    1.10    6.10
  -5  -8  -6    4.10    9.40
   5   8   6    7.00    8.60
   5   8   6  -18.30   11.60
   5   8   6    2.10    9.10
   5   8   6    6.80    5.30
  -6  -8  -6    8.50    6.60
  -6  -8  -6    1.10    8.20
   6   8   6    2.10    8.30
   6   8   6    4.80   11.00
   6   8   6   12.10   11.30
   6   8   6    7.80    5.20
  -7  -8  -6  769.72   30.20
   7   8   6  773.12   26.70
   7   8   6  757.02   36.00
   7   8   6  735.63   31.80
   7   8   6  745.73   33.80
  -8  -8  -6  779.32   32.70
   8   8   6  782.32   29.90
   8   8   6  795.72   36.20
   8   8   6  778.02   33.40
   9   8   6  323.77   24.90
   9   8   6  335.37   20.00
  10   8   6   48.10   14.90
  10   8   6   24.40   10.90
  11   8   6   -2.00   12.60
  11   8   6   36.20   18.60
 -12  -8  -6   19.40   19.90
  12   8   6   -0.10   17.20
  -5   9   6  -56.89   56.19
  -4   9   6   70.99   23.50
  -3   9   6   87.99   18.00
  -3   9   6   99.99   28.90
  -2   9   6   40.70   18.70
  -2   9   6   53.69   14.90
  -1   9   6   43.10   15.90
  -1   9   6   64.89   15.70
   0  -9  -6  360.96   32.70
   0   9   6  348.17   24.10
   0   9   6  385.86   29.50
  -1  -9  -6  -14.70   12.80
   1   9   6   37.70   14.80
   1   9   6   17.70   16.00
  -2  -9  -6    1.20    4.20
  -2  -9  -6   -3.80   11.60
   2   9   6   -7.00   10.90
   2   9   6   -6.30    9.80
   2   9   6   28.60   13.80
  -3  -9  -6  386.36   13.40
  -3  -9  -6  391.06   15.30
  -3  -9  -6  384.56   27.10
   3   9   6  382.36   23.80
   3   9   6  437.46   29.90
   3   9   6  376.56   28.20
  -4  -9  -6 1018.80   44.00
  -4  -9  -6  976.80   31.20
   4   9   6  997.20   43.20
   4   9   6  985.80   28.40
   4   9   6  904.91   38.00
   4   9   6  974.30   45.70
  -5  -9  -6  669.13   24.90
  -5  -9  -6  713.13   36.00
   5   9   6  638.44   35.80
   5   9   6  670.13   23.20
   5   9   6  662.33   34.50
   5   9   6  635.34   31.70
  -6  -9  -6  163.58   21.30
  -6  -9  -6  146.79   14.80
   6   9   6  170.38   19.60
   6   9   6  147.99   18.00
   6   9   6  141.29   26.00
   6   9   6  175.58   13.00
  -7  -9  -6   -0.30    8.40
   7   9   6   -0.20    8.80
   7   9   6   13.00    7.50
   7   9   6    5.30   12.20
  -8  -9  -6   -5.20   11.20
   8   9   6   16.40   12.60
   8   9   6   16.30    9.10
   8   9   6    0.20    8.80
   9   9   6    6.20    9.80
   9   9   6   45.40   15.50
   9   9   6   -1.80    9.50
  10   9   6   31.40   11.60
  10   9   6   15.10   11.00
  10   9   6   31.90   15.70
  11   9   6   23.70   13.70
  11   9   6   19.50   12.80
  11   9   6   41.80   20.50
  12   9   6   11.50   19.30
  -3  10   6    9.20   19.00
  -2  10   6   60.79   25.90
  -2  10   6   48.90   15.90
  -1  10   6   13.10   19.00
  -1  10   6   15.40   14.40
   0  10   6   59.79   18.50
   0  10   6   29.60   15.60
   1  10   6  320.77   27.50
   1  10   6  285.57   24.60
  -2 -10  -6  187.48   22.30
  -2 -10  -6  187.98   11.60
   2  10   6  196.38   25.20
   2  10   6  151.48   18.20
  -3 -10  -6   20.60    5.30
  -3 -10  -6   24.20   12.00
   3  10   6   23.70   12.00
   3  10   6   47.40   18.40
  -4 -10  -6  136.89   10.90
  -4 -10  -6  137.39   25.40
   4  10   6  145.19   18.00
   4  10   6  128.09   22.70
   4  10   6  161.98   26.80
  -5 -10  -6  245.28   14.80
  -5 -10  -6  201.68   28.80
   5  10   6  239.48   19.00
   5  10   6  300.87   27.20
  -6 -10  -6   60.89    8.60
   6  10   6   35.70   12.30
   6  10   6   56.89   15.90
  -7 -10  -6    0.90    9.00
   7  10   6    6.20   10.10
   7  10   6    9.70    9.30
   7  10   6    9.20   11.50
   8  10   6   32.00    9.80
   8  10   6   13.80   13.40
   8  10   6    7.00   11.00
   9  10   6  155.98   25.10
   9  10   6  154.48   19.90
  10  10   6   85.99   19.00
  10  10   6   83.99   14.90
  10  10   6   79.59   13.60
  11  10   6   18.20   14.90
  11  10   6    2.90   14.60
  12  10   6   49.10   18.00
  12  10   6   37.90   37.80
  -1  11   6   18.10   18.90
   0  11   6   31.30   16.70
   0  11   6   19.90   20.20
   1  11   6   47.50   18.90
   1  11   6   64.09   15.40
   2  11   6  143.49   19.00
   2  11   6  199.18   28.30
   3  11   6  201.48   25.30
   3  11   6  152.18   21.40
  -4 -11  -6   75.79   11.20
   4  11   6   49.30   14.80
   4  11   6   67.29   15.50
  -5 -11  -6  141.49   13.60
   5  11   6  152.78   22.30
   5  11   6  164.28   18.80
  -6 -11  -6   93.89   14.10
   6  11   6  133.49   24.00
  -7 -11  -6  223.98   25.60
   7  11   6  231.38   27.90
   7  11   6  203.38   22.30
   8  11   6   25.00   16.40
   8  11   6  -17.00   11.20
   9  11   6   13.40   14.20
   9  11   6   15.10   15.60
  10  11   6  207.28   39.90
  10  11   6  257.37   26.80
  10  11   6  311.97   31.70
  11  11   6  252.77   26.00
  11  11   6  241.68   33.20
   1  12   6   17.40   21.80
   2  12   6   -3.60   15.50
   2  12   6   16.30   24.20
   3  12   6   87.19   25.90
   4  12   6  -11.20   11.20
   4  12   6   17.30   18.20
   5  12   6   15.70   14.20
   5  12   6    7.40   16.80
  -6 -12  -6  104.39   17.50
   6  12   6   86.19   18.80
   6  12   6   55.19   17.70
   7  12   6   62.89   16.40
   8  12   6  120.59   22.50
   8  12   6   63.59   20.10
   9  12   6   27.40   19.40
  10  12   6    1.30   21.10
   3  13   6   20.20   18.10
   4  13   6   77.59   17.80
   5  13   6   60.49   15.90
   6  13   6   42.40   16.50
   7  13   6    7.00   17.00
   8  13   6  134.79   23.00
   9  13   6  221.88   34.40
   6  14   6   47.10   18.70
   7  14   6   22.90   18.30
   8  14   6   80.09   36.60
   5  11  -7   23.30   16.50
   4  11  -7  189.38   26.30
   3  11  -7  188.18   27.70
   2  11  -7   86.39   24.30
   5  10  -7   56.59   14.00
   4  10  -7   -6.40   12.70
   4  10  -7   13.80   22.10
   3  10  -7   33.60   14.20
   3  10  -7    8.30   17.80
   2  10  -7  200.98   30.20
   2  10  -7  210.08   25.40
   1  10  -7  155.58   28.80
   1  10  -7  162.68   28.20
   0  10  -7   19.20   19.50
  -2  10  -7    2.80   18.90
   6   9  -7  232.98   29.40
   5   9  -7  472.05   33.10
   5   9  -7  456.05   25.00
   4   9  -7  174.48   18.30
   4   9  -7  213.58   24.80
   3   9  -7   -1.80   10.40
   3   9  -7   -9.60   14.00
   2   9  -7   59.99   16.30
   2   9  -7   75.29   14.00
   1   9  -7  184.78   21.90
   1   9  -7  199.18   25.00
   0   9  -7  484.65   34.30
   0   9  -7  500.95   35.10
  -1   9  -7  118.19   22.80
  -1   9  -7  107.79   17.70
  -1   9  -7  150.88   25.90
  -2   9  -7   -0.80   15.50
  -2   9  -7   17.20   20.70
  -3   9  -7   59.99   19.90
   7   8  -7    8.10   17.80
   6   8  -7  143.89   21.60
   5   8  -7    8.80   16.20
   4   8  -7   87.99   16.20
   4   8  -7   95.69   14.40
   3   8  -7   88.29   17.70
   3   8  -7   61.29   10.70
   2   8  -7   21.40   13.40
   2   8  -7   27.50   10.10
   1   8  -7  141.29   18.40
   1   8  -7  169.08   20.40
   0   8  -7   15.00   11.60
   0   8  -7   26.80   10.50
   0   8  -7   48.70   13.60
  -1   8  -7   -0.20   11.00
  -1   8  -7    9.00   13.00
  -1   8  -7    7.60   13.40
  -2   8  -7  -16.50   12.90
  -2   8  -7   15.70   14.70
  -3   8  -7   53.79   20.10
  -3   8  -7   42.40   16.90
   3  -8   7   78.79   20.80
  -4   8  -7   57.39   19.90
   8   7  -7   27.60   16.40
   7   7  -7   54.99   14.60
   6   7  -7    8.00   13.30
   5   7  -7  106.49   12.00
   5   7  -7  101.59   17.00
   4   7  -7  259.77   21.60
   4   7  -7  237.98   15.90
   3   7  -7  320.37   17.70
   3   7  -7  313.37   22.30
   2   7  -7  122.39   17.60
   2   7  -7  167.58   12.40
   2   7  -7  144.79   15.40
   1   7  -7    0.80    5.20
   1   7  -7   19.00   10.20
   1   7  -7    2.70   10.90
   0   7  -7  106.49   15.00
   0   7  -7  146.89   19.40
   0   7  -7  127.69   14.10
  -1   7  -7  815.32   37.80
  -1   7  -7  757.72   36.70
  -1   7  -7  800.32   33.70
  -2   7  -7  767.62   37.60
  -2   7  -7  720.43   33.90
  -2   7  -7  679.03   36.00
  -3   7  -7   98.09   17.20
  -3   7  -7  101.29   19.60
  -4   7  -7   21.50   15.20
  -4   7  -7    5.40   17.80
   4  -7   7   20.50   14.60
  -5   7  -7   32.80   20.60
   8   6  -7  400.36   30.40
   7   6  -7   48.00   13.10
   6   6  -7   21.90   12.80
   5   6  -7   -4.00    6.00
   5   6  -7   -2.50    9.30
   4   6  -7  330.67   23.10
   4   6  -7  333.17   18.70
   4   6  -7  343.97   16.60
  -4  -6   7  409.96   44.60
   3   6  -7  819.92   30.00
   3   6  -7  785.22   29.50
   3   6  -7  839.02   36.60
  -3  -6   7  886.91   39.60
   2   6  -7  456.05   22.40
   2   6  -7  448.66   19.00
   2   6  -7  466.85   27.70
  -2  -6   7  443.16   26.50
   1   6  -7   59.89   12.60
   1   6  -7   64.19   11.60
   1   6  -7   62.79    7.20
  -1  -6   7   74.59   13.60
   0   6  -7   73.39   13.70
   0   6  -7   70.19   12.60
   0   6  -7   78.29   10.20
   0  -6   7   70.89   14.70
  -1   6  -7  110.09   15.10
  -1   6  -7  143.19   18.90
  -1   6  -7  101.59   17.20
  -2   6  -7   28.60   10.90
  -2   6  -7   43.00   12.60
  -2   6  -7   33.20   11.20
  -3   6  -7  376.46   26.40
  -3   6  -7  398.96   26.00
  -4   6  -7   57.69   16.30
  -4   6  -7   36.10   15.50
   4  -6   7   23.30   12.30
  -5   6  -7   69.69   17.20
  -5   6  -7   46.30   16.20
   5  -6   7   48.30   18.00
  -6   6  -7   52.89   22.40
   6  -6   7   49.00   34.10
   9   5  -7    0.70   26.20
   8   5  -7  126.49   19.20
   7   5  -7  280.87   22.60
   6   5  -7    1.80    9.20
   5   5  -7   59.49   11.90
   5   5  -7   58.49   11.80
  -5  -5   7   69.29   14.10
   4   5  -7   11.00    5.30
   4   5  -7    9.30    9.60
   4   5  -7    5.80    7.10
  -4  -5   7   14.20   11.20
   3   5  -7   62.19   11.40
   3   5  -7   57.69    9.40
   3   5  -7   59.79    9.00
  -3  -5   7   59.19   10.90
   2   5  -7   25.20   10.10
   2   5  -7   35.00    5.30
   2   5  -7   42.90    8.20
  -2  -5   7   28.90   10.00
   1   5  -7  348.77   13.80
   1   5  -7  356.36   18.70
   1   5  -7  346.17   21.80
   1   5  -7  338.27   14.50
  -1  -5   7  326.17   21.60
   0   5  -7  149.49   10.00
   0   5  -7  149.29   17.30
   0   5  -7  131.59   16.30
   0  -5   7  167.58   17.90
  -1   5  -7    5.60    9.80
  -1   5  -7    4.40    6.70
  -1   5  -7    7.90    8.60
   1  -5   7   18.00   10.50
  -2   5  -7  350.36   21.90
  -2   5  -7  350.56   24.00
  -2   5  -7  358.46   23.90
   2  -5   7  345.77   25.00
  -3   5  -7   45.90   11.30
  -3   5  -7   39.60   12.30
  -4   5  -7  291.07   22.20
  -4   5  -7  316.47   25.00
   4  -5   7  258.27   21.30
  -5   5  -7  131.89   19.00
  -5   5  -7  164.48   24.10
   5  -5   7  126.89   19.10
  -6   5  -7   35.10   18.20
   6  -5   7   -1.50   14.60
  -7   5  -7   95.59   26.30
   9   4  -7    3.60   16.50
   8   4  -7    0.80   11.10
   7   4  -7   49.99   11.30
   6   4  -7  217.18   17.40
  -6  -4   7  262.77   18.90
   5   4  -7  442.16   24.40
   5   4  -7  416.66   22.20
  -5  -4   7  422.06   23.40
   4   4  -7  331.17   19.70
   4   4  -7  333.77   11.40
   4   4  -7  326.57   20.50
  -4  -4   7  331.37   21.00
   3   4  -7  101.19   11.40
   3   4  -7   86.49    7.80
   3   4  -7   61.99   10.70
  -3  -4   7   80.39   13.90
   2   4  -7 1444.96   49.70
   2   4  -7 1459.35   43.70
   2   4  -7 1447.46   43.40
  -2  -4   7 1518.35   49.99
   1   4  -7 1154.78   34.40
   1   4  -7 1212.28   37.90
   1   4  -7 1204.38   35.00
   1   4  -7 1132.99   42.50
  -1  -4   7 1154.88   42.40
   0   4  -7   11.60    6.70
   0   4  -7    2.60    8.10
   0   4  -7    8.60    4.00
   0  -4   7    9.20    8.30
  -1   4  -7  122.39   14.00
  -1   4  -7  103.99   15.20
  -1   4  -7   98.59    9.90
   1  -4   7  127.09   15.30
  -2   4  -7   13.50    7.60
  -2   4  -7    3.90    8.60
  -2   4  -7    3.20    7.40
   2  -4   7   19.70    9.20
  -3   4  -7  291.17   20.20
  -3   4  -7  297.27   20.60
  -4   4  -7  587.34   28.60
  -4   4  -7  631.74   31.00
   4  -4   7  541.45   29.90
  -5   4  -7  476.35   29.60
  -5   4  -7  457.65   26.00
   5  -4   7  429.36   28.10
  -6   4  -7   28.00   11.40
  -6   4  -7   64.19   17.40
   6  -4   7   41.50   14.60
  -7   4  -7   21.60   14.30
  -7   4  -7   57.69   20.50
   7  -4   7   41.10   17.10
   9   3  -7   70.19   18.00
   8   3  -7    8.10   12.60
   7   3  -7   -9.00   10.00
   6   3  -7  455.95   23.60
   6   3  -7  414.56   25.80
  -6  -3   7  504.95   23.40
  -6  -3   7  486.85   25.10
   5   3  -7  903.21   34.90
   5   3  -7  855.51   33.30
  -5  -3   7  859.01   32.50
   4   3  -7  636.94   26.70
   4   3  -7  641.14   26.60
  -4  -3   7  622.14   26.70
   3   3  -7    9.00    6.20
   3   3  -7    8.80    2.50
  -3  -3   7    7.00    6.60
   2   3  -7   16.20    6.70
   2   3  -7   18.30    5.60
   2   3  -7    9.40    3.80
  -2  -3   7    8.40    5.60
  -2  -3   7    0.90    6.20
   1   3  -7  461.55   22.30
   1   3  -7  464.65   17.90
   1   3  -7  503.45   17.10
  -1  -3   7  475.15   22.10
   0   3  -7  601.14   27.30
   0   3  -7  642.04   22.00
   0   3  -7  646.44   23.60
   0   3  -7  647.84   19.40
   0  -3   7  628.94   28.50
  -1   3  -7   19.40    8.30
  -1   3  -7   26.30    7.00
  -1   3  -7   20.20    4.70
   1  -3   7   21.80    7.10
  -2   3  -7  102.19   10.60
  -2   3  -7  110.19   11.70
  -2   3  -7   90.09   20.40
   2  -3   7  124.19   12.70
  -3   3  -7  -16.00    8.00
  -3   3  -7    1.00    7.50
  -3   3  -7   -4.80    6.10
  -4   3  -7   10.70   10.10
  -4   3  -7    2.00   10.20
  -4   3  -7    3.50    7.20
  -5   3  -7   70.39   12.60
  -5   3  -7  123.89   19.30
   5  -3   7   96.79   14.50
  -6   3  -7  564.34   33.50
  -6   3  -7  538.65   27.70
   6  -3   7  596.34   33.30
  -7   3  -7  162.18   18.60
  -7   3  -7  141.19   22.20
   7  -3   7  165.18   25.10
  -8   3  -7   18.00   13.80
  -8   3  -7    2.20   17.60
   8  -3   7   13.00   17.30
   9   2  -7    4.30   13.30
   8   2  -7   36.30   12.40
   7   2  -7   -0.30    8.20
  -7  -2   7   -9.60   11.00
  -7  -2   7    7.30    8.70
   6   2  -7   13.50    8.50
   6   2  -7    4.00    8.30
  -6  -2   7    1.30    7.30
   5   2  -7  331.87   19.00
  -5  -2   7  368.46   17.80
  -5  -2   7  349.37   15.70
  -5  -2   7  347.37   22.70
   4   2  -7 3841.62  111.39
   4   2  -7 4205.58  111.79
  -4  -2   7 4094.59  109.69
  -4  -2   7 4101.39  109.59
  -4  -2   7 3781.22  105.59
   3   2  -7  355.76   17.20
   3   2  -7  335.97   17.80
  -3  -2   7  367.26   15.50
  -3  -2   7  344.07   17.50
  -3  -2   7  383.46   14.60
   2   2  -7   14.40    2.70
   2   2  -7   11.30    5.60
   2   2  -7   14.90    4.60
  -2  -2   7    9.40    6.30
  -2  -2   7   11.10    5.40
   1   2  -7   51.19    8.50
   1   2  -7   42.20    4.90
   1   2  -7   55.69    6.60
  -1  -2   7   33.50    6.60
  -1  -2   7   57.29    6.90
   0   2  -7   60.49    9.30
   0   2  -7   65.99    5.30
   0   2  -7   55.49    7.40
   0   2  -7   38.50    6.10
   0  -2   7   44.20    8.90
  -1   2  -7  672.23   24.00
  -1   2  -7  675.23   28.00
  -1   2  -7  698.73   24.50
   1  -2   7  651.13   27.90
  -2   2  -7 1405.26   44.00
  -2   2  -7 1405.06   47.70
  -2   2  -7 1377.16   43.30
  -3   2  -7  359.66   19.00
  -3   2  -7  369.06   20.90
  -3   2  -7  358.36   21.10
  -3   2  -7  362.36   18.00
  -4   2  -7   19.40    7.90
  -4   2  -7   23.90    8.70
  -4   2  -7    8.70    6.80
   4  -2   7   16.50    8.80
  -5   2  -7  538.45   28.50
  -5   2  -7  540.95   28.30
  -5   2  -7  517.75   25.00
   5  -2   7  487.35   26.80
  -6   2  -7  392.16   22.30
  -6   2  -7  393.46   25.40
   6  -2   7  397.46   27.40
  -7   2  -7   45.30   10.80
  -7   2  -7   41.00   14.10
   7  -2   7   61.69   15.60
  -8   2  -7   53.39   18.40
  -8   2  -7   50.49   14.40
   8  -2   7   51.79   17.90
  -9   2  -7   28.60   22.30
  -9   2  -7   40.30   18.20
   9  -2   7   14.40   21.10
   9   1  -7  119.79   18.30
   8   1  -7  759.32   34.40
  -8  -1   7  768.12   35.20
   7   1  -7  832.72   34.10
  -7  -1   7  787.22   34.10
  -7  -1   7  888.41   34.10
   6   1  -7  164.78   15.70
   6   1  -7  197.28   16.90
  -6  -1   7  199.48   16.10
  -6  -1   7  166.58   16.10
   5   1  -7    6.70    6.90
   5   1  -7    5.00    7.70
  -5  -1   7   -0.50    5.60
  -5  -1   7   -5.50    7.80
  -5  -1   7   -6.00    6.40
   4   1  -7    1.50    6.60
   4   1  -7   -0.50    5.20
  -4  -1   7   -6.40    6.60
  -4  -1   7   -6.90    5.30
  -4  -1   7    3.90    4.80
   3   1  -7  611.04   23.70
   3   1  -7  613.44   23.40
  -3  -1   7  632.64   22.70
  -3  -1   7  613.34   22.80
  -3  -1   7  620.74   22.60
   2   1  -7  347.07   14.90
   2   1  -7  349.37   16.30
  -2  -1   7  361.26   17.90
  -2  -1   7  362.76   14.10
  -2  -1   7  338.97   15.60
   1   1  -7   38.90    6.50
   1   1  -7   33.90    4.90
   1   1  -7   47.30    5.10
  -1  -1   7   45.10    6.80
   0   1  -7   21.10    6.60
   0   1  -7   20.20    3.70
   0   1  -7   25.00    4.00
   0   1  -7   26.70    4.10
   0  -1   7   31.10    7.00
  -1   1  -7  934.11   33.50
  -1   1  -7  967.20   31.40
  -1   1  -7  939.61   30.00
   1  -1   7  988.00   33.70
  -2   1  -7 1571.74   46.60
  -2   1  -7 1601.94   47.30
  -2   1  -7 1455.55   49.20
  -3   1  -7   54.49    8.90
  -3   1  -7   60.59    9.40
  -3   1  -7   73.19    9.30
  -4   1  -7    4.10    6.20
  -4   1  -7    6.60    5.90
   4  -1   7   15.60    9.10
  -5   1  -7   74.19   14.10
  -5   1  -7   84.59   12.40
  -5   1  -7   79.79   13.80
   5  -1   7   96.79   16.20
  -6   1  -7  408.66   24.30
  -6   1  -7  434.76   23.00
  -6   1  -7  410.76   24.50
   6  -1   7  435.46   26.40
  -7   1  -7  284.77   23.70
  -7   1  -7  246.08   21.50
   7  -1   7  300.77   24.20
  -8   1  -7   26.30   12.50
  -8   1  -7   25.40   12.30
   8  -1   7   33.40   13.90
  -9   1  -7   62.09   17.30
  -9   1  -7   42.70   18.00
   9  -1   7   25.90   16.20
   9   0  -7   21.20   13.90
  -9   0   7    0.70   17.50
   8   0  -7   -2.00   10.70
   7   0  -7  259.57   18.10
  -7   0   7  314.87   22.60
  -7   0   7  256.17   19.90
   6   0  -7  452.95   26.20
   6   0  -7  432.06   22.20
  -6   0   7  414.86   26.00
  -6   0   7  406.16   21.00
  -6   0   7  444.56   28.00
   5   0  -7  149.88   13.80
   5   0  -7  179.88   15.80
  -5   0   7  129.99   13.40
  -5   0   7  153.58   16.20
  -5   0   7  160.58   17.60
   4   0  -7   -8.00    5.60
  -4   0   7    1.70    4.60
  -4   0   7   -7.40    7.50
   3   0  -7  431.76   19.70
   3   0  -7  424.96   18.40
  -3   0   7  466.95   20.20
  -3   0   7  449.46   16.90
  -3   0   7  436.06   19.40
   2   0  -7   80.59    8.20
   2   0  -7   77.39    8.50
  -2   0   7   72.29    8.10
  -2   0   7   75.69   11.70
  -2   0   7   80.19    8.60
   1   0  -7   31.60    5.70
   1   0  -7   40.90    6.50
  -1   0   7   27.70    4.10
  -1   0   7   30.60    7.40
  -1   0   7   29.10    4.40
   0   0  -7   17.30    3.40
   0   0  -7   18.40    5.70
   0   0   7   23.30    3.10
   0   0   7   14.00    5.00
   0   0   7   15.60    5.70
  -1   0  -7   13.20    4.00
  -1   0  -7   15.00    5.70
  -1   0  -7   16.70    5.10
   1   0   7   21.00    5.70
  -2   0  -7  972.40   30.30
  -2   0  -7  889.51   32.40
  -2   0  -7  894.51   31.90
  -2   0  -7  957.50   31.70
  -3   0  -7 3850.31  104.49
  -3   0  -7 3701.93  102.69
  -3   0  -7 3766.12  105.29
  -4   0  -7  436.06   20.30
  -4   0  -7  435.46   20.50
  -4   0  -7  429.96   19.90
   4   0   7  451.75   21.80
  -5   0  -7  133.09   12.50
  -5   0  -7  114.19   12.10
  -5   0  -7  120.19   12.20
   5   0   7  128.29   15.60
  -6   0  -7   34.70    9.90
  -6   0  -7   22.10    8.10
  -6   0  -7   37.90    9.40
   6   0   7   40.40   11.90
  -7   0  -7   26.00   10.20
  -7   0  -7   29.80    9.90
  -7   0  -7   26.30   15.50
   7   0   7   32.90   11.20
  -8   0  -7  229.28   20.90
  -8   0  -7  176.38   19.90
   8   0   7  203.38   22.80
  -9   0  -7  474.35   33.30
  -9   0  -7  384.56   31.10
   9   0   7  444.96   30.60
 -10   0  -7   50.09   18.20
 -10   0  -7   80.69   20.70
  10   0   7   88.49   21.30
   9  -1  -7   51.19   17.70
  -9   1   7   89.09   20.90
   8  -1  -7   13.70   11.90
  -8   1   7   54.69   15.00
   7  -1  -7   34.10   10.50
  -7   1   7   39.80    8.80
  -7   1   7   52.79   14.40
   6  -1  -7    1.10   12.50
   6  -1  -7   -8.40    7.30
  -6   1   7    8.90    6.70
  -6   1   7   -5.40   12.20
   5  -1  -7   44.80    8.60
   5  -1  -7   38.60   11.20
  -5   1   7   36.20    7.40
  -5   1   7   34.00   14.90
   4  -1  -7   14.40    8.40
   4  -1  -7   16.60    6.20
  -4   1   7    4.70    9.70
  -4   1   7   10.90    5.70
  -4   1   7   24.00    9.60
   3  -1  -7  195.38   11.50
   3  -1  -7  193.68   15.70
  -3   1   7  193.78   10.30
  -3   1   7  171.78   17.30
  -3   1   7  199.28   14.50
   2  -1  -7  779.82   28.70
   2  -1  -7  739.93   24.80
  -2   1   7  713.23   24.00
  -2   1   7  766.72   22.90
  -2   1   7  746.53   27.20
  -2   1   7  751.02   29.90
   1  -1  -7 5161.88  134.99
   1  -1  -7 5237.08  137.49
  -1   1   7 5124.29  132.89
  -1   1   7 5113.49  139.49
  -1   1   7 5127.39  132.79
  -1   1   7 5201.88  135.39
   0  -1  -7 2464.55   70.79
   0  -1  -7 2491.45   70.69
   0   1   7 2665.43   69.19
   0   1   7 2645.94   68.99
   0   1   7 2573.44   68.99
   0   1   7 2651.33   73.59
  -1  -1  -7  352.06   11.80
  -1  -1  -7  315.17   14.60
   1   1   7  361.46   11.20
   1   1   7  328.07   14.60
   1   1   7  349.27   13.30
  -2  -1  -7   19.30    5.10
  -2  -1  -7   13.70    4.30
  -2  -1  -7   13.90    4.70
  -2  -1  -7   26.20    6.70
  -3  -1  -7   30.70    5.90
  -3  -1  -7   36.50    7.00
  -3  -1  -7   33.60    6.20
   3   1   7   36.40    6.80
   3   1   7   28.30    4.10
   3   1   7   33.70    4.50
  -4  -1  -7  418.46   19.70
  -4  -1  -7  433.86   19.40
  -4  -1  -7  436.16   20.60
   4   1   7  439.16   19.40
   4   1   7  432.56   14.80
  -5  -1  -7  483.45   23.10
   5   1   7  487.95   18.20
   5   1   7  492.95   21.50
  -6  -1  -7   30.90    7.80
  -6  -1  -7   36.40    9.60
  -6  -1  -7   50.29   10.90
   6   1   7   36.90   10.30
  -7  -1  -7   29.80   11.50
  -7  -1  -7   27.20   10.70
  -7  -1  -7    8.30    7.90
   7   1   7   17.80    9.50
  -8  -1  -7   97.79   15.40
  -8  -1  -7  125.19   18.10
   8   1   7  111.79   17.00
  -9  -1  -7  238.88   23.80
  -9  -1  -7  302.07   27.10
   9   1   7  271.67   21.80
 -10  -1  -7   -7.50   12.60
 -10  -1  -7   11.90   15.40
  10   1   7    5.80   15.20
   8  -2  -7   18.70   12.40
  -8   2   7   37.40   16.80
   7  -2  -7   18.20   10.10
  -7   2   7   16.10    9.90
  -7   2   7   27.50   15.20
   6  -2  -7   79.39   13.10
  -6   2   7  108.09   13.00
  -6   2   7   70.79   17.60
   5  -2  -7  498.55   29.90
   5  -2  -7  494.85   21.90
  -5   2   7  532.85   19.60
  -5   2   7  464.85   31.00
  -5   2   7  432.36   31.40
   4  -2  -7 1281.27   40.40
   4  -2  -7 1332.77   48.20
  -4   2   7 1268.97   47.40
  -4   2   7 1312.47   38.00
  -4   2   7 1247.18   36.10
   3  -2  -7  113.99    9.20
   3  -2  -7   99.69   14.30
  -3   2   7  102.29    7.90
  -3   2   7  105.79   14.30
  -3   2   7   95.99   12.60
   2  -2  -7    2.00    3.70
   2  -2  -7    4.50    6.00
  -2   2   7    7.80    6.00
  -2   2   7   -2.10    6.60
  -2   2   7   -0.70    3.00
   1  -2  -7   16.10    3.70
   1  -2  -7   13.70    5.30
  -1   2   7    8.70    8.90
  -1   2   7   16.80    4.10
  -1   2   7   13.50    4.70
   0  -2  -7 1098.39   35.30
   0  -2  -7 1086.69   31.50
   0   2   7 1058.79   36.50
   0   2   7 1087.39   32.10
   0   2   7 1055.99   32.80
   0   2   7 1069.29   29.00
   0   2   7 1015.30   29.80
  -1  -2  -7 1486.15   44.20
  -1  -2  -7 1510.25   42.60
   1   2   7 1515.95   46.90
   1   2   7 1474.05   41.90
   1   2   7 1551.24   43.40
   1   2   7 1480.05   42.90
  -2  -2  -7   49.90    6.00
  -2  -2  -7   59.79    5.10
   2   2   7   48.10    5.50
   2   2   7   52.89    5.90
  -3  -2  -7  108.39    8.70
  -3  -2  -7  101.09   10.40
   3   2   7   85.59    7.90
   3   2   7  100.89    5.70
   3   2   7   98.79    8.20
   3   2   7   99.89    7.70
  -4  -2  -7  179.08   13.40
  -4  -2  -7  183.28   12.40
   4   2   7  197.08    9.20
   4   2   7  203.98   11.30
  -5  -2  -7  180.18   14.40
  -5  -2  -7  182.18   15.10
  -5  -2  -7  190.28   14.10
   5   2   7  199.98   11.20
   5   2   7  195.18   12.80
  -6  -2  -7   83.29   13.60
  -6  -2  -7   61.69    9.60
  -6  -2  -7   75.19   11.70
   6   2   7   61.79   10.80
   6   2   7   87.49   10.80
  -7  -2  -7  162.48   17.30
  -7  -2  -7  149.88   15.60
  -7  -2  -7  135.69   14.40
   7   2   7  178.18   15.30
   7   2   7  148.99   15.10
  -8  -2  -7   11.50   10.70
  -8  -2  -7   -6.70    7.60
   8   2   7    4.30    8.80
   8   2   7   13.80    8.60
  -9  -2  -7  429.86   27.70
   9   2   7  458.65   25.50
 -10  -2  -7  306.97   27.50
  10   2   7  365.16   27.70
  11   2   7   44.40   24.50
   8  -3  -7    2.10   13.30
  -8   3   7   35.80   19.40
   7  -3  -7   30.10   11.40
  -7   3   7   56.69   18.70
   6  -3  -7   -4.40    8.90
  -6   3   7   -6.90   15.40
  -6   3   7  -14.10    9.00
   5  -3  -7    2.20    7.20
   5  -3  -7    8.80   12.20
  -5   3   7  -12.50   13.90
  -5   3   7   -4.10   14.20
  -5   3   7   -2.40    7.20
  -5   3   7  -11.80    7.40
   4  -3  -7 1761.62   61.09
   4  -3  -7 1739.13   51.69
  -4   3   7 1666.43   62.09
  -4   3   7 1739.43   50.89
  -4   3   7 1744.83   49.40
  -4   3   7 1672.43   60.19
   3  -3  -7 1474.15   43.70
   3  -3  -7 1512.45   52.79
  -3   3   7 1365.96   58.99
  -3   3   7 1508.35   41.50
  -3   3   7 1547.05   45.00
  -3   3   7 1488.65   51.59
   2  -3  -7  132.89    7.10
   2  -3  -7  132.69    8.10
  -2   3   7  156.78   13.40
  -2   3   7  111.59   14.00
  -2   3   7  140.99    6.50
  -2   3   7  148.29   12.40
   1  -3  -7   40.50    4.80
   1  -3  -7   41.40    7.20
  -1   3   7   39.10   11.30
  -1   3   7   47.00    8.60
  -1   3   7   41.30    7.10
   0  -3  -7  160.28    7.40
   0  -3  -7  134.49   12.50
   0   3   7  146.89   12.10
   0   3   7  134.49   15.50
   0   3   7  150.08   10.20
  -1  -3  -7   28.30    6.40
   1   3   7   33.50    6.60
   1   3   7   27.10    3.00
   1   3   7   31.70    3.10
   1   3   7   19.90    5.50
   1   3   7   20.40    6.40
  -2  -3  -7  202.58   10.30
  -2  -3  -7  202.78    9.00
   2   3   7  214.98   13.60
   2   3   7  195.78   11.30
   2   3   7  196.88    8.30
   2   3   7  196.88   11.20
  -3  -3  -7   75.39    6.80
  -3  -3  -7   55.19    8.30
  -3  -3  -7   46.30    9.00
   3   3   7   60.49    5.50
   3   3   7   60.89    6.80
   3   3   7   57.39    8.50
  -4  -3  -7  130.59    9.80
  -4  -3  -7  125.09   12.40
   4   3   7  138.99   10.20
   4   3   7  123.79    8.40
   4   3   7  144.99    9.60
  -5  -3  -7  782.62   28.50
   5   3   7  797.42   29.00
   5   3   7  774.32   26.00
   5   3   7  803.92   26.60
  -6  -3  -7 3063.09   91.29
  -6  -3  -7 3064.29   88.49
   6   3   7 3176.38   89.99
   6   3   7 3028.40   85.89
   6   3   7 3216.48   86.69
  -7  -3  -7 1221.58   45.40
  -7  -3  -7 1317.17   44.20
   7   3   7 1306.97   44.10
   7   3   7 1264.17   42.30
   7   3   7 1097.59   44.10
  -8  -3  -7   66.39   12.60
  -8  -3  -7   44.10   11.50
   8   3   7   41.80   11.40
   8   3   7   32.90    7.50
   8   3   7   52.39   10.60
  -9  -3  -7   -0.40    9.90
   9   3   7    7.90   10.00
   9   3   7  -10.60    8.00
 -10  -3  -7   65.19   17.60
  10   3   7   40.20   10.30
 -11  -3  -7   12.00   17.60
  11   3   7   43.60   15.60
  11   3   7   18.40   11.70
   8  -4  -7   18.20   15.40
   7  -4  -7  168.28   19.30
  -7   4   7  250.87   35.90
   6  -4  -7  197.38   17.10
  -6   4   7  190.68   33.00
   5  -4  -7    4.90    8.50
  -5   4   7  -11.70   11.60
  -5   4   7    0.40   17.50
  -5   4   7   -9.00    8.90
   4  -4  -7  504.65   21.30
   4  -4  -7  565.64   30.90
  -4   4   7  499.85   22.60
  -4   4   7  537.55   24.70
  -4   4   7  480.05   32.10
  -4   4   7  509.35   34.20
   3  -4  -7   48.20    6.60
   3  -4  -7   42.90   10.70
  -3   4   7   56.89    7.50
  -3   4   7   52.29   10.50
  -3   4   7   51.89   13.50
   2  -4  -7  146.99   14.10
   2  -4  -7  111.59    7.60
  -2   4   7  101.09   13.80
  -2   4   7   92.39   14.00
  -2   4   7  123.59   13.80
   1  -4  -7   -0.40    2.90
   1  -4  -7    5.40    6.90
  -1   4   7   -1.60    6.20
  -1   4   7   -9.50    5.50
  -1   4   7    1.20    9.20
   0  -4  -7   -5.50    5.90
   0   4   7    3.60    9.70
   0   4   7   -2.70    6.80
   0   4   7   12.10    4.80
  -1  -4  -7  171.78   15.20
   1   4   7  169.08   12.70
   1   4   7  149.88   13.90
   1   4   7  165.08   14.50
  -2  -4  -7 1701.13   45.30
  -2  -4  -7 1756.92   52.19
   2   4   7 1680.23   44.40
   2   4   7 1602.14   51.79
   2   4   7 1721.83   53.99
   2   4   7 1694.83   50.49
  -3  -4  -7 1658.93   46.20
  -3  -4  -7 1682.73   49.20
   3   4   7 1612.44   50.49
   3   4   7 1699.83   52.79
   3   4   7 1697.43   50.29
   3   4   7 1594.04   44.00
  -4  -4  -7   68.79    8.00
  -4  -4  -7   54.29    7.30
   4   4   7   67.19    5.70
   4   4   7   85.89    9.60
   4   4   7   62.09    9.50
  -5  -4  -7   25.40    5.60
  -5  -4  -7   33.40   11.10
   5   4   7   19.30    7.20
   5   4   7   31.10    5.10
  -6  -4  -7  164.48   12.00
  -6  -4  -7  135.59   15.30
   6   4   7  157.58   12.10
   6   4   7  168.98   12.60
   6   4   7  157.38   11.20
  -7  -4  -7  497.35   23.20
  -7  -4  -7  500.55   27.20
   7   4   7  497.35   23.80
   7   4   7  477.85   22.90
   7   4   7  488.65   21.20
  -8  -4  -7  549.25   29.90
  -8  -4  -7  563.24   26.50
   8   4   7  560.54   28.30
   8   4   7  489.05   25.30
   8   4   7  565.94   24.70
  -9  -4  -7   41.20   12.20
   9   4   7   58.99   10.80
   9   4   7   63.39   10.90
 -10  -4  -7  192.58   21.60
  10   4   7  216.88   20.60
  10   4   7  192.48   15.80
 -11  -4  -7   -5.10   14.20
  11   4   7    5.90   12.30
  11   4   7    6.00   10.10
   8  -5  -7  108.49   31.10
   7  -5  -7   14.70   13.30
   6  -5  -7  121.49   16.80
  -6   5   7  103.29   25.30
  -5   5   7   38.50   21.70
   4  -5  -7   44.10   13.80
  -4   5   7   17.40   12.10
  -4   5   7  -13.80   14.30
   3  -5  -7  540.55   30.40
   3  -5  -7  523.65   20.10
  -3   5   7  582.14   26.80
  -3   5   7  532.85   31.90
  -3   5   7  519.05   29.90
   2  -5  -7  172.68    9.80
   2  -5  -7  175.38   18.00
  -2   5   7  205.68   19.30
  -2   5   7  196.78   17.50
  -2   5   7  196.18   17.60
   1  -5  -7   74.29   13.80
   1  -5  -7   45.00    4.90
  -1   5   7   40.00   11.80
  -1   5   7   48.20   10.90
  -1   5   7   39.40   10.00
   0  -5  -7   13.10    8.20
   0   5   7   24.60    6.70
   0   5   7   10.80    8.80
   1   5   7   11.90    6.60
   1   5   7   19.70    8.00
   1   5   7   12.30   10.10
  -2  -5  -7   60.99   10.80
  -2  -5  -7   56.79    3.70
   2   5   7   64.99   10.40
   2   5   7   49.00   10.30
   2   5   7   43.00    9.40
  -3  -5  -7 3095.79   79.39
  -3  -5  -7 3059.89   85.99
   3   5   7 2973.10   86.89
   3   5   7 2940.31   87.69
   3   5   7 2966.90   85.09
  -4  -5  -7 3375.06   89.99
  -4  -5  -7 3352.76   93.59
   4   5   7 3419.66   86.59
   4   5   7 3411.36   97.19
   4   5   7 3263.57   93.99
   4   5   7 3334.37   95.19
  -5  -5  -7  190.38   11.30
   5   5   7  205.18   15.00
   5   5   7  205.08    9.70
   5   5   7  188.98   13.90
  -6  -5  -7  119.59   15.60
  -6  -5  -7  101.19    9.40
   6   5   7  119.59   11.40
   6   5   7   92.19    8.80
   6   5   7   94.89   11.30
  -7  -5  -7   22.20    5.90
  -7  -5  -7   37.50   11.80
   7   5   7   31.70    7.30
   7   5   7   32.10    8.50
   7   5   7   21.70    8.10
  -8  -5  -7   21.10    8.20
  -8  -5  -7   21.50   11.10
   8   5   7   42.40    8.10
   8   5   7   19.30    9.50
   8   5   7   32.80    8.80
  -9  -5  -7   36.00   14.40
   9   5   7   21.50    9.50
   9   5   7   33.90   10.20
 -10  -5  -7    6.10   14.20
  10   5   7   27.30   10.20
  10   5   7   19.10    9.70
 -11  -5  -7  -12.40   16.00
  11   5   7   32.00   12.30
  11   5   7    2.60   13.90
   7  -6  -7  107.79   16.70
   6  -6  -7  259.37   19.80
  -6   6   7  205.88   39.40
   5  -6  -7   25.40    9.80
  -5   6   7   19.30   20.70
  -5   6   7   -2.90   19.30
   4  -6  -7   -3.30    8.70
  -4   6   7   25.90   19.60
  -4   6   7   11.20   13.70
   3  -6  -7    7.30   12.80
   3  -6  -7   26.60    5.60
   3  -6  -7   11.30    6.70
  -3   6   7   30.80   12.00
  -3   6   7   39.90   15.40
  -3   6   7    9.40   13.40
   2  -6  -7   46.50    7.00
   2  -6  -7   62.19   12.40
  -2   6   7   38.20   24.60
  -2   6   7   36.60   11.10
   1  -6  -7  589.34   31.60
   1  -6  -7  593.64   18.20
  -1   6   7  594.84   34.50
  -1   6   7  593.64   29.10
  -1   6   7  553.84   30.70
   0  -6  -7 1472.75   52.99
   0   6   7 1298.17   50.69
   0   6   7 1320.77   45.50
   0   6   7 1364.66   51.99
  -1  -6  -7  568.84   29.20
   1   6   7  563.64   23.70
   1   6   7  505.95   28.00
   1   6   7  496.45   27.90
  -2  -6  -7    0.30    6.60
   2   6   7   18.50    7.10
   2   6   7    5.60    9.90
   2   6   7   -1.00    7.00
  -3  -6  -7  343.07   11.90
   3   6   7  268.87   21.90
   3   6   7  337.37   22.20
   3   6   7  353.96   21.00
  -4  -6  -7   55.59    6.50
   4   6   7   62.39   11.80
   4   6   7   29.70   12.10
   4   6   7   56.29   10.80
  -5  -6  -7  110.19   12.60
  -5  -6  -7   87.79    8.20
   5   6   7   87.39    6.80
   5   6   7   68.59   11.00
   5   6   7   70.49   12.60
  -6  -6  -7   35.50    5.90
   6   6   7   39.30    6.10
   6   6   7   37.60    9.30
  -7  -6  -7  155.68   12.00
  -7  -6  -7  202.98   19.80
   7   6   7  181.18   12.60
   7   6   7  182.68   15.80
  -8  -6  -7  169.78   20.70
  -8  -6  -7   99.99   12.80
   8   6   7  123.29   13.00
   8   6   7  132.99   18.00
   8   6   7  136.89   14.40
  -9  -6  -7  706.73   34.80
   9   6   7  690.43   31.70
   9   6   7  751.62   30.00
 -10  -6  -7  258.87   25.40
  10   6   7  228.98   19.90
  10   6   7  261.17   21.30
 -11  -6  -7    4.00   14.80
  11   6   7   -4.50   12.40
  11   6   7   17.70   13.10
  12   6   7    0.00   19.20
   5  -7  -7   47.90   11.60
  -5   7   7   91.89   33.10
  -5   7   7   29.90   23.30
   4  -7  -7  145.99   15.10
  -4   7   7  236.78   37.20
   3  -7  -7   -0.60    6.80
  -3   7   7   14.50   17.10
  -3   7   7   10.60   11.90
   2  -7  -7   -0.30    5.10
   2  -7  -7   12.20   13.60
  -2   7   7    0.40   10.70
  -2   7   7   35.00   17.20
  -2   7   7   -9.50   10.70
   1  -7  -7  222.48    9.80
   1  -7  -7  220.98   22.30
  -1   7   7  219.88   22.90
  -1   7   7  199.28   18.60
  -1   7   7  220.88   29.20
   0  -7  -7   -3.20   11.20
   0   7   7   -1.10   12.50
   0   7   7   15.50   11.20
   0   7   7    2.40    9.40
  -1  -7  -7  809.12   37.30
   1   7   7  722.33   36.90
   1   7   7  781.92   32.20
   1   7   7  773.42   37.20
  -2  -7  -7   58.29   10.70
  -2  -7  -7   58.99    3.90
  -2  -7  -7   61.39    4.70
   2   7   7   59.29   10.00
   2   7   7   82.39   15.70
   2   7   7   67.39   14.40
  -3  -7  -7   34.50    5.70
  -3  -7  -7   48.30    8.80
   3   7   7   42.40    9.70
   3   7   7   39.70   12.10
   3   7   7   28.10    9.50
  -4  -7  -7  412.06   16.30
  -4  -7  -7  436.56   24.00
   4   7   7  421.96   24.50
   4   7   7  428.96   23.70
   4   7   7  391.46   26.10
  -5  -7  -7  352.66   21.80
  -5  -7  -7  368.46   16.00
   5   7   7  362.26   12.80
   5   7   7  359.46   21.20
   5   7   7  328.97   21.50
   5   7   7  345.17   24.50
  -6  -7  -7  115.49   10.60
   6   7   7  111.69    9.00
   6   7   7  107.89   15.80
   6   7   7   85.69   13.80
   6   7   7  110.39   17.70
  -7  -7  -7   -3.20    5.90
   7   7   7   -5.30    5.70
   7   7   7    2.40    9.60
   7   7   7    5.90   11.30
  -8  -7  -7   -9.50    7.00
   8   7   7   21.80   10.10
   8   7   7   -7.80   12.50
  -9  -7  -7  187.98   22.10
   9   7   7  165.88   15.70
   9   7   7  180.78   19.90
 -10  -7  -7  487.05   34.30
  10   7   7  528.75   26.20
  10   7   7  516.45   30.80
 -11  -7  -7  590.64   39.70
  11   7   7  629.24   36.00
  11   7   7  605.84   31.40
 -12  -7  -7   77.19   28.00
  12   7   7   80.39   19.80
  -5   8   7   64.49   29.20
  -4   8   7   42.00   27.40
  -4   8   7   75.69   20.10
  -3   8   7  188.68   22.00
  -2   8   7  -10.00   13.30
  -2   8   7   15.90   13.90
   1  -8  -7    5.80   15.10
  -1   8   7    8.50   13.30
  -1   8   7   -9.60    9.70
   0  -8  -7  378.66   29.70
   0   8   7  309.87   24.70
   0   8   7  365.06   25.50
   0   8   7  322.77   34.30
  -1  -8  -7  702.63   37.00
   1   8   7  729.43   33.00
   1   8   7  830.22   41.00
   1   8   7  709.33   36.50
  -2  -8  -7   86.29    6.20
  -2  -8  -7   72.49   12.60
   2   8   7  127.79   19.80
   2   8   7   84.59   13.80
   2   8   7  122.09   21.40
  -3  -8  -7    4.10    4.30
  -3  -8  -7  -10.20    8.60
   3   8   7   15.50   10.50
   3   8   7   19.60   13.00
  -4  -8  -7   93.79   13.80
  -4  -8  -7  105.19    9.70
   4   8   7   95.99   15.90
   4   8   7  127.09   20.30
   4   8   7  134.99   18.70
  -5  -8  -7  -12.00    9.30
  -5  -8  -7    4.10    5.60
   5   8   7    7.10    8.80
   5   8   7    3.80   11.30
   5   8   7   -2.00    9.50
   5   8   7    1.30    4.80
  -6  -8  -7  571.24   22.80
  -6  -8  -7  569.24   28.70
   6   8   7  533.55   27.60
   6   8   7  510.25   31.10
   6   8   7  582.44   19.50
   6   8   7  539.25   28.30
  -7  -8  -7 1086.79   37.80
   7   8   7 1199.78   51.09
   7   8   7 1074.49   42.20
   7   8   7 1088.19   34.50
   7   8   7 1086.29   44.40
  -8  -8  -7  411.76   22.20
   8   8   7  417.76   20.30
   8   8   7  412.56   26.70
   8   8   7  407.06   24.50
   9   8   7   25.20   13.20
   9   8   7   -4.50    8.80
  10   8   7    4.20   10.40
  10   8   7   44.80   17.80
  11   8   7   31.30   18.20
  11   8   7  -10.70   12.00
 -12  -8  -7   18.90   24.50
  12   8   7    3.90   16.60
  -4   9   7  331.67   38.10
  -3   9   7  619.24   36.60
  -3   9   7  488.65   62.69
  -2   9   7   36.00   18.50
  -2   9   7   30.60   14.90
  -1   9   7   -1.50   14.80
  -1   9   7   -7.90   14.50
   0   9   7   -2.30   14.50
   0   9   7  -12.40   11.00
  -1  -9  -7   -9.60   12.90
   1   9   7    2.20   11.90
   1   9   7   -5.10   11.20
   1   9   7    0.40   28.60
  -2  -9  -7   85.99   14.40
  -2  -9  -7  116.39    7.80
   2   9   7  170.88   26.90
   2   9   7  113.69   18.00
   2   9   7  121.29   17.20
  -3  -9  -7  513.25   28.70
   3   9   7  624.34   33.10
   3   9   7  505.15   26.90
   3   9   7  528.25   33.50
  -4  -9  -7   -7.70   10.90
  -4  -9  -7    0.20    5.40
   4   9   7  -15.30    7.90
   4   9   7   20.40   12.30
   4   9   7   12.60   13.70
  -5  -9  -7   -0.10   11.30
  -5  -9  -7    7.70    6.40
   5   9   7  -22.10   12.80
   5   9   7   27.70   13.90
   5   9   7   -3.60    8.50
  -6  -9  -7   36.30    8.50
  -6  -9  -7   26.80   11.90
   6   9   7   46.10   14.00
   6   9   7   45.60    7.90
   6   9   7   29.70   12.30
  -7  -9  -7    7.20    8.00
   7   9   7    4.00   10.20
   7   9   7   14.60    6.90
   7   9   7    7.40   12.60
  -8  -9  -7  388.86   24.10
   8   9   7  416.76   25.60
   8   9   7  413.76   20.90
   8   9   7  456.55   28.60
   9   9   7   72.89   18.00
   9   9   7   70.69   11.80
  10   9   7  138.79   18.50
  10   9   7   95.79   15.00
  11   9   7   41.40   14.70
  11   9   7   74.99   28.10
  11   9   7    6.50   13.90
  12   9   7  111.69   22.30
  -3  10   7  101.49   23.90
  -2  10   7  185.28   27.00
  -1  10   7   69.49   18.60
  -1  10   7   61.89   20.80
   0  10   7   -0.50   16.30
   0  10   7  -20.90   13.90
   1  10   7   12.00   16.80
   2  10   7   85.09   16.80
   2  10   7   55.49   14.90
  -3 -10  -7   15.70    5.50
   3  10   7   24.00   11.70
   3  10   7    4.80   13.00
  -4 -10  -7  500.15   20.20
   4  10   7  531.25   34.50
   4  10   7  492.55   27.20
  -5 -10  -7   89.79   12.80
   5  10   7   86.49   14.30
   5  10   7  110.79   18.80
  -6 -10  -7   21.50    8.20
   6  10   7    2.50   10.00
   6  10   7   55.59   17.20
  -7 -10  -7   98.39   17.00
   7  10   7  161.98   21.70
   7  10   7  138.69   19.60
   8  10   7  253.37   22.20
   8  10   7  285.87   25.40
   9  10   7   74.29   14.70
   9  10   7  130.59   18.90
   9  10   7  104.79   19.80
  10  10   7   20.00   12.80
  10  10   7   17.70   21.20
  10  10   7   13.90   12.10
  11  10   7    1.00   14.90
  11  10   7   -4.50   14.60
  12  10   7   15.10   21.90
  -1  11   7   51.29   22.60
   0  11   7   16.00   21.50
   0  11   7   18.10   18.90
   1  11   7   26.80   18.90
   1  11   7   -6.40   14.50
   2  11   7   29.20   18.60
   3  11   7  220.18   25.70
   3  11   7  301.57   30.60
   4  11   7  478.35   29.70
   4  11   7  482.35   33.30
  -5 -11  -7   27.70    8.50
   5  11   7   22.70   13.90
   5  11   7   39.40   17.10
  -6 -11  -7   12.80    8.90
   6  11   7   13.90   12.10
   6  11   7   33.50   17.40
  -7 -11  -7   14.90   10.80
   7  11   7   47.20   18.30
   7  11   7    3.20   11.20
   8  11   7   -5.00   13.40
   8  11   7   21.90   15.70
   9  11   7   96.39   18.00
   9  11   7   83.49   21.10
  10  11   7   91.99   17.50
  11  11   7   37.80   17.90
   2  12   7   23.20   27.20
   3  12   7   23.20   20.50
   4  12   7  156.18   27.10
   4  12   7  126.39   19.30
   5  12   7   87.59   19.00
   5  12   7   60.89   18.50
   6  12   7  161.08   29.00
   6  12   7   89.79   18.20
   7  12   7   39.00   18.00
   8  12   7   27.90   19.10
   9  12   7    5.30   19.90
  10  12   7   -5.20   20.90
  11  12   7  120.49   39.60
   4  13   7  -12.80   16.30
   5  13   7   17.20   16.10
   6  13   7   40.60   19.00
   7  13   7   10.70   18.70
   8  13   7   62.49   22.90
   9  13   7   16.30   22.80
   4  11  -8  139.89   22.70
   3  11  -8   24.20   21.30
   4  10  -8   60.59   16.90
   3  10  -8  162.78   25.30
   2  10  -8  128.69   21.00
   1  10  -8   18.90   20.30
   5   9  -8   39.70   24.10
   4   9  -8  153.68   21.90
   4   9  -8  152.18   25.30
   3   9  -8  219.38   27.30
   3   9  -8  259.97   23.30
   2   9  -8  213.28   24.30
   2   9  -8  166.78   25.20
   1   9  -8    5.50   15.70
   1   9  -8  -23.90   16.30
   0   9  -8   37.40   18.80
   0   9  -8   23.10   18.00
  -1   9  -8   47.50   20.00
  -2   9  -8  104.19   19.90
  -3   9  -8   73.79   22.10
   6   8  -8   48.30   20.40
   5   8  -8   54.49   18.60
   4   8  -8   10.30   11.50
   4   8  -8    7.80   16.40
   3   8  -8   71.69   17.00
   3   8  -8   67.39   13.70
   2   8  -8  221.38   21.30
   2   8  -8  217.38   22.80
   1   8  -8  122.49   19.90
   1   8  -8  132.39   20.40
   0   8  -8   -2.00   14.00
   0   8  -8    0.60   14.30
   0   8  -8    2.90   13.30
  -1   8  -8   80.89   18.80
  -1   8  -8   84.69   13.50
  -1   8  -8   66.49   17.40
  -2   8  -8   -7.10   13.50
  -2   8  -8   24.70   17.10
  -2   8  -8   18.60   18.60
  -3   8  -8   71.99   18.50
  -3   8  -8   48.90   23.90
  -4   8  -8  108.59   22.20
   7   7  -8   18.60   18.50
   6   7  -8  361.26   27.60
   5   7  -8 1530.95   57.69
   4   7  -8   92.59   16.20
   4   7  -8   86.59   12.10
   3   7  -8   -0.40    9.90
   3   7  -8    4.20   12.50
   2   7  -8   28.00   13.40
   2   7  -8    8.60   10.10
   1   7  -8  235.98   23.70
   1   7  -8  275.87   21.10
   1   7  -8  234.88   21.40
   0   7  -8  418.46   27.30
   0   7  -8  439.16   19.90
   0   7  -8  486.75   28.20
  -1   7  -8  503.25   25.10
  -1   7  -8  536.45   31.10
  -1   7  -8  517.65   30.70
  -2   7  -8   75.59   17.80
  -2   7  -8   62.19   13.60
  -2   7  -8   58.29   15.20
  -3   7  -8   39.10   15.10
  -3   7  -8   22.70   16.90
  -4   7  -8  106.09   19.50
  -4   7  -8   90.69   23.10
   4  -7   8   85.39   21.30
  -5   7  -8   48.30   20.40
   8   6  -8  170.88   33.00
   7   6  -8    6.90   13.30
   6   6  -8  -20.90   12.00
   5   6  -8  146.29   18.70
   4   6  -8  477.15   27.30
   4   6  -8  448.76   19.90
   3   6  -8   86.59   13.20
   3   6  -8   96.99   12.30
   3   6  -8  118.79   18.60
   2   6  -8   16.50    6.20
   2   6  -8   18.00    9.40
   2   6  -8   15.90   10.80
   1   6  -8  -10.40    9.40
   1   6  -8   -8.70    5.40
   1   6  -8   -1.50    5.50
   1   6  -8    7.20    9.10
   0   6  -8   67.09    9.10
   0   6  -8   73.59   12.10
   0   6  -8   45.10   11.70
  -1   6  -8   74.89   13.20
  -1   6  -8   86.29   15.60
  -1   6  -8   86.69   12.40
  -2   6  -8   18.80   11.20
  -2   6  -8   14.30   13.10
  -2   6  -8   20.90   10.00
  -3   6  -8   16.70   12.10
  -3   6  -8   22.90   13.80
  -4   6  -8  103.89   17.90
  -4   6  -8   88.39   18.30
   4  -6   8   94.79   16.80
  -5   6  -8  281.27   30.90
  -5   6  -8  262.27   30.10
   5  -6   8  237.38   30.20
  -6   6  -8   19.30   20.10
   8   5  -8  241.38   27.50
   7   5  -8  413.66   25.90
   6   5  -8   23.30   10.50
   5   5  -8   10.60    9.40
   4   5  -8    6.10   10.70
   4   5  -8    2.50    9.00
   4   5  -8    5.90    4.90
  -4  -5   8   14.80   12.00
   3   5  -8  149.88   14.60
   3   5  -8  171.58   12.00
   3   5  -8  167.58   17.80
  -3  -5   8  181.88   20.10
   2   5  -8  239.78   19.40
   2   5  -8  235.58   13.70
   2   5  -8  210.58   14.80
  -2  -5   8  257.57   21.70
   1   5  -8   68.89    8.50
   1   5  -8   52.49   14.10
   1   5  -8   49.70    8.50
   1   5  -8   39.70    9.10
  -1  -5   8   64.19   12.90
   0   5  -8  105.59    9.70
   0   5  -8  122.69   16.10
   0   5  -8  121.29   14.90
   0  -5   8  121.69   18.30
  -1   5  -8  882.31   38.00
  -1   5  -8  842.52   34.30
  -1   5  -8  848.42   30.80
   1  -5   8  925.81   42.00
  -2   5  -8 1730.13   58.79
  -2   5  -8 1835.32   64.09
  -2   5  -8 1758.92   57.69
  -3   5  -8  163.48   18.10
  -3   5  -8  152.08   18.80
  -4   5  -8   44.80   11.80
  -4   5  -8   30.00   12.20
   4  -5   8   54.99   13.30
  -5   5  -8   10.30   11.90
  -5   5  -8   -0.20   14.10
   5  -5   8   25.40   15.60
  -6   5  -8  166.88   29.20
  -6   5  -8  109.89   18.50
   6  -5   8  100.29   21.20
   8   4  -8   11.60   14.20
   7   4  -8   52.79   14.00
   6   4  -8  193.58   19.30
   5   4  -8   47.90   11.70
   5   4  -8   58.79   11.20
  -5  -4   8   44.50   11.70
   4   4  -8  320.47   19.40
   4   4  -8  296.57   20.40
  -4  -4   8  305.47   20.60
   3   4  -8  350.16   20.70
   3   4  -8  345.97   13.40
   3   4  -8  351.86   19.10
  -3  -4   8  329.47   21.60
   2   4  -8 2159.18   61.19
   2   4  -8 2199.28   62.29
   2   4  -8 2135.49   68.59
  -2  -4   8 2215.48   68.79
   1   4  -8  839.82   35.50
   1   4  -8  877.71   27.30
   1   4  -8  849.81   29.80
  -1  -4   8  843.82   35.50
   0   4  -8   25.10    7.80
   0   4  -8   12.00    9.40
   0   4  -8   25.40    5.90
   0  -4   8   10.10    9.30
  -1   4  -8   19.30    9.60
  -1   4  -8   25.60   10.60
  -1   4  -8   21.80    5.70
   1  -4   8   36.80   11.60
  -2   4  -8  353.66   20.40
  -2   4  -8  350.56   18.50
  -2   4  -8  354.76   23.40
   2  -4   8  366.06   23.70
  -3   4  -8  447.86   24.20
  -3   4  -8  470.55   28.00
  -3   4  -8  477.65   24.40
  -4   4  -8  165.98   18.40
  -4   4  -8  168.68   16.50
   4  -4   8  168.58   20.00
  -5   4  -8   33.70   10.90
  -5   4  -8   46.70   13.50
   5  -4   8   30.30   11.80
  -6   4  -8   33.90   14.40
  -6   4  -8   21.20   11.90
   6  -4   8   37.50   18.10
  -7   4  -8   -8.60   13.80
  -7   4  -8    7.50   17.70
   7  -4   8  -11.10   17.30
   8   3  -8    8.60   13.30
   7   3  -8   13.90   11.90
   6   3  -8  110.59   15.60
  -6  -3   8  139.49   16.10
   5   3  -8  194.58   16.20
   5   3  -8  225.58   17.60
  -5  -3   8  212.38   17.00
   4   3  -8    4.30    7.20
   4   3  -8  -12.70    6.80
  -4  -3   8   -1.50    7.90
   3   3  -8   34.70    6.80
   3   3  -8   20.10    3.40
   3   3  -8   11.30    8.10
  -3  -3   8   21.20    8.10
   2   3  -8  261.57   11.00
   2   3  -8  253.07   18.30
   2   3  -8  279.07   14.60
  -2  -3   8  267.07   17.10
  -2  -3   8  256.97   15.50
   1   3  -8 1359.26   40.50
   1   3  -8 1419.46   39.70
   1   3  -8 1146.29   49.50
  -1  -3   8 1377.36   46.50
  -1  -3   8 1441.06   40.50
   0   3  -8 1344.97   41.10
   0   3  -8 1198.58   50.59
   0   3  -8 1408.06   42.30
   0  -3   8 1416.56   48.10
  -1   3  -8   10.60    6.30
  -1   3  -8   -6.80    8.30
  -1   3  -8    5.60    4.80
   1  -3   8   13.70    8.10
  -2   3  -8    6.70    9.30
  -2   3  -8    3.20    8.00
  -2   3  -8    8.00    5.50
   2  -3   8    9.00    8.80
  -3   3  -8   -8.00    7.10
  -3   3  -8   -0.60    7.30
  -3   3  -8    2.20    9.70
  -4   3  -8   61.19   10.90
  -4   3  -8   50.29   14.70
  -4   3  -8   68.29   11.40
   4  -3   8   62.59   12.70
  -5   3  -8  227.48   18.60
  -5   3  -8  219.98   20.60
   5  -3   8  224.18   22.50
  -6   3  -8   86.89   14.60
  -6   3  -8  109.09   18.00
   6  -3   8  134.79   20.50
  -7   3  -8   22.50   12.00
  -7   3  -8   38.50   17.10
   7  -3   8   23.90   15.30
  -8   3  -8  448.16   38.90
  -8   3  -8  424.76   35.10
   8  -3   8  415.76   38.60
   8   2  -8   23.50   12.10
   7   2  -8   -9.00   10.40
   6   2  -8   95.49   13.30
  -6  -2   8  117.49   15.60
  -6  -2   8  157.78   12.30
   5   2  -8 1608.54   53.89
   5   2  -8 1690.33   54.99
  -5  -2   8 1684.03   52.09
  -5  -2   8 1733.73   53.39
  -5  -2   8 1636.84   49.00
   4   2  -8 1338.17   45.10
   4   2  -8 1396.86   45.10
  -4  -2   8 1296.67   40.70
  -4  -2   8 1435.16   43.60
  -4  -2   8 1333.57   43.70
   3   2  -8    7.80    4.80
   3   2  -8   14.30    9.40
  -3  -2   8    2.30    6.70
   2   2  -8   37.20    5.70
   2   2  -8   31.10    5.10
   2   2  -8   40.40    9.00
  -2  -2   8   33.50    8.40
  -2  -2   8   36.60    7.60
   1   2  -8    6.90    3.50
   1   2  -8   -4.70    7.10
   1   2  -8    2.90    3.30
  -1  -2   8    5.60    4.70
  -1  -2   8    5.80    5.60
   0   2  -8   85.69   13.20
   0   2  -8   84.29    9.40
   0   2  -8   65.89    7.50
   0  -2   8   68.09   11.20
  -1   2  -8  485.05   23.90
  -1   2  -8  505.85   20.90
  -1   2  -8  515.85   20.60
   1  -2   8  582.04   26.10
  -2   2  -8  150.18   10.80
  -2   2  -8  127.19   14.20
  -2   2  -8  123.89   11.00
   2  -2   8  126.89   12.90
  -3   2  -8  433.96   21.20
  -3   2  -8  446.76   24.70
  -3   2  -8  460.25   21.30
  -4   2  -8  588.24   26.20
  -4   2  -8  595.04   27.00
   4  -2   8  530.85   28.90
  -5   2  -8 1631.44   57.69
  -5   2  -8 1574.94   53.19
  -5   2  -8 1566.34   54.89
   5  -2   8 1477.65   55.09
  -6   2  -8  424.56   25.80
  -6   2  -8  397.36   23.30
   6  -2   8  388.76   26.60
  -7   2  -8   -0.20   11.20
  -7   2  -8   25.90   11.30
   7  -2   8    4.10   13.80
  -8   2  -8   27.10   14.10
  -8   2  -8   13.90   14.00
   8  -2   8   -3.40   16.60
   8   1  -8   89.29   16.30
   7   1  -8   90.59   14.10
   6   1  -8   95.29   14.20
  -6  -1   8   80.89   11.60
  -6  -1   8   96.69   15.80
   5   1  -8  228.18   17.60
   5   1  -8  199.48   16.10
  -5  -1   8  196.88   17.70
  -5  -1   8  263.47   15.50
  -5  -1   8  209.98   19.50
   4   1  -8   17.80    7.40
   4   1  -8   15.50    6.20
  -4  -1   8   16.40    6.50
  -4  -1   8    5.20    8.30
  -4  -1   8   16.50    5.70
   3   1  -8  214.08   14.50
   3   1  -8  198.38   12.70
  -3  -1   8  215.68   13.90
  -3  -1   8  207.48   12.20
  -3  -1   8  241.48   13.40
   2   1  -8   38.40    7.20
   2   1  -8   39.00    7.50
  -2  -1   8   36.50    6.70
  -2  -1   8   68.29   11.80
   1   1  -8   25.70    7.40
   1   1  -8   25.00    4.50
  -1  -1   8   22.10    5.40
  -1  -1   8   28.20    6.80
   0   1  -8   16.10    4.40
   0   1  -8   17.10    7.10
   0  -1   8   19.40    6.70
  -1   1  -8  357.56   15.50
  -1   1  -8  372.16   19.30
  -1   1  -8  369.46   17.30
   1  -1   8  378.36   19.60
  -2   1  -8  343.07   16.70
  -2   1  -8  336.37   19.40
  -2   1  -8  327.07   16.10
  -3   1  -8   13.40    6.50
  -3   1  -8   13.90    7.30
  -3   1  -8   25.20    8.90
  -3   1  -8   18.70    5.90
  -4   1  -8   66.29    9.90
  -4   1  -8   50.29    9.10
  -4   1  -8   51.19    8.70
   4  -1   8   45.70   11.00
  -5   1  -8  785.32   33.80
  -5   1  -8  727.63   31.50
  -5   1  -8  765.12   31.40
   5  -1   8  743.93   33.30
  -6   1  -8  891.81   37.60
  -6   1  -8  857.21   35.90
  -6   1  -8  925.61   40.80
   6  -1   8  898.61   40.00
  -7   1  -8  632.94   31.30
  -7   1  -8  674.83   34.20
   7  -1   8  639.54   33.40
  -8   1  -8   28.20   14.50
  -8   1  -8    8.40   13.50
   8  -1   8   13.20   15.20
  -9   1  -8  112.29   20.90
  -9   1  -8   88.39   18.70
   9  -1   8  111.69   22.70
   8   0  -8   -1.80   12.40
   7   0  -8  233.78   18.40
  -7   0   8  289.67   24.70
  -7   0   8  237.38   21.60
   6   0  -8   10.40    8.70
  -6   0   8   13.80   13.90
  -6   0   8  -12.20    8.30
   5   0  -8   53.29    9.60
  -5   0   8   44.30    8.90
  -5   0   8   54.99   13.40
  -5   0   8   49.40   11.00
   4   0  -8  412.66   30.00
   4   0  -8  545.55   25.60
  -4   0   8  559.44   20.50
  -4   0   8  506.15   25.60
  -4   0   8  506.25   24.70
   3   0  -8   18.80    6.90
   3   0  -8   27.20    7.00
  -3   0   8   13.80    5.90
  -3   0   8   23.70    5.20
  -3   0   8   25.50    7.00
   2   0  -8   13.90    5.40
   2   0  -8    3.90    4.90
  -2   0   8    5.30    8.60
  -2   0   8    2.20    4.80
  -2   0   8   -3.00    4.00
   1   0  -8   30.70    6.30
   1   0  -8   31.60    5.80
  -1   0   8   23.00    8.30
  -1   0   8   27.40    4.10
  -1   0   8   30.00    4.30
  -1   0   8   24.40    5.10
   0   0  -8   33.00    4.20
   0   0  -8   41.10    7.30
   0   0   8   55.99    9.30
   0   0   8   40.00    6.20
   0   0   8   46.10    3.60
  -1   0  -8  630.04   22.20
  -1   0  -8  658.33   25.00
  -1   0  -8  637.84   25.30
   1   0   8  663.83   25.40
  -2   0  -8 4092.39  111.19
  -2   0  -8 4093.79  109.19
  -2   0  -8 3964.50  111.99
  -3   0  -8 3673.13  105.19
  -3   0  -8 3715.33  102.59
  -3   0  -8 3787.12  104.39
  -4   0  -8   63.19   14.50
  -4   0  -8   66.29   10.70
   4   0   8   67.69    5.10
   4   0   8   76.49   12.10
  -5   0  -8   70.99   11.00
  -5   0  -8   90.89   13.90
  -5   0  -8   63.69   12.40
   5   0   8   93.49    8.70
   5   0   8  121.79   16.30
  -6   0  -8   22.80    9.10
  -6   0  -8   13.50    8.00
  -6   0  -8   20.40    9.20
   6   0   8   27.00   11.30
  -7   0  -8   58.29   13.00
  -7   0  -8   60.89   10.80
   7   0   8   71.69   13.50
  -8   0  -8  103.29   16.50
  -8   0  -8  147.59   20.00
   8   0   8  142.39   22.00
  -9   0  -8    3.50   17.20
  -9   0  -8  -21.70   12.70
   9   0   8   -3.50   15.20
  -9   1   8  179.08   34.10
   8  -1  -8  241.08   23.10
  -8   1   8  354.96   29.20
   7  -1  -8  333.27   22.10
  -7   1   8  373.26   28.30
  -7   1   8  407.66   21.60
   6  -1  -8   27.80    9.10
  -6   1   8   -6.10   14.30
  -6   1   8   14.10    7.90
   5  -1  -8   -7.50   10.80
   5  -1  -8   -9.20    7.00
  -5   1   8   -7.20   11.00
  -5   1   8  -15.80   12.10
  -5   1   8    4.80    6.90
   4  -1  -8   94.49   11.10
  -4   1   8   82.89   14.10
  -4   1   8   85.69   10.30
  -4   1   8  112.29   17.90
   3  -1  -8   15.20    8.00
   3  -1  -8    7.40    5.50
  -3   1   8   31.40    8.10
  -3   1   8    4.00    8.40
  -3   1   8   19.10    5.00
   2  -1  -8  523.25   19.80
   2  -1  -8  517.55   23.00
  -2   1   8  525.55   17.70
  -2   1   8  533.85   25.50
  -2   1   8  504.85   22.10
   1  -1  -8 1451.15   43.00
   1  -1  -8 1449.95   44.60
  -1   1   8 1480.15   43.00
  -1   1   8 1424.86   40.60
  -1   1   8 1442.26   47.70
  -1   1   8 1383.06   40.30
   0  -1  -8  243.98   12.20
   0  -1  -8  252.57   13.20
   0   1   8  261.57   11.60
   0   1   8  251.57   11.30
   0   1   8  261.57   15.30
   0   1   8  242.58   11.30
  -1  -1  -8  104.19    5.80
  -1  -1  -8   92.79    9.60
   1   1   8  120.69   10.10
   1   1   8  114.29    7.30
   1   1   8  113.29    6.00
   1   1   8   90.39   13.00
  -2  -1  -8   34.30    7.90
  -2  -1  -8   56.99    7.60
  -3  -1  -8  132.39   13.40
  -3  -1  -8  125.89   10.50
  -3  -1  -8  113.39   11.40
  -4  -1  -8  313.17   17.20
  -4  -1  -8  326.17   18.60
  -4  -1  -8  315.07   17.30
   4   1   8  336.67   11.60
   4   1   8  333.27   17.80
  -5  -1  -8    0.60    6.40
  -5  -1  -8   12.80    6.10
  -5  -1  -8    4.80    7.70
   5   1   8    0.00    4.00
   5   1   8   13.60    8.60
  -6  -1  -8  283.37   20.00
  -6  -1  -8  256.07   18.90
  -6  -1  -8  252.77   17.50
   6   1   8  261.37   14.80
   6   1   8  286.07   18.10
  -7  -1  -8   82.79   14.80
  -7  -1  -8   75.69   14.40
  -7  -1  -8   55.19   10.90
   7   1   8   78.09   12.70
   7   1   8   72.19   13.50
  -8  -1  -8  191.28   18.20
  -8  -1  -8  218.78   21.10
   8   1   8  247.48   21.50
  -9  -1  -8   37.70   17.00
  -9  -1  -8    9.80   13.30
   9   1   8   31.40   13.60
 -10  -1  -8   13.80   18.90
 -10  -1  -8   -4.00   13.60
  10   1   8    5.70   16.80
   8  -2  -8    4.50   13.20
  -8   2   8   56.99   18.80
   7  -2  -8   15.70   11.30
  -7   2   8   49.50   18.60
   6  -2  -8  175.08   15.90
  -6   2   8  139.29   22.50
  -6   2   8  191.58   15.20
   5  -2  -8  144.39   13.60
  -5   2   8  124.29   20.00
  -5   2   8  182.68   11.90
   4  -2  -8    0.10    6.60
   4  -2  -8   18.60   10.10
  -4   2   8   12.80   11.60
  -4   2   8  -21.90   11.70
  -4   2   8    5.40    5.00
   3  -2  -8   13.10    8.90
   3  -2  -8    2.30    5.30
  -3   2   8   11.40    8.30
  -3   2   8   -9.70   14.20
  -3   2   8    1.50    4.80
   2  -2  -8   72.59    7.80
   2  -2  -8   62.89   11.50
  -2   2   8   98.69   15.40
  -2   2   8   72.99   11.70
  -2   2   8   69.39    8.00
  -2   2   8   66.79    6.60
   1  -2  -8   78.29   10.20
   1  -2  -8   89.19    7.80
  -1   2   8  101.09    8.00
  -1   2   8   94.59    5.30
  -1   2   8  108.39   10.60
  -1   2   8   83.19   14.30
   0  -2  -8 2087.69   61.29
   0  -2  -8 2067.29   57.89
   0   2   8 2141.09   58.79
   0   2   8 2035.90   54.99
   0   2   8 2081.19   63.79
   0   2   8 2090.49   58.19
  -1  -2  -8  231.18   12.20
  -1  -2  -8  222.78   11.10
   1   2   8  226.28   15.00
   1   2   8  236.18   10.40
   1   2   8  206.98   10.90
   1   2   8  229.68   11.60
  -2  -2  -8  222.08   11.00
  -2  -2  -8  222.68    9.40
   2   2   8  212.18   10.10
   2   2   8  220.58   11.20
  -3  -2  -8  743.33   26.60
  -3  -2  -8  738.63   29.40
   3   2   8  735.83   23.10
   3   2   8  782.92   26.80
   3   2   8  802.12   25.60
  -4  -2  -8   36.80    6.70
  -4  -2  -8   51.29   10.60
   4   2   8   52.29    6.80
   4   2   8   41.80    7.10
  -5  -2  -8   -1.70    5.40
  -5  -2  -8   -5.80    7.00
   5   2   8    5.70    3.60
   5   2   8   -4.10    6.10
  -6  -2  -8   63.39   10.60
  -6  -2  -8   66.49   12.40
   6   2   8   57.59   10.00
   6   2   8   90.19   12.50
  -7  -2  -8   24.20   10.00
  -7  -2  -8    9.40    9.50
  -7  -2  -8   19.80    9.00
   7   2   8   -4.40    8.40
   7   2   8   -7.30    7.40
  -8  -2  -8  776.72   35.60
   8   2   8  805.92   36.90
   8   2   8  778.42   33.50
  -9  -2  -8 1033.60   45.10
   9   2   8 1083.19   42.60
 -10  -2  -8  698.63   38.30
  10   2   8  740.03   36.00
   8  -3  -8    9.80   14.30
  -8   3   8    6.80   23.20
   7  -3  -8    1.60   10.50
  -7   3   8   18.80   19.40
   6  -3  -8   34.10    9.30
  -6   3   8   19.10   18.20
   5  -3  -8   -5.60    7.70
  -5   3   8    8.10   15.40
  -5   3   8    6.80    8.00
   4  -3  -8  303.57   15.80
   4  -3  -8  316.07   23.90
  -4   3   8  279.17   25.40
  -4   3   8  265.87   16.10
  -4   3   8  271.17   24.60
  -4   3   8  290.97   15.60
   3  -3  -8   -1.50    4.90
   3  -3  -8   11.10    9.20
  -3   3   8    9.90    6.30
  -3   3   8  -16.40    9.70
  -3   3   8    4.20    9.80
  -3   3   8   -1.00    4.10
   2  -3  -8  181.18   15.40
   2  -3  -8  190.78   10.50
  -2   3   8  161.08   13.90
  -2   3   8  192.78    7.30
  -2   3   8  192.58   16.00
   1  -3  -8 1095.89   39.50
   1  -3  -8 1135.09   32.40
  -1   3   8 1090.69   37.60
  -1   3   8 1136.59   34.80
  -1   3   8 1093.09   43.10
   0  -3  -8 1125.29   38.40
   0  -3  -8 1121.49   31.30
   0   3   8 1029.30   40.30
   0   3   8 1041.80   35.10
   0   3   8 1044.70   34.00
  -1  -3  -8   24.10    3.80
  -1  -3  -8   15.30    5.90
   1   3   8   11.10    5.30
   1   3   8   24.50    3.40
   1   3   8   19.20    7.90
   1   3   8   15.80    3.00
   1   3   8   20.20    6.70
  -2  -3  -8  122.09    8.40
   2   3   8  135.39   10.10
   2   3   8  128.79    9.90
   2   3   8  136.69    7.40
   2   3   8  121.49   11.70
  -3  -3  -8  353.06   13.90
  -3  -3  -8  342.47   14.70
   3   3   8  325.77   15.60
   3   3   8  350.46   15.00
   3   3   8  326.87   12.80
  -4  -3  -8   98.29    9.70
  -4  -3  -8  102.69   13.10
   4   3   8   80.39    9.50
   4   3   8   85.19    9.00
   4   3   8   91.49    7.90
  -5  -3  -8  714.33   26.80
  -5  -3  -8  648.74   29.10
   5   3   8  678.23   26.80
   5   3   8  679.93   23.70
   5   3   8  675.53   24.00
  -6  -3  -8 1165.38   43.30
  -6  -3  -8 1156.48   40.20
   6   3   8 1148.89   37.70
   6   3   8 1196.38   37.40
   6   3   8 1200.78   41.60
  -7  -3  -8  190.48   18.20
  -7  -3  -8  205.58   16.60
   7   3   8  195.48   15.10
   7   3   8  197.48   16.00
   7   3   8  180.58   15.10
  -8  -3  -8   60.39   13.30
  -8  -3  -8   56.59   23.30
   8   3   8   39.30   10.80
   8   3   8   44.50   10.00
   8   3   8   32.50    9.50
  -9  -3  -8   19.10   13.30
   9   3   8    7.40    7.90
   9   3   8   42.50   11.30
 -10  -3  -8   61.29   15.50
  10   3   8  125.49   20.40
  10   3   8   78.89   11.50
  11   3   8   95.69   17.50
  11   3   8  117.19   20.20
   8  -4  -8   -8.20   16.00
   7  -4  -8   35.30   12.50
  -7   4   8   48.20   24.90
   6  -4  -8   14.90   10.00
  -6   4   8    6.60   20.70
   5  -4  -8  436.96   21.30
  -5   4   8  406.16   36.80
   4  -4  -8  714.93   26.40
   4  -4  -8  663.63   46.20
  -4   4   8  764.52   29.70
  -4   4   8  733.73   26.00
  -4   4   8  692.33   40.00
   3  -4  -8   38.80   10.50
   3  -4  -8   33.00    6.00
  -3   4   8   29.20   12.60
  -3   4   8   52.09    6.00
  -3   4   8   45.00    9.10
  -3   4   8   32.50   10.20
   2  -4  -8   97.79   14.30
   2  -4  -8   57.69    6.90
  -2   4   8   61.09   11.10
  -2   4   8   58.39   13.70
  -2   4   8   79.19   13.60
   1  -4  -8  131.19    7.30
   1  -4  -8  106.19   14.10
  -1   4   8  120.99   17.70
  -1   4   8  108.19   17.90
  -1   4   8  139.59   12.20
   0  -4  -8   48.20    9.50
   0   4   8   43.20    6.90
   0   4   8   51.39    9.00
   0   4   8   45.70   12.40
  -1  -4  -8  231.48   17.00
   1   4   8  237.58   18.20
   1   4   8  211.48   16.10
   1   4   8  251.97   15.00
  -2  -4  -8  577.04   23.20
   2   4   8  569.64   16.60
   2   4   8  592.44   23.60
   2   4   8  579.74   26.00
   2   4   8  580.54   23.20
  -3  -4  -8   16.60    4.70
  -3  -4  -8   17.00    4.00
   3   4   8   12.60    6.20
   3   4   8   21.30    3.30
   3   4   8   18.40    5.20
   3   4   8   18.30    7.20
  -4  -4  -8   70.79    9.00
  -4  -4  -8   78.89    8.50
   4   4   8   68.59   10.60
   4   4   8   73.39    6.30
   4   4   8   59.89    9.20
  -5  -4  -8   17.40    5.60
  -5  -4  -8    9.20    8.90
   5   4   8   18.60    5.90
   5   4   8   13.00    6.10
   5   4   8   22.70    5.00
  -6  -4  -8  428.46   20.60
  -6  -4  -8  416.46   24.00
   6   4   8  407.16   20.70
   6   4   8  433.86   19.00
   6   4   8  432.86   17.90
  -7  -4  -8 1480.55   50.49
   7   4   8 1566.04   52.19
   7   4   8 1575.94   49.20
   7   4   8 1516.85   47.60
  -8  -4  -8  253.37   21.70
  -8  -4  -8  260.57   20.10
   8   4   8  248.68   17.00
   8   4   8  197.38   17.60
   8   4   8  199.68   19.40
  -9  -4  -8  245.18   23.10
   9   4   8  239.18   18.80
   9   4   8  215.88   18.50
 -10  -4  -8   47.00   16.40
  10   4   8   53.59   11.10
  10   4   8   73.09   14.10
 -11  -4  -8   20.80   18.40
  11   4   8   25.50   15.00
  11   4   8   18.80   11.80
   7  -5  -8    7.30   13.20
   6  -5  -8    1.70   10.50
  -6   5   8  -12.10   23.50
   5  -5  -8   98.09   14.60
  -5   5   8  104.79   26.60
   4  -5  -8  542.65   23.20
  -4   5   8  493.25   37.90
  -4   5   8  588.34   29.60
   3  -5  -8  470.35   19.00
   3  -5  -8  523.75   30.40
  -3   5   8  542.45   32.40
  -3   5   8  519.15   25.60
  -3   5   8  491.15   32.80
   2  -5  -8  252.97   11.60
   2  -5  -8  300.47   21.20
  -2   5   8  282.37   21.00
  -2   5   8  253.87   20.70
  -2   5   8  250.87   21.90
   1  -5  -8    4.30    8.40
   1  -5  -8   -2.90    3.20
  -1   5   8   -6.20    8.60
  -1   5   8   -4.50   10.30
  -1   5   8   12.20    8.50
   0   5   8   -1.00   10.00
   0   5   8    6.80    9.60
   0   5   8   -3.60    6.10
  -1  -5  -8   27.60    8.30
   1   5   8   22.40   10.90
   1   5   8   17.80    8.30
   1   5   8    7.80    6.80
  -2  -5  -8   22.00    7.20
   2   5   8   20.40   10.80
   2   5   8   32.00    8.00
   2   5   8   23.10    9.20
  -3  -5  -8 1684.63   45.90
  -3  -5  -8 1725.93   52.19
   3   5   8 1643.24   52.99
   3   5   8 1638.84   52.39
   3   5   8 1619.64   56.09
  -4  -5  -8   81.99   10.80
  -4  -5  -8   67.99    8.20
   4   5   8   73.49   12.30
   4   5   8   68.39   12.40
   4   5   8   54.09    9.50
   4   5   8   76.79    5.50
  -5  -5  -8  273.17   14.30
   5   5   8  254.87   17.20
   5   5   8  271.27   11.30
   5   5   8  260.97   16.90
  -6  -5  -8  586.94   23.60
  -6  -5  -8  568.04   29.30
   6   5   8  563.74   20.50
   6   5   8  573.24   25.70
   6   5   8  579.04   24.90
  -7  -5  -8  242.18   20.50
  -7  -5  -8  201.88   15.00
   7   5   8  258.37   16.70
   7   5   8  239.98   13.90
   7   5   8  225.98   17.60
  -8  -5  -8    1.10    8.50
  -8  -5  -8   -3.00   11.10
   8   5   8    8.20    7.60
   8   5   8    1.70    7.60
   8   5   8   10.30   10.00
  -9  -5  -8   13.00   14.00
   9   5   8    7.30    9.00
   9   5   8    5.50    7.70
 -10  -5  -8   31.50   16.50
  10   5   8   43.90   11.80
  10   5   8   62.49   13.40
 -11  -5  -8  132.89   26.80
  11   5   8  169.78   19.30
  11   5   8  187.18   21.70
   6  -6  -8  195.38   24.90
   5  -6  -8  -18.60    9.30
  -5   6   8   27.10   23.40
  -4   6   8  -12.60   20.50
  -4   6   8    9.00   15.30
   3  -6  -8   33.70    6.90
  -3   6   8   32.60   14.90
  -3   6   8   60.59   13.60
   2  -6  -8   39.50   13.60
   2  -6  -8   55.39    7.30
  -2   6   8    9.70   23.10
  -2   6   8   39.60   12.90
  -2   6   8   70.49   13.30
   1  -6  -8  137.39    7.00
   1  -6  -8  112.59   20.00
  -1   6   8  151.48   21.50
  -1   6   8  134.69   18.30
  -1   6   8   88.59   16.20
   0  -6  -8  112.09   20.30
   0   6   8   80.99   15.00
   0   6   8  101.79   13.70
   0   6   8   96.59   16.10
   1   6   8  165.78   19.30
   1   6   8  180.18   14.90
   1   6   8  185.68   22.20
  -2  -6  -8  646.54   31.80
   2   6   8  643.14   31.70
   2   6   8  586.74   39.20
  -3  -6  -8  604.54   26.90
  -3  -6  -8  627.94   18.90
   3   6   8  658.03   28.80
   3   6   8  586.54   29.00
   3   6   8  574.14   26.50
  -4  -6  -8   12.40    6.60
   4   6   8   20.20   10.50
   4   6   8    6.10    8.20
   4   6   8    4.40    8.40
  -5  -6  -8  207.18   15.70
  -5  -6  -8  214.48   11.80
   5   6   8  216.98   18.30
   5   6   8  226.88   16.80
   5   6   8  184.88   18.90
   5   6   8  211.38    9.10
  -6  -6  -8  162.48   11.60
   6   6   8  154.68   16.90
   6   6   8  170.18   10.20
   6   6   8  159.38   16.20
  -7  -6  -8  111.49   16.80
  -7  -6  -8  112.29   11.50
   7   6   8  134.19   15.70
   7   6   8  117.99   15.40
   7   6   8  123.59   11.20
  -8  -6  -8  225.68   22.20
  -8  -6  -8  179.88   15.80
   8   6   8  169.98   17.30
   8   6   8  174.08   18.10
  -9  -6  -8   62.89   16.80
   9   6   8   43.90   10.80
 -10  -6  -8    0.80   16.00
  10   6   8    8.50   10.70
  10   6   8    9.80   11.10
 -11  -6  -8    6.40   20.00
  11   6   8   11.60   13.60
  11   6   8   31.00   13.60
  12   6   8    8.70   26.20
  -4   7   8    0.50   16.60
  -4   7   8   35.60   26.10
  -3   7   8   33.00   13.00
  -3   7   8    8.90   17.60
  -2   7   8  118.99   19.80
  -2   7   8  164.08   20.90
   1  -7  -8  506.95   33.90
  -1   7   8  525.85   37.20
  -1   7   8  473.65   28.40
  -1   7   8  489.75   29.00
   0  -7  -8   -4.40   12.10
   0   7   8   -8.40   12.50
   0   7   8   -9.80   10.60
   0   7   8  -14.90    9.50
  -1  -7  -8  105.09   18.50
   1   7   8   61.59   14.40
   1   7   8   83.29   14.30
   1   7   8  103.89   18.10
  -2  -7  -8  225.28   19.90
   2   7   8  191.18   21.30
   2   7   8  244.98   22.00
   2   7   8  205.68   16.10
  -3  -7  -8 1634.54   43.70
   3   7   8 1659.93   57.09
   3   7   8 1569.34   57.29
   3   7   8 1653.03   54.89
   4   7   8  494.05   27.80
   4   7   8  458.95   24.80
   4   7   8  454.35   27.00
  -5  -7  -8  300.67   23.40
  -5  -7  -8  308.87   14.10
   5   7   8  296.87   20.10
   5   7   8  325.57   21.90
  -6  -7  -8   -4.20    5.10
   6   7   8  -14.70    8.00
   6   7   8    8.30    4.90
   6   7   8   -0.50   11.50
   6   7   8    9.10    9.90
  -7  -7  -8   41.20    6.80
   7   7   8   36.70   12.90
   7   7   8   72.09   13.90
   7   7   8   32.20   10.70
   7   7   8   49.20    7.30
  -8  -7  -8   14.00    7.60
   8   7   8   19.00   10.40
   8   7   8   26.40    8.60
  -9  -7  -8  141.29   22.70
   9   7   8  115.79   18.80
   9   7   8  101.79   15.50
 -10  -7  -8  447.96   34.00
  10   7   8  447.06   29.60
  10   7   8  425.76   25.00
 -11  -7  -8  252.37   34.80
  11   7   8  211.68   22.10
  11   7   8  272.57   29.10
  12   7   8   50.09   19.60
  -4   8   8   54.69   20.70
  -3   8   8   14.30   21.80
  -3   8   8   13.60   14.90
  -2   8   8   40.30   16.80
  -2   8   8   -0.10   13.90
  -1   8   8  272.37   25.50
  -1   8   8  301.07   26.40
   0  -8  -8 1063.79   60.29
   0   8   8 1104.19   43.70
   0   8   8 1090.39   46.90
  -1  -8  -8  615.54   35.90
   1   8   8  639.94   38.20
   1   8   8  615.84   34.60
   1   8   8  604.24   30.90
  -2  -8  -8   -3.70   10.10
   2   8   8   -2.70    8.00
   2   8   8   31.40   11.80
   2   8   8   31.20   15.70
  -3  -8  -8   -1.20    9.00
  -3  -8  -8    0.90    2.80
   3   8   8  -10.60    8.20
   3   8   8   10.60   12.70
  -4  -8  -8  -15.90    9.10
  -4  -8  -8   -8.30    6.80
   4   8   8   13.10   11.60
   4   8   8   14.90   11.60
   4   8   8   -4.10    9.10
  -5  -8  -8   72.59    8.80
  -5  -8  -8   70.09   13.30
   5   8   8   57.19   14.90
   5   8   8   85.49   15.20
   5   8   8   96.49   16.70
  -6  -8  -8   79.89    9.90
  -6  -8  -8   79.99   12.80
   6   8   8   94.69   16.50
   6   8   8   56.99   15.90
   6   8   8  107.19    9.30
   6   8   8  101.99   17.20
  -7  -8  -8  103.59   11.00
   7   8   8   81.89   10.70
   7   8   8   97.69   14.30
   7   8   8  132.79   20.10
  -8  -8  -8  156.28   14.30
   8   8   8  199.58   24.20
   8   8   8  180.08   14.60
   8   8   8  155.58   16.00
   9   8   8  285.97   26.10
   9   8   8  240.68   18.40
  10   8   8   19.90   11.00
  10   8   8   46.70   19.00
  11   8   8   40.60   23.10
  11   8   8   46.50   13.60
  12   8   8    9.50   17.80
  -4   9   8  334.47   40.40
  -3   9   8  266.37   28.90
  -2   9   8   18.60   19.50
  -2   9   8   19.30   15.90
  -1   9   8   28.50   15.90
  -1   9   8   -3.90   12.90
   0   9   8   17.50   15.80
   0   9   8    4.80   11.00
   1   9   8   86.29   16.40
   1   9   8  116.59   18.50
   2   9   8  149.99   21.10
   2   9   8  200.08   18.80
  -3  -9  -8   -0.60    3.90
  -3  -9  -8   11.30   11.30
   3   9   8   -5.80    9.60
   3   9   8   -1.80   14.80
  -4  -9  -8  173.38   10.70
  -4  -9  -8  152.78   21.70
   4   9   8  159.78   18.20
   4   9   8  233.28   26.70
  -5  -9  -8  107.49   10.50
   5   9   8  169.18   24.10
   5   9   8  128.89   18.70
  -6  -9  -8  112.49   11.10
   6   9   8   97.89   17.60
   6   9   8   94.29   17.00
  -7  -9  -8   39.10    7.80
   7   9   8   54.89   14.60
   7   9   8   27.70   10.40
  -8  -9  -8  181.68   17.10
   8   9   8  217.48   24.40
   8   9   8  219.68   21.10
   9   9   8  114.39   16.80
   9   9   8   87.29   18.50
   9   9   8   82.29   16.00
  10   9   8  355.16   23.40
  10   9   8  316.77   25.70
  10   9   8  437.46   38.60
  11   9   8  137.89   20.50
  11   9   8  162.18   23.30
  12   9   8   30.70   19.70
  -3  10   8   96.79   25.60
  -2  10   8  165.88   28.70
  -1  10   8    2.50   21.80
  -1  10   8    4.50   17.30
   0  10   8    8.80   13.80
   0  10   8   27.70   17.90
   1  10   8   67.49   20.20
   2  10   8  370.86   27.10
   2  10   8  307.37   28.70
   3  10   8   -9.60   10.70
   3  10   8    4.30   12.80
   4  10   8  -19.00   10.20
   4  10   8   10.40   15.70
  -5 -10  -8    6.00    7.00
   5  10   8   18.50   16.10
   5  10   8  -18.90   10.40
  -6 -10  -8  515.95   22.00
   6  10   8  553.74   35.50
   6  10   8  484.25   30.10
  -7 -10  -8  547.05   25.90
   7  10   8  527.35   33.30
   7  10   8  540.25   32.40
  -8 -10  -8  265.77   23.90
   8  10   8  244.28   25.80
   8  10   8  246.48   24.10
   9  10   8  -14.40   12.20
   9  10   8   24.80   20.90
  10  10   8   15.20   13.90
  11  10   8  -17.40   16.50
   0  11   8   -0.90   20.70
   1  11   8   19.50   18.30
   2  11   8   52.99   16.90
   3  11   8  450.15   32.10
   3  11   8  422.16   31.10
   4  11   8  240.48   23.60
   4  11   8  292.57   28.00
   5  11   8   39.80   19.10
   5  11   8   -1.80   11.30
   6  11   8  -18.50   10.70
   6  11   8   15.30   15.20
  -7 -11  -8   71.09   11.40
   7  11   8   73.59   21.00
   7  11   8   59.69   15.80
   8  11   8  115.99   21.40
   8  11   8  156.28   27.30
   9  11   8   43.80   16.90
  10  11   8    3.70   15.90
   3  12   8   82.39   19.70
   4  12   8   97.19   22.60
   4  12   8   92.59   22.10
   5  12   8  165.38   28.60
   5  12   8  198.48   30.20
   6  12   8   51.39   19.30
   6  12   8  -17.00   17.80
   7  12   8   85.19   22.90
   8  12   8   83.89   22.60
   9  12   8   86.79   25.00
   6  13   8   12.40   22.70
   7  13   8   27.30   27.00
   3  10  -9   28.80   18.20
   2  10  -9  -25.70   19.30
   1  10  -9   74.09   34.50
   3   9  -9   22.20   15.20
   2   9  -9   30.10   16.50
   1   9  -9   31.90   16.30
   0   9  -9   88.89   21.20
  -3   9  -9    9.10   23.40
   5   8  -9   17.60   19.30
   4   8  -9  172.98   26.40
   3   8  -9  214.68   22.20
   3   8  -9  270.97   31.90
   2   8  -9  229.88   24.00
   2   8  -9  221.58   25.70
   1   8  -9  102.69   16.90
   1   8  -9   91.69   19.30
   0   8  -9   -0.40   12.90
   0   8  -9    9.90   16.40
  -1   8  -9   91.69   18.40
  -1   8  -9   64.29   19.60
  -2   8  -9  243.38   29.20
  -2   8  -9  291.27   23.90
  -3   8  -9  140.19   23.40
  -4   8  -9   16.50   19.30
   6   7  -9  297.27   32.20
   5   7  -9  165.88   27.30
   4   7  -9   76.29   18.70
   3   7  -9   -5.10   15.40
   3   7  -9   -0.30    9.80
   2   7  -9  112.59   17.90
   2   7  -9  134.39   19.50
   1   7  -9  154.78   22.20
   1   7  -9  135.89   19.40
   0   7  -9   25.30   12.80
   0   7  -9   27.80   12.20
  -1   7  -9   16.20   13.00
  -1   7  -9   -6.80   12.80
  -1   7  -9   -2.40    8.60
  -2   7  -9  150.68   21.40
  -2   7  -9  215.58   28.30
  -2   7  -9  161.68   17.40
  -3   7  -9   -6.30   14.30
  -3   7  -9  -21.20   12.50
  -4   7  -9   28.00   16.30
  -5   7  -9   37.50   27.50
   7   6  -9    0.10   16.90
   6   6  -9   19.80   15.10
   5   6  -9  132.89   22.10
   4   6  -9   18.80   12.70
   3   6  -9   19.10   13.10
   3   6  -9   15.60    8.00
   2   6  -9   20.20   13.70
   1   6  -9  205.18   18.00
   1   6  -9  225.08   21.30
   0   6  -9  155.88   17.00
   0   6  -9  159.68   18.80
   0   6  -9  173.18   13.30
  -1   6  -9    5.80   10.90
  -1   6  -9   -6.60   12.20
  -2   6  -9   32.80    8.90
  -2   6  -9   29.30   15.10
  -2   6  -9   17.00   11.50
  -3   6  -9  258.77   22.70
  -3   6  -9  249.28   22.50
  -4   6  -9  398.86   31.40
  -4   6  -9  405.86   28.40
   4  -6   9  442.46   33.50
  -5   6  -9  168.28   36.20
  -5   6  -9  176.98   25.90
   7   5  -9   76.29   18.30
   6   5  -9  306.27   25.00
   5   5  -9   58.09   14.60
   4   5  -9  116.29   16.40
   3   5  -9   31.00   12.10
   3   5  -9   36.00    6.00
   3   5  -9   37.10   10.40
   2   5  -9   14.60    7.00
   2   5  -9   32.50   12.10
  -2  -5   9   15.40   14.00
   1   5  -9  349.27   19.50
   1   5  -9  356.76   24.50
  -1  -5   9  390.06   27.60
   0   5  -9  553.44   29.60
   0   5  -9  550.64   22.70
   0   5  -9  568.04   25.60
  -1   5  -9  643.04   34.30
  -1   5  -9  680.63   26.30
  -1   5  -9  668.43   30.00
  -2   5  -9  544.05   32.30
  -2   5  -9  508.95   26.40
  -2   5  -9  503.35   23.70
  -3   5  -9    8.50    9.60
  -3   5  -9   -0.50    8.70
  -4   5  -9   16.60   11.10
  -4   5  -9   19.40   10.90
   4  -5   9   12.80   14.00
  -5   5  -9  233.78   24.80
  -5   5  -9  190.08   23.00
   5  -5   9  185.88   24.20
  -6   5  -9   77.29   29.60
  -6   5  -9   90.79   18.50
   8   4  -9   13.80   14.80
   7   4  -9    4.30   12.70
   6   4  -9   24.10   11.90
   5   4  -9  332.17   21.70
   4   4  -9   12.10    8.80
   4   4  -9   23.70    9.80
  -4  -4   9    4.30   11.80
   3   4  -9   17.30    7.60
   3   4  -9    1.20    3.90
   3   4  -9   -4.60   10.10
  -3  -4   9    7.10   10.80
   2   4  -9   25.70   10.40
   2   4  -9   69.79   13.50
   2   4  -9   47.90    7.40
  -2  -4   9   39.80    9.70
  -2  -4   9   41.40   11.60
   1   4  -9   12.40   11.00
   1   4  -9    7.70    5.60
  -1  -4   9    7.70    9.70
   0   4  -9    5.80    6.20
   0   4  -9    5.70   10.70
   0   4  -9   10.00    6.90
   0  -4   9   22.70   11.00
  -1   4  -9  367.26   20.10
  -1   4  -9  349.67   17.80
  -1   4  -9  316.77   22.30
   1  -4   9  383.36   25.90
  -2   4  -9  338.97   20.90
  -2   4  -9  377.26   23.80
   2  -4   9  365.36   27.40
  -3   4  -9   21.40    9.30
  -3   4  -9   -8.00    7.10
  -3   4  -9  -16.50   12.00
  -4   4  -9    9.30   10.10
  -4   4  -9   -4.40    9.10
   4  -4   9   23.70   13.00
  -5   4  -9   30.30   11.10
  -5   4  -9   31.40   12.90
   5  -4   9   60.99   16.40
  -6   4  -9   83.29   17.50
  -6   4  -9   78.69   15.20
   6  -4   9  111.09   20.60
  -7   4  -9   18.00   18.30
   8   3  -9  154.58   24.40
   7   3  -9   65.49   14.60
   6   3  -9    5.50   11.10
   5   3  -9    1.20    8.30
  -5  -3   9    7.50    9.10
   4   3  -9  174.18   14.60
   4   3  -9  158.68   16.50
  -4  -3   9  148.29   17.90
   3   3  -9  253.87   19.40
   3   3  -9  305.27   16.40
  -3  -3   9  283.97   14.10
  -3  -3   9  251.67   18.70
   2   3  -9  398.46   24.00
   2   3  -9  369.16   14.30
   2   3  -9  409.06   17.60
  -2  -3   9  372.56   20.00
  -2  -3   9  342.57   19.40
   1   3  -9  494.25   27.00
   1   3  -9  489.25   18.80
  -1  -3   9  471.45   24.70
  -1  -3   9  517.55   20.40
   0   3  -9   31.30   11.30
   0   3  -9   41.30    8.10
   0  -3   9   33.90    9.40
  -1   3  -9  341.17   17.50
  -1   3  -9  286.47   20.50
  -1   3  -9  320.37   17.10
   1  -3   9  314.67   22.40
  -2   3  -9   39.90   12.00
  -2   3  -9   25.60    7.60
  -2   3  -9   25.50    7.30
   2  -3   9   32.40   11.00
  -3   3  -9  218.08   15.90
  -3   3  -9  267.37   23.00
  -3   3  -9  222.28   15.60
   3  -3   9  236.98   21.60
  -4   3  -9   -9.80    7.60
   4  -3   9    7.90   12.00
  -5   3  -9    9.90    8.30
  -5   3  -9   13.50    8.90
   5  -3   9   25.80   13.90
  -6   3  -9  107.39   18.20
  -6   3  -9   85.09   15.10
   6  -3   9   89.49   18.20
  -7   3  -9  389.36   27.90
  -7   3  -9  409.56   31.60
   7  -3   9  427.26   32.00
   8   2  -9   71.59   16.10
   7   2  -9  146.09   19.30
   6   2  -9   24.90   10.30
  -6  -2   9   21.90    9.80
   5   2  -9   52.69   10.70
  -5  -2   9   55.99    9.40
   4   2  -9  230.48   17.30
  -4  -2   9  166.98   15.10
  -4  -2   9  208.08   15.70
  -4  -2   9  204.28   15.60
   3   2  -9  470.65   24.10
   3   2  -9  497.35   20.60
  -3  -2   9  443.56   22.50
  -3  -2   9  504.15   19.40
   2   2  -9  384.56   21.30
   2   2  -9  340.77   15.40
  -2  -2   9  374.06   19.00
  -2  -2   9  365.06   20.30
   1   2  -9   30.00    6.80
   1   2  -9   29.70    5.40
  -1  -2   9   37.60    7.70
  -1  -2   9   33.40    7.60
   0   2  -9    0.80    4.20
   0   2  -9   -9.90    8.80
   0  -2   9   -1.00    6.80
  -1   2  -9   33.10    6.50
  -1   2  -9   40.00    7.80
   1  -2   9   31.40    9.40
  -2   2  -9  826.92   35.80
  -2   2  -9  802.82   33.20
  -2   2  -9  875.41   31.90
   2  -2   9  910.81   35.40
  -3   2  -9   32.80    7.10
  -3   2  -9   31.30   11.80
  -3   2  -9   38.00    8.30
  -4   2  -9   21.80    8.30
  -4   2  -9   18.90    8.00
  -4   2  -9   51.59   13.90
   4  -2   9   16.80   10.00
  -5   2  -9   32.30    9.30
  -5   2  -9   53.19   10.00
   5  -2   9   45.30   12.20
  -6   2  -9   72.49   13.80
  -6   2  -9   50.09   12.50
   6  -2   9   58.89   17.40
  -7   2  -9   14.40   12.90
  -7   2  -9   27.70   13.50
   7  -2   9   14.10   13.80
  -8   2  -9  266.17   29.40
  -8   2  -9  308.67   28.20
   8  -2   9  288.97   33.70
   8   1  -9    8.90   12.70
   7   1  -9   27.30   11.40
   6   1  -9   48.80   11.20
  -6  -1   9   44.90   11.20
  -6  -1   9   63.79   12.30
   5   1  -9   49.00   10.10
  -5  -1   9   48.50    8.60
  -5  -1   9   34.00   11.80
   4   1  -9    8.30    7.60
   4   1  -9   13.90    7.40
  -4  -1   9    9.20    9.40
  -4  -1   9    8.40    5.90
  -4  -1   9   14.70    6.70
   3   1  -9   71.19   11.40
   3   1  -9   64.89   10.50
  -3  -1   9   44.90    8.50
   2   1  -9 1140.49   38.90
   2   1  -9 1064.49   35.80
  -2  -1   9 1067.79   36.10
  -2  -1   9 1100.59   33.60
  -2  -1   9 1141.99   40.10
  -2  -1   9 1125.59   34.30
   1   1  -9  293.87   14.10
   1   1  -9  269.27   17.40
  -1  -1   9  277.47   15.50
  -1  -1   9  307.17   17.70
   0   1  -9    5.40    7.20
   0   1  -9    5.80    4.80
   0  -1   9   13.30    5.80
   0  -1   9    7.00    6.10
  -1   1  -9   -5.20    6.70
  -1   1  -9   -5.70    7.20
  -1   1  -9    6.20    5.10
   1  -1   9   12.50    7.60
  -2   1  -9   14.30    7.70
  -2   1  -9   -5.00    7.90
  -2   1  -9   -1.30    5.50
   2  -1   9    8.90    7.10
  -3   1  -9  161.28   15.30
  -3   1  -9  173.78   13.30
  -4   1  -9  548.75   26.90
  -4   1  -9  545.15   25.40
  -4   1  -9  524.05   24.60
   4  -1   9  515.15   26.70
  -5   1  -9  631.64   28.50
  -5   1  -9  622.64   29.50
  -5   1  -9  639.74   31.50
   5  -1   9  628.14   32.10
  -6   1  -9  349.17   24.40
  -6   1  -9  413.56   25.20
   6  -1   9  412.26   26.50
  -7   1  -9   29.90   11.90
   7  -1   9   20.90   14.10
  -8   1  -9   74.19   17.10
  -8   1  -9   53.39   13.70
   8  -1   9   72.89   18.00
  -9   1  -9  -24.10   25.00
   9  -1   9  -14.70   18.50
   8   0  -9   -3.40   12.60
   7   0  -9   63.39   12.10
  -7   0   9   82.49   15.20
   6   0  -9  901.51   35.30
  -6   0   9  873.31   40.00
  -6   0   9  851.21   34.00
   5   0  -9 1086.69   38.60
  -5   0   9 1049.40   43.40
  -5   0   9 1068.49   36.40
   4   0  -9  291.97   17.60
   4   0  -9  293.17   21.50
  -4   0   9  272.57   19.70
  -4   0   9  280.07   21.40
  -4   0   9  318.47   15.70
   3   0  -9   18.70    7.40
   3   0  -9   24.70    7.90
  -3   0   9   22.90    6.90
  -3   0   9   26.70    5.60
   2   0  -9    2.50    6.20
   2   0  -9   -1.70    5.90
  -2   0   9    0.10    4.50
  -2   0   9    5.30    9.70
  -2   0   9    3.60    5.50
   1   0  -9  241.78   15.20
   1   0  -9  251.57   13.90
  -1   0   9  246.18   11.00
  -1   0   9  261.87   19.10
  -1   0   9  258.17   11.30
  -1   0   9  255.27   13.10
   0   0  -9  491.85   17.70
   0   0  -9  491.75   22.10
   0   0   9  514.25   22.30
   0   0   9  528.95   17.90
   0   0   9  496.05   20.00
  -1   0  -9   68.29   10.40
  -1   0  -9   84.09    8.70
   1   0   9   92.29   12.00
  -2   0  -9  320.97   16.40
  -2   0  -9  322.57   18.00
  -2   0  -9  341.67   18.90
   2   0   9  324.67   17.60
  -3   0  -9  239.08   16.50
  -3   0  -9  216.08   15.40
  -3   0  -9  206.78   14.30
  -4   0  -9  202.28   15.60
  -4   0  -9  207.68   16.40
  -4   0  -9  223.08   15.80
   4   0   9  214.58   16.80
  -5   0  -9   68.49   10.80
  -5   0  -9   90.19   13.50
  -5   0  -9   60.49   11.20
   5   0   9  112.69   16.70
  -6   0  -9   16.40   10.50
  -6   0  -9    4.60    7.10
  -6   0  -9   20.30    9.90
   6   0   9   12.60   11.90
  -7   0  -9  -14.80    9.30
  -7   0  -9    4.80   10.90
   7   0   9    5.20   12.30
  -8   0  -9   76.69   15.40
  -8   0  -9   98.89   18.80
   8   0   9  100.69   16.70
  -9   0  -9  116.19   20.00
  -9   0  -9  133.49   23.90
   9   0   9  143.29   23.40
   8  -1  -9  156.98   22.40
   7  -1  -9   44.50   12.20
  -7   1   9   30.20   17.60
   6  -1  -9    4.60    8.90
  -6   1   9  -13.70   15.70
  -6   1   9    7.80    8.80
   5  -1  -9  271.67   17.10
  -5   1   9  251.07   16.90
  -5   1   9  202.78   26.80
   4  -1  -9  310.87   17.00
   4  -1  -9  330.37   24.60
  -4   1   9  283.07   22.70
  -4   1   9  284.77   28.20
  -4   1   9  280.07   15.60
   3  -1  -9    8.70    6.30
   3  -1  -9    8.10    8.20
  -3   1   9   13.30    8.80
  -3   1   9    5.60    4.80
   2  -1  -9    3.80    6.20
   2  -1  -9    7.40    5.50
  -2   1   9    7.90    4.40
  -2   1   9   -8.30    6.60
  -2   1   9    9.00    5.30
  -2   1   9    5.20    9.30
   1  -1  -9   -4.60    5.20
   1  -1  -9    1.50    5.40
  -1   1   9    0.40    9.70
  -1   1   9   -5.80    5.20
  -1   1   9   -2.70    6.10
  -1   1   9   -5.90    5.00
   0  -1  -9  130.19   10.60
   0  -1  -9  143.69   11.90
   0   1   9  148.99    9.20
   0   1   9  137.39    9.50
   0   1   9  155.78   13.90
   0   1   9  154.18    9.40
  -1  -1  -9    2.80    5.70
   1   1   9   -1.40    5.80
   1   1   9   -0.60    4.00
   1   1   9   -3.30    5.50
  -2  -1  -9   16.10    7.90
  -2  -1  -9   23.90    6.60
   2   1   9   23.40    5.80
  -3  -1  -9   42.20    9.50
  -3  -1  -9   38.60    7.40
  -3  -1  -9   50.19    8.80
  -4  -1  -9   -3.80    5.90
  -4  -1  -9   12.70    8.50
  -4  -1  -9    4.10    7.00
   4   1   9    5.50    7.60
  -5  -1  -9  775.22   32.60
  -5  -1  -9  773.92   31.60
  -5  -1  -9  758.42   31.10
   5   1   9  761.32   32.00
  -6  -1  -9  135.59   16.90
  -6  -1  -9  155.28   15.10
  -6  -1  -9  168.68   18.40
   6   1   9  166.48   16.40
   6   1   9  154.78   15.00
  -7  -1  -9    0.90    9.60
  -7  -1  -9   11.60   10.50
   7   1   9    7.30   10.90
  -8  -1  -9   33.90   13.70
  -8  -1  -9   -1.70    9.40
   8   1   9   11.80   11.20
  -9  -1  -9   -1.00   15.10
  -9  -1  -9   -7.40   12.50
   9   1   9   12.60   13.60
  10   1   9   33.00   19.80
   8  -2  -9  162.58   25.80
   7  -2  -9  283.47   22.10
  -7   2   9  280.17   34.20
   6  -2  -9   11.30    9.80
  -6   2   9   -7.70   18.50
   5  -2  -9   10.60    8.40
  -5   2   9  -13.60   15.60
  -4   2   9  -12.20   14.70
  -4   2   9    3.60   12.50
  -4   2   9    3.70    5.80
   3  -2  -9   46.60    7.60
   3  -2  -9   48.60   10.50
  -3   2   9   57.39   12.10
   2  -2  -9   -0.60    5.00
   2  -2  -9   -0.50    7.10
  -2   2   9   -1.90    3.80
  -2   2   9   -4.10    6.20
  -2   2   9   -6.30    7.20
  -2   2   9    7.50   10.00
   1  -2  -9    0.40    4.60
   1  -2  -9    3.50    5.60
  -1   2   9   11.90    5.00
  -1   2   9    5.20    9.90
  -1   2   9    1.10    5.70
  -1   2   9    6.00    2.90
   0  -2  -9   61.49   10.50
   0  -2  -9   59.59    8.10
   0   2   9   65.89    6.40
   0   2   9   69.89   12.00
   0   2   9   51.39    7.70
  -1  -2  -9 2250.07   61.59
  -1  -2  -9 2151.18   61.09
   1   2   9 2247.58   59.49
   1   2   9 2141.29   66.69
   1   2   9 2192.68   61.79
   1   2   9 2095.69   59.59
  -2  -2  -9 3141.99   83.09
  -2  -2  -9 3187.28   86.89
   2   2   9 2959.50   86.79
   2   2   9 3312.07   88.39
   2   2   9 3255.27   92.69
   2   2   9 3316.17   83.39
  -3  -2  -9  126.19   10.50
  -3  -2  -9  126.89   13.80
   3   2   9  147.09    7.90
   3   2   9  146.59   10.70
   3   2   9  135.79   11.10
  -4  -2  -9   44.40   10.30
  -4  -2  -9   42.80    7.40
   4   2   9   52.39    8.20
   4   2   9   39.80    7.00
  -5  -2  -9   37.90   11.70
  -5  -2  -9   24.70    7.00
   5   2   9   21.30    5.10
   5   2   9   21.90    7.10
  -6  -2  -9   80.09   13.50
  -6  -2  -9   85.09   13.80
   6   2   9   89.29    9.50
   6   2   9   66.59   13.00
  -7  -2  -9  348.47   23.30
  -7  -2  -9  353.96   24.80
   7   2   9  382.06   22.00
   7   2   9  335.17   19.20
  -8  -2  -9   65.49   13.40
   8   2   9   95.79   14.50
  -9  -2  -9   45.50   14.30
   9   2   9   59.39   13.90
 -10  -2  -9    4.00   17.50
  10   2   9   24.50   15.90
   8  -3  -9   -8.60   16.20
  -7   3   9   51.59   23.60
   6  -3  -9   -1.80    9.60
  -6   3   9  -10.20   20.70
   5  -3  -9   -1.30    8.00
  -5   3   9  -10.50   15.70
   4  -3  -9   36.30    9.80
  -4   3   9   47.80   15.30
   3  -3  -9  328.17   16.20
  -3   3   9  415.26   16.70
  -3   3   9  395.06   26.00
  -3   3   9  336.47   13.40
   2  -3  -9  806.22   26.30
   2  -3  -9  842.62   34.10
  -2   3   9  788.12   33.20
  -2   3   9  766.72   28.70
  -2   3   9  813.52   36.40
   1  -3  -9  671.73   28.70
   1  -3  -9  667.03   22.20
  -1   3   9  712.33   24.20
  -1   3   9  653.73   26.80
   0  -3  -9  223.18   11.20
   0  -3  -9  235.68   16.70
   0   3   9  224.88   14.10
   0   3   9  203.88   20.80
   0   3   9  243.68   13.40
  -1  -3  -9   15.30    6.10
  -1  -3  -9   20.20    4.00
   1   3   9    8.00    6.90
   1   3   9   10.30    9.30
   1   3   9   27.10    4.20
   1   3   9   16.80    4.60
   1   3   9   23.90    5.20
  -2  -3  -9  605.84   20.90
   2   3   9  579.24   26.70
   2   3   9  585.74   21.80
   2   3   9  588.64   20.50
   2   3   9  604.34   22.90
  -3  -3  -9  637.34   23.00
  -3  -3  -9  662.43   21.40
   3   3   9  652.73   22.60
   3   3   9  633.34   24.60
   3   3   9  638.84   21.20
  -4  -3  -9  262.77   13.80
  -4  -3  -9  240.58   19.40
   4   3   9  240.28   12.50
   4   3   9  243.08   13.10
  -5  -3  -9    8.50    6.50
  -5  -3  -9    9.00    9.70
   5   3   9  -10.60    5.80
   5   3   9    3.70    5.60
   5   3   9    2.60    5.00
  -6  -3  -9    3.80    7.30
  -6  -3  -9   11.10    9.70
   6   3   9    9.80    6.80
   6   3   9   16.40    5.10
  -7  -3  -9  102.99   16.30
  -7  -3  -9   78.69   13.10
   7   3   9   71.29   10.80
   7   3   9   60.69   10.10
  -8  -3  -9    1.90   11.40
   8   3   9    5.40    9.10
  -9  -3  -9   91.39   17.20
   9   3   9   76.89   12.90
   9   3   9  136.09   18.30
 -10  -3  -9   18.60   17.40
  10   3   9   44.20   14.60
  11   3   9   -3.90   19.10
  -7   4   9   46.60   42.10
   6  -4  -9   42.90   11.00
  -6   4   9   37.00   26.20
   5  -4  -9   77.89   11.00
  -5   4   9  110.19   24.90
   4  -4  -9   65.79   11.60
  -4   4   9   46.10   17.20
   3  -4  -9    5.80    5.70
   3  -4  -9   23.20   11.40
  -3   4   9   25.20    8.70
  -3   4   9    7.90   12.00
   2  -4  -9  523.65   37.30
   2  -4  -9  639.94   21.20
  -2   4   9  629.54   27.10
  -2   4   9  640.34   32.20
   1  -4  -9 1486.65   41.20
   1  -4  -9 1495.15   51.89
  -1   4   9 1423.96   48.90
  -1   4   9 1417.76   53.69
  -1   4   9 1517.15   46.10
   0  -4  -9  596.24   28.20
   0  -4  -9  603.84   18.60
   0   4   9  558.44   31.80
   0   4   9  606.64   25.50
   0   4   9  616.34   23.90
  -1  -4  -9   21.60    7.50
   1   4   9    4.10    7.80
   1   4   9   19.20   11.20
   1   4   9   15.30    7.10
  -2  -4  -9   22.00    5.50
   2   4   9   25.90    4.00
   2   4   9   25.30    8.30
   2   4   9   23.40    7.10
   2   4   9   22.80    9.00
   2   4   9   35.00    4.40
  -3  -4  -9   69.49    9.40
  -3  -4  -9   70.99    7.30
   3   4   9   80.59    5.70
   3   4   9   97.59    9.90
   3   4   9   90.89   12.30
   3   4   9   72.99   11.50
  -4  -4  -9   21.00    5.30
   4   4   9   20.50    4.30
   4   4   9   19.10    7.40
   4   4   9   18.20    6.40
  -5  -4  -9   55.59   11.70
  -5  -4  -9   83.59   11.20
   5   4   9   89.19   12.20
   5   4   9   87.99    8.50
   5   4   9   57.69    8.50
  -6  -4  -9   18.50    8.10
  -6  -4  -9    1.80    9.50
   6   4   9   11.30    6.50
   6   4   9   24.40    6.60
   6   4   9    5.60    7.10
  -7  -4  -9   12.60   11.10
  -7  -4  -9    6.60    8.50
   7   4   9    4.10    6.80
   7   4   9   14.30    6.30
   7   4   9    3.70    8.10
  -8  -4  -9  754.42   38.50
  -8  -4  -9  795.22   41.50
   8   4   9  729.63   29.60
   8   4   9  758.32   32.80
  -9  -4  -9  643.14   38.60
   9   4   9  619.64   31.80
   9   4   9  658.73   29.00
 -10  -4  -9   50.39   19.10
  10   4   9   53.39   13.50
  10   4   9   47.70   11.60
  11   4   9    8.00   14.90
   6  -5  -9  112.69   17.60
  -6   5   9   75.09   32.00
   5  -5  -9  222.28   17.10
  -5   5   9  197.48   37.90
   4  -5  -9  285.17   25.50
  -4   5   9  314.07   34.00
   3  -5  -9   80.19    9.60
  -3   5   9   64.49   16.60
   2  -5  -9   22.80    5.20
   2  -5  -9   41.70   11.80
  -2   5   9    6.30    9.80
  -2   5   9   28.00   12.50
  -2   5   9   43.10   10.80
   1  -5  -9   22.80    3.90
  -1   5   9   26.30   10.70
  -1   5   9   17.10   11.10
  -1   5   9    8.60    9.40
   0  -5  -9  133.39   17.20
   0   5   9  137.69   12.10
   0   5   9  113.09   20.80
   0   5   9  108.29   17.60
  -1  -5  -9   27.00    9.00
   1   5   9   25.00    9.10
   1   5   9   17.20    9.30
   1   5   9   20.30   12.00
  -2  -5  -9   31.70    7.30
   2   5   9   25.80    8.80
   2   5   9   37.30    8.70
   2   5   9   38.00   12.50
  -3  -5  -9  386.06   13.80
  -3  -5  -9  365.26   18.30
   3   5   9  321.77   30.80
   3   5   9  412.86   19.70
   3   5   9  371.96   23.40
  -4  -5  -9  209.18   12.30
  -4  -5  -9  195.98   13.90
   4   5   9  233.98   16.70
   4   5   9  218.58    8.70
   4   5   9  222.08   15.90
   4   5   9  214.28   17.10
  -5  -5  -9 1100.59   35.20
   5   5   9 1014.10   37.80
   5   5   9 1026.50   38.10
   5   5   9 1083.99   30.90
  -6  -5  -9  274.37   16.20
  -6  -5  -9  271.57   22.50
   6   5   9  280.17   18.40
   6   5   9  265.47   17.70
   6   5   9  277.97   13.50
  -7  -5  -9  109.99   18.40
  -7  -5  -9   61.89   10.00
   7   5   9   77.09   13.60
   7   5   9   74.79   11.20
   7   5   9   74.39   13.50
  -8  -5  -9   54.49   11.40
  -8  -5  -9   49.40   14.40
   8   5   9   51.49   10.10
   8   5   9   56.99   10.20
  -9  -5  -9  126.09   21.90
   9   5   9  116.09   15.80
   9   5   9  144.39   16.30
 -10  -5  -9  174.08   26.80
  10   5   9  117.69   18.20
  10   5   9  175.48   18.30
  11   5   9   25.40   14.00
  -5   6   9    2.30   25.40
  -4   6   9  107.39   27.40
  -3   6   9   26.20   14.80
  -3   6   9   54.19   13.90
  -2   6   9  -14.40   13.40
   1  -6  -9   15.00   12.80
  -1   6   9   23.10   10.10
   0   6   9  190.28   28.90
   0   6   9  197.18   21.40
   0   6   9  198.58   22.80
  -1  -6  -9  171.48   19.10
   1   6   9  117.09   20.20
   1   6   9  152.28   15.80
   1   6   9  136.49   20.30
  -2  -6  -9   84.09   14.50
   2   6   9  117.59   14.20
   2   6   9  124.49   19.60
   2   6   9  106.39   16.20
  -3  -6  -9  177.08    7.60
  -3  -6  -9  168.28   14.70
   3   6   9  204.48   16.60
   3   6   9  160.88   19.40
   3   6   9  179.48   18.30
   3   6   9  187.98    7.60
  -4  -6  -9    4.60    7.00
   4   6   9    6.80    9.70
   4   6   9    0.50    7.80
   4   6   9   -3.80    9.10
  -5  -6  -9  388.56   17.30
  -5  -6  -9  404.06   20.50
   5   6   9  399.56   22.50
   5   6   9  376.36   23.60
   5   6   9  389.26   13.00
  -6  -6  -9 1528.05   47.40
   6   6   9 1490.95   51.49
   6   6   9 1568.14   42.90
   6   6   9 1414.66   50.89
  -7  -6  -9  482.45   22.40
   7   6   9  467.15   26.30
   7   6   9  476.15   19.70
   7   6   9  462.75   24.80
  -8  -6  -9    4.80    8.90
  -8  -6  -9  -14.70   11.20
   8   6   9   -6.90    8.70
  -9  -6  -9   20.50   15.30
   9   6   9    8.10    9.40
   9   6   9    0.50   10.20
 -10  -6  -9   14.00   16.50
  10   6   9   19.40   11.50
  10   6   9   52.19   14.00
 -11  -6  -9   -5.00   21.30
  11   6   9  -15.90   13.90
  -4   7   9  119.39   31.20
  -3   7   9   -2.70   19.10
  -3   7   9   29.00   14.40
  -2   7   9   15.10   13.00
  -2   7   9   15.60   12.90
  -1   7   9   80.99   14.60
  -1   7   9   97.39   16.90
   0  -7  -9    3.30   12.80
   0   7   9    0.00   19.50
   0   7   9   -3.60   11.10
   0   7   9   11.20   11.60
  -1  -7  -9  415.96   29.00
   1   7   9  428.06   23.40
   1   7   9  381.36   28.40
   1   7   9  347.27   29.60
   2   7   9 1597.54   52.59
   2   7   9 1531.95   58.79
   2   7   9 1510.65   59.69
  -3  -7  -9  576.04   28.70
   3   7   9  608.44   30.70
   3   7   9  552.74   27.50
   3   7   9  543.55   33.00
  -4  -7  -9   87.39    8.20
  -4  -7  -9   68.69   11.60
   4   7   9   53.49   12.60
   4   7   9   78.19   14.90
  -5  -7  -9   11.60    5.50
  -5  -7  -9   -2.70    8.10
   5   7   9   -3.10    9.10
   5   7   9    3.20   11.00
   5   7   9   24.70   12.90
  -6  -7  -9   19.20    6.20
   6   7   9   29.00    5.20
   6   7   9    3.10   11.00
   6   7   9   33.30   12.40
   6   7   9   17.60    9.80
  -7  -7  -9   15.00    6.60
   7   7   9   -2.70    9.90
   7   7   9   33.70   11.30
   7   7   9   15.60    6.50
  -8  -7  -9    2.70    8.30
   8   7   9    4.90   11.40
   8   7   9   -2.00    8.40
   9   7   9   75.39   12.30
   9   7   9   61.49   14.50
 -10  -7  -9   76.29   20.10
  10   7   9   44.70   15.00
  10   7   9   40.40   13.10
 -11  -7  -9   95.59   24.30
  11   7   9   89.79   17.30
  12   7   9  218.78   33.30
  -3   8   9  129.39   23.00
  -2   8   9   67.29   18.90
  -2   8   9   80.29   17.00
  -1   8   9   53.09   15.40
  -1   8   9  101.49   18.90
   0   8   9  154.48   22.40
   0   8   9  115.59   19.10
   1   8   9   -4.80   12.80
   1   8   9   15.40   10.40
  -2  -8  -9   12.20   10.90
   2   8   9    0.60   13.50
   2   8   9    5.30    9.00
  -3  -8  -9  388.66   25.80
   3   8   9  363.76   30.90
   3   8   9  359.16   23.10
   3   8   9  454.55   29.00
  -4  -8  -9   -2.10    4.40
   4   8   9    9.90   12.30
   4   8   9   -3.80   12.10
   4   8   9    4.40   10.60
  -5  -8  -9  -11.60   16.60
  -5  -8  -9    1.30    5.00
   5   8   9    9.80   12.10
   5   8   9    1.90    9.60
  -6  -8  -9   44.50    6.50
   6   8   9   40.00   13.60
   6   8   9   25.30   12.40
  -7  -8  -9  165.48   13.10
   7   8   9  179.18   24.20
   7   8   9  114.59   16.90
  -8  -8  -9  228.78   16.60
   8   8   9  241.68   24.40
   8   8   9  238.38   16.90
   8   8   9  202.68   21.00
   9   8   9   34.00   16.50
   9   8   9   23.40   10.70
  10   8   9   39.00   18.40
  10   8   9   11.20   10.90
  11   8   9  -13.20   13.30
  12   8   9   62.09   19.40
  -3   9   9   69.89   19.40
  -2   9   9    7.60   37.10
  -2   9   9    7.30   16.30
  -1   9   9   60.29   17.80
  -1   9   9  109.49   20.90
   0   9   9  155.78   25.50
   0   9   9  123.79   20.20
   1   9   9  -13.10   12.00
   1   9   9  -18.60   12.10
   2   9   9   36.60   11.90
   2   9   9   45.50   15.50
   3   9   9  361.86   23.90
   3   9   9  330.17   29.20
   4   9   9   48.10   13.20
   4   9   9   58.39   16.80
  -5  -9  -9   -3.30    5.40
   5   9   9    5.70   12.50
   5   9   9    9.50   13.70
  -6  -9  -9  128.69   11.30
   6   9   9  123.19   21.90
   6   9   9  122.39   19.30
  -7  -9  -9    1.90    7.00
   7   9   9   -8.70   12.40
   7   9   9   -4.40   10.00
  -8  -9  -9  188.48   16.70
   8   9   9  218.48   26.00
   8   9   9  201.68   20.20
   9   9   9  673.13   40.00
   9   9   9  618.84   36.20
  10   9   9  403.86   57.29
  10   9   9  299.07   28.40
  -2  10   9   66.59   19.90
  -1  10   9  244.78   30.00
   0  10   9   11.30   19.10
   0  10   9   -6.40   14.10
   1  10   9   -2.50   18.20
   2  10   9   74.79   16.30
   2  10   9   39.60   17.60
   3  10   9   45.10   13.10
   3  10   9   52.49   16.90
   4  10   9    4.10   17.10
   4  10   9  -18.30   10.90
   5  10   9  164.08   21.60
   5  10   9  238.48   28.00
   6  10   9  251.87   27.70
   6  10   9  185.88   24.10
  -7 -10  -9   65.19    8.70
   7  10   9   52.39   17.50
   7  10   9   76.59   17.30
  -8 -10  -9  -16.40    9.00
   8  10   9   -3.30   14.30
   8  10   9   13.20   16.00
   9  10   9  -14.10   14.00
   9  10   9   11.80   22.60
  10  10   9  106.19   19.10
   0  11   9   72.29   24.50
   1  11   9  100.09   24.60
   2  11   9   51.99   19.40
   2  11   9  -26.80   15.80
   3  11   9   38.50   17.80
   3  11   9  -11.40   15.70
   4  11   9   15.60   13.10
   4  11   9    0.80   15.50
   5  11   9   43.50   19.90
   5  11   9  -14.40   11.00
   6  11   9  229.28   29.80
   6  11   9  222.08   22.90
   7  11   9  258.77   28.80
   7  11   9  364.76   37.10
   8  11   9    5.10   28.90
   8  11   9   40.60   19.70
   9  11   9   29.50   17.10
   4  12   9  -19.20   16.90
   5  12   9   47.10   22.30
   6  12   9  167.88   31.80
   7  12   9   64.69   24.60
   8  12   9    4.60   23.50
   2  10 -10   59.29   22.40
   2   9 -10   -0.80   15.30
   1   9 -10   53.89   18.70
   0   9 -10  263.77   31.80
   3   8 -10  115.59   39.70
   2   8 -10  -17.00   22.60
   2   8 -10    7.20   12.30
   1   8 -10   64.59   15.80
   1   8 -10   88.99   23.80
   0   8 -10   65.49   17.30
  -1   8 -10   -8.60   14.60
  -3   8 -10  -21.20   14.80
   5   7 -10   66.59   21.10
   4   7 -10  124.19   24.20
   3   7 -10  -13.90   14.00
   3   7 -10   38.50   19.60
   2   7 -10    4.50   14.50
   2   7 -10   39.40   11.30
   1   7 -10   -5.70   10.80
   1   7 -10  -18.00   14.90
   0   7 -10  126.19   18.50
   0   7 -10  117.39   21.30
  -1   7 -10  206.48   29.80
  -1   7 -10  277.77   23.90
  -2   7 -10   -9.20   13.80
  -2   7 -10   24.20   11.00
  -2   7 -10   16.20   18.00
  -3   7 -10  163.28   25.10
  -3   7 -10  223.38   21.90
  -4   7 -10   -9.30   14.30
   6   6 -10   31.00   19.20
   5   6 -10    7.20   17.00
   4   6 -10  223.98   26.80
   3   6 -10  741.63   34.10
   3   6 -10  742.33   38.50
   2   6 -10  134.79   20.90
   2   6 -10  143.09   14.80
   1   6 -10   42.70   15.40
   1   6 -10   44.70    9.80
   0   6 -10   36.90   12.80
   0   6 -10   29.90   10.20
  -1   6 -10  125.89   19.00
  -1   6 -10  150.88   17.70
  -1   6 -10  131.09   14.90
  -2   6 -10  377.56   24.70
  -2   6 -10  370.86   32.50
  -2   6 -10  412.36   22.40
  -3   6 -10  286.57   25.50
  -3   6 -10  290.97   21.80
  -4   6 -10  191.48   20.70
  -4   6 -10  157.98   24.90
   4  -6  10  219.88   39.50
  -5   6 -10  -27.00   14.30
   7   5 -10  639.84   52.09
   6   5 -10  413.46   30.60
   5   5 -10   43.80   16.10
   4   5 -10   17.40   12.90
   3   5 -10   31.50   12.70
   2   5 -10  426.76   27.70
   2   5 -10  411.56   18.40
   1   5 -10  480.75   22.60
   1   5 -10  566.04   32.10
   0   5 -10   -2.50   10.00
   0   5 -10   12.10    8.00
   0   5 -10    3.30    7.80
  -1   5 -10    7.90    8.30
  -1   5 -10   -9.70    8.20
  -1   5 -10  -20.70   10.40
  -2   5 -10  149.49   15.40
  -2   5 -10  152.38   17.00
  -2   5 -10  148.79   20.20
  -3   5 -10   10.40    8.80
  -3   5 -10  -14.50    9.80
  -4   5 -10  -10.70   11.20
  -4   5 -10   10.60   10.80
   4  -5  10   11.00   13.50
  -5   5 -10   81.19   17.30
  -5   5 -10  107.09   19.70
   5  -5  10  118.29   22.50
  -6   5 -10  -16.40   15.90
   7   4 -10   16.90   14.50
   6   4 -10  336.07   24.50
   5   4 -10  522.85   29.80
   4   4 -10    3.60    9.80
   3   4 -10    2.10   11.70
  -3  -4  10    7.00   13.00
   2   4 -10    0.20    5.10
   2   4 -10   21.60   12.60
  -2  -4  10   11.10   11.70
   1   4 -10   55.79    9.50
   1   4 -10   42.70   14.60
  -1  -4  10   79.09   12.70
  -1  -4  10   48.50   12.30
   0   4 -10  293.67   19.60
   0   4 -10  319.67   24.70
   0   4 -10  304.47   18.10
   0  -4  10  335.47   27.50
  -1   4 -10  288.87   18.60
  -1   4 -10  311.37   17.80
  -1   4 -10  285.67   21.60
  -2   4 -10   82.59   13.10
  -2   4 -10   68.39   10.90
  -2   4 -10   57.49   12.90
  -3   4 -10  179.58   24.30
  -3   4 -10  155.18   16.50
  -3   4 -10  184.88   15.50
  -4   4 -10  527.05   27.30
  -4   4 -10  490.95   28.10
   4  -4  10  542.45   32.30
  -5   4 -10   18.80   11.60
  -5   4 -10   25.50   12.60
   5  -4  10   58.99   16.20
  -6   4 -10   56.49   15.50
  -6   4 -10   67.99   17.90
   6  -4  10   50.59   18.60
   7   3 -10   -2.90   13.80
   6   3 -10    2.80   11.50
   5   3 -10   61.69   12.20
  -5  -3  10   55.09   21.20
   4   3 -10  361.06   23.50
  -4  -3  10  334.47   23.80
   3   3 -10   89.09   14.70
   3   3 -10  123.39   13.20
  -3  -3  10  127.59   16.80
   2   3 -10   -8.30    9.90
  -2  -3  10   -7.70    8.40
   1   3 -10  262.07   13.30
   1   3 -10  266.07   22.10
  -1  -3  10  261.77   17.00
  -1  -3  10  281.47   19.60
   0   3 -10 1853.21   64.09
   0   3 -10 1968.40   57.09
   0  -3  10 1911.71   63.39
  -1   3 -10 1274.77   48.70
  -1   3 -10 1300.67   43.60
  -1   3 -10 1297.87   43.70
   1  -3  10 1426.36   50.59
  -2   3 -10   -3.80    6.70
  -2   3 -10    3.70    9.20
   2  -3  10    7.50   11.50
  -3   3 -10   -2.30    7.50
  -3   3 -10  -10.00    6.50
  -3   3 -10   -3.00   11.90
  -4   3 -10  118.49   15.60
  -4   3 -10  118.19   14.60
   4  -3  10  138.29   17.90
  -5   3 -10  334.87   22.90
  -5   3 -10  292.77   21.30
   5  -3  10  336.67   25.70
  -6   3 -10  270.37   22.70
  -6   3 -10  206.68   23.20
   6  -3  10  264.77   26.20
  -7   3 -10    2.30   14.80
   7  -3  10   -3.50   17.90
   8   2 -10  137.29   29.40
   7   2 -10   56.29   12.80
   6   2 -10   -1.50   10.90
   5   2 -10    8.90    8.90
  -5  -2  10   20.70    8.90
   4   2 -10  196.58   17.50
   4   2 -10  218.98   17.20
  -4  -2  10  182.28   16.30
   3   2 -10  243.28   15.70
   3   2 -10  249.08   19.10
  -3  -2  10  233.18   17.80
   2   2 -10   20.90    9.40
  -2  -2  10    6.50    7.90
  -2  -2  10    6.60   10.00
   1   2 -10    4.90    9.70
   1   2 -10    2.50    5.10
  -1  -2  10   -8.60    6.60
  -1  -2  10    8.20    8.20
   0   2 -10  232.68   13.50
   0   2 -10  217.58   17.80
   0  -2  10  219.28   18.00
   0  -2  10  265.27   15.30
  -1   2 -10 1250.87   41.20
  -1   2 -10 1234.18   46.80
  -1   2 -10 1292.17   43.10
   1  -2  10 1292.97   45.60
  -2   2 -10 1104.29   38.00
  -2   2 -10 1042.10   42.10
  -2   2 -10 1100.39   40.20
   2  -2  10 1069.69   41.20
  -3   2 -10  207.28   16.40
  -3   2 -10  194.18   20.40
  -3   2 -10  198.28   16.20
   3  -2  10  204.28   19.70
  -4   2 -10   31.70    9.30
  -4   2 -10   27.30    9.40
   4  -2  10   44.50   12.70
  -5   2 -10    1.10    9.70
  -5   2 -10  -10.00    8.50
   5  -2  10    7.10   12.30
  -6   2 -10   31.00   11.30
  -6   2 -10   52.49   12.20
   6  -2  10   58.99   15.30
  -7   2 -10  226.68   25.80
  -7   2 -10  176.18   22.30
   7  -2  10  201.88   24.90
  -8   2 -10  122.59   25.30
   8  -2  10  155.58   28.00
   8   1 -10   19.10   17.00
   7   1 -10    6.90   12.30
   6   1 -10   -4.70    9.40
  -6  -1  10  -11.00   11.70
   5   1 -10   17.80    9.80
  -5  -1  10  -20.10   11.80
  -5  -1  10   -9.90    7.70
   4   1 -10   79.89   12.80
   4   1 -10   67.09   11.30
  -4  -1  10   91.49   12.20
  -4  -1  10   81.29   13.40
   3   1 -10 1317.77   44.80
   3   1 -10 1298.77   45.50
  -3  -1  10 1300.87   42.70
  -3  -1  10 1345.27   41.50
  -3  -1  10 1369.56   45.20
   2   1 -10 2521.45   73.79
   2   1 -10 2374.46   69.89
  -2  -1  10 2298.87   65.99
  -2  -1  10 2586.34   74.79
  -2  -1  10 2352.16   69.89
  -1  -1  10  620.44   28.40
  -1  -1  10  691.93   21.40
  -1  -1  10  616.54   25.50
   0   1 -10   31.00    9.30
   0   1 -10   39.40    6.70
   0  -1  10   22.40    7.60
   0  -1  10   33.10    8.20
  -1   1 -10   -0.80    5.90
  -1   1 -10   -0.20    7.90
   1  -1  10    0.60    7.60
  -2   1 -10  102.19   11.10
  -2   1 -10   94.79   15.90
  -2   1 -10  106.39   14.30
   2  -1  10  111.09   14.40
  -3   1 -10  306.37   21.80
  -3   1 -10  316.87   19.00
  -3   1 -10  293.97   18.70
   3  -1  10  293.77   19.30
  -4   1 -10  381.96   22.50
  -4   1 -10  374.16   22.20
   4  -1  10  381.06   24.50
  -5   1 -10    7.50   14.20
  -5   1 -10    4.80    8.00
  -5   1 -10    4.80    8.80
   5  -1  10   19.40   11.80
  -6   1 -10  154.48   17.90
  -6   1 -10  162.08   19.70
   6  -1  10  135.29   20.60
  -7   1 -10  741.93   36.70
  -7   1 -10  687.43   35.00
   7  -1  10  723.23   38.70
  -8   1 -10  306.67   31.50
   8  -1  10  251.87   30.90
   8   0 -10   14.30   16.40
   7   0 -10  186.48   20.30
   6   0 -10  361.06   22.30
  -6   0  10  328.47   30.60
  -6   0  10  276.87   23.10
   5   0 -10  291.47   18.90
  -5   0  10  249.97   19.00
   4   0 -10   13.70    8.00
   4   0 -10   -6.30   13.70
  -4   0  10   -5.30    6.30
  -4   0  10   -7.90   12.00
   3   0 -10   73.19   10.60
   3   0 -10   92.69   16.40
  -3   0  10   98.09   10.70
  -3   0  10   77.99   13.00
  -3   0  10  117.99   16.20
   2   0 -10   12.40    7.40
   2   0 -10   12.30    7.50
  -2   0  10   19.90   11.30
  -2   0  10   13.50    6.70
  -2   0  10   14.40    5.30
   1   0 -10  749.73   27.80
   1   0 -10  796.42   30.60
  -1   0  10  783.32   27.30
  -1   0  10  842.72   24.80
  -1   0  10  796.12   25.00
  -1   0  10  728.63   33.50
   0   0 -10  137.79   13.80
   0   0  10  144.69   11.20
   0   0  10  137.79   13.90
   0   0  10  160.38   10.00
  -1   0 -10   75.99   12.30
   1   0  10   90.69   11.60
   1   0  10   92.69   13.30
  -2   0 -10  506.75   25.00
  -2   0 -10  497.95   23.80
  -2   0 -10  481.45   21.70
   2   0  10  516.95   24.00
  -3   0 -10  107.59   15.30
  -3   0 -10   85.89   13.70
  -3   0 -10   99.49   12.50
  -4   0 -10  276.17   20.20
  -4   0 -10  306.17   20.20
  -4   0 -10  299.17   21.00
   4   0  10  268.67   20.70
  -5   0 -10   14.80    9.40
  -5   0 -10   -4.00    8.20
  -5   0 -10   -4.80    9.00
   5   0  10    8.80   10.60
  -6   0 -10   11.60   10.00
   6   0  10   -1.00   12.80
  -7   0 -10  303.17   23.20
  -7   0 -10  376.96   26.50
   7   0  10  397.36   28.20
  -8   0 -10  583.44   35.30
  -8   0 -10  574.84   33.30
   8   0  10  643.74   36.90
  -9   0 -10  242.98   34.70
  -9   0 -10  199.38   32.00
   9   0  10  235.48   28.70
   8  -1 -10  -16.90   17.00
   7  -1 -10   48.90   13.90
  -7   1  10   69.69   19.80
   6  -1 -10   16.20    9.80
  -6   1  10    8.70   18.90
   5  -1 -10  457.85   22.30
  -5   1  10  373.76   33.20
  -5   1  10  416.66   21.50
   4  -1 -10  347.07   18.40
  -4   1  10  282.37   16.90
  -4   1  10  298.87   26.80
   3  -1 -10    2.40    7.00
   3  -1 -10    2.70    9.10
  -3   1  10   20.00   11.30
  -3   1  10    8.40    5.50
  -3   1  10   -8.20    7.60
   2  -1 -10   65.79    9.80
   2  -1 -10   63.89    9.20
  -2   1  10   78.09   14.20
  -2   1  10   64.39   12.10
  -2   1  10   89.99    8.90
   1  -1 -10  100.79   11.20
   1  -1 -10  111.29   12.10
  -1   1  10   94.59   18.20
  -1   1  10   87.09   10.00
  -1   1  10  101.89   10.20
   0  -1 -10   -4.70    6.60
   0  -1 -10    8.00    6.60
   0   1  10   -0.20    9.00
   0   1  10   -2.70    3.60
   0   1  10   12.80    5.10
   0   1  10    6.70    5.00
  -1  -1 -10  167.18   12.20
   1   1  10  171.08   15.30
   1   1  10  121.89   12.00
   1   1  10  144.59   10.30
  -2  -1 -10   33.10    7.50
   2   1  10   31.60    7.20
   2   1  10   43.50    7.50
  -3  -1 -10  270.37   19.30
  -4  -1 -10 1354.26   46.30
  -4  -1 -10 1308.07   47.90
   4   1  10 1346.47   45.40
  -5  -1 -10 2977.50   90.19
  -5  -1 -10 3159.58   92.19
  -5  -1 -10 3040.50   92.79
   5   1  10 3124.29   90.39
  -6  -1 -10  369.46   23.80
  -6  -1 -10  417.46   23.50
  -6  -1 -10  406.66   24.80
   6   1  10  403.26   23.90
  -7  -1 -10   59.49   14.90
  -7  -1 -10   43.90   12.00
   7   1  10   45.30   14.00
  -8  -1 -10    3.60   13.20
  -8  -1 -10  -10.20   12.40
   8   1  10   11.20   13.90
  -9  -1 -10   83.69   21.60
  -9  -1 -10   59.99   18.80
   9   1  10  104.69   18.90
  -8   2  10  121.49   43.70
   7  -2 -10  -10.60   11.90
  -7   2  10   49.90   23.20
   6  -2 -10  246.58   19.90
  -6   2  10  185.48   28.30
   5  -2 -10  263.97   17.30
  -5   2  10  174.98   30.10
   4  -2 -10   -6.70    7.50
  -4   2  10    5.00    6.60
  -4   2  10  -16.80   13.10
   3  -2 -10   63.59   11.20
   3  -2 -10   56.49    8.50
  -3   2  10   62.89   13.30
   2  -2 -10    4.60    7.90
   2  -2 -10    4.50    5.60
  -2   2  10  -16.60    8.80
  -2   2  10   17.40   11.60
  -2   2  10   -2.60    4.30
   1  -2 -10   12.20    6.60
   1  -2 -10    4.70    5.90
  -1   2  10   28.90    6.10
  -1   2  10   21.20   20.10
   0  -2 -10 1112.59   37.10
   0  -2 -10 1071.79   34.80
   0   2  10 1038.90   41.50
   0   2  10 1066.09   34.60
   0   2  10 1106.39   34.40
   0   2  10 1065.49   31.40
  -1  -2 -10 2389.46   66.29
  -1  -2 -10 2270.57   64.49
   1   2  10 2416.16   63.29
   1   2  10 2252.17   73.09
   1   2  10 2330.77   66.49
  -2  -2 -10  543.65   21.30
   2   2  10  531.85   22.00
   2   2  10  571.34   22.10
   3   2  10   19.40    7.20
   3   2  10   18.00    5.40
  -4  -2 -10    4.00    5.80
  -4  -2 -10    5.30    9.20
   4   2  10    9.30    6.80
   4   2  10    2.10    5.00
  -5  -2 -10  123.69   13.10
  -5  -2 -10  142.49   17.10
   5   2  10  161.88   15.20
  -6  -2 -10  493.25   28.00
  -6  -2 -10  471.25   24.50
   6   2  10  432.86   23.20
  -7  -2 -10   58.39   23.90
  -7  -2 -10   68.69   13.90
   7   2  10   55.19   12.30
  -8  -2 -10  222.68   22.10
   8   2  10  221.28   20.40
  -9  -2 -10  217.28   25.00
   9   2  10  247.18   23.70
  10   2  10   55.89   17.70
   7  -3 -10   24.80   13.30
  -7   3  10   24.00   27.70
   6  -3 -10   -4.30    9.90
  -6   3  10   -4.70   23.20
   5  -3 -10   -2.70    8.60
  -5   3  10  -13.80   19.60
   4  -3 -10  166.58   14.00
  -4   3  10  163.88   25.90
   3  -3 -10  200.18   13.80
  -3   3  10  226.48   19.90
   2  -3 -10   51.89    8.40
   2  -3 -10   87.69   15.00
  -2   3  10   24.20   10.00
  -2   3  10   49.60   13.40
  -2   3  10   43.10   10.60
   1  -3 -10    3.90    5.10
   1  -3 -10   -1.30    7.40
  -1   3  10   -2.20   12.10
  -1   3  10    6.20    7.50
   0  -3 -10    4.50    4.90
   0  -3 -10    6.40    7.30
   0   3  10    0.50   12.40
   0   3  10    9.70    5.50
   0   3  10    5.50    7.20
  -1  -3 -10  136.89    8.80
  -1  -3 -10  117.29   12.90
   1   3  10  133.89    7.00
   1   3  10  134.69   16.30
   1   3  10  107.59   13.10
  -2  -3 -10 2005.90   56.39
   2   3  10 2031.60   59.89
   2   3  10 2005.30   56.39
   2   3  10 1957.40   56.09
   2   3  10 2035.70   65.19
   3   3  10  182.08   10.80
   3   3  10  176.18   14.80
   3   3  10  179.88   16.50
   3   3  10  152.58   11.50
  -4  -3 -10    2.40    8.40
  -4  -3 -10    4.80    5.30
   4   3  10    4.30    5.50
   4   3  10    9.20    4.90
   4   3  10    6.00    5.80
  -5  -3 -10  261.97   22.50
  -5  -3 -10  284.47   16.00
   5   3  10  253.17   15.00
   5   3  10  261.47   16.90
   5   3  10  277.37   16.60
  -6  -3 -10   60.99   12.80
  -6  -3 -10   34.60    8.80
   6   3  10   51.49    9.70
   6   3  10   46.40   10.20
   6   3  10   33.20    8.90
  -7  -3 -10   10.20   11.90
  -7  -3 -10   -7.50   10.00
   7   3  10    3.30    8.10
   7   3  10   15.30    9.70
  -8  -3 -10   88.49   16.60
   8   3  10   55.09    9.50
  -9  -3 -10   -8.50   15.30
   9   3  10   -9.10   10.50
 -10  -3 -10  151.18   28.40
  10   3  10   94.39   17.00
  10   3  10  151.68   23.30
   6  -4 -10    9.10   11.00
  -6   4  10    8.60   26.50
   5  -4 -10    0.10    9.20
  -5   4  10  -29.10   20.10
   4  -4 -10   13.50    9.90
  -4   4  10   27.80   16.80
   3  -4 -10    6.90    6.40
  -3   4  10   17.90   12.30
   2  -4 -10  629.74   21.70
   2  -4 -10  603.44   30.60
  -2   4  10  625.74   36.10
  -2   4  10  645.44   34.60
  -2   4  10  577.94   27.60
   1  -4 -10  972.80   38.60
   1  -4 -10  912.31   27.90
  -1   4  10  906.51   35.20
  -1   4  10  854.71   40.20
  -1   4  10  926.21   32.50
   0  -4 -10   29.40    4.70
   0  -4 -10   31.30    9.20
   0   4  10   24.10   13.20
   0   4  10   25.30    7.40
  -1  -4 -10  523.85   24.70
   1   4  10  479.65   23.40
   1   4  10  483.25   28.00
   1   4  10  508.45   22.10
  -2  -4 -10  543.25   21.90
   2   4  10  534.65   16.50
   2   4  10  516.75   24.70
   2   4  10  523.75   22.90
   2   4  10  574.74   29.10
  -3  -4 -10    6.10    5.10
   3   4  10    6.10    3.80
   3   4  10    1.90    9.00
   3   4  10    7.30    6.10
   3   4  10    6.50    7.10
  -4  -4 -10  210.38   12.70
   4   4  10  206.08   17.90
   4   4  10  193.58   15.60
   4   4  10  225.88   13.40
   4   4  10  206.98   10.30
  -5  -4 -10   11.60    6.40
   5   4  10   25.60    5.70
   5   4  10   13.30    7.40
   5   4  10   14.10    7.20
  -6  -4 -10  215.28   17.00
  -6  -4 -10  199.88   22.60
   6   4  10  185.58   15.90
   6   4  10  193.38   15.70
   6   4  10  211.68   13.60
  -7  -4 -10  778.72   37.00
  -7  -4 -10  857.71   34.70
   7   4  10  851.01   35.30
   7   4  10  834.52   31.40
   7   4  10  694.33   32.40
  -8  -4 -10 1012.70   45.20
   8   4  10  958.30   36.20
   8   4  10 1027.60   41.60
   9   4  10  267.77   20.80
   9   4  10  276.47   20.30
 -10  -4 -10   32.10   21.50
  10   4  10   33.30   13.70
  11   4  10   13.70   17.30
  -5   5  10   58.89   27.30
  -4   5  10  -16.60   17.60
   3  -5 -10  283.17   16.40
  -3   5  10  279.27   25.50
   2  -5 -10  553.34   19.60
  -2   5  10  528.15   27.80
  -2   5  10  490.25   31.40
   1  -5 -10    7.20   10.70
  -1   5  10   -7.90    9.90
  -1   5  10    1.50   12.20
  -1   5  10   26.70    9.60
   0  -5 -10  199.18   21.40
   0   5  10  251.87   18.60
   0   5  10  208.38   25.40
   0   5  10  264.37   15.90
  -1  -5 -10   43.30   10.00
   1   5  10   35.70   13.70
   1   5  10   41.80   10.60
   1   5  10   55.79   10.80
  -2  -5 -10  182.28   15.60
   2   5  10  197.38   17.30
   2   5  10  206.38   19.40
   2   5  10  202.18   19.90
  -3  -5 -10   63.99   11.10
   3   5  10   42.70   11.50
   3   5  10   47.30    8.40
   3   5  10   53.89   12.30
  -4  -5 -10  296.17   17.00
  -4  -5 -10  306.07   14.30
   4   5  10  339.17   18.10
   4   5  10  299.77   22.30
   4   5  10  288.87   19.50
  -5  -5 -10   75.39   10.90
   5   5  10   95.69    8.00
   5   5  10   70.69   12.10
   5   5  10   90.29   14.90
   5   5  10   89.69   14.70
  -6  -5 -10   19.80    7.60
   6   5  10   25.60    6.50
   6   5  10   25.10    8.50
  -7  -5 -10   19.30   12.60
  -7  -5 -10   10.20    9.50
   7   5  10   28.30    9.60
   7   5  10   35.30    8.40
   7   5  10   26.00    9.90
  -8  -5 -10  295.77   27.80
  -8  -5 -10  259.97   25.20
   8   5  10  308.57   22.40
   8   5  10  276.97   17.70
  -9  -5 -10  859.31   45.70
   9   5  10  890.01   34.60
   9   5  10  871.21   39.60
 -10  -5 -10   79.99   22.00
  10   5  10  125.99   18.20
  10   5  10   97.49   18.20
  11   5  10   -5.00   14.80
  -4   6  10   40.10   23.60
  -3   6  10   38.70   22.80
  -3   6  10   13.40   17.40
  -2   6  10  130.99   22.70
  -2   6  10  136.19   21.20
  -1   6  10  470.65   28.90
  -1   6  10  462.15   29.90
   0  -6 -10  494.35   30.70
   0   6  10  462.85   29.60
   0   6  10  438.06   31.40
   0   6  10  455.85   24.00
  -1  -6 -10   -3.30    9.60
   1   6  10    0.00   12.70
   1   6  10    7.20   10.40
   1   6  10   15.70    8.40
  -2  -6 -10    6.70    7.90
   2   6  10   12.30   10.30
   2   6  10   13.10    9.70
   2   6  10   23.30   14.60
  -3  -6 -10   -4.90    6.90
   3   6  10    9.20    9.60
   3   6  10    9.40    8.40
   3   6  10   -7.70   10.30
  -4  -6 -10   -5.50    7.30
  -4  -6 -10   14.70    7.00
   4   6  10    6.40    9.80
   4   6  10   12.10   10.70
   4   6  10   32.10    8.20
  -5  -6 -10 1986.50   59.29
  -5  -6 -10 1908.81   55.89
   5   6  10 1852.11   61.79
   5   6  10 1953.20   66.29
   5   6  10 1864.11   61.89
  -6  -6 -10 1093.29   37.20
   6   6  10 1119.69   32.20
   6   6  10 1044.90   41.90
   6   6  10 1067.29   43.40
   6   6  10 1074.19   41.60
  -7  -6 -10    5.60    8.00
   7   6  10    2.10    9.00
   7   6  10    3.90    7.30
  -8  -6 -10  202.08   20.10
  -8  -6 -10  221.98   26.00
   8   6  10  218.78   20.80
  -9  -6 -10   74.59   18.70
   9   6  10   55.09   13.80
   9   6  10   57.79   11.90
 -10  -6 -10   18.80   19.60
  10   6  10    1.70   15.10
  10   6  10    7.00   12.30
  11   6  10    7.20   15.40
  -3   7  10    2.30   21.30
  -3   7  10   32.40   24.80
  -2   7  10    7.40   14.00
  -2   7  10  -13.60   12.80
  -1   7  10    5.00   13.80
  -1   7  10  -16.20   13.70
   0   7  10   24.20   14.30
   0   7  10    6.10   11.70
   1   7  10  163.18   16.80
   1   7  10  131.19   25.50
  -2  -7 -10  230.98   21.30
   2   7  10  253.97   19.20
   2   7  10  224.58   27.20
   2   7  10  218.88   26.10
  -3  -7 -10   36.40    9.10
   3   7  10   53.49   13.20
   3   7  10   60.19   12.10
   3   7  10   66.89   15.70
  -4  -7 -10   84.79    7.80
  -4  -7 -10   86.49   15.70
   4   7  10   95.49   16.60
   4   7  10   91.39   16.70
  -5  -7 -10  196.08   13.30
  -5  -7 -10  226.88   19.50
   5   7  10  214.88   21.30
   5   7  10  158.48   20.00
   5   7  10  211.28   21.50
  -6  -7 -10   -1.20    6.60
   6   7  10   -5.20    8.90
   6   7  10   16.90   12.90
  -7  -7 -10  211.48   16.70
   7   7  10  198.68   20.70
   7   7  10  154.88   19.50
  -8  -7 -10   42.50   11.00
   8   7  10   52.19   14.50
   8   7  10   69.19   10.40
   9   7  10  247.78   24.30
   9   7  10  316.97   20.30
 -10  -7 -10   80.59   20.70
  10   7  10   48.40   18.20
  10   7  10   67.39   13.80
  11   7  10   50.49   16.30
  12   7  10    9.20   24.60
  -2   8  10   18.10   15.80
  -2   8  10   -1.00   17.00
  -1   8  10    9.80   15.60
  -1   8  10  -18.10   11.90
   0   8  10   62.39   17.00
   0   8  10   63.19   18.40
   1   8  10  281.97   23.00
   1   8  10  274.87   26.80
   2   8  10   14.00    9.70
   2   8  10   -6.60   15.70
   3   8  10  175.98   25.00
   3   8  10  211.28   17.90
   4   8  10   54.69   13.40
   4   8  10   44.30   15.20
  -5  -8 -10  402.16   17.30
   5   8  10  365.06   26.00
   5   8  10  346.57   28.30
  -6  -8 -10  398.36   19.80
   6   8  10  434.56   30.20
  -7  -8 -10  236.98   16.80
   7   8  10  267.87   25.00
   7   8  10  242.18   24.00
  -8  -8 -10   -8.80    9.20
   8   8  10  -10.50   11.70
   8   8  10   17.60   17.30
   9   8  10   41.90   19.60
   9   8  10    0.90   12.90
  -2   9  10   60.39   19.20
  -1   9  10   47.10   19.10
  -1   9  10   37.70   19.70
   0   9  10   -2.20   16.60
   0   9  10  -25.90   14.10
   1   9  10  239.28   29.00
   1   9  10  257.47   26.50
   2   9  10  686.13   34.20
   2   9  10  608.34   40.20
   3   9  10  478.85   26.30
   3   9  10  475.35   37.60
   4   9  10   21.50   18.10
   5   9  10   19.70   14.80
   5   9  10   -2.70   12.10
  -6  -9 -10   -3.10   10.80
   6   9  10   22.70   13.90
   6   9  10   12.80   13.60
  -7  -9 -10   18.40    8.50
   7   9  10   19.10   15.70
   7   9  10   20.40   14.60
  -8  -9 -10   74.89   11.40
   8   9  10   83.19   17.20
   8   9  10  104.69   22.20
   9   9  10  114.49   20.30
  10   9  10    9.10   17.10
  -2  10  10  315.77   38.30
  -1  10  10  334.37   33.20
   0  10  10    1.00   19.90
   1  10  10    2.00   18.80
   2  10  10   -0.20   15.60
   2  10  10   17.10   16.70
   3  10  10   39.30   20.50
   3  10  10   20.50   13.90
   4  10  10   46.60   19.50
   4  10  10   43.90   12.40
   5  10  10   98.79   22.20
   5  10  10   78.99   15.30
   6  10  10   54.59   18.60
   6  10  10   29.90   15.70
   7  10  10   69.69   19.30
   7  10  10   45.30   17.50
   8  10  10   49.70   18.00
   8  10  10   55.29   20.30
   9  10  10   14.70   15.30
   1  11  10  -14.20   22.30
   2  11  10   61.29   22.60
   3  11  10   20.20   21.30
   3  11  10    8.80   19.00
   4  11  10  137.59   24.80
   4  11  10  206.48   36.40
   5  11  10  -17.20   14.20
   5  11  10   17.20   22.00
   6  11  10   45.70   17.90
   7  11  10   25.50   23.40
   7  11  10   -8.50   22.80
   8  11  10  248.98   36.30
   1   9 -11   88.89   20.00
   2   8 -11   19.50   20.60
   1   8 -11  183.58   22.40
   0   8 -11   82.39   17.50
  -1   8 -11   -6.20   18.80
   3   7 -11    9.50   26.40
   2   7 -11   44.30   22.10
   2   7 -11   29.10   10.30
   1   7 -11  248.28   21.40
   1   7 -11  302.67   30.50
   0   7 -11  292.57   24.60
   0   7 -11  279.97   35.00
  -1   7 -11  168.68   22.00
  -2   7 -11   24.50   14.90
  -3   7 -11    2.50   13.60
  -4   7 -11   61.29   16.90
   5   6 -11  138.99   25.10
   4   6 -11  401.56   35.10
   3   6 -11  495.95   34.40
   2   6 -11  113.39   21.40
   2   6 -11  107.79   14.30
   1   6 -11   -6.10   13.90
   1   6 -11   -1.40    8.70
   0   6 -11  113.19   18.10
   0   6 -11  114.49   15.40
  -1   6 -11  181.58   24.50
  -1   6 -11  206.68   19.90
  -2   6 -11   31.50   12.10
  -2   6 -11   26.60   11.20
  -2   6 -11   51.59   18.20
  -3   6 -11   50.89   12.50
  -3   6 -11   37.50   13.60
  -4   6 -11  -13.60   13.10
  -5   6 -11   -0.90   20.20
   6   5 -11   -9.00   16.40
   5   5 -11    9.30   16.90
   4   5 -11   29.30   14.20
   3   5 -11  114.49   19.10
   2   5 -11  266.57   15.90
   2   5 -11  307.67   26.00
   1   5 -11   -2.10   12.40
   1   5 -11   11.60    7.70
   0   5 -11   46.30    9.40
   0   5 -11   55.69   16.00
  -1   5 -11    4.10   12.20
  -1   5 -11    4.80   12.00
  -1   5 -11  -13.20    8.10
  -2   5 -11  105.29   15.50
  -2   5 -11  132.49   21.40
  -2   5 -11  134.09   16.60
  -3   5 -11  -19.30   10.30
  -3   5 -11  -10.40   10.10
  -4   5 -11  -14.00   11.60
  -4   5 -11  -23.40   12.70
   4  -5  11   14.90   15.40
  -5   5 -11    7.90   13.20
   6   4 -11  212.28   26.60
   5   4 -11   38.40   13.80
   4   4 -11   84.39   16.80
   3   4 -11   10.80   13.40
   2   4 -11  102.19   11.20
   2   4 -11  121.49   18.30
   1   4 -11  101.09   11.90
   1   4 -11  130.89   18.20
   0   4 -11   25.10    7.50
   0   4 -11   23.30   11.30
  -1   4 -11   77.09   12.00
  -1   4 -11   87.79   15.00
  -1   4 -11  111.79   17.40
  -2   4 -11  315.87   21.50
  -2   4 -11  356.26   25.80
  -2   4 -11  297.47   20.10
  -3   4 -11  352.56   30.60
  -3   4 -11  355.16   21.50
  -3   4 -11  345.27   21.80
  -4   4 -11  928.01   39.70
  -4   4 -11  877.91   38.80
   4  -4  11  976.50   44.20
  -5   4 -11   94.69   15.20
  -5   4 -11   81.29   16.20
   5  -4  11   87.99   20.70
  -6   4 -11  -10.00   11.90
   7   3 -11  127.89   22.50
   6   3 -11   14.90   11.60
   5   3 -11   25.80   12.70
   4   3 -11    3.70   10.50
   3   3 -11   41.00   12.60
  -3  -3  11   29.50   13.60
   2   3 -11   23.00   11.10
  -2  -3  11   17.10   11.00
   1   3 -11  161.08   12.80
   1   3 -11  173.38   20.20
  -1  -3  11  165.38   18.40
  -1  -3  11  199.98   19.50
   0   3 -11  211.08   14.80
   0   3 -11  189.98   19.00
   0  -3  11  234.48   21.70
  -1   3 -11   88.29   14.60
  -1   3 -11  124.89   16.80
  -1   3 -11  125.59   13.10
   1  -3  11  118.99   18.80
  -2   3 -11  -11.90    7.10
  -2   3 -11   -9.50    9.80
  -2   3 -11   -2.00   11.20
  -3   3 -11  111.59   14.80
  -3   3 -11  133.19   18.70
  -3   3 -11  114.49   15.40
  -4   3 -11  337.87   22.50
  -4   3 -11  331.77   21.60
   4  -3  11  331.17   24.30
  -5   3 -11  180.58   19.80
  -5   3 -11  191.88   19.80
   5  -3  11  182.68   24.90
  -6   3 -11   13.10   15.10
   6  -3  11   26.40   17.50
  -7   3 -11   20.00   18.90
   7   2 -11   90.89   17.20
   6   2 -11   20.40   13.30
   5   2 -11   25.20   11.40
  -5  -2  11   45.80   13.10
   4   2 -11    6.10   10.30
  -4  -2  11   -9.00    9.50
   3   2 -11   -6.70    8.90
  -3  -2  11   -4.80    9.40
   2   2 -11   40.20   11.30
  -2  -2  11   27.10   12.60
  -2  -2  11   30.10    9.80
   1   2 -11  278.57   21.50
  -1  -2  11  234.08   21.30
  -1  -2  11  259.77   18.60
   0   2 -11  440.46   24.90
   0   2 -11  446.96   20.30
   0  -2  11  487.05   23.10
   0  -2  11  456.95   24.40
  -1   2 -11  925.31   38.60
   1  -2  11  992.30   39.50
  -2   2 -11   89.19   15.90
  -2   2 -11   51.49   12.30
  -2   2 -11   49.10    9.70
   2  -2  11   52.39   13.50
  -3   2 -11   -8.50    9.30
  -3   2 -11    0.70   11.30
  -3   2 -11    6.50    7.50
   3  -2  11    8.10   11.60
  -4   2 -11   12.20    9.00
  -4   2 -11   15.30    9.60
   4  -2  11   21.30   12.70
  -5   2 -11   97.19   15.00
  -5   2 -11  140.89   18.80
   5  -2  11  116.99   19.20
  -6   2 -11   41.60   15.30
  -6   2 -11   47.90   13.10
   6  -2  11   37.50   17.00
  -7   2 -11    3.90   15.70
  -7   2 -11    3.70   13.80
   7  -2  11   11.70   18.30
   7   1 -11  -23.00   13.40
   6   1 -11   24.90   12.70
   5   1 -11   50.39   11.50
  -5  -1  11   64.29   11.20
   4   1 -11   97.69   14.70
  -4  -1  11  107.69   14.30
  -4  -1  11   80.49   15.60
   3   1 -11  246.28   21.00
   3   1 -11  221.58   18.20
  -3  -1  11  207.28   17.00
   2   1 -11  272.37   20.20
  -2  -1  11  223.08   16.70
  -2  -1  11  261.37   23.40
   1   1 -11  135.39   17.30
  -1  -1  11  148.49   10.40
  -1  -1  11  139.29   14.30
  -1  -1  11  117.29   19.80
   0   1 -11  257.87   19.50
   0  -1  11  248.08   17.30
   0  -1  11  266.67   18.50
  -1   1 -11    5.70    8.70
  -1   1 -11   11.50    7.30
   1  -1  11   22.10    7.70
   1  -1  11    6.50    8.70
  -2   1 -11   12.30   10.40
  -2   1 -11    2.70    8.40
  -2   1 -11    6.90    9.90
   2  -1  11   -2.80    9.10
  -3   1 -11   31.40   11.60
  -3   1 -11   36.80   10.00
  -3   1 -11   60.09   12.50
   3  -1  11   45.30   11.30
  -4   1 -11   48.40   12.30
  -4   1 -11   52.09   12.00
  -5   1 -11  163.68   19.60
  -5   1 -11  175.48   19.10
   5  -1  11  174.98   19.60
  -6   1 -11  119.79   19.60
  -6   1 -11  147.59   19.60
   6  -1  11  153.58   24.50
  -7   1 -11   98.89   16.70
  -7   1 -11  146.29   22.80
   7  -1  11  128.69   21.50
  -8   1 -11   59.39   17.60
   8  -1  11   83.39   20.60
   7   0 -11   42.10   14.10
   6   0 -11    7.40   11.50
   5   0 -11    2.20    9.40
  -5   0  11  -11.50   12.70
  -5   0  11  -19.50   16.60
   4   0 -11   67.99   11.40
  -4   0  11   79.59   19.50
  -4   0  11   77.49   12.80
   3   0 -11   90.79   17.60
   3   0 -11   75.49   11.60
  -3   0  11   93.79   15.80
  -3   0  11  105.79   11.60
   2   0 -11   32.60    9.50
   2   0 -11   16.30    8.50
  -2   0  11   14.70    7.80
  -2   0  11   45.60   14.00
   1   0 -11   83.09   14.50
  -1   0  11   66.99    7.90
  -1   0  11   63.99    9.10
  -1   0  11   70.89   15.50
   0   0 -11  388.66   22.30
   0   0  11  402.56   18.80
   0   0  11  403.46   23.00
   0   0  11  404.76   17.20
  -1   0 -11  212.68   16.10
   1   0  11  189.98   16.40
   1   0  11  199.28   17.00
   1   0  11  245.28   12.60
  -2   0 -11   22.00   10.40
   2   0  11   22.70    9.10
  -3   0 -11    4.30    8.10
  -3   0 -11    6.20    9.80
  -3   0 -11    8.90    8.80
   3   0  11    4.30    7.70
  -4   0 -11   13.60   10.80
  -4   0 -11    3.40    8.40
   4   0  11   -1.30    9.90
  -5   0 -11    1.50   11.40
  -5   0 -11   15.10   11.00
  -5   0 -11    7.80   10.80
   5   0  11   -5.40    9.00
  -6   0 -11  312.77   23.90
  -6   0 -11  287.77   22.80
   6   0  11  302.77   25.90
  -7   0 -11  587.74   33.70
   7   0  11  584.84   35.10
  -8   0 -11  570.84   38.00
  -8   0 -11  591.04   37.20
   8   0  11  610.14   35.90
   9   0  11   43.30   23.90
   7  -1 -11    1.60   13.20
   6  -1 -11    5.40   11.60
  -6   1  11  -27.10   20.40
   5  -1 -11   15.70   10.30
  -5   1  11   -4.00   18.70
   4  -1 -11  391.26   20.60
  -4   1  11  335.67   30.20
  -4   1  11  327.17   29.80
   3  -1 -11  678.23   27.50
  -3   1  11  614.54   23.50
  -3   1  11  704.03   33.20
   2  -1 -11  361.36   22.10
   2  -1 -11  416.56   20.90
  -2   1  11  411.66   16.90
  -2   1  11  373.26   20.00
   1  -1 -11  140.39   14.10
  -1   1  11  137.09   12.10
  -1   1  11  146.99   27.90
  -1   1  11  139.79   12.30
  -1   1  11  109.89   12.20
   0  -1 -11    1.70    7.20
   0   1  11    5.10    5.50
   0   1  11   -7.80    6.00
   0   1  11    9.50   11.80
  -1  -1 -11   26.70    7.30
   1   1  11   13.60    6.80
   1   1  11   17.70   10.80
   1   1  11   21.10    6.30
  -2  -1 -11  238.98   15.40
   2   1  11  250.47   14.30
   2   1  11  207.68   17.00
   2   1  11  237.18   17.20
  -3  -1 -11   59.49   12.50
   3   1  11   46.50    8.80
  -4  -1 -11 1276.77   47.70
  -4  -1 -11 1271.07   46.10
  -5  -1 -11  427.56   27.50
  -5  -1 -11  404.96   23.70
  -5  -1 -11  395.16   23.40
   5   1  11  412.96   24.50
  -6  -1 -11   24.80   12.20
  -6  -1 -11   31.80   11.50
  -6  -1 -11   59.99   21.40
   6   1  11   29.70   11.70
  -7  -1 -11   47.00   15.10
  -7  -1 -11   59.09   14.10
   7   1  11   66.59   15.10
  -8  -1 -11   10.60   14.80
  -8  -1 -11   26.10   15.20
   8   1  11   35.80   15.80
  -9  -1 -11   -1.40   30.00
   9   1  11    4.80   16.90
   7  -2 -11  236.38   24.20
  -7   2  11  168.28   34.90
   6  -2 -11  317.17   22.80
  -6   2  11  330.37   39.10
   5  -2 -11  198.78   17.40
  -5   2  11  151.78   26.70
   4  -2 -11    4.90    8.80
  -4   2  11   20.30   16.40
   3  -2 -11   51.19   15.90
   2  -2 -11   78.69   11.60
  -2   2  11   87.39    9.40
  -2   2  11   64.49   12.50
   1  -2 -11   85.59   11.70
   1  -2 -11   75.39   10.70
  -1   2  11   83.29    7.80
  -1   2  11   68.89   16.60
  -1   2  11   85.99   10.20
   0  -2 -11    6.20    6.50
   0  -2 -11    6.70   12.00
   0   2  11  -10.80    7.50
   0   2  11   11.80   12.70
  -1  -2 -11   56.59    8.90
   1   2  11   35.60    7.60
   1   2  11   39.40    6.30
   1   2  11   49.10   11.60
  -2  -2 -11   50.99    7.40
   2   2  11   47.80    8.60
   2   2  11   55.59   11.60
   2   2  11   50.29    8.40
   3   2  11   22.30    6.90
   3   2  11    9.60    7.60
   3   2  11    8.80    6.50
  -4  -2 -11    4.70   11.00
  -4  -2 -11   21.00    7.40
   4   2  11   17.70    6.30
   4   2  11   13.10    8.10
  -5  -2 -11  134.69   13.80
  -5  -2 -11  106.79   19.20
   5   2  11   96.99   15.00
   5   2  11   83.69   12.60
  -6  -2 -11  151.98   19.30
  -6  -2 -11  106.39   13.50
   6   2  11  130.19   17.20
  -7  -2 -11  211.48   23.60
   7   2  11  157.48   18.70
  -8  -2 -11  185.28   24.40
   8   2  11  217.38   21.30
  -9  -2 -11    4.70   18.10
   9   2  11    8.20   13.70
  10   2  11  -22.20   17.60
  -7   3  11   59.39   52.99
   6  -3 -11  208.18   19.90
  -6   3  11  120.69   31.20
   5  -3 -11  259.47   18.70
  -5   3  11  205.68   30.30
   4  -3 -11   86.39   13.60
  -4   3  11  119.89   21.20
   3  -3 -11    8.90    7.60
  -3   3  11    7.70   12.40
   2  -3 -11  -12.90    6.30
   2  -3 -11   30.30   11.50
  -2   3  11    2.50   11.50
   1  -3 -11    6.60    6.20
   1  -3 -11   16.70    9.10
  -1   3  11    7.70   14.40
  -1   3  11    3.20    9.20
   0  -3 -11   24.70    9.00
   0   3  11    5.00    7.90
   0   3  11    1.70    7.10
   0   3  11   -7.40   12.70
  -1  -3 -11   12.90    5.00
  -1  -3 -11   12.30    7.10
   1   3  11   10.70   12.00
   1   3  11   18.10    4.30
   1   3  11   10.30    8.50
   1   3  11   12.70    6.00
   2   3  11  141.49   14.00
   2   3  11  148.79   17.90
   3   3  11   34.60   10.30
   3   3  11   34.30    8.90
   3   3  11   49.30    7.30
   3   3  11   63.39   10.50
  -4  -3 -11  984.40   35.40
   4   3  11 1031.10   37.30
   4   3  11  986.30   32.60
  -5  -3 -11  377.46   26.00
  -5  -3 -11  349.96   19.20
   5   3  11  340.17   17.70
   5   3  11  355.56   19.80
  -6  -3 -11   52.69   13.60
  -6  -3 -11   35.80    9.20
   6   3  11   30.90    8.40
  -7  -3 -11  -15.10   10.60
  -7  -3 -11   25.90   14.90
   7   3  11  -10.30    8.50
   7   3  11   -2.20    9.00
  -8  -3 -11   -0.60   14.20
   8   3  11    3.60   10.80
  -9  -3 -11  197.98   33.40
   9   3  11  182.88   23.20
  10   3  11   46.30   16.70
  -6   4  11  -29.10   32.60
  -5   4  11  -10.20   24.70
   4  -4 -11    3.90    9.90
  -4   4  11    9.00   18.60
   3  -4 -11   47.90    8.40
  -3   4  11   64.39   15.20
   2  -4 -11   25.30    6.80
  -2   4  11   31.70   13.30
  -2   4  11    1.00   14.40
   1  -4 -11  130.19    9.90
   1  -4 -11  113.99   19.80
  -1   4  11  112.19   21.80
  -1   4  11  134.69   14.80
  -1   4  11  128.09   19.60
   0  -4 -11  872.81   25.80
   0  -4 -11  878.71   36.90
   0   4  11  790.52   41.40
   0   4  11  847.72   32.50
   0   4  11  867.31   31.40
  -1  -4 -11  621.44   28.30
   1   4  11  594.44   33.00
   1   4  11  642.94   27.00
   1   4  11  635.54   24.80
  -2  -4 -11  362.26   17.60
   2   4  11  321.97   34.40
   2   4  11  351.96   24.10
   2   4  11  336.87   13.00
   2   4  11  390.56   12.30
   2   4  11  387.86   18.20
   3   4  11   -5.10    7.00
   3   4  11    6.90    7.80
   3   4  11    0.00   10.00
   3   4  11    2.40    4.40
  -4  -4 -11    5.60    5.90
   4   4  11    3.10    8.10
   4   4  11    1.50    7.80
   4   4  11    4.60    5.20
   4   4  11    8.60    9.70
  -5  -4 -11  380.66   19.00
   5   4  11  378.36   16.60
   5   4  11  394.96   21.40
  -6  -4 -11   51.19   13.10
  -6  -4 -11   51.69    8.60
   6   4  11   65.09   10.70
   6   4  11   56.99   11.20
  -7  -4 -11    5.30    9.80
  -7  -4 -11   16.70   14.60
   7   4  11   -5.30    9.30
   7   4  11   16.80    9.10
  -8  -4 -11   31.60   16.60
   8   4  11   48.30   10.70
   8   4  11   31.30   11.00
  -9  -4 -11   41.70   20.70
   9   4  11   28.60   11.40
   9   4  11   50.59   12.00
  10   4  11    3.10   13.40
  11   4  11   65.09   23.10
  -5   5  11  -24.80   27.10
  -4   5  11   33.60   20.60
  -3   5  11  151.78   26.50
  -2   5  11  223.88   23.50
  -2   5  11  256.17   25.20
  -1   5  11   -1.80   11.90
  -1   5  11    7.30   13.40
   0  -5 -11  216.18   23.10
   0   5  11  236.28   16.00
   0   5  11  228.28   19.00
   0   5  11  158.18   26.10
  -1  -5 -11  575.44   28.60
   1   5  11  526.85   29.20
   1   5  11  558.94   25.80
   1   5  11  544.15   33.10
  -2  -5 -11  334.57   19.20
   2   5  11  327.67   21.30
   2   5  11  333.07   22.10
   2   5  11  306.87   25.00
  -3  -5 -11   38.10    8.60
   3   5  11   49.10    5.70
   3   5  11   41.60   12.50
   3   5  11   41.00   12.10
   3   5  11   32.90    9.20
  -4  -5 -11   67.99    9.70
  -4  -5 -11   56.49   11.70
   4   5  11   72.89   13.70
   4   5  11   59.19   11.00
   4   5  11   99.29   13.90
  -5  -5 -11   44.00    7.00
   5   5  11   31.10   11.30
   5   5  11   40.80   10.80
   5   5  11   37.80    5.90
  -6  -5 -11    3.00    7.30
   6   5  11  -16.30    9.80
   6   5  11    6.40    6.40
   6   5  11   12.60    8.50
  -7  -5 -11   48.70   16.10
  -7  -5 -11   27.60   10.50
   7   5  11   56.29    9.70
   7   5  11   49.00   12.30
  -8  -5 -11  111.79   20.80
   8   5  11  142.99   17.40
   8   5  11  126.79   16.10
  -9  -5 -11   92.89   21.20
   9   5  11  111.49   17.80
   9   5  11  107.59   17.80
  10   5  11   15.80   12.70
  11   5  11  148.59   21.60
  -4   6  11   55.39   28.70
  -3   6  11  213.18   28.10
  -2   6  11  328.87   26.40
  -2   6  11  317.87   28.60
  -1   6  11  520.25   30.90
  -1   6  11  514.25   32.30
   0   6  11   36.40   10.70
   0   6  11    6.20   15.50
  -1  -6 -11    8.10   11.00
   1   6  11   25.30    9.10
   1   6  11   38.00   17.30
  -2  -6 -11    3.10    8.40
   2   6  11    3.10   10.90
   2   6  11   24.60   14.90
   2   6  11    6.90   10.80
  -3  -6 -11    7.70    8.40
   3   6  11    7.00   10.40
   3   6  11   36.10   13.70
   3   6  11   22.90   12.20
  -4  -6 -11   12.70    5.20
  -4  -6 -11   -3.30    8.70
   4   6  11   34.70    9.40
   4   6  11   10.20   10.80
   4   6  11    2.20    9.90
  -5  -6 -11   17.60    6.30
   5   6  11   22.00   10.00
   5   6  11   34.10   12.30
  -6  -6 -11   40.20    9.20
   6   6  11   56.19   13.20
   6   6  11   36.70   10.80
  -7  -6 -11  669.63   30.20
   7   6  11  684.03   25.70
   7   6  11  652.23   33.70
  -8  -6 -11  235.48   26.20
   8   6  11  264.57   22.50
  -9  -6 -11   45.80   20.60
   9   6  11   54.59   15.20
   9   6  11   39.20   11.50
  10   6  11   13.00   12.90
  11   6  11  -14.70   15.90
  -3   7  11    7.00   26.00
  -2   7  11   35.30   16.20
  -2   7  11   12.60   14.90
  -1   7  11   30.50   14.20
  -1   7  11   12.30   15.80
   0   7  11    0.00   12.60
   0   7  11  -18.40   14.70
   1   7  11   -9.10   15.80
   1   7  11    4.50    9.60
   2   7  11   42.80   11.00
   2   7  11   24.20   15.60
   3   7  11  152.98   26.20
   3   7  11  115.29   18.90
   4   7  11  160.18   19.20
   4   7  11  144.19   20.20
  -5  -7 -11  138.09   11.90
   5   7  11  158.28   21.30
   5   7  11  139.49   20.90
  -6  -7 -11   16.00    8.00
   6   7  11  -10.10   11.60
   6   7  11   30.50   14.00
  -7  -7 -11   40.70   10.20
   7   7  11   52.09   12.70
   7   7  11   76.49   15.40
  -8  -7 -11  392.26   26.40
   8   7  11  365.16   29.20
   8   7  11  419.86   30.40
   9   7  11  232.08   25.40
  -2   8  11   37.80   17.70
  -1   8  11    7.50   17.80
  -1   8  11  -14.10   14.90
   0   8  11   12.60   14.40
   0   8  11   22.90   16.90
   1   8  11  206.58   21.70
   1   8  11  187.88   26.10
   2   8  11   -4.00   18.40
   2   8  11   11.50   10.40
   3   8  11   18.30   10.60
   3   8  11   33.90   19.10
   4   8  11  593.74   39.10
   4   8  11  609.44   33.00
   5   8  11  943.41   42.50
   5   8  11  869.21   43.30
  -6  -8 -11  361.86   28.30
   6   8  11  397.06   31.40
   6   8  11  345.97   27.10
  -7  -8 -11   23.30    9.60
   7   8  11   28.30   14.80
   7   8  11   23.30   15.90
  -8  -8 -11    8.80   11.20
   8   8  11   -2.50   12.60
   8   8  11   64.79   20.50
   9   8  11   -4.60   15.20
   9   8  11   55.89   22.60
  -1   9  11  -24.80   18.30
   0   9  11   61.59   19.20
   0   9  11  111.89   21.30
   1   9  11   77.69   20.00
   1   9  11  102.29   19.50
   2   9  11  343.37   32.80
   2   9  11  357.26   26.80
   3   9  11   73.99   22.80
   3   9  11   81.99   14.60
   4   9  11   16.00   18.30
   4   9  11   10.40   12.50
   5   9  11   88.09   23.10
   5   9  11   81.39   17.20
   6   9  11   57.59   19.00
   6   9  11   42.60   18.30
   7   9  11   18.00   14.40
   7   9  11   26.10   17.20
   8   9  11   20.50   19.40
   8   9  11    7.90   15.60
   9   9  11    5.60   16.20
  -1  10  11   36.40   22.70
   0  10  11  -21.70   20.60
   1  10  11  -20.90   19.30
   2  10  11  107.19   25.80
   2  10  11  163.58   27.60
   3  10  11   50.89   14.30
   3  10  11   59.49   23.40
   4  10  11   51.59   14.00
   4  10  11   24.50   20.60
   5  10  11   69.59   22.90
   5  10  11   59.29   15.60
   6  10  11  173.18   31.90
   6  10  11   98.59   20.40
   7  10  11   29.90   21.10
   7  10  11   29.10   18.50
   8  10  11   50.39   19.40
   2  11  11    6.90   25.00
   3  11  11    6.60   20.90
   4  11  11   32.90   17.40
   5  11  11    2.50   14.70
   5  11  11   19.60   28.00
   6  11  11   42.40   30.90
   0   8 -12   12.10   15.00
   1   7 -12  171.18   19.30
   0   7 -12   66.79   13.60
  -1   7 -12   -1.80   13.50
   3   6 -12   16.10   22.20
   2   6 -12   35.50   20.40
   1   6 -12   12.40    9.90
   1   6 -12   -4.50   17.70
   0   6 -12   55.39   11.10
   0   6 -12   32.30   20.20
  -1   6 -12  -18.10   17.70
  -1   6 -12   -4.00   11.00
  -2   6 -12    7.40   12.10
  -3   6 -12   -1.40   15.10
  -3   6 -12   43.70   14.90
  -4   6 -12   -2.40   16.20
   4   5 -12   39.60   19.40
   3   5 -12   91.69   19.90
   2   5 -12   19.30   17.20
   1   5 -12  541.55   32.80
   1   5 -12  456.25   22.90
   0   5 -12   28.40   14.10
   0   5 -12   38.90   10.00
  -1   5 -12  128.29   16.50
  -1   5 -12  122.19   18.70
  -2   5 -12  107.99   20.70
  -2   5 -12  121.69   21.80
  -2   5 -12  106.99   14.90
  -3   5 -12   -9.20   10.10
  -3   5 -12   20.90   12.50
  -4   5 -12  101.99   17.20
  -4   5 -12  103.69   16.80
  -5   5 -12  249.48   28.30
   5   4 -12  493.65   35.00
   4   4 -12  536.45   34.90
   3   4 -12   17.00   16.00
   2   4 -12  -11.50   13.80
   1   4 -12   12.30   14.40
   1   4 -12   -0.40   13.40
   0   4 -12  221.88   21.60
   0   4 -12  239.98   17.00
  -1   4 -12  344.77   20.80
  -1   4 -12  302.67   23.50
  -1   4 -12  313.37   26.90
  -2   4 -12   -2.00   15.00
  -2   4 -12    9.70   11.80
  -2   4 -12   18.20    9.50
  -3   4 -12   62.39   16.70
  -3   4 -12   50.59   13.70
  -3   4 -12   52.79   12.40
  -4   4 -12    1.40   12.10
  -4   4 -12   -6.20   12.20
   4  -4  12    5.00   15.70
  -5   4 -12  -14.90   13.30
  -5   4 -12   -3.20   15.50
   6   3 -12  -15.30   13.80
   5   3 -12   19.80   14.30
   4   3 -12  287.27   26.20
   3   3 -12  363.46   27.10
   2   3 -12   61.39   13.50
   1   3 -12   91.59   16.10
   1   3 -12   80.59   10.40
   0   3 -12  -15.00   10.90
   0   3 -12   -1.70    8.40
   0  -3  12   22.80   10.80
  -1   3 -12   21.20    9.00
  -1   3 -12   15.70   12.30
  -2   3 -12  173.38   18.40
  -2   3 -12  140.99   21.50
  -2   3 -12  145.99   15.90
  -3   3 -12  296.67   24.80
  -3   3 -12  291.87   21.40
  -3   3 -12  302.57   27.30
  -4   3 -12   66.99   14.30
  -4   3 -12   52.49   13.10
   4  -3  12   84.29   17.30
  -5   3 -12   20.00   12.40
  -5   3 -12    8.90   12.20
   5  -3  12   10.70   16.30
  -6   3 -12  161.48   22.50
  -6   3 -12  182.78   37.00
   6  -3  12  243.98   35.90
   6   2 -12  262.77   24.70
   5   2 -12   38.20   13.80
   4   2 -12    2.80   12.10
  -4  -2  12    4.10   13.00
   3   2 -12   57.19   13.70
  -3  -2  12   31.40   13.10
   2   2 -12  395.16   26.50
  -2  -2  12  398.26   24.20
   1   2 -12  242.58   20.80
  -1  -2  12  316.27   13.70
  -1  -2  12  268.27   21.40
   0   2 -12   -0.90    7.90
   0   2 -12  -18.70   10.00
   0  -2  12   -6.10    9.30
   0  -2  12   15.10   10.50
  -1   2 -12    8.30   10.90
  -1   2 -12   -1.80    8.90
   1  -2  12   -6.20   11.10
  -2   2 -12  413.46   26.20
  -2   2 -12  403.06   26.30
  -2   2 -12  380.06   22.10
   2  -2  12  425.06   45.20
  -3   2 -12  581.44   31.10
  -3   2 -12  618.84   29.30
  -3   2 -12  564.94   29.90
  -4   2 -12   -3.70   11.70
  -4   2 -12   12.50   10.30
   4  -2  12   24.60   13.40
  -5   2 -12   -1.00   11.90
  -5   2 -12   13.60   12.30
   5  -2  12   10.50   13.10
  -6   2 -12   39.80   14.50
  -6   2 -12   54.39   16.40
   6  -2  12   59.19   16.80
  -7   2 -12  128.39   24.00
   7  -2  12  154.58   28.30
   6   1 -12  159.78   21.20
   5   1 -12  162.68   19.90
   4   1 -12   34.40   11.70
  -4  -1  12   51.99   10.20
   3   1 -12   -3.20   10.50
  -3  -1  12    8.00    9.50
   2   1 -12  160.48   18.70
  -2  -1  12  156.08   23.40
  -2  -1  12  105.09   16.80
   1   1 -12  394.76   23.90
  -1  -1  12  396.76   20.50
  -1  -1  12  371.96   17.30
  -1  -1  12  318.27   27.50
   0   1 -12   36.00   11.30
   0  -1  12   44.70    9.30
   0  -1  12   26.60   10.60
  -1   1 -12   18.20    9.80
   1  -1  12   22.80    9.50
  -2   1 -12   70.39   11.70
  -2   1 -12   80.39   13.80
   2  -1  12   69.59   13.30
  -3   1 -12  324.57   21.30
  -3   1 -12  346.47   24.20
  -3   1 -12  310.87   23.00
   3  -1  12  365.66   26.10
  -4   1 -12  760.92   34.30
  -4   1 -12  723.83   35.10
   4  -1  12  739.83   35.00
  -5   1 -12   -3.60   11.10
  -5   1 -12   19.50   12.70
   5  -1  12   -3.30   10.60
  -6   1 -12  150.98   23.30
  -6   1 -12  205.98   25.50
   6  -1  12  164.48   25.70
  -7   1 -12   -8.20   14.80
  -7   1 -12   25.20   17.60
   7  -1  12   17.30   15.40
   7   0 -12   -3.20   17.00
   6   0 -12   34.70   12.80
   5   0 -12    4.90   11.30
   4   0 -12  -12.10    9.70
  -4   0  12   -8.20   15.80
   3   0 -12    6.00    9.50
  -3   0  12   16.00    7.70
   2   0 -12   21.20   10.50
  -2   0  12   13.70    8.80
  -2   0  12   36.90   24.50
   1   0 -12  981.20   37.10
  -1   0  12  895.11   32.50
  -1   0  12  895.71   32.20
   0   0 -12 1621.34   52.89
   0   0  12 1544.85   55.89
   0   0  12 1569.44   48.90
   0   0  12 1519.55   47.00
  -1   0 -12  484.75   24.50
   1   0  12  507.65   21.10
   1   0  12  479.55   23.90
   1   0  12  476.85   26.30
  -2   0 -12   -5.40    8.90
   2   0  12   19.00   10.00
  -3   0 -12   14.30   10.80
   3   0  12   13.70    9.60
  -4   0 -12   64.59   14.30
  -4   0 -12   56.19   11.50
   4   0  12   41.40   12.10
   4   0  12   70.99   12.20
  -5   0 -12  332.27   23.40
  -5   0 -12  354.06   26.30
   5   0  12  293.87   24.30
  -6   0 -12  284.07   24.60
  -6   0 -12  316.67   26.70
   6   0  12  227.38   25.30
  -7   0 -12   22.90   16.10
  -7   0 -12   12.50   15.10
   7   0  12   -1.70   14.70
  -8   0 -12   19.90   20.60
   8   0  12   26.00   20.10
   7  -1 -12  -28.60   15.20
   6  -1 -12    1.30   12.80
   5  -1 -12  205.48   18.60
  -5   1  12  158.48   27.30
   4  -1 -12  699.03   29.60
  -4   1  12  682.83   40.40
   3  -1 -12  443.36   23.90
  -3   1  12  520.45   30.70
   2  -1 -12  126.79   16.30
  -2   1  12  182.18   22.10
  -2   1  12  160.88   23.80
  -2   1  12  152.08   12.30
   1  -1 -12   -1.40    9.00
  -1   1  12   -2.90   14.70
  -1   1  12    2.90    7.40
  -1   1  12  -13.80    8.60
   0  -1 -12   34.10    8.40
   0   1  12   13.50    7.90
   0   1  12   22.20    6.80
   0   1  12   16.80   13.20
  -1  -1 -12  412.96   21.20
   1   1  12  440.26   19.80
   1   1  12  378.26   19.40
   1   1  12  391.86   24.70
  -2  -1 -12  162.98   15.90
   2   1  12  199.58   17.90
   2   1  12  165.58   14.00
   2   1  12  149.88   16.60
   3   1  12   12.90    6.40
   3   1  12   18.00    8.90
  -4  -1 -12   79.59   14.60
   4   1  12  104.99   16.60
  -5  -1 -12  138.59   18.70
  -5  -1 -12  145.09   19.70
   5   1  12   90.19   14.50
  -6  -1 -12  246.08   26.60
   6   1  12  202.58   22.60
  -7  -1 -12    7.00   16.20
   7   1  12   33.60   13.60
  -8  -1 -12   -3.80   17.00
   8   1  12    3.50   14.90
   9   1  12   53.19   20.10
   6  -2 -12   28.80   13.30
  -6   2  12   -0.30   29.50
   5  -2 -12    0.60   11.00
  -5   2  12  -40.10   22.90
   4  -2 -12   13.10    9.70
  -4   2  12   -8.50   17.50
   3  -2 -12  374.06   21.20
  -3   2  12  467.95   31.00
   2  -2 -12  596.24   26.60
  -2   2  12  660.23   35.70
   1  -2 -12   -5.80    8.00
  -1   2  12    5.50   13.80
  -1   2  12  -14.60    8.40
   0  -2 -12  105.99   12.30
   0   2  12   70.19   11.90
   0   2  12   85.59   12.30
   0   2  12   86.29   17.90
  -1  -2 -12   21.70    7.20
   1   2  12   22.20    5.90
   1   2  12    1.00    8.00
   1   2  12   27.70   11.70
  -2  -2 -12   15.80    6.80
   2   2  12   -4.50    9.50
   2   2  12    0.50    7.70
   2   2  12    1.00    7.20
   3   2  12   82.49   13.40
   3   2  12   98.89   13.90
   3   2  12   76.29   10.90
   3   2  12   74.89   11.30
   4   2  12    1.60    7.70
   4   2  12   18.10    9.80
  -5  -2 -12   58.39   16.70
  -5  -2 -12   75.89   11.90
   5   2  12   64.59   10.20
   5   2  12   52.89   12.70
  -6  -2 -12  729.93   38.30
  -6  -2 -12  732.13   34.70
   6   2  12  706.73   31.80
   6   2  12  657.73   30.40
  -7  -2 -12  937.91   45.60
   7   2  12  867.51   38.10
   7   2  12  876.21   37.90
  -8  -2 -12  294.07   31.60
   8   2  12  228.28   24.20
   8   2  12  219.48   20.70
   9   2  12   45.10   15.60
  -6   3  12  174.58   37.90
  -5   3  12   23.80   26.10
   4  -3 -12   93.49   15.80
  -4   3  12   94.19   23.30
  -3   3  12  173.98   23.90
   2  -3 -12   11.20    8.10
  -2   3  12   15.10   13.30
   1  -3 -12  103.39   12.40
   1  -3 -12   85.99   13.60
  -1   3  12  139.09   24.70
   0   3  12   -6.80   10.00
   0   3  12    1.90   14.70
   0   3  12   22.00    9.50
  -1  -3 -12   21.50    5.80
   1   3  12   11.90    5.00
   1   3  12    0.00   10.90
   1   3  12    1.20   10.20
   2   3  12  358.36   23.90
   2   3  12  338.47   20.90
   2   3  12  370.66   16.70
   3   3  12 1534.25   47.40
   3   3  12 1543.65   55.99
   3   3  12 1515.55   45.80
   3   3  12 1529.25   50.39
   4   3  12  955.50   40.50
   4   3  12 1001.10   33.60
   4   3  12  989.90   37.40
  -5  -3 -12   67.09    9.60
   5   3  12   46.90    9.50
   5   3  12   49.10    9.90
  -6  -3 -12   19.40   14.20
  -6  -3 -12   26.10    9.90
   6   3  12   25.10   10.20
   6   3  12   19.60    9.70
  -7  -3 -12  105.49   20.70
   7   3  12   61.29   11.70
   7   3  12   84.79   13.10
  -8  -3 -12  208.98   27.80
   8   3  12  219.08   20.60
   8   3  12  147.59   19.40
  -9  -3 -12   31.10   24.80
   9   3  12   13.60   13.80
   9   3  12  -11.30   19.50
  10   3  12   -6.60   15.80
  -5   4  12    8.20   28.10
  -4   4  12   -0.70   21.00
  -3   4  12   13.60   14.90
  -2   4  12   60.89   13.70
  -1   4  12  331.07   29.20
  -1   4  12  309.47   20.70
   0  -4 -12   80.69   14.20
   0   4  12   77.29   19.60
   0   4  12  114.29   14.60
   0   4  12   69.89   13.90
  -1  -4 -12   46.90   12.90
   1   4  12   40.60   17.30
   1   4  12   74.79   13.20
   1   4  12   18.70   21.20
   2   4  12    9.90   12.60
   2   4  12    7.60   11.20
   3   4  12   93.99   16.00
   3   4  12   94.89   13.70
   3   4  12   73.99   12.10
   4   4  12 1026.50   43.40
   4   4  12 1045.30   32.10
   4   4  12 1075.79   39.90
  -5  -4 -12  630.94   26.00
   5   4  12  595.94   28.80
   5   4  12  595.44   22.90
  -6  -4 -12   39.20    8.40
   6   4  12   30.40   10.40
   6   4  12   14.20    8.50
  -7  -4 -12  169.38   20.40
  -7  -4 -12  194.38   25.00
   7   4  12  218.18   17.60
   7   4  12  220.98   21.20
  -8  -4 -12   35.90   17.70
   8   4  12   13.10   11.80
   8   4  12   31.90   11.70
  -9  -4 -12   24.30   20.60
   9   4  12  -14.70   11.40
   9   4  12   -6.10   12.80
  10   4  12   29.70   15.80
  -4   5  12  -11.20   22.30
  -3   5  12  -20.80   17.00
  -2   5  12   -2.40   14.20
  -1   5  12   18.10   13.40
  -1   5  12   24.20   13.90
   0   5  12  602.74   38.50
  -1  -5 -12  921.91   38.60
   1   5  12  970.30   36.90
   1   5  12  891.11   45.80
  -2  -5 -12  113.29   14.70
   2   5  12  146.99   24.90
   2   5  12  135.99   18.20
   3   5  12   54.89   15.00
   3   5  12   40.10   10.90
   3   5  12   36.60   13.20
   4   5  12  102.89   17.00
   4   5  12   82.99   16.50
  -5  -5 -12    5.50    7.30
   5   5  12   17.10   10.80
   5   5  12    8.60   10.50
  -6  -5 -12   62.69    9.50
   6   5  12   84.59   14.70
   6   5  12   78.89   13.70
  -7  -5 -12   44.70   10.80
   7   5  12   28.70    9.40
   7   5  12   32.40   13.00
  -8  -5 -12   55.59   20.10
   8   5  12   68.19   12.20
   8   5  12   77.79   14.40
  -9  -5 -12  124.79   26.60
   9   5  12  179.28   22.50
   9   5  12  157.48   19.60
  10   5  12  261.17   24.90
  11   5  12  428.36   35.70
  -3   6  12   35.20   19.50
  -2   6  12   37.10   15.50
  -1   6  12  -18.40   15.40
  -1   6  12   -0.10   13.30
   0   6  12  191.08   25.40
   0   6  12  243.98   21.20
   1   6  12   33.00   10.40
   1   6  12   10.30   16.00
   2   6  12  243.78   21.40
   2   6  12  252.47   28.20
  -3  -6 -12   -0.80   11.10
   3   6  12   -0.30   11.90
   3   6  12   -8.80   14.40
  -4  -6 -12  113.09   18.30
   4   6  12  149.39   21.50
   4   6  12  154.38   19.60
  -5  -6 -12  159.28   12.70
   5   6  12  125.89   18.00
   5   6  12  114.39   20.20
  -6  -6 -12  399.86   20.20
   6   6  12  384.56   25.00
   6   6  12  358.46   25.90
  -7  -6 -12   67.89   13.20
   7   6  12   62.49   16.90
   7   6  12   56.89   16.10
   8   6  12   27.10   14.40
   9   6  12   61.39   17.10
  -2   7  12   97.89   22.10
  -1   7  12  -25.80   16.80
  -1   7  12  -22.80   15.00
   0   7  12  118.89   21.00
   0   7  12   79.69   21.60
   1   7  12  146.89   28.20
   1   7  12  155.88   18.50
   2   7  12  284.77   34.00
   2   7  12  287.57   21.30
   3   7  12    6.70   12.60
   3   7  12   37.80   17.90
   4   7  12   15.00   13.90
   4   7  12   -2.80   14.50
   5   7  12   26.70   16.30
   5   7  12    9.20   12.10
   6   7  12   79.49   15.70
   6   7  12  106.49   19.70
  -7  -7 -12  540.05   26.30
   7   7  12  485.85   33.10
   7   7  12  501.05   32.30
  -8  -7 -12  755.52   38.00
   8   7  12  760.72   39.60
   8   7  12  649.24   38.20
  -1   8  12  -10.50   17.80
  -1   8  12   -8.80   28.30
   0   8  12   -1.90   16.20
   1   8  12    8.10   12.80
   1   8  12  -19.50   15.60
   2   8  12    6.90   18.10
   2   8  12   15.50   11.30
   3   8  12  238.48   22.10
   3   8  12  197.88   30.80
   4   8  12  395.36   37.10
   4   8  12  377.56   26.80
   5   8  12   63.39   17.70
   5   8  12   71.89   18.40
   6   8  12   38.20   18.80
   6   8  12    0.70   13.20
   7   8  12   27.10   14.40
   7   8  12   37.30   18.00
   8   8  12   -0.10   14.80
   8   8  12   42.10   22.50
  -1   9  12   53.79   22.90
   0   9  12   31.00   20.60
   1   9  12  -11.20   16.90
   1   9  12  -20.50   18.70
   2   9  12    1.00   13.60
   2   9  12    0.20   19.30
   3   9  12   58.29   25.00
   3   9  12   62.59   14.60
   4   9  12    9.40   13.70
   4   9  12   30.50   21.00
   5   9  12  312.27   35.10
   5   9  12  362.16   31.00
   6   9  12   43.30   21.60
   6   9  12   69.19   21.20
   7   9  12  177.58   29.10
   7   9  12  146.89   26.40
   8   9  12   32.00   22.20
   0  10  12   12.00   25.20
   1  10  12    0.50   22.60
   2  10  12   38.40   19.30
   3  10  12   76.09   18.10
   4  10  12  193.68   36.60
   4  10  12  203.08   24.80
   5  10  12  300.87   28.90
   5  10  12  306.87   39.40
   6  10  12   16.80   17.10
   6  10  12   21.50   27.30
   0   7 -13    6.20   14.10
  -1   7 -13   11.00   23.30
   0   6 -13   -4.20   11.90
  -1   6 -13   86.39   14.50
  -2   6 -13  188.18   24.50
   3   5 -13   30.60   20.80
   2   5 -13  522.65   37.80
   1   5 -13  626.04   37.30
   0   5 -13  137.29   17.50
   0   5 -13  127.39   22.80
  -1   5 -13  -10.20   11.00
  -1   5 -13   -1.30   18.80
  -2   5 -13   23.40   12.70
  -3   5 -13  140.39   23.40
  -3   5 -13  138.69   20.90
  -4   5 -13  237.08   28.30
   4   4 -13  113.49   22.60
   3   4 -13   25.10   17.90
   2   4 -13   -8.20   16.30
   1   4 -13  116.79   20.60
   0   4 -13  229.08   19.00
   0   4 -13  248.38   26.60
  -1   4 -13   95.59   13.70
  -1   4 -13   68.19   18.50
  -2   4 -13   24.20   16.70
  -2   4 -13   20.00   10.80
  -2   4 -13   17.80   14.80
  -3   4 -13   14.40   12.40
  -3   4 -13    5.00   14.10
  -4   4 -13   15.30   15.00
  -4   4 -13   -2.70   15.80
  -5   4 -13  -13.90   16.80
   5   3 -13   86.49   19.30
   4   3 -13  292.17   25.90
   3   3 -13  350.26   30.10
   2   3 -13    4.70   14.00
   1   3 -13   29.40   13.80
   0   3 -13   73.79   15.60
   0   3 -13   66.49   11.90
  -1   3 -13  140.09   17.90
  -1   3 -13  129.09   21.50
  -2   3 -13  173.78   21.80
  -2   3 -13  155.78   23.10
  -2   3 -13  181.18   18.50
  -3   3 -13   23.80   11.80
  -3   3 -13   26.80   13.60
  -4   3 -13  121.99   23.90
   4  -3  13   84.79   16.60
  -5   3 -13  472.25   32.40
  -5   3 -13  435.96   32.50
   5  -3  13  451.95   33.10
   5   2 -13  123.89   18.80
   4   2 -13    6.10   14.70
   3   2 -13   59.49   15.00
   2   2 -13  166.08   22.10
  -2  -2  13  134.19   21.40
   1   2 -13   -4.80   11.80
  -1  -2  13    4.60   13.10
   0   2 -13   44.50   12.10
   0  -2  13   38.60   21.10
   0  -2  13   52.69   23.10
  -1   2 -13  142.59   19.10
  -1   2 -13  132.59   16.90
   1  -2  13  196.78   20.20
  -2   2 -13  470.55   29.70
  -2   2 -13  505.85   26.30
  -3   2 -13  284.87   26.00
  -3   2 -13  239.48   24.80
  -3   2 -13  253.17   22.10
  -4   2 -13   -0.10   12.80
  -4   2 -13   15.10   13.80
   4  -2  13   21.20   12.20
  -5   2 -13   67.29   16.50
  -5   2 -13   51.79   17.90
   5  -2  13   49.40   16.70
  -6   2 -13  231.98   34.30
  -6   2 -13  216.48   30.00
   6  -2  13  218.58   32.00
   6   1 -13   21.00   16.80
   5   1 -13    7.50   14.30
   4   1 -13   48.80   13.60
   3   1 -13    9.90   12.30
  -3  -1  13   -7.20   10.70
   2   1 -13    5.80   12.10
  -2  -1  13    5.20   11.40
  -2  -1  13   27.60   19.90
   1   1 -13    6.50   11.20
  -1  -1  13   -4.30    9.90
   0   1 -13    7.50   10.70
   0  -1  13    3.60    7.90
   0  -1  13   17.40   13.50
   0  -1  13    8.70    9.20
  -1   1 -13   69.29   13.10
   1  -1  13   62.19   13.30
   1  -1  13   69.69   12.80
  -2   1 -13  405.76   25.00
   2  -1  13  414.56   29.50
  -3   1 -13  999.30   40.00
  -3   1 -13 1025.60   43.10
  -4   1 -13  492.55   29.60
  -4   1 -13  519.25   30.70
   4  -1  13  480.55   29.10
  -5   1 -13   16.30   14.20
  -5   1 -13    5.20   12.90
   5  -1  13   14.20   13.90
  -6   1 -13   63.09   17.80
  -6   1 -13   74.89   19.60
   6  -1  13   66.29   20.10
  -7   1 -13   29.80   33.50
   7  -1  13   60.79   19.40
   6   0 -13   14.50   19.20
   5   0 -13    4.30   12.70
   4   0 -13   15.50   11.90
   3   0 -13   20.90   12.40
   2   0 -13  114.59   18.60
  -2   0  13  100.89   16.70
   1   0 -13  665.73   30.70
  -1   0  13  576.94   37.30
  -1   0  13  588.44   26.80
   0   0 -13  759.72   31.90
   0   0  13  693.83   26.80
   0   0  13  660.93   35.60
   0   0  13  670.83   28.10
  -1   0 -13   42.30   11.00
   1   0  13   60.79   13.10
   1   0  13   55.69   11.00
   1   0  13   91.79   15.10
  -2   0 -13   86.39   13.30
   2   0  13   91.39   15.50
   2   0  13   79.49   13.60
   3   0  13   -7.70   11.20
  -4   0 -13   98.89   18.00
   4   0  13  114.09   18.80
  -5   0 -13  159.08   23.40
  -5   0 -13  148.09   22.00
   5   0  13  103.09   16.90
  -6   0 -13   34.10   17.90
  -6   0 -13   58.59   15.60
   6   0  13   27.80   16.40
  -7   0 -13   64.09   19.10
  -7   0 -13   59.99   23.00
   7   0  13   62.99   18.30
   8   0  13   96.79   24.10
   6  -1 -13   11.20   15.10
   5  -1 -13   41.40   13.20
   4  -1 -13   36.00   12.20
  -4   1  13   18.10   19.30
   3  -1 -13   19.40   11.50
   2  -1 -13   30.00   10.80
  -2   1  13   40.40   15.60
   1  -1 -13   38.20   10.90
  -1   1  13   27.30   14.10
  -1   1  13   40.60   17.20
   0  -1 -13   34.30   10.40
   0   1  13   45.00    9.10
   0   1  13   26.30   16.30
  -1  -1 -13  382.26   24.20
   1   1  13  474.05   20.80
   1   1  13  392.76   25.90
   1   1  13  356.06   23.60
  -2  -1 -13    9.10    9.20
   2   1  13   21.30   11.10
   2   1  13   -5.00    8.10
   2   1  13   20.40    9.70
   3   1  13  223.28   19.80
   3   1  13  213.18   20.50
   3   1  13  210.08   15.20
  -4  -1 -13   43.70   13.80
   4   1  13   28.50    8.40
   4   1  13   22.20   12.20
   4   1  13   38.30   11.80
  -5  -1 -13   23.20   14.40
   5   1  13   17.70   12.30
  -6  -1 -13   26.30   15.00
   6   1  13    0.70   12.50
  -7  -1 -13   17.40   17.90
   7   1  13   -3.10   14.90
   8   1  13   57.39   19.40
  -5   2  13  -27.90   29.70
   4  -2 -13   -3.90   10.70
  -4   2  13   12.50   20.80
   3  -2 -13  222.58   19.20
  -3   2  13  319.07   29.20
   2  -2 -13   10.00   10.20
  -2   2  13   19.30   15.00
   1  -2 -13  317.37   20.00
  -1   2  13  317.57   29.80
   0   2  13  198.48   28.30
   0   2  13  166.68   18.30
  -1  -2 -13   83.99   12.70
   1   2  13  111.29   20.50
   1   2  13   80.49   14.50
   1   2  13   97.29   11.80
  -2  -2 -13   23.80    8.20
   2   2  13   -6.90    8.70
   2   2  13    4.00    9.50
   2   2  13   20.00    8.30
   3   2  13   23.30    8.30
   3   2  13   16.60   10.80
   3   2  13   15.40   10.70
   3   2  13    6.70    9.10
   4   2  13   57.39   11.40
   4   2  13   77.79   13.60
   4   2  13   74.79   14.40
  -5  -2 -13  375.16   27.00
   5   2  13  368.86   21.70
   5   2  13  347.27   24.40
  -6  -2 -13  641.24   39.10
   6   2  13  622.94   31.50
   6   2  13  640.34   29.50
  -7  -2 -13  614.54   40.60
   7   2  13  532.55   28.30
   7   2  13  566.74   31.40
  -8  -2 -13   44.40   27.00
   8   2  13   26.10   16.10
   8   2  13   -2.40   14.70
   9   2  13  -13.40   17.40
  -5   3  13   26.30   31.20
  -4   3  13  329.27   38.40
  -3   3  13  340.37   32.60
  -2   3  13   11.60   14.30
  -1   3  13    9.20   15.60
   0  -3 -13   92.69   12.40
   0   3  13   72.79   19.30
   0   3  13   55.39   12.20
   1   3  13   45.10   15.20
   1   3  13  -19.10   21.00
   2   3  13  170.88   18.60
   2   3  13  230.48   13.70
   2   3  13  181.58   21.90
   3   3  13  116.19   17.70
   3   3  13  181.68   15.10
   3   3  13  165.48   16.20
   3   3  13  170.78   16.00
   4   3  13   17.50   10.30
   4   3  13   12.00    9.50
   4   3  13    4.10    9.40
   4   3  13   16.80    9.20
   5   3  13   10.30    9.30
   5   3  13   29.20   11.80
  -6  -3 -13   14.10   14.30
  -6  -3 -13   24.10   11.60
   6   3  13   19.30   11.10
   6   3  13   13.90   11.10
  -7  -3 -13  117.99   23.60
   7   3  13   81.69   14.70
   7   3  13   81.49   14.10
  -8  -3 -13  186.18   31.70
   8   3  13  117.49   19.70
   8   3  13  186.68   21.80
   9   3  13    7.00   15.80
  10   3  13   98.29   33.90
  -4   4  13   65.49   26.80
  -3   4  13  153.98   29.90
  -2   4  13  195.28   26.00
  -1   4  13   38.90   17.20
   0   4  13   28.20   18.20
   1   4  13   -0.10   11.70
   1   4  13   -5.70   14.30
   2   4  13    8.30   14.00
   3   4  13   56.09   12.50
   3   4  13   58.89   15.60
   4   4  13  691.63   27.10
   4   4  13  621.04   34.90
   4   4  13  648.14   30.70
   5   4  13   44.40   12.50
   5   4  13   57.09   10.90
  -6  -4 -13  507.75   27.50
   6   4  13  474.45   22.70
   6   4  13  473.15   26.70
  -7  -4 -13  102.29   21.40
   7   4  13   83.49   12.80
   7   4  13   83.89   14.70
  -8  -4 -13   34.30   23.40
   8   4  13   14.70   11.70
   8   4  13   -2.00   12.10
   9   4  13   11.60   14.10
  10   4  13   16.50   16.60
  -3   5  13  -15.40   20.40
  -2   5  13   -2.60   15.20
  -1   5  13    1.70   16.20
   0   5  13  231.58   19.90
   1   5  13   41.10   17.30
   1   5  13   44.80   11.50
   2   5  13  320.57   24.20
   2   5  13  344.87   30.50
   3   5  13  394.46   26.60
   3   5  13  406.36   29.50
   4   5  13  185.08   21.70
   4   5  13  220.68   20.00
   5   5  13   -7.70   12.30
   5   5  13   -1.60   10.90
  -6  -5 -13    7.30    9.50
   6   5  13  -17.80   11.00
   6   5  13    1.80   10.20
  -7  -5 -13   54.29   11.70
   7   5  13   72.29   15.90
   8   5  13   97.79   17.60
  -2   6  13   40.50   18.20
  -1   6  13  185.38   28.30
   0   6  13  287.97   33.00
   0   6  13  269.67   24.60
   1   6  13   15.00   19.90
   2   6  13   24.60   18.30
   2   6  13   10.30   11.90
   3   6  13  250.27   31.40
   3   6  13  275.87   24.60
   4   6  13  195.28   23.90
   4   6  13  192.98   24.80
   5   6  13  155.38   23.90
   5   6  13  150.78   21.40
   6   6  13  -22.40   13.10
   6   6  13   12.30   12.00
  -7  -6 -13   33.30   11.00
   7   6  13   19.40   13.40
   7   6  13   -2.20   14.30
   8   6  13   -9.50   14.20
  -1   7  13   65.89   21.50
   0   7  13  422.46   35.30
   0   7  13  426.96   30.70
   1   7  13  666.53   31.60
   1   7  13  486.55   43.50
   2   7  13  189.18   18.90
   2   7  13  120.39   27.10
   3   7  13   46.90   20.80
   3   7  13   15.70   14.00
   4   7  13    1.30   14.50
   4   7  13    6.70   17.70
   5   7  13   14.10   14.70
   5   7  13   23.50   16.10
   6   7  13   36.10   16.20
   6   7  13   -4.00   14.90
   7   7  13   66.79   19.00
   7   7  13   53.39   18.20
   8   7  13  124.99   25.10
   8   7  13   61.09   21.80
   0   8  13  -30.10   19.20
   1   8  13   25.70   15.60
   1   8  13   18.10   23.20
   2   8  13   -1.00   23.60
   3   8  13   20.80   23.60
   3   8  13   18.40   13.10
   4   8  13   36.90   21.70
   4   8  13   22.20   16.00
   5   8  13   89.49   20.80
   5   8  13   97.09   22.60
   6   8  13  147.59   26.40
   6   8  13   95.19   21.90
   7   8  13   79.89   24.60
   7   8  13   44.30   18.50
   0   9  13  -32.70   21.80
   1   9  13  -20.30   19.00
   2   9  13   52.29   16.60
   3   9  13  224.88   23.50
   3   9  13  133.39   34.60
   4   9  13   31.40   24.20
   4   9  13    6.70   14.30
   5   9  13   46.60   17.90
   5   9  13   69.59   26.00
   6   9  13  180.58   42.20
   6   9  13  223.28   29.00
   0  10  13   12.00   33.50
   1  10  13  -16.50   27.40
   2  10  13   56.39   22.70
   3  10  13  197.48   29.20
   4  10  13  398.96   32.70
   5  10  13  160.38   35.00
  -1   6 -14  227.38   24.90
  -1   5 -14   -1.20   13.40
  -2   5 -14   29.00   15.80
   2   4 -14   53.69   18.40
   1   4 -14   53.69   18.30
   0   4 -14   27.00   16.70
  -1   4 -14   39.10   19.70
  -1   4 -14   47.60   13.50
  -2   4 -14   67.69   21.40
  -2   4 -14   37.60   14.60
  -3   4 -14   74.89   18.80
  -3   4 -14   82.79   18.00
  -4   4 -14   57.29   20.60
   4   3 -14   47.50   21.30
   3   3 -14   58.39   19.00
   2   3 -14  203.88   27.30
   1   3 -14   40.60   16.70
   0   3 -14   15.50   13.70
  -1   3 -14  -15.20   11.10
  -1   3 -14   -1.80   14.50
  -2   3 -14   55.49   16.90
  -2   3 -14   37.50   14.10
  -3   3 -14  131.69   25.90
  -3   3 -14   97.89   17.30
  -4   3 -14  114.09   19.70
  -4   3 -14  119.49   20.80
   4  -3  14  179.18   29.00
  -5   3 -14   77.69   22.20
   5   2 -14   59.59   36.70
   4   2 -14   30.80   16.80
   3   2 -14   16.40   16.50
   2   2 -14   50.89   16.60
   1   2 -14  348.27   26.80
   0   2 -14   21.90   13.40
  -1   2 -14  -11.80   12.50
   1  -2  14   27.90   13.60
  -2   2 -14   11.80   14.10
  -2   2 -14    5.90   11.10
   2  -2  14   29.00   11.80
  -3   2 -14   22.70   14.10
  -3   2 -14    9.50   12.60
  -4   2 -14   72.99   17.40
  -4   2 -14   65.79   17.40
   4  -2  14   63.89   16.60
  -5   2 -14  188.08   28.80
  -5   2 -14  198.88   30.30
   5  -2  14  147.39   21.80
   5   1 -14  348.17   30.20
   4   1 -14  186.08   24.30
   3   1 -14   43.30   15.30
   2   1 -14    9.20   12.80
   1   1 -14    8.80   12.00
  -1  -1  14   -9.00   12.90
   0   1 -14  131.19   20.10
   0  -1  14  138.39   21.40
   0  -1  14  168.18   22.30
  -1   1 -14  222.38   21.90
   1  -1  14  251.97   24.90
   1  -1  14  311.57   17.90
  -2   1 -14   83.19   15.00
  -4   1 -14   19.60   11.80
  -4   1 -14    5.10   15.40
   4  -1  14   10.60   13.90
  -5   1 -14  246.58   28.00
  -5   1 -14  234.28   24.80
   5  -1  14  242.28   27.20
  -6   1 -14    6.90   19.70
  -6   1 -14   18.70   30.10
   6  -1  14   -1.00   18.90
   5   0 -14   14.10   15.20
   4   0 -14   91.69   16.80
   3   0 -14  144.99   21.50
   2   0 -14   25.50   13.00
  -2   0  14   15.60   19.50
   1   0 -14    8.10   11.40
  -1   0  14   -9.00   18.10
   0   0 -14   38.20   11.90
   0   0  14   -8.00   17.00
   0   0  14   27.10   10.30
  -1   0 -14  169.28   19.20
   1   0  14  172.78   23.00
   1   0  14  176.08   17.00
  -2   0 -14   63.49   12.80
   2   0  14   87.29   14.60
   2   0  14  102.59   19.10
   3   0  14   38.90    8.80
   3   0  14    0.30   10.20
  -4   0 -14    2.80   13.80
   4   0  14   15.40   12.60
  -5   0 -14  151.88   25.30
   5   0  14  160.18   23.20
  -6   0 -14  196.98   30.50
   6   0  14  120.09   21.80
   7   0  14  -19.30   18.00
   4  -1 -14   -3.40   13.70
   3  -1 -14   31.90   12.90
  -3   1  14   36.10   21.20
   2  -1 -14    1.20   12.30
   1  -1 -14    8.60   11.20
  -1   1  14  -11.40   18.20
   0  -1 -14   20.60   10.00
   0   1  14   -3.40   16.80
  -1  -1 -14  101.79   15.70
   1   1  14   87.39   12.90
   1   1  14  123.19   15.50
   1   1  14  100.89   18.50
  -2  -1 -14  843.02   33.70
   2   1  14  864.21   33.80
   2   1  14  789.32   38.00
   2   1  14  764.52   32.40
   3   1  14  210.48   23.40
   3   1  14  231.48   18.80
   3   1  14  249.28   21.00
   4   1  14   21.80   13.20
   4   1  14   17.20   15.80
   4   1  14   13.10    9.00
  -5  -1 -14   15.90   15.30
   5   1  14    8.50   13.90
   5   1  14   24.60    9.90
  -6  -1 -14   19.00   18.80
   6   1  14   16.50   11.20
   6   1  14   11.70   14.60
  -7  -1 -14   72.69   26.90
   7   1  14   46.70   18.10
   8   1  14  138.29   25.20
  -4   2  14  -45.50   38.50
  -2   2  14  387.16   32.80
   1  -2 -14  834.22   33.30
  -1   2  14  724.03   43.70
   0  -2 -14  226.68   20.00
   0   2  14  195.88   31.20
  -1  -2 -14   36.00    9.90
   1   2  14   39.40   16.50
   2   2  14    3.80   12.20
   2   2  14   -9.10   10.10
   3   2  14   73.29   13.70
   3   2  14   89.09   13.30
   3   2  14  109.59   19.60
   3   2  14   92.69   17.20
   4   2  14  172.98   21.00
   4   2  14  195.38   17.70
   4   2  14  216.48   22.20
   4   2  14  171.98   20.50
   5   2  14   30.80   14.40
   5   2  14    8.50    9.40
   5   2  14  -23.10   12.50
  -6  -2 -14   28.60   16.30
   6   2  14   28.50   14.50
  -7  -2 -14   31.30   21.30
   7   2  14   43.80   15.90
   8   2  14   19.50   19.00
   9   2  14  -32.30   31.20
  -4   3  14   97.49   28.60
  -3   3  14  179.48   34.70
  -1   3  14  349.37   32.00
   0   3  14  343.57   33.90
   1   3  14   -2.60   17.00
   1   3  14  -24.40   13.20
   2   3  14   30.50   12.90
   2   3  14   49.40   16.30
   3   3  14  -10.60   10.10
   3   3  14   -6.00   12.00
   4   3  14   -3.70    9.50
   4   3  14   14.10   11.00
   4   3  14    3.80   13.20
   5   3  14   26.40   11.40
   5   3  14    7.20   11.70
   5   3  14   -3.50   12.20
   6   3  14  -11.50   11.50
   6   3  14    4.20   12.00
  -7  -3 -14   52.79   22.40
   7   3  14    5.30   13.10
   7   3  14   34.00   13.90
   8   3  14    3.30   14.00
   9   3  14  190.88   29.80
  -4   4  14  110.19   53.19
  -3   4  14  261.87   37.00
  -2   4  14   47.90   18.30
  -1   4  14   45.90   17.80
   0   4  14  -13.00   18.10
   1   4  14   39.90   14.10
   1   4  14   29.40   19.80
   2   4  14    8.20   16.70
   3   4  14   28.00   13.60
   3   4  14   -2.10   12.50
   4   4  14    0.60    9.50
   4   4  14    1.90   11.60
   5   4  14  718.43   33.90
   5   4  14  647.94   37.60
   6   4  14  389.66   27.50
   6   4  14  359.26   28.10
   7   4  14  116.59   18.10
  -2   5  14    9.50   17.40
  -1   5  14    7.70   18.30
   0   5  14   72.79   22.70
   1   5  14  114.39   25.20
   1   5  14  182.88   20.10
   2   5  14  171.38   33.00
   2   5  14  180.68   23.90
   3   5  14   63.79   17.40
   3   5  14   82.79   19.20
   4   5  14   28.90   16.90
   4   5  14   61.49   16.00
   5   5  14   35.60   15.10
   5   5  14   30.50   12.80
   6   5  14  147.19   22.60
   6   5  14  180.28   23.40
   7   5  14  249.58   23.70
   7   5  14  166.78   28.70
  -1   6  14   43.90   20.60
   0   6  14   77.79   22.70
   1   6  14   24.10   19.80
   2   6  14  323.17   38.70
   2   6  14  352.66   24.70
   3   6  14  482.65   32.80
   3   6  14  520.35   41.70
   4   6  14  319.97   33.60
   4   6  14  294.27   28.80
   5   6  14   -0.60   14.50
   5   6  14    6.00   16.50
   6   6  14   21.80   15.30
   6   6  14   -5.80   15.50
   7   6  14   17.70   17.00
   7   6  14    0.90   16.30
   0   7  14   98.49   45.60
   1   7  14   25.40   25.50
   2   7  14    8.80   25.40
   3   7  14   25.40   15.40
   3   7  14   17.40   24.60
   4   7  14   92.19   19.10
   4   7  14   80.89   22.90
   5   7  14    2.50   17.00
   5   7  14   -3.00   15.40
   6   7  14   89.29   21.20
   6   7  14  106.39   20.60
   7   7  14   17.70   19.90
   1   8  14   15.20   17.00
   2   8  14   41.60   14.90
   3   8  14   56.09   15.30
   3   8  14   52.49   33.20
   4   8  14   88.59   33.40
   4   8  14   60.79   18.70
   5   8  14   33.20   37.30
   5   8  14   21.90   18.20
   6   8  14   21.90   21.40
   1   9  14  -18.70   21.90
   2   9  14   -8.50   17.70
   3   9  14  173.88   25.40
   4   9  14   -3.60   15.60
   5   9  14   92.29   24.60
  -2   4 -15   25.90   18.40
   2   3 -15  302.67   32.80
   1   3 -15   43.80   18.20
   0   3 -15   21.30   17.10
  -1   3 -15   67.09   19.20
  -2   3 -15  227.38   31.00
  -2   3 -15  157.88   24.10
  -3   3 -15  123.49   20.80
  -4   3 -15    0.60   20.80
   3   2 -15   45.80   20.10
   2   2 -15  565.04   34.80
   1   2 -15  572.74   33.90
   0   2 -15   32.90   14.90
  -1   2 -15   62.59   16.00
  -2   2 -15    1.70   14.90
   2  -2  15   22.10   14.80
  -4   2 -15  195.08   30.70
  -4   2 -15  198.48   27.50
   4  -2  15  208.78   31.60
  -5   2 -15   32.20   26.60
   4   1 -15  113.59   20.80
   3   1 -15    9.00   16.90
   2   1 -15   21.50   16.00
   1   1 -15   57.79   15.70
   0   1 -15  172.18   20.80
  -1   1 -15    9.50   13.10
   1  -1  15   17.20   15.40
  -2   1 -15   43.90   14.40
   2  -1  15   43.60   15.30
   3  -1  15  122.79   19.20
   4  -1  15  394.76   29.80
  -5   1 -15  132.49   25.40
   5  -1  15  134.99   23.00
   4   0 -15  239.88   31.60
   3   0 -15   55.49   16.40
   2   0 -15   22.30   14.70
   1   0 -15  148.59   21.50
   0   0 -15   -5.70   11.20
   0   0  15  -10.90   19.10
  -1   0 -15    0.70   11.70
   1   0  15    1.30   15.90
  -2   0 -15   19.40   11.60
   2   0  15   24.90   13.60
   2   0  15   -6.70   10.70
   3   0  15  108.39   15.50
   4   0  15  360.66   22.30
   4   0  15  291.27   25.80
  -5   0 -15  495.95   36.60
   5   0  15  529.35   33.40
   6   0  15  233.68   34.70
  -1   1  15   11.10   20.30
   0  -1 -15  102.39   17.10
   0   1  15   28.60   21.40
  -1  -1 -15  509.55   26.40
   1   1  15  447.96   33.90
  -2  -1 -15  729.23   31.60
   2   1  15  679.73   31.20
   2   1  15  689.73   37.30
   3   1  15  239.18   20.90
   3   1  15  247.88   25.10
   3   1  15  227.68   30.30
   3   1  15  265.77   24.00
   4   1  15    3.10   12.50
   4   1  15   13.60   14.20
   4   1  15    8.30   11.00
   5   1  15    1.50   11.40
   5   1  15    6.30   16.00
  -6  -1 -15  105.39   23.90
   6   1  15  108.19   17.70
   7   1  15  133.29   23.30
  -2   2  15  360.16   33.80
  -1   2  15   71.39   20.70
   0   2  15  -22.80   19.00
   1   2  15  -23.50   17.60
   2   2  15   20.90   13.10
   2   2  15   37.20   16.00
   3   2  15  335.37   23.10
   3   2  15  362.86   27.80
   4   2  15   55.59   14.10
   4   2  15   63.49   20.20
   4   2  15   50.59   12.50
   5   2  15  171.38   21.70
   5   2  15  208.98   23.60
   5   2  15  223.08   22.10
   6   2  15   16.60   14.70
   6   2  15   47.50   14.80
   7   2  15   32.40   17.30
   8   2  15    0.40   21.10
  -3   3  15   45.10   23.90
  -1   3  15  527.85   40.10
   0   3  15   10.20   20.70
   1   3  15   22.30   20.30
   2   3  15  108.79   20.70
   2   3  15   79.59   18.20
   3   3  15   12.10   12.60
   3   3  15   29.00   15.60
   4   3  15   12.50   14.60
   4   3  15    1.50   11.30
   5   3  15    6.50   12.90
   5   3  15    2.20   14.40
   6   3  15   19.40   14.60
  -3   4  15  -22.00   41.90
  -2   4  15  306.47   36.80
  -1   4  15  261.97   33.30
   0   4  15   20.10   20.70
   1   4  15   71.19   23.70
   2   4  15   11.90   16.00
   2   4  15   20.80   20.20
   3   4  15   -9.30   14.80
   3   4  15    9.90   16.70
   4   4  15  211.68   27.50
   4   4  15  217.48   23.10
   5   4  15  257.87   24.10
   5   4  15  187.38   27.60
   6   4  15   29.10   15.40
   6   4  15   68.39   16.90
  -1   5  15  277.97   36.00
   0   5  15   57.69   23.60
   1   5  15   27.70   23.30
   2   5  15    2.80   22.30
   2   5  15   -3.30   14.70
   3   5  15    8.70   18.00
   3   5  15  -21.20   15.40
   4   5  15   25.30   17.40
   4   5  15   26.90   17.80
   5   5  15  101.19   19.30
   5   5  15  103.09   21.50
   6   5  15  409.86   39.50
   6   5  15  460.25   31.00
   1   6  15   17.10   25.40
   2   6  15  283.87   25.80
   2   6  15  217.28   36.40
   3   6  15  229.28   36.80
   3   6  15  195.98   26.30
   4   6  15  -12.80   17.40
   4   6  15   13.30   22.40
   5   6  15  152.08   27.40
   5   6  15  151.78   23.70
   6   6  15   66.99   21.60
   2   7  15  226.98   25.10
   3   7  15   47.70   16.10
   4   7  15  127.69   22.30
   5   7  15   55.49   21.90
   6   7  15  117.59   27.20
   2   8  15  280.57   28.10
   3   8  15  330.27   28.70
   4   8  15  131.89   22.30
   5   8  15   16.80   19.40
   2   9  15   -9.40   23.90
   2   2 -16  182.58   39.00
   1   2 -16   26.40   17.80
   0   2 -16    7.90   17.90
  -1   2 -16   12.30   17.90
  -2   2 -16   47.20   19.20
   3  -2  16   63.69   31.30
   3   1 -16   86.69   22.30
   2   1 -16   29.20   17.10
   1   1 -16   21.00   15.60
   0   1 -16    0.90   14.60
  -1   1 -16   76.19   16.30
  -2   1 -16   31.70   15.10
   2  -1  16   16.70   17.30
   3  -1  16   52.39   18.00
   4  -1  16   -5.80   19.90
   1   0 -16   33.80   15.30
   0   0 -16   22.10   13.70
  -1   0 -16  -15.30   13.30
   1   0  16   -1.60   19.70
  -2   0 -16   18.60   13.80
   2   0  16    6.50   16.80
   3   0  16  163.08   26.20
   3   0  16  173.88   26.90
   3   0  16  187.68   22.20
   4   0  16  252.67   30.50
   4   0  16  275.17   23.50
   4   0  16  264.87   27.90
   5   0  16  241.18   31.80
   0   1  16  -34.00   23.40
   1   1  16   76.69   23.60
   2   1  16   56.59   18.60
   3   1  16  -10.60   12.70
   3   1  16   35.20   15.30
   4   1  16   45.90   24.80
   4   1  16   37.70   17.40
   4   1  16   37.40   14.40
   5   1  16   -5.00   19.10
   5   1  16  -10.90   24.90
   5   1  16    4.50   15.00
   6   1  16   -4.30   19.40
   7   1  16   28.10   38.20
  -1   2  16   38.60   22.40
   0   2  16  -20.00   23.20
   1   2  16    2.70   21.80
   2   2  16   12.90   19.10
   3   2  16   21.10   13.70
   3   2  16   27.30   17.00
   4   2  16  158.88   27.40
   4   2  16  138.39   19.50
   5   2  16  209.68   32.70
   5   2  16  219.38   25.40
  -1   3  16   72.59   24.20
   0   3  16    9.50   22.50
   1   3  16  253.47   38.40
   2   3  16  200.38   34.30
   3   3  16   54.79   19.80
   3   3  16   26.50   16.10
   4   3  16   14.90   17.80
   5   3  16  -18.30   14.30
   5   3  16   43.50   32.10
  -1   4  16  114.79   27.30
   0   4  16   -7.40   23.60
   1   4  16   -1.80   25.50
   2   4  16  111.59   27.60
   3   4  16   63.29   23.10
   3   4  16   -2.40   18.10
   4   4  16   20.70   19.00
   4   4  16  -24.50   16.10
   5   4  16  -22.10   15.20
   1   5  16    0.60   31.40
   2   5  16    3.30   27.80
   3   5  16  -18.60   26.50
   3   5  16  -21.10   16.80
   5   5  16  -25.70   18.50
   3   6  16   46.20   19.10
   4   6  16  142.79   23.80
   5   6  16   97.99   25.90
   3   7  16   33.60   17.50
   4   7  16   57.09   22.40
   3   8  16  312.57   34.20
   0   1 -17   82.39   19.20
  -1   1 -17  293.47   31.70
   2   0  17  163.98   31.20
   3   0  17   50.69   22.60
   1   1  17    5.30   26.40
   2   1  17  -10.70   22.80
   3   1  17   17.30   22.10
   4   1  17  -27.80   18.20
   0   2  17   16.40   29.10
   1   2  17  -17.40   27.90
   2   2  17    1.20   25.30
   3   2  17  304.47   42.30
   4   2  17  502.15   35.70
   0   3  17   64.09   35.40
   1   3  17  140.79   34.90
   2   3  17    8.80   32.40
   4   3  17   -5.90   18.20
   4   4  17  -13.40   23.30
   4   6  17  -18.50   24.70
   0   0   0    0.00    0.00
_computing_structure_solution     'SHELXT 2014/5 (Sheldrick, 2014)'
;
_shelx_hkl_checksum              66716
_shelx_res_file
;
TITL jsr027_0m_a.res in P-1
    jsr027_0m.res
    created by SHELXL-2018/1 at 13:09:05 on 09-Sep-2019
REM Old TITL jsr027_0m in P-1
REM SHELXT solution in P-1
REM R1 0.087, Rweak 0.004, Alpha 0.054, Orientation as input
REM Formula found by SHELXT: C12 Cl6 Se2
CELL 0.71073 8.6245 9.5342 11.7229 78.332 77.789 66.341
ZERR 4 0.0003 0.0004 0.0005 0.002 0.002 0.002
LATT 1
SFAC C H Cl Se
UNIT 24 20 12 4
EQIV $1 1-X,1-Y,1-Z
L.S. 16 0 0
PLAN  20
SIZE 0.533 0.518 0.345
TEMP -123.15
BIND Se2 Cl1
BIND Se2 Cl3_$1
BIND Se1 Cl4_$1
BIND Se1 Cl4
BOND $H
list 4
fmap 2 53
acta
SHEL 8 0.74
REM <olex2.extras>
REM <HklSrc "%.\\jsr027_0m.hkl">
REM </olex2.extras>
WGHT    0.009500    0.568600
EXTI    0.011401
FVAR       0.51765
SE1   4    0.468731    0.371744    0.377013    11.00000    0.01433    0.01787 =
         0.01336   -0.00121   -0.00342   -0.00551
SE2   4    0.331346    0.827302    0.291232    11.00000    0.01727    0.01849 =
         0.01750    0.00074   -0.00562   -0.00836
CL4   3    0.239556    0.645577    0.463264    11.00000    0.02017    0.02675 =
         0.01385   -0.00281   -0.00125   -0.00996
CL1   3    0.572578    0.550871    0.213255    11.00000    0.01600    0.03201 =
         0.02006   -0.00117    0.00043   -0.01049
CL3   3    0.375547    0.227398    0.532851    11.00000    0.03405    0.03539 =
         0.01969    0.00925   -0.01044   -0.02086
CL2   3    0.675269    0.170967    0.307192    11.00000    0.02344    0.02348 =
         0.03373   -0.00829   -0.00492    0.00284
CL5   3    0.155145    1.028793    0.374429    11.00000    0.04052    0.02155 =
         0.03870   -0.01184   -0.01048   -0.00621
CL6   3    0.445197    0.963733    0.143717    11.00000    0.03135    0.03750 =
         0.03654    0.01460   -0.01162   -0.02350
C1    1    0.300836    0.384034    0.283174    11.00000    0.01838    0.01602 =
         0.01482   -0.00159   -0.00566   -0.00782
C7    1    0.169614    0.822201    0.199302    11.00000    0.01798    0.01393 =
         0.01890    0.00022   -0.00826   -0.00429
C8    1    0.004941    0.841229    0.253902    11.00000    0.01658    0.01991 =
         0.01994   -0.00283   -0.00345   -0.00302
AFIX  43
H8    2   -0.029076    0.855370    0.334641    11.00000   -1.20000
AFIX   0
C2    1    0.132856    0.414016    0.336602    11.00000    0.01986    0.02207 =
         0.01324   -0.00414   -0.00092   -0.00750
AFIX  43
H2    2    0.100984    0.424952    0.417965    11.00000   -1.20000
AFIX   0
C6    1    0.351062    0.366931    0.164879    11.00000    0.01923    0.02853 =
         0.01598   -0.00564    0.00120   -0.00945
AFIX  43
H6    2    0.466331    0.347356    0.129613    11.00000   -1.20000
AFIX   0
C9    1   -0.109450    0.839031    0.186951    11.00000    0.01559    0.02270 =
         0.03131   -0.00115   -0.00839   -0.00486
AFIX  43
H9    2   -0.223387    0.852156    0.222208    11.00000   -1.20000
AFIX   0
C4    1    0.061327    0.409624    0.150566    11.00000    0.02789    0.02359 =
         0.01983    0.00119   -0.01107   -0.01378
AFIX  43
H4    2   -0.021439    0.418381    0.104667    11.00000   -1.20000
AFIX   0
C3    1    0.012976    0.427626    0.269015    11.00000    0.01819    0.02578 =
         0.02233   -0.00184   -0.00363   -0.01046
AFIX  43
H3    2   -0.102844    0.449365    0.303758    11.00000   -1.20000
AFIX   0
C12   1    0.223640    0.798383    0.082821    11.00000    0.01924    0.02769 =
         0.02029   -0.00463   -0.00219   -0.00700
AFIX  43
H12   2    0.337873    0.784085    0.047616    11.00000   -1.20000
AFIX   0
C10   1   -0.058666    0.817974    0.070013    11.00000    0.02798    0.02089 =
         0.03103   -0.00258   -0.01541   -0.00825
AFIX  43
H10   2   -0.138341    0.818728    0.024752    11.00000   -1.20000
AFIX   0
C5    1    0.229045    0.379063    0.099088    11.00000    0.03009    0.03335 =
         0.01503   -0.00622   -0.00193   -0.01536
AFIX  43
H5    2    0.261162    0.366247    0.018056    11.00000   -1.20000
AFIX   0
C11   1    0.107547    0.795770    0.018253    11.00000    0.03387    0.03117 =
         0.01955   -0.00522   -0.00738   -0.00999
AFIX  43
H11   2    0.142480    0.778644   -0.061869    11.00000   -1.20000
AFIX   0
HKLF 4
REM  jsr027_0m_a.res in P-1
REM R1 =  0.0292 for    3470 Fo > 4sig(Fo)  and  0.0484 for all    4426 data
REM    182 parameters refined using      0 restraints
END
WGHT      0.0095      0.5686
REM Highest difference peak  0.462,  deepest hole -0.569,  1-sigma level  0.105
Q1    1   0.2247  0.9787  0.1591  11.00000  0.05    0.46
Q2    1   0.3909  0.7874  0.3786  11.00000  0.05    0.45
Q3    1   0.3632  0.8396  0.4417  11.00000  0.05    0.45
Q4    1   0.2303  0.5370  0.3960  11.00000  0.05    0.45
Q5    1   0.3775  0.3932  0.3114  11.00000  0.05    0.44
Q6    1   0.5846  0.2610  0.3420  11.00000  0.05    0.44
Q7    1   0.5464  0.2416  0.3590  11.00000  0.05    0.43
Q8    1   0.5147  0.0340  0.3712  11.00000  0.05    0.42
Q9    1   0.0874  0.8655  0.2279  11.00000  0.05    0.42
Q10   1   0.2412  0.8340  0.2408  11.00000  0.05    0.41
Q11   1   0.6187  0.1729  0.2921  11.00000  0.05    0.40
Q12   1   0.1195  1.0011  0.1338  11.00000  0.05    0.40
Q13   1   0.0936  0.7147  0.4330  11.00000  0.05    0.39
Q14   1   0.7617  0.1273  0.3788  11.00000  0.05    0.39
Q15   1   0.3063  0.5813  0.4491  11.00000  0.05    0.39
Q16   1   0.1591  0.6780  0.2147  11.00000  0.05    0.39
Q17   1   0.3804  0.2367  0.3201  11.00000  0.05    0.38
Q18   1   0.3781  0.5023  0.3160  11.00000  0.05    0.37
Q19   1   0.5484  0.3205  0.4773  11.00000  0.05    0.37
Q20   1   0.7019  0.1398  0.4820  11.00000  0.05    0.37
;
_shelx_res_checksum              76465
loop_
_space_group_symop_operation_xyz
'x, y, z'
'-x, -y, -z'
loop_
_atom_site_type_symbol
_atom_site_label
_atom_site_fract_x
_atom_site_fract_y
_atom_site_fract_z
_atom_site_U_iso_or_equiv
_atom_site_adp_type
_atom_site_calc_flag
_atom_site_occupancy
Se Se1 0.46873(3) 0.37174(3) 0.37701(2) 0.01526(7) Uani d 1
Se Se2 0.33135(3) 0.82730(3) 0.29123(2) 0.01719(7) Uani d 1
Cl Cl4 0.23956(8) 0.64558(7) 0.46326(5) 0.02005(13) Uani d 1
Cl Cl1 0.57258(8) 0.55087(8) 0.21325(5) 0.02304(14) Uani d 1
Cl Cl3 0.37555(9) 0.22740(8) 0.53285(6) 0.02807(16) Uani d 1
Cl Cl2 0.67527(8) 0.17097(8) 0.30719(6) 0.02984(16) Uani d 1
Cl Cl5 0.15514(9) 1.02879(8) 0.37443(6) 0.03339(17) Uani d 1
Cl Cl6 0.44520(9) 0.96373(8) 0.14372(6) 0.03359(17) Uani d 1
C C1 0.3008(3) 0.3840(3) 0.2832(2) 0.0155(5) Uani d 1
C C7 0.1696(3) 0.8222(3) 0.1993(2) 0.0170(5) Uani d 1
C C8 0.0049(3) 0.8412(3) 0.2539(2) 0.0199(5) Uani d 1
H H8 -0.029076 0.855370 0.334641 0.024 Uiso calc 1
C C2 0.1329(3) 0.4140(3) 0.3366(2) 0.0185(5) Uani d 1
H H2 0.100984 0.424952 0.417965 0.022 Uiso calc 1
C C6 0.3511(3) 0.3669(3) 0.1649(2) 0.0213(5) Uani d 1
H H6 0.466331 0.347356 0.129613 0.026 Uiso calc 1
C C9 -0.1095(3) 0.8390(3) 0.1870(2) 0.0235(6) Uani d 1
H H9 -0.223387 0.852156 0.222208 0.028 Uiso calc 1
C C4 0.0613(3) 0.4096(3) 0.1506(2) 0.0218(6) Uani d 1
H H4 -0.021439 0.418381 0.104667 0.026 Uiso calc 1
C C3 0.0130(3) 0.4276(3) 0.2690(2) 0.0215(6) Uani d 1
H H3 -0.102844 0.449365 0.303758 0.026 Uiso calc 1
C C12 0.2236(3) 0.7984(3) 0.0828(2) 0.0229(6) Uani d 1
H H12 0.337873 0.784085 0.047616 0.027 Uiso calc 1
C C10 -0.0587(3) 0.8180(3) 0.0700(2) 0.0253(6) Uani d 1
H H10 -0.138341 0.818728 0.024752 0.030 Uiso calc 1
C C5 0.2290(3) 0.3791(3) 0.0991(2) 0.0248(6) Uani d 1
H H5 0.261162 0.366247 0.018056 0.030 Uiso calc 1
C C11 0.1075(4) 0.7958(3) 0.0183(2) 0.0281(6) Uani d 1
H H11 0.142480 0.778644 -0.061869 0.034 Uiso calc 1
loop_
_atom_site_aniso_label
_atom_site_aniso_U_11
_atom_site_aniso_U_22
_atom_site_aniso_U_33
_atom_site_aniso_U_12
_atom_site_aniso_U_13
_atom_site_aniso_U_23
Se1 0.01433(13) 0.01787(13) 0.01336(13) -0.00551(10) -0.00342(10) -0.00121(10)
Se2 0.01727(13) 0.01849(14) 0.01750(14) -0.00836(11) -0.00562(10) 0.00074(10)
Cl4 0.0202(3) 0.0267(3) 0.0139(3) -0.0100(3) -0.0013(2) -0.0028(2)
Cl1 0.0160(3) 0.0320(4) 0.0201(3) -0.0105(3) 0.0004(2) -0.0012(3)
Cl3 0.0340(4) 0.0354(4) 0.0197(3) -0.0209(3) -0.0104(3) 0.0092(3)
Cl2 0.0234(3) 0.0235(3) 0.0337(4) 0.0028(3) -0.0049(3) -0.0083(3)
Cl5 0.0405(4) 0.0216(3) 0.0387(4) -0.0062(3) -0.0105(3) -0.0118(3)
Cl6 0.0313(4) 0.0375(4) 0.0365(4) -0.0235(3) -0.0116(3) 0.0146(3)
C1 0.0184(12) 0.0160(12) 0.0148(12) -0.0078(10) -0.0057(10) -0.0016(10)
C7 0.0180(12) 0.0139(12) 0.0189(13) -0.0043(10) -0.0083(10) 0.0002(10)
C8 0.0166(12) 0.0199(13) 0.0199(13) -0.0030(10) -0.0034(10) -0.0028(11)
C2 0.0199(13) 0.0221(13) 0.0132(12) -0.0075(11) -0.0009(10) -0.0041(10)
C6 0.0192(13) 0.0285(14) 0.0160(13) -0.0094(11) 0.0012(10) -0.0056(11)
C9 0.0156(13) 0.0227(14) 0.0313(15) -0.0049(11) -0.0084(11) -0.0011(12)
C4 0.0279(15) 0.0236(14) 0.0198(13) -0.0138(12) -0.0111(11) 0.0012(11)
C3 0.0182(13) 0.0258(14) 0.0223(14) -0.0105(11) -0.0036(11) -0.0018(11)
C12 0.0192(13) 0.0277(14) 0.0203(13) -0.0070(11) -0.0022(11) -0.0046(11)
C10 0.0280(14) 0.0209(14) 0.0310(15) -0.0082(12) -0.0154(12) -0.0026(12)
C5 0.0301(15) 0.0333(16) 0.0150(13) -0.0154(13) -0.0019(11) -0.0062(11)
C11 0.0339(16) 0.0312(16) 0.0195(14) -0.0100(13) -0.0074(12) -0.0052(12)
loop_
_atom_type_symbol
_atom_type_description
_atom_type_scat_dispersion_real
_atom_type_scat_dispersion_imag
_atom_type_scat_source
C C 0.0033 0.0016 'International Tables Vol C Tables 4.2.6.8 and 6.1.1.4'
H H 0.0000 0.0000 'International Tables Vol C Tables 4.2.6.8 and 6.1.1.4'
Cl Cl 0.1484 0.1585 'International Tables Vol C Tables 4.2.6.8 and 6.1.1.4'
Se Se -0.0929 2.2259 'International Tables Vol C Tables 4.2.6.8 and 6.1.1.4'
loop_
_geom_angle_atom_site_label_1
_geom_angle_atom_site_label_2
_geom_angle_atom_site_label_3
_geom_angle_site_symmetry_3
_geom_angle
Cl4 Se1 Cl4 2_666 90.204(17)
Cl1 Se1 Cl4 . 84.71(2)
Cl1 Se1 Cl4 2_666 89.433(18)
Cl3 Se1 Cl4 2_666 87.29(2)
Cl3 Se1 Cl4 . 91.45(2)
Cl3 Se1 Cl1 . 174.95(2)
Cl2 Se1 Cl4 2_666 83.89(2)
Cl2 Se1 Cl4 . 172.03(2)
Cl2 Se1 Cl1 . 89.87(3)
Cl2 Se1 Cl3 . 93.60(3)
C1 Se1 Cl4 . 89.59(7)
C1 Se1 Cl4 2_666 179.21(7)
C1 Se1 Cl1 . 89.78(7)
C1 Se1 Cl3 . 93.48(7)
C1 Se1 Cl2 . 96.25(7)
Cl4 Se2 Cl1 . 84.06(2)
Cl4 Se2 Cl3 2_666 81.751(18)
Cl1 Se2 Cl3 2_666 83.668(19)
Cl5 Se2 Cl4 . 90.83(3)
Cl5 Se2 Cl1 . 172.41(3)
Cl5 Se2 Cl3 2_666 90.06(2)
Cl5 Se2 Cl6 . 94.38(3)
Cl6 Se2 Cl4 . 172.72(3)
Cl6 Se2 Cl1 . 90.24(3)
Cl6 Se2 Cl3 2_666 93.14(2)
C7 Se2 Cl4 . 90.64(7)
C7 Se2 Cl1 . 89.74(7)
C7 Se2 Cl3 2_666 170.39(7)
C7 Se2 Cl5 . 95.94(7)
C7 Se2 Cl6 . 93.87(7)
Se2 Cl4 Se1 . 95.36(2)
Se1 Cl1 Se2 . 95.70(2)
C2 C1 Se1 . 118.78(17)
C6 C1 Se1 . 119.29(18)
C6 C1 C2 . 121.9(2)
C8 C7 Se2 . 118.66(18)
C12 C7 Se2 . 119.06(18)
C12 C7 C8 . 122.3(2)
C7 C8 H8 . 121.0
C7 C8 C9 . 118.0(2)
C9 C8 H8 . 121.0
C1 C2 H2 . 120.7
C3 C2 C1 . 118.7(2)
C3 C2 H2 . 120.7
C1 C6 H6 . 120.8
C1 C6 C5 . 118.4(2)
C5 C6 H6 . 120.8
C8 C9 H9 . 119.7
C10 C9 C8 . 120.5(2)
C10 C9 H9 . 119.7
C3 C4 H4 . 119.8
C5 C4 H4 . 119.8
C5 C4 C3 . 120.3(2)
C2 C3 C4 . 120.2(2)
C2 C3 H3 . 119.9
C4 C3 H3 . 119.9
C7 C12 H12 . 120.7
C7 C12 C11 . 118.6(2)
C11 C12 H12 . 120.7
C9 C10 H10 . 119.8
C9 C10 C11 . 120.3(2)
C11 C10 H10 . 119.8
C6 C5 H5 . 119.8
C4 C5 C6 . 120.5(2)
C4 C5 H5 . 119.8
C12 C11 H11 . 119.9
C10 C11 C12 . 120.3(2)
C10 C11 H11 . 119.9
loop_
_geom_bond_atom_site_label_1
_geom_bond_atom_site_label_2
_geom_bond_site_symmetry_2
_geom_bond_distance
Se1 Cl4 2_666 3.3760(6)
Se1 Cl4 . 2.7975(7)
Se1 Cl1 . 2.5648(7)
Se1 Cl3 . 2.2643(7)
Se1 Cl2 . 2.1881(7)
Se1 C1 . 1.951(2)
Se2 Cl4 . 2.5900(6)
Se2 Cl1 . 2.8070(7)
Se2 Cl3 2_666 3.4099(7)
Se2 Cl5 . 2.1769(7)
Se2 Cl6 . 2.2458(7)
Se2 C7 . 1.955(2)
C1 C2 . 1.389(3)
C1 C6 . 1.385(3)
C7 C8 . 1.384(3)
C7 C12 . 1.380(3)
C8 H8 . 0.9500
C8 C9 . 1.393(3)
C2 H2 . 0.9500
C2 C3 . 1.382(3)
C6 H6 . 0.9500
C6 C5 . 1.388(3)
C9 H9 . 0.9500
C9 C10 . 1.378(4)
C4 H4 . 0.9500
C4 C3 . 1.388(3)
C4 C5 . 1.380(4)
C3 H3 . 0.9500
C12 H12 . 0.9500
C12 C11 . 1.387(3)
C10 H10 . 0.9500
C10 C11 . 1.381(4)
C5 H5 . 0.9500
C11 H11 . 0.9500
